MODEL 1
REMARK VINA RESULT:     -10.6      0.000      0.000
REMARK SMILES CC(C)N(CC1CC1)C(=O)N1CC[C@H](C(=O)OCCOC(=O)c2ccc(-c3c4nc(c(-c5cc(S(=O)(=O)[O-])ccc5F)c5ccc([nH]5)c(-c5cc(S(=O)(=O)[O-])ccc5F)c5nc(c(-c6cc(S(=O)(=O)[O-])ccc6F)c6ccc3[nH]6)C=C5)C=C4)cc2)[C@H]1C
REMARK SMILES IDX 18 1 17 2 15 3 16 4 14 5 11 6 12 7 86 8 13 9 87 10 9 11
REMARK SMILES IDX 10 12 4 13 2 14 1 15 3 16 5 17 6 18 7 19 8 20 19 21 20 22
REMARK SMILES IDX 21 23 22 24 23 25 24 26 85 27 25 28 84 29 26 30 27 31 28 32
REMARK SMILES IDX 78 33 29 34 83 35 77 36 79 37 30 38 82 39 76 40 75 41 31 43
REMARK SMILES IDX 63 44 43 45 62 46 44 47 47 48 61 49 80 50 45 51 46 52 60 54
REMARK SMILES IDX 81 55 48 56 32 57 33 58 41 59 34 60 40 61 42 62 39 63 35 64
REMARK SMILES IDX 36 65 37 66 38 67 64 68 65 69 73 70 66 71 72 72 74 73 71 74
REMARK SMILES IDX 67 75 68 76 69 77 70 78 49 79 50 80 58 81 51 82 57 83 59 84
REMARK SMILES IDX 56 85 52 86 53 87 54 88 55 89
REMARK H PARENT 79 42 47 53
REMARK Flexibility Score: inf
ROOT
ATOM      1  C   UNL A   1      31.279  29.176  24.868  1.00  0.00     0.274 C 
ENDROOT
BRANCH   1   2
ATOM      2  O   UNL A   1      32.217  28.148  24.509  1.00  0.00    -0.462 OA
BRANCH   2   3
ATOM      3  C   UNL A   1      32.403  27.943  23.181  1.00  0.00     0.311 C 
ATOM      4  O   UNL A   1      33.047  28.681  22.444  1.00  0.00    -0.252 OA
BRANCH   3   5
ATOM      5  C   UNL A   1      31.770  26.658  22.678  1.00  0.00     0.123 C 
ATOM      6  N   UNL A   1      32.960  25.002  23.839  1.00  0.00    -0.321 N 
ATOM      7  C   UNL A   1      33.522  25.055  22.483  1.00  0.00     0.122 C 
ATOM      8  C   UNL A   1      31.659  25.676  23.848  1.00  0.00     0.098 C 
ATOM      9  C   UNL A   1      32.562  25.876  21.640  1.00  0.00     0.039 C 
ATOM     10  C   UNL A   1      30.484  24.716  23.600  1.00  0.00     0.032 C 
BRANCH   6  11
ATOM     11  C   UNL A   1      33.827  24.639  24.844  1.00  0.00     0.320 C 
ATOM     12  O   UNL A   1      34.481  25.546  25.381  1.00  0.00    -0.248 OA
BRANCH  11  13
ATOM     13  N   UNL A   1      33.998  23.336  25.272  1.00  0.00    -0.322 N 
BRANCH  13  14
ATOM     14  C   UNL A   1      33.649  23.025  26.683  1.00  0.00     0.080 C 
ATOM     15  C   UNL A   1      32.183  23.317  27.037  1.00  0.00     0.031 C 
ATOM     16  C   UNL A   1      34.057  21.608  27.098  1.00  0.00     0.031 C 
ENDBRANCH  13  14
BRANCH  13  17
ATOM     17  C   UNL A   1      34.603  22.216  24.552  1.00  0.00     0.125 C 
BRANCH  17  18
ATOM     18  C   UNL A   1      35.990  22.524  24.054  1.00  0.00     0.009 C 
ATOM     19  C   UNL A   1      37.070  23.094  24.944  1.00  0.00     0.006 C 
ATOM     20  C   UNL A   1      37.162  21.670  24.482  1.00  0.00     0.006 C 
ENDBRANCH  17  18
ENDBRANCH  13  17
ENDBRANCH  11  13
ENDBRANCH   6  11
ENDBRANCH   3   5
ENDBRANCH   2   3
ENDBRANCH   1   2
BRANCH   1  21
ATOM     21  C   UNL A   1      31.710  29.836  26.175  1.00  0.00     0.275 C 
BRANCH  21  22
ATOM     22  O   UNL A   1      32.995  30.465  26.018  1.00  0.00    -0.458 OA
BRANCH  22  23
ATOM     23  C   UNL A   1      33.315  31.368  26.971  1.00  0.00     0.338 C 
ATOM     24  O   UNL A   1      32.639  32.311  27.359  1.00  0.00    -0.246 OA
BRANCH  23  25
ATOM     25  C   UNL A   1      34.637  31.058  27.529  1.00  0.00     0.060 A 
ATOM     26  C   UNL A   1      34.951  29.746  27.889  1.00  0.00     0.016 A 
ATOM     27  C   UNL A   1      35.522  32.098  27.812  1.00  0.00     0.016 A 
ATOM     28  C   UNL A   1      36.114  29.480  28.606  1.00  0.00     0.010 A 
ATOM     29  C   UNL A   1      36.731  31.813  28.450  1.00  0.00     0.010 A 
ATOM     30  C   UNL A   1      37.025  30.508  28.882  1.00  0.00    -0.014 A 
BRANCH  30  31
ATOM     31  C   UNL A   1      38.274  30.232  29.640  1.00  0.00     0.031 A 
ATOM     32  C   UNL A   1      39.315  29.310  29.063  1.00  0.00     0.074 A 
ATOM     33  C   UNL A   1      38.466  30.789  30.852  1.00  0.00     0.049 A 
ATOM     34  N   UNL A   1      40.368  28.785  29.634  1.00  0.00    -0.248 NA
ATOM     35  C   UNL A   1      39.129  28.913  27.659  1.00  0.00     0.031 C 
ATOM     36  C   UNL A   1      37.555  31.732  31.504  1.00  0.00     0.029 A 
ATOM     37  N   UNL A   1      39.484  30.634  31.758  1.00  0.00    -0.354 N 
ATOM     38  C   UNL A   1      40.949  27.960  28.674  1.00  0.00     0.074 A 
ATOM     39  C   UNL A   1      40.116  28.045  27.492  1.00  0.00     0.031 C 
ATOM     40  C   UNL A   1      38.059  32.077  32.698  1.00  0.00     0.029 A 
ATOM     41  C   UNL A   1      39.284  31.322  32.932  1.00  0.00     0.049 A 
ATOM     42  H   UNL A   1      40.282  30.082  31.585  1.00  0.00     0.167 HD
ATOM     43  C   UNL A   1      42.071  27.203  28.777  1.00  0.00     0.034 A 
ATOM     44  C   UNL A   1      39.978  31.309  34.087  1.00  0.00     0.034 A 
ATOM     45  C   UNL A   1      42.899  27.152  29.957  1.00  0.00     0.049 A 
ATOM     46  C   UNL A   1      41.191  30.426  34.196  1.00  0.00     0.074 A 
ATOM     47  C   UNL A   1      44.065  26.436  30.166  1.00  0.00     0.029 A 
ATOM     48  N   UNL A   1      42.650  27.849  31.134  1.00  0.00    -0.354 N 
ATOM     49  N   UNL A   1      41.703  29.615  33.299  1.00  0.00    -0.248 NA
ATOM     50  C   UNL A   1      41.913  30.450  35.473  1.00  0.00     0.031 C 
ATOM     51  C   UNL A   1      44.488  26.655  31.483  1.00  0.00     0.029 A 
ATOM     52  C   UNL A   1      43.624  27.561  32.077  1.00  0.00     0.049 A 
ATOM     53  H   UNL A   1      41.890  28.460  31.276  1.00  0.00     0.167 HD
ATOM     54  C   UNL A   1      42.820  29.042  33.902  1.00  0.00     0.074 A 
ATOM     55  C   UNL A   1      42.913  29.614  35.231  1.00  0.00     0.031 C 
ATOM     56  C   UNL A   1      43.689  28.128  33.404  1.00  0.00     0.034 A 
BRANCH  43  57
ATOM     57  C   UNL A   1      42.422  26.325  27.599  1.00  0.00     0.023 A 
ATOM     58  C   UNL A   1      41.926  25.015  27.471  1.00  0.00     0.031 A 
ATOM     59  C   UNL A   1      43.302  26.794  26.608  1.00  0.00     0.131 A 
ATOM     60  C   UNL A   1      42.373  24.198  26.421  1.00  0.00     0.055 A 
ATOM     61  C   UNL A   1      43.681  26.001  25.522  1.00  0.00     0.041 A 
ATOM     62  F   UNL A   1      43.823  28.029  26.686  1.00  0.00    -0.206 F 
ATOM     63  C   UNL A   1      43.229  24.689  25.433  1.00  0.00     0.022 A 
BRANCH  60  64
ATOM     64  S   UNL A   1      41.933  22.438  26.445  1.00  0.00     0.124 S 
ATOM     65  O   UNL A   1      42.679  21.932  25.295  1.00  0.00    -0.237 OA
ATOM     66  O   UNL A   1      42.412  22.011  27.754  1.00  0.00    -0.237 OA
ATOM     67  O   UNL A   1      40.480  22.444  26.282  1.00  0.00    -0.744 OA
ENDBRANCH  60  64
ENDBRANCH  43  57
BRANCH  44  68
ATOM     68  C   UNL A   1      39.504  32.107  35.251  1.00  0.00     0.023 A 
ATOM     69  C   UNL A   1      39.944  33.424  35.456  1.00  0.00     0.031 A 
ATOM     70  C   UNL A   1      38.615  31.553  36.190  1.00  0.00     0.131 A 
ATOM     71  C   UNL A   1      39.517  34.133  36.588  1.00  0.00     0.055 A 
ATOM     72  C   UNL A   1      38.156  32.279  37.289  1.00  0.00     0.041 A 
ATOM     73  F   UNL A   1      38.162  30.298  36.037  1.00  0.00    -0.206 F 
ATOM     74  C   UNL A   1      38.615  33.576  37.499  1.00  0.00     0.022 A 
BRANCH  71  75
ATOM     75  S   UNL A   1      40.202  35.785  36.888  1.00  0.00     0.124 S 
ATOM     76  O   UNL A   1      39.633  36.548  35.783  1.00  0.00    -0.237 OA
ATOM     77  O   UNL A   1      39.680  36.093  38.216  1.00  0.00    -0.237 OA
ATOM     78  O   UNL A   1      41.645  35.572  36.823  1.00  0.00    -0.744 OA
ENDBRANCH  71  75
ENDBRANCH  44  68
BRANCH  56  79
ATOM     79  C   UNL A   1      44.835  27.729  34.297  1.00  0.00     0.023 A 
ATOM     80  C   UNL A   1      44.749  26.619  35.155  1.00  0.00     0.031 A 
ATOM     81  C   UNL A   1      46.019  28.486  34.307  1.00  0.00     0.131 A 
ATOM     82  C   UNL A   1      45.808  26.329  36.028  1.00  0.00     0.055 A 
ATOM     83  C   UNL A   1      47.090  28.162  35.140  1.00  0.00     0.041 A 
ATOM     84  F   UNL A   1      46.150  29.558  33.509  1.00  0.00    -0.206 F 
ATOM     85  C   UNL A   1      46.982  27.085  36.015  1.00  0.00     0.022 A 
BRANCH  82  86
ATOM     86  S   UNL A   1      45.598  24.997  37.241  1.00  0.00     0.124 S 
ATOM     87  O   UNL A   1      44.567  24.175  36.615  1.00  0.00    -0.237 OA
ATOM     88  O   UNL A   1      46.933  24.411  37.297  1.00  0.00    -0.237 OA
ATOM     89  O   UNL A   1      45.181  25.700  38.453  1.00  0.00    -0.744 OA
ENDBRANCH  82  86
ENDBRANCH  56  79
ENDBRANCH  30  31
ENDBRANCH  23  25
ENDBRANCH  22  23
ENDBRANCH  21  22
ENDBRANCH   1  21
TORSDOF 19
ENDMDL
MODEL 2
REMARK VINA RESULT:     -10.5      1.612      2.143
REMARK SMILES CC(C)N(CC1CC1)C(=O)N1CC[C@H](C(=O)OCCOC(=O)c2ccc(-c3c4nc(c(-c5cc(S(=O)(=O)[O-])ccc5F)c5ccc([nH]5)c(-c5cc(S(=O)(=O)[O-])ccc5F)c5nc(c(-c6cc(S(=O)(=O)[O-])ccc6F)c6ccc3[nH]6)C=C5)C=C4)cc2)[C@H]1C
REMARK SMILES IDX 18 1 17 2 15 3 16 4 14 5 11 6 12 7 86 8 13 9 87 10 9 11
REMARK SMILES IDX 10 12 4 13 2 14 1 15 3 16 5 17 6 18 7 19 8 20 19 21 20 22
REMARK SMILES IDX 21 23 22 24 23 25 24 26 85 27 25 28 84 29 26 30 27 31 28 32
REMARK SMILES IDX 78 33 29 34 83 35 77 36 79 37 30 38 82 39 76 40 75 41 31 43
REMARK SMILES IDX 63 44 43 45 62 46 44 47 47 48 61 49 80 50 45 51 46 52 60 54
REMARK SMILES IDX 81 55 48 56 32 57 33 58 41 59 34 60 40 61 42 62 39 63 35 64
REMARK SMILES IDX 36 65 37 66 38 67 64 68 65 69 73 70 66 71 72 72 74 73 71 74
REMARK SMILES IDX 67 75 68 76 69 77 70 78 49 79 50 80 58 81 51 82 57 83 59 84
REMARK SMILES IDX 56 85 52 86 53 87 54 88 55 89
REMARK H PARENT 79 42 47 53
REMARK Flexibility Score: inf
ROOT
ATOM      1  C   UNL A   1      31.775  28.928  27.209  1.00  0.00     0.274 C 
ENDROOT
BRANCH   1   2
ATOM      2  O   UNL A   1      32.462  28.035  26.317  1.00  0.00    -0.462 OA
BRANCH   2   3
ATOM      3  C   UNL A   1      31.746  27.575  25.261  1.00  0.00     0.311 C 
ATOM      4  O   UNL A   1      31.828  28.012  24.117  1.00  0.00    -0.252 OA
BRANCH   3   5
ATOM      5  C   UNL A   1      30.843  26.407  25.612  1.00  0.00     0.123 C 
ATOM      6  N   UNL A   1      31.489  24.768  24.061  1.00  0.00    -0.321 N 
ATOM      7  C   UNL A   1      30.242  25.359  23.557  1.00  0.00     0.122 C 
ATOM      8  C   UNL A   1      31.646  25.110  25.477  1.00  0.00     0.098 C 
ATOM      9  C   UNL A   1      29.651  26.175  24.694  1.00  0.00     0.039 C 
ATOM     10  C   UNL A   1      31.062  24.046  26.421  1.00  0.00     0.032 C 
BRANCH   6  11
ATOM     11  C   UNL A   1      32.370  24.305  23.111  1.00  0.00     0.320 C 
ATOM     12  O   UNL A   1      32.550  25.018  22.113  1.00  0.00    -0.248 OA
BRANCH  11  13
ATOM     13  N   UNL A   1      33.049  23.106  23.218  1.00  0.00    -0.322 N 
BRANCH  13  14
ATOM     14  C   UNL A   1      32.240  21.873  23.410  1.00  0.00     0.080 C 
ATOM     15  C   UNL A   1      32.008  21.077  22.116  1.00  0.00     0.031 C 
ATOM     16  C   UNL A   1      32.775  20.980  24.532  1.00  0.00     0.031 C 
ENDBRANCH  13  14
BRANCH  13  17
ATOM     17  C   UNL A   1      34.492  22.882  23.293  1.00  0.00     0.125 C 
BRANCH  17  18
ATOM     18  C   UNL A   1      35.182  23.841  24.226  1.00  0.00     0.009 C 
ATOM     19  C   UNL A   1      35.062  23.747  25.729  1.00  0.00     0.006 C 
ATOM     20  C   UNL A   1      36.356  23.382  25.062  1.00  0.00     0.006 C 
ENDBRANCH  17  18
ENDBRANCH  13  17
ENDBRANCH  11  13
ENDBRANCH   6  11
ENDBRANCH   3   5
ENDBRANCH   2   3
ENDBRANCH   1   2
BRANCH   1  21
ATOM     21  C   UNL A   1      31.727  30.329  26.605  1.00  0.00     0.275 C 
BRANCH  21  22
ATOM     22  O   UNL A   1      33.059  30.817  26.366  1.00  0.00    -0.458 OA
BRANCH  22  23
ATOM     23  C   UNL A   1      33.508  31.729  27.257  1.00  0.00     0.338 C 
ATOM     24  O   UNL A   1      32.936  32.740  27.638  1.00  0.00    -0.246 OA
BRANCH  23  25
ATOM     25  C   UNL A   1      34.831  31.331  27.754  1.00  0.00     0.060 A 
ATOM     26  C   UNL A   1      35.070  30.002  28.111  1.00  0.00     0.016 A 
ATOM     27  C   UNL A   1      35.798  32.308  27.984  1.00  0.00     0.016 A 
ATOM     28  C   UNL A   1      36.246  29.660  28.774  1.00  0.00     0.010 A 
ATOM     29  C   UNL A   1      37.014  31.944  28.567  1.00  0.00     0.010 A 
ATOM     30  C   UNL A   1      37.238  30.625  28.997  1.00  0.00    -0.014 A 
BRANCH  30  31
ATOM     31  C   UNL A   1      38.500  30.267  29.698  1.00  0.00     0.031 A 
ATOM     32  C   UNL A   1      39.453  29.283  29.073  1.00  0.00     0.074 A 
ATOM     33  C   UNL A   1      38.780  30.806  30.899  1.00  0.00     0.049 A 
ATOM     34  N   UNL A   1      40.495  28.691  29.594  1.00  0.00    -0.248 NA
ATOM     35  C   UNL A   1      39.179  28.905  27.678  1.00  0.00     0.031 C 
ATOM     36  C   UNL A   1      37.962  31.803  31.593  1.00  0.00     0.029 A 
ATOM     37  N   UNL A   1      39.827  30.584  31.759  1.00  0.00    -0.354 N 
ATOM     38  C   UNL A   1      40.978  27.835  28.609  1.00  0.00     0.074 A 
ATOM     39  C   UNL A   1      40.100  27.976  27.466  1.00  0.00     0.031 C 
ATOM     40  C   UNL A   1      38.540  32.111  32.764  1.00  0.00     0.029 A 
ATOM     41  C   UNL A   1      39.724  31.278  32.941  1.00  0.00     0.049 A 
ATOM     42  H   UNL A   1      40.580  29.983  31.549  1.00  0.00     0.167 HD
ATOM     43  C   UNL A   1      42.053  27.007  28.659  1.00  0.00     0.034 A 
ATOM     44  C   UNL A   1      40.468  31.217  34.063  1.00  0.00     0.034 A 
ATOM     45  C   UNL A   1      42.929  26.899  29.801  1.00  0.00     0.049 A 
ATOM     46  C   UNL A   1      41.625  30.258  34.116  1.00  0.00     0.074 A 
ATOM     47  C   UNL A   1      44.056  26.110  29.956  1.00  0.00     0.029 A 
ATOM     48  N   UNL A   1      42.778  27.607  30.988  1.00  0.00    -0.354 N 
ATOM     49  N   UNL A   1      42.045  29.420  33.196  1.00  0.00    -0.248 NA
ATOM     50  C   UNL A   1      42.405  30.232  35.359  1.00  0.00     0.031 C 
ATOM     51  C   UNL A   1      44.551  26.297  31.252  1.00  0.00     0.029 A 
ATOM     52  C   UNL A   1      43.774  27.254  31.886  1.00  0.00     0.049 A 
ATOM     53  H   UNL A   1      42.066  28.263  31.166  1.00  0.00     0.167 HD
ATOM     54  C   UNL A   1      43.148  28.776  33.748  1.00  0.00     0.074 A 
ATOM     55  C   UNL A   1      43.337  29.335  35.071  1.00  0.00     0.031 C 
ATOM     56  C   UNL A   1      43.934  27.810  33.209  1.00  0.00     0.034 A 
BRANCH  43  57
ATOM     57  C   UNL A   1      42.295  26.113  27.466  1.00  0.00     0.023 A 
ATOM     58  C   UNL A   1      41.819  24.791  27.417  1.00  0.00     0.031 A 
ATOM     59  C   UNL A   1      43.050  26.582  26.376  1.00  0.00     0.131 A 
ATOM     60  C   UNL A   1      42.168  23.962  26.339  1.00  0.00     0.055 A 
ATOM     61  C   UNL A   1      43.327  25.775  25.270  1.00  0.00     0.041 A 
ATOM     62  F   UNL A   1      43.547  27.829  26.374  1.00  0.00    -0.206 F 
ATOM     63  C   UNL A   1      42.899  24.452  25.254  1.00  0.00     0.022 A 
BRANCH  60  64
ATOM     64  S   UNL A   1      41.775  22.194  26.442  1.00  0.00     0.124 S 
ATOM     65  O   UNL A   1      42.072  21.907  27.843  1.00  0.00    -0.237 OA
ATOM     66  O   UNL A   1      40.366  22.162  26.068  1.00  0.00    -0.237 OA
ATOM     67  O   UNL A   1      42.691  21.582  25.480  1.00  0.00    -0.744 OA
ENDBRANCH  60  64
ENDBRANCH  43  57
BRANCH  44  68
ATOM     68  C   UNL A   1      40.098  32.039  35.249  1.00  0.00     0.023 A 
ATOM     69  C   UNL A   1      39.147  31.589  36.176  1.00  0.00     0.031 A 
ATOM     70  C   UNL A   1      40.682  33.301  35.459  1.00  0.00     0.131 A 
ATOM     71  C   UNL A   1      38.785  32.406  37.257  1.00  0.00     0.055 A 
ATOM     72  C   UNL A   1      40.354  34.091  36.562  1.00  0.00     0.041 A 
ATOM     73  F   UNL A   1      41.601  33.776  34.602  1.00  0.00    -0.206 F 
ATOM     74  C   UNL A   1      39.392  33.648  37.464  1.00  0.00     0.022 A 
BRANCH  71  75
ATOM     75  S   UNL A   1      37.462  31.848  38.365  1.00  0.00     0.124 S 
ATOM     76  O   UNL A   1      38.096  31.978  39.673  1.00  0.00    -0.237 OA
ATOM     77  O   UNL A   1      36.398  32.802  38.070  1.00  0.00    -0.237 OA
ATOM     78  O   UNL A   1      37.207  30.478  37.927  1.00  0.00    -0.744 OA
ENDBRANCH  71  75
ENDBRANCH  44  68
BRANCH  56  79
ATOM     79  C   UNL A   1      45.093  27.336  34.049  1.00  0.00     0.023 A 
ATOM     80  C   UNL A   1      44.992  26.196  34.867  1.00  0.00     0.031 A 
ATOM     81  C   UNL A   1      46.303  28.050  34.050  1.00  0.00     0.131 A 
ATOM     82  C   UNL A   1      46.066  25.835  35.693  1.00  0.00     0.055 A 
ATOM     83  C   UNL A   1      47.387  27.655  34.835  1.00  0.00     0.041 A 
ATOM     84  F   UNL A   1      46.448  29.147  33.289  1.00  0.00    -0.206 F 
ATOM     85  C   UNL A   1      47.267  26.549  35.672  1.00  0.00     0.022 A 
BRANCH  82  86
ATOM     86  S   UNL A   1      45.845  24.465  36.861  1.00  0.00     0.124 S 
ATOM     87  O   UNL A   1      45.968  25.141  38.149  1.00  0.00    -0.237 OA
ATOM     88  O   UNL A   1      44.513  23.976  36.522  1.00  0.00    -0.237 OA
ATOM     89  O   UNL A   1      46.941  23.554  36.532  1.00  0.00    -0.744 OA
ENDBRANCH  82  86
ENDBRANCH  56  79
ENDBRANCH  30  31
ENDBRANCH  23  25
ENDBRANCH  22  23
ENDBRANCH  21  22
ENDBRANCH   1  21
TORSDOF 19
ENDMDL
MODEL 3
REMARK VINA RESULT:     -10.4      4.887     10.080
REMARK SMILES CC(C)N(CC1CC1)C(=O)N1CC[C@H](C(=O)OCCOC(=O)c2ccc(-c3c4nc(c(-c5cc(S(=O)(=O)[O-])ccc5F)c5ccc([nH]5)c(-c5cc(S(=O)(=O)[O-])ccc5F)c5nc(c(-c6cc(S(=O)(=O)[O-])ccc6F)c6ccc3[nH]6)C=C5)C=C4)cc2)[C@H]1C
REMARK SMILES IDX 18 1 17 2 15 3 16 4 14 5 11 6 12 7 86 8 13 9 87 10 9 11
REMARK SMILES IDX 10 12 4 13 2 14 1 15 3 16 5 17 6 18 7 19 8 20 19 21 20 22
REMARK SMILES IDX 21 23 22 24 23 25 24 26 85 27 25 28 84 29 26 30 27 31 28 32
REMARK SMILES IDX 78 33 29 34 83 35 77 36 79 37 30 38 82 39 76 40 75 41 31 43
REMARK SMILES IDX 63 44 43 45 62 46 44 47 47 48 61 49 80 50 45 51 46 52 60 54
REMARK SMILES IDX 81 55 48 56 32 57 33 58 41 59 34 60 40 61 42 62 39 63 35 64
REMARK SMILES IDX 36 65 37 66 38 67 64 68 65 69 73 70 66 71 72 72 74 73 71 74
REMARK SMILES IDX 67 75 68 76 69 77 70 78 49 79 50 80 58 81 51 82 57 83 59 84
REMARK SMILES IDX 56 85 52 86 53 87 54 88 55 89
REMARK H PARENT 79 42 47 53
REMARK Flexibility Score: inf
ROOT
ATOM      1  C   UNL A   1      35.804  21.815  24.282  1.00  0.00     0.274 C 
ENDROOT
BRANCH   1   2
ATOM      2  O   UNL A   1      34.669  21.145  24.856  1.00  0.00    -0.462 OA
BRANCH   2   3
ATOM      3  C   UNL A   1      33.453  21.676  24.575  1.00  0.00     0.311 C 
ATOM      4  O   UNL A   1      32.916  21.647  23.473  1.00  0.00    -0.252 OA
BRANCH   3   5
ATOM      5  C   UNL A   1      32.771  22.286  25.786  1.00  0.00     0.123 C 
ATOM      6  N   UNL A   1      32.366  24.493  25.097  1.00  0.00    -0.321 N 
ATOM      7  C   UNL A   1      33.553  24.531  25.961  1.00  0.00     0.122 C 
ATOM      8  C   UNL A   1      31.661  23.224  25.302  1.00  0.00     0.098 C 
ATOM      9  C   UNL A   1      33.629  23.186  26.663  1.00  0.00     0.039 C 
ATOM     10  C   UNL A   1      30.563  23.313  26.374  1.00  0.00     0.032 C 
BRANCH   6  11
ATOM     11  C   UNL A   1      32.307  25.440  24.101  1.00  0.00     0.320 C 
ATOM     12  O   UNL A   1      32.823  25.148  23.012  1.00  0.00    -0.248 OA
BRANCH  11  13
ATOM     13  N   UNL A   1      31.712  26.679  24.258  1.00  0.00    -0.322 N 
BRANCH  13  14
ATOM     14  C   UNL A   1      30.395  26.896  23.602  1.00  0.00     0.080 C 
ATOM     15  C   UNL A   1      29.220  26.232  24.337  1.00  0.00     0.031 C 
ATOM     16  C   UNL A   1      30.114  28.372  23.308  1.00  0.00     0.031 C 
ENDBRANCH  13  14
BRANCH  13  17
ATOM     17  C   UNL A   1      32.261  27.877  24.891  1.00  0.00     0.125 C 
BRANCH  17  18
ATOM     18  C   UNL A   1      32.103  27.868  26.389  1.00  0.00     0.009 C 
ATOM     19  C   UNL A   1      33.148  28.430  27.324  1.00  0.00     0.006 C 
ATOM     20  C   UNL A   1      31.849  29.157  27.138  1.00  0.00     0.006 C 
ENDBRANCH  17  18
ENDBRANCH  13  17
ENDBRANCH  11  13
ENDBRANCH   6  11
ENDBRANCH   3   5
ENDBRANCH   2   3
ENDBRANCH   1   2
BRANCH   1  21
ATOM     21  C   UNL A   1      37.089  21.105  24.699  1.00  0.00     0.275 C 
BRANCH  21  22
ATOM     22  O   UNL A   1      37.608  21.681  25.912  1.00  0.00    -0.458 OA
BRANCH  22  23
ATOM     23  C   UNL A   1      38.928  21.485  26.125  1.00  0.00     0.338 C 
ATOM     24  O   UNL A   1      39.572  20.468  25.909  1.00  0.00    -0.246 OA
BRANCH  23  25
ATOM     25  C   UNL A   1      39.534  22.710  26.660  1.00  0.00     0.060 A 
ATOM     26  C   UNL A   1      39.143  23.955  26.163  1.00  0.00     0.016 A 
ATOM     27  C   UNL A   1      40.586  22.612  27.569  1.00  0.00     0.016 A 
ATOM     28  C   UNL A   1      39.856  25.099  26.512  1.00  0.00     0.010 A 
ATOM     29  C   UNL A   1      41.240  23.773  27.988  1.00  0.00     0.010 A 
ATOM     30  C   UNL A   1      40.903  25.023  27.440  1.00  0.00    -0.014 A 
BRANCH  30  31
ATOM     31  C   UNL A   1      41.665  26.241  27.825  1.00  0.00     0.031 A 
ATOM     32  C   UNL A   1      41.000  27.316  28.643  1.00  0.00     0.074 A 
ATOM     33  C   UNL A   1      42.942  26.393  27.424  1.00  0.00     0.049 A 
ATOM     34  N   UNL A   1      41.411  28.527  28.916  1.00  0.00    -0.248 NA
ATOM     35  C   UNL A   1      39.686  26.983  29.213  1.00  0.00     0.031 C 
ATOM     36  C   UNL A   1      43.714  25.408  26.665  1.00  0.00     0.029 A 
ATOM     37  N   UNL A   1      43.814  27.440  27.590  1.00  0.00    -0.354 N 
ATOM     38  C   UNL A   1      40.389  29.119  29.652  1.00  0.00     0.074 A 
ATOM     39  C   UNL A   1      39.333  28.134  29.765  1.00  0.00     0.031 C 
ATOM     40  C   UNL A   1      44.944  25.892  26.438  1.00  0.00     0.029 A 
ATOM     41  C   UNL A   1      45.024  27.250  26.964  1.00  0.00     0.049 A 
ATOM     42  H   UNL A   1      43.594  28.250  28.107  1.00  0.00     0.167 HD
ATOM     43  C   UNL A   1      40.340  30.368  30.179  1.00  0.00     0.034 A 
ATOM     44  C   UNL A   1      46.062  28.090  26.787  1.00  0.00     0.034 A 
ATOM     45  C   UNL A   1      41.415  31.326  30.074  1.00  0.00     0.049 A 
ATOM     46  C   UNL A   1      45.968  29.487  27.337  1.00  0.00     0.074 A 
ATOM     47  C   UNL A   1      41.483  32.611  30.584  1.00  0.00     0.029 A 
ATOM     48  N   UNL A   1      42.618  31.101  29.413  1.00  0.00    -0.354 N 
ATOM     49  N   UNL A   1      44.978  30.051  27.991  1.00  0.00    -0.248 NA
ATOM     50  C   UNL A   1      47.126  30.362  27.121  1.00  0.00     0.031 C 
ATOM     51  C   UNL A   1      42.697  33.181  30.185  1.00  0.00     0.029 A 
ATOM     52  C   UNL A   1      43.420  32.230  29.482  1.00  0.00     0.049 A 
ATOM     53  H   UNL A   1      42.864  30.261  28.961  1.00  0.00     0.167 HD
ATOM     54  C   UNL A   1      45.403  31.346  28.275  1.00  0.00     0.074 A 
ATOM     55  C   UNL A   1      46.744  31.471  27.737  1.00  0.00     0.031 C 
ATOM     56  C   UNL A   1      44.746  32.341  28.922  1.00  0.00     0.034 A 
BRANCH  43  57
ATOM     57  C   UNL A   1      39.056  30.783  30.859  1.00  0.00     0.023 A 
ATOM     58  C   UNL A   1      38.047  31.488  30.179  1.00  0.00     0.031 A 
ATOM     59  C   UNL A   1      38.858  30.502  32.222  1.00  0.00     0.131 A 
ATOM     60  C   UNL A   1      36.925  31.953  30.881  1.00  0.00     0.055 A 
ATOM     61  C   UNL A   1      37.702  30.900  32.897  1.00  0.00     0.041 A 
ATOM     62  F   UNL A   1      39.795  29.849  32.928  1.00  0.00    -0.206 F 
ATOM     63  C   UNL A   1      36.734  31.644  32.231  1.00  0.00     0.022 A 
BRANCH  60  64
ATOM     64  S   UNL A   1      35.787  33.091  30.044  1.00  0.00     0.124 S 
ATOM     65  O   UNL A   1      36.575  33.493  28.882  1.00  0.00    -0.237 OA
ATOM     66  O   UNL A   1      34.635  32.239  29.770  1.00  0.00    -0.237 OA
ATOM     67  O   UNL A   1      35.564  34.144  31.032  1.00  0.00    -0.744 OA
ENDBRANCH  60  64
ENDBRANCH  43  57
BRANCH  44  68
ATOM     68  C   UNL A   1      47.249  27.655  26.000  1.00  0.00     0.023 A 
ATOM     69  C   UNL A   1      47.328  27.887  24.618  1.00  0.00     0.031 A 
ATOM     70  C   UNL A   1      48.316  26.980  26.620  1.00  0.00     0.131 A 
ATOM     71  C   UNL A   1      48.437  27.423  23.896  1.00  0.00     0.055 A 
ATOM     72  C   UNL A   1      49.439  26.562  25.904  1.00  0.00     0.041 A 
ATOM     73  F   UNL A   1      48.290  26.737  27.940  1.00  0.00    -0.206 F 
ATOM     74  C   UNL A   1      49.500  26.775  24.531  1.00  0.00     0.022 A 
BRANCH  71  75
ATOM     75  S   UNL A   1      48.449  27.629  22.094  1.00  0.00     0.124 S 
ATOM     76  O   UNL A   1      48.621  26.254  21.639  1.00  0.00    -0.237 OA
ATOM     77  O   UNL A   1      47.140  28.226  21.849  1.00  0.00    -0.237 OA
ATOM     78  O   UNL A   1      49.587  28.513  21.859  1.00  0.00    -0.744 OA
ENDBRANCH  71  75
ENDBRANCH  44  68
BRANCH  56  79
ATOM     79  C   UNL A   1      45.497  33.634  29.112  1.00  0.00     0.023 A 
ATOM     80  C   UNL A   1      45.380  34.696  28.198  1.00  0.00     0.031 A 
ATOM     81  C   UNL A   1      46.361  33.794  30.209  1.00  0.00     0.131 A 
ATOM     82  C   UNL A   1      46.156  35.851  28.368  1.00  0.00     0.055 A 
ATOM     83  C   UNL A   1      47.092  34.967  30.402  1.00  0.00     0.041 A 
ATOM     84  F   UNL A   1      46.511  32.808  31.109  1.00  0.00    -0.206 F 
ATOM     85  C   UNL A   1      47.000  35.998  29.472  1.00  0.00     0.022 A 
BRANCH  82  86
ATOM     86  S   UNL A   1      46.111  37.129  27.083  1.00  0.00     0.124 S 
ATOM     87  O   UNL A   1      46.855  38.218  27.710  1.00  0.00    -0.237 OA
ATOM     88  O   UNL A   1      46.771  36.469  25.962  1.00  0.00    -0.237 OA
ATOM     89  O   UNL A   1      44.683  37.380  26.898  1.00  0.00    -0.744 OA
ENDBRANCH  82  86
ENDBRANCH  56  79
ENDBRANCH  30  31
ENDBRANCH  23  25
ENDBRANCH  22  23
ENDBRANCH  21  22
ENDBRANCH   1  21
TORSDOF 19
ENDMDL
