MODEL 1
REMARK VINA RESULT:     -12.4      0.000      0.000
REMARK SMILES O=C1NC(=O)/C(=C/c2ccc(OCc3cn(-c4ccc(C(=O)OCCOC(=O)c5ccc(-c6c7nc(c(-c8cc(S(=O)(=O)[O-])ccc8F)c8ccc([nH]8)c(-c8cc(S(=O)(=O)[O-])ccc8F)c8nc(c(-c9cc(S(=O)(=O)[O-])ccc9F)c9ccc6[nH]9)C=C8)C=C7)cc5)cc4)nn3)cc2)S1
REMARK SMILES IDX 24 1 23 2 21 3 22 4 20 5 17 6 18 7 93 8 19 9 92 10 16 11
REMARK SMILES IDX 14 12 15 13 95 14 94 15 13 16 12 17 11 18 8 19 9 20 97 21
REMARK SMILES IDX 10 22 96 23 7 24 1 25 2 26 3 27 98 28 4 29 6 31 5 32 25 33
REMARK SMILES IDX 26 34 27 35 28 36 29 37 30 38 91 39 31 40 90 41 32 42 33 43
REMARK SMILES IDX 34 44 84 45 35 46 89 47 83 48 85 49 36 50 88 51 82 52 81 53
REMARK SMILES IDX 37 55 69 56 49 57 68 58 50 59 53 60 67 61 86 62 51 63 52 64
REMARK SMILES IDX 66 66 87 67 54 68 38 69 39 70 47 71 40 72 46 73 48 74 45 75
REMARK SMILES IDX 41 76 42 77 43 78 44 79 70 80 71 81 79 82 72 83 78 84 80 85
REMARK SMILES IDX 77 86 73 87 74 88 75 89 76 90 55 91 56 92 64 93 57 94 63 95
REMARK SMILES IDX 65 96 62 97 58 98 59 99 60 100 61 101
REMARK H PARENT 3 30 85 54 53 65
REMARK Flexibility Score: inf
ROOT
ATOM      1  C   UNL A   1      44.353  18.820  25.278  1.00  0.00     0.275 C 
ENDROOT
BRANCH   1   2
ATOM      2  O   UNL A   1      42.950  19.092  25.157  1.00  0.00    -0.458 OA
BRANCH   2   3
ATOM      3  C   UNL A   1      42.275  19.120  26.333  1.00  0.00     0.338 C 
ATOM      4  O   UNL A   1      42.575  18.531  27.359  1.00  0.00    -0.246 OA
BRANCH   3   5
ATOM      5  C   UNL A   1      41.121  20.041  26.242  1.00  0.00     0.060 A 
ATOM      6  C   UNL A   1      38.939  21.729  25.851  1.00  0.00     0.066 A 
ATOM      7  C   UNL A   1      38.807  20.353  25.616  1.00  0.00     0.029 A 
ATOM      8  C   UNL A   1      40.138  22.251  26.355  1.00  0.00     0.029 A 
ATOM      9  C   UNL A   1      39.907  19.517  25.781  1.00  0.00     0.018 A 
ATOM     10  C   UNL A   1      41.223  21.397  26.574  1.00  0.00     0.018 A 
BRANCH   6  11
ATOM     11  N   UNL A   1      37.869  22.578  25.502  1.00  0.00    -0.220 N 
ATOM     12  C   UNL A   1      35.963  23.389  24.808  1.00  0.00     0.120 A 
ATOM     13  C   UNL A   1      36.827  22.328  24.632  1.00  0.00     0.144 A 
ATOM     14  N   UNL A   1      36.503  24.240  25.733  1.00  0.00    -0.131 NA
ATOM     15  N   UNL A   1      37.648  23.738  26.153  1.00  0.00    -0.062 NA
BRANCH  12  16
ATOM     16  C   UNL A   1      34.589  23.634  24.279  1.00  0.00     0.289 C 
BRANCH  16  17
ATOM     17  O   UNL A   1      34.308  24.987  23.884  1.00  0.00    -0.487 OA
BRANCH  17  18
ATOM     18  C   UNL A   1      33.014  25.428  23.960  1.00  0.00     0.119 A 
ATOM     19  C   UNL A   1      30.416  26.480  23.744  1.00  0.00    -0.024 A 
ATOM     20  C   UNL A   1      30.927  25.659  22.737  1.00  0.00     0.012 A 
ATOM     21  C   UNL A   1      31.175  26.693  24.896  1.00  0.00     0.012 A 
ATOM     22  C   UNL A   1      32.224  25.141  22.845  1.00  0.00     0.047 A 
ATOM     23  C   UNL A   1      32.454  26.145  25.015  1.00  0.00     0.047 A 
BRANCH  19  24
ATOM     24  C   UNL A   1      29.093  27.097  23.610  1.00  0.00     0.029 C 
ATOM     25  O   UNL A   1      28.894  31.591  21.356  1.00  0.00    -0.261 OA
ATOM     26  C   UNL A   1      28.706  30.530  21.909  1.00  0.00     0.290 C 
ATOM     27  N   UNL A   1      27.514  30.087  22.394  1.00  0.00    -0.282 N 
ATOM     28  S   UNL A   1      29.946  29.331  22.219  1.00  0.00    -0.022 SA
ATOM     29  C   UNL A   1      27.482  28.874  23.010  1.00  0.00     0.265 C 
ATOM     30  H   UNL A   1      26.697  30.629  22.302  1.00  0.00     0.174 HD
ATOM     31  C   UNL A   1      28.843  28.275  23.023  1.00  0.00     0.083 C 
ATOM     32  O   UNL A   1      26.485  28.362  23.500  1.00  0.00    -0.268 OA
ENDBRANCH  19  24
ENDBRANCH  17  18
ENDBRANCH  16  17
ENDBRANCH  12  16
ENDBRANCH   6  11
ENDBRANCH   3   5
ENDBRANCH   2   3
ENDBRANCH   1   2
BRANCH   1  33
ATOM     33  C   UNL A   1      45.164  19.627  24.273  1.00  0.00     0.275 C 
BRANCH  33  34
ATOM     34  O   UNL A   1      45.378  20.982  24.683  1.00  0.00    -0.458 OA
BRANCH  34  35
ATOM     35  C   UNL A   1      44.587  21.889  24.062  1.00  0.00     0.338 C 
ATOM     36  O   UNL A   1      44.360  21.964  22.866  1.00  0.00    -0.246 OA
BRANCH  35  37
ATOM     37  C   UNL A   1      44.209  22.945  25.012  1.00  0.00     0.060 A 
ATOM     38  C   UNL A   1      43.459  24.028  24.542  1.00  0.00     0.016 A 
ATOM     39  C   UNL A   1      44.796  22.967  26.285  1.00  0.00     0.016 A 
ATOM     40  C   UNL A   1      43.382  25.174  25.319  1.00  0.00     0.010 A 
ATOM     41  C   UNL A   1      44.734  24.117  27.048  1.00  0.00     0.010 A 
ATOM     42  C   UNL A   1      44.068  25.232  26.545  1.00  0.00    -0.014 A 
BRANCH  42  43
ATOM     43  C   UNL A   1      43.848  26.379  27.420  1.00  0.00     0.031 A 
ATOM     44  C   UNL A   1      44.961  27.355  27.308  1.00  0.00     0.074 A 
ATOM     45  C   UNL A   1      42.718  26.612  28.125  1.00  0.00     0.049 A 
ATOM     46  N   UNL A   1      45.840  27.635  28.210  1.00  0.00    -0.248 NA
ATOM     47  C   UNL A   1      45.279  27.913  25.978  1.00  0.00     0.031 C 
ATOM     48  C   UNL A   1      41.490  25.817  28.127  1.00  0.00     0.029 A 
ATOM     49  N   UNL A   1      42.386  27.666  28.932  1.00  0.00    -0.354 N 
ATOM     50  C   UNL A   1      46.634  28.630  27.652  1.00  0.00     0.074 A 
ATOM     51  C   UNL A   1      46.411  28.568  26.235  1.00  0.00     0.031 C 
ATOM     52  C   UNL A   1      40.490  26.526  28.702  1.00  0.00     0.029 A 
ATOM     53  C   UNL A   1      41.020  27.782  29.213  1.00  0.00     0.049 A 
ATOM     54  H   UNL A   1      43.057  28.294  29.287  1.00  0.00     0.167 HD
ATOM     55  C   UNL A   1      47.132  29.621  28.439  1.00  0.00     0.034 A 
ATOM     56  C   UNL A   1      40.363  28.840  29.782  1.00  0.00     0.034 A 
ATOM     57  C   UNL A   1      47.150  29.209  29.829  1.00  0.00     0.049 A 
ATOM     58  C   UNL A   1      41.376  29.615  30.538  1.00  0.00     0.074 A 
ATOM     59  C   UNL A   1      47.684  28.126  30.506  1.00  0.00     0.029 A 
ATOM     60  N   UNL A   1      46.203  29.741  30.675  1.00  0.00    -0.354 N 
ATOM     61  N   UNL A   1      41.980  29.154  31.596  1.00  0.00    -0.248 NA
ATOM     62  C   UNL A   1      42.083  30.675  29.835  1.00  0.00     0.031 C 
ATOM     63  C   UNL A   1      46.695  27.772  31.472  1.00  0.00     0.029 A 
ATOM     64  C   UNL A   1      45.668  28.715  31.416  1.00  0.00     0.049 A 
ATOM     65  H   UNL A   1      45.953  30.690  30.739  1.00  0.00     0.167 HD
ATOM     66  C   UNL A   1      43.310  29.498  31.421  1.00  0.00     0.074 A 
ATOM     67  C   UNL A   1      43.298  30.515  30.368  1.00  0.00     0.031 C 
ATOM     68  C   UNL A   1      44.311  28.719  31.932  1.00  0.00     0.034 A 
BRANCH  55  69
ATOM     69  C   UNL A   1      47.159  31.080  28.023  1.00  0.00     0.023 A 
ATOM     70  C   UNL A   1      45.964  31.611  27.506  1.00  0.00     0.031 A 
ATOM     71  C   UNL A   1      48.319  31.861  27.809  1.00  0.00     0.131 A 
ATOM     72  C   UNL A   1      45.976  32.772  26.714  1.00  0.00     0.055 A 
ATOM     73  C   UNL A   1      48.312  33.052  27.078  1.00  0.00     0.041 A 
ATOM     74  F   UNL A   1      49.541  31.489  28.205  1.00  0.00    -0.206 F 
ATOM     75  C   UNL A   1      47.143  33.496  26.494  1.00  0.00     0.022 A 
BRANCH  72  76
ATOM     76  S   UNL A   1      44.464  33.209  25.820  1.00  0.00     0.124 S 
ATOM     77  O   UNL A   1      43.821  31.906  25.692  1.00  0.00    -0.237 OA
ATOM     78  O   UNL A   1      43.836  34.152  26.739  1.00  0.00    -0.237 OA
ATOM     79  O   UNL A   1      44.964  33.789  24.577  1.00  0.00    -0.744 OA
ENDBRANCH  72  76
ENDBRANCH  55  69
BRANCH  56  80
ATOM     80  C   UNL A   1      39.011  29.399  29.445  1.00  0.00     0.023 A 
ATOM     81  C   UNL A   1      38.214  30.141  30.358  1.00  0.00     0.031 A 
ATOM     82  C   UNL A   1      38.599  29.437  28.095  1.00  0.00     0.131 A 
ATOM     83  C   UNL A   1      37.082  30.871  29.903  1.00  0.00     0.055 A 
ATOM     84  C   UNL A   1      37.490  30.163  27.653  1.00  0.00     0.041 A 
ATOM     85  F   UNL A   1      39.319  28.841  27.131  1.00  0.00    -0.206 F 
ATOM     86  C   UNL A   1      36.733  30.893  28.552  1.00  0.00     0.022 A 
BRANCH  83  87
ATOM     87  S   UNL A   1      36.076  31.893  31.043  1.00  0.00     0.124 S 
ATOM     88  O   UNL A   1      34.770  31.889  30.397  1.00  0.00    -0.237 OA
ATOM     89  O   UNL A   1      36.183  31.165  32.302  1.00  0.00    -0.237 OA
ATOM     90  O   UNL A   1      36.758  33.188  31.032  1.00  0.00    -0.744 OA
ENDBRANCH  83  87
ENDBRANCH  56  80
BRANCH  68  91
ATOM     91  C   UNL A   1      43.955  27.682  32.984  1.00  0.00     0.023 A 
ATOM     92  C   UNL A   1      43.552  27.954  34.313  1.00  0.00     0.031 A 
ATOM     93  C   UNL A   1      43.973  26.334  32.579  1.00  0.00     0.131 A 
ATOM     94  C   UNL A   1      43.218  26.894  35.183  1.00  0.00     0.055 A 
ATOM     95  C   UNL A   1      43.614  25.293  33.431  1.00  0.00     0.041 A 
ATOM     96  F   UNL A   1      44.330  26.002  31.327  1.00  0.00    -0.206 F 
ATOM     97  C   UNL A   1      43.246  25.568  34.741  1.00  0.00     0.022 A 
BRANCH  94  98
ATOM     98  S   UNL A   1      42.799  27.207  36.930  1.00  0.00     0.124 S 
ATOM     99  O   UNL A   1      42.880  25.889  37.548  1.00  0.00    -0.237 OA
ATOM    100  O   UNL A   1      43.826  28.164  37.334  1.00  0.00    -0.237 OA
ATOM    101  O   UNL A   1      41.446  27.764  36.859  1.00  0.00    -0.744 OA
ENDBRANCH  94  98
ENDBRANCH  68  91
ENDBRANCH  42  43
ENDBRANCH  35  37
ENDBRANCH  34  35
ENDBRANCH  33  34
ENDBRANCH   1  33
TORSDOF 19
ENDMDL
MODEL 2
REMARK VINA RESULT:     -12.4      3.069     10.046
REMARK SMILES O=C1NC(=O)/C(=C/c2ccc(OCc3cn(-c4ccc(C(=O)OCCOC(=O)c5ccc(-c6c7nc(c(-c8cc(S(=O)(=O)[O-])ccc8F)c8ccc([nH]8)c(-c8cc(S(=O)(=O)[O-])ccc8F)c8nc(c(-c9cc(S(=O)(=O)[O-])ccc9F)c9ccc6[nH]9)C=C8)C=C7)cc5)cc4)nn3)cc2)S1
REMARK SMILES IDX 24 1 23 2 21 3 22 4 20 5 17 6 18 7 93 8 19 9 92 10 16 11
REMARK SMILES IDX 14 12 15 13 95 14 94 15 13 16 12 17 11 18 8 19 9 20 97 21
REMARK SMILES IDX 10 22 96 23 7 24 1 25 2 26 3 27 98 28 4 29 6 31 5 32 25 33
REMARK SMILES IDX 26 34 27 35 28 36 29 37 30 38 91 39 31 40 90 41 32 42 33 43
REMARK SMILES IDX 34 44 84 45 35 46 89 47 83 48 85 49 36 50 88 51 82 52 81 53
REMARK SMILES IDX 37 55 69 56 49 57 68 58 50 59 53 60 67 61 86 62 51 63 52 64
REMARK SMILES IDX 66 66 87 67 54 68 38 69 39 70 47 71 40 72 46 73 48 74 45 75
REMARK SMILES IDX 41 76 42 77 43 78 44 79 70 80 71 81 79 82 72 83 78 84 80 85
REMARK SMILES IDX 77 86 73 87 74 88 75 89 76 90 55 91 56 92 64 93 57 94 63 95
REMARK SMILES IDX 65 96 62 97 58 98 59 99 60 100 61 101
REMARK H PARENT 3 30 85 54 53 65
REMARK Flexibility Score: inf
ROOT
ATOM      1  C   UNL A   1      34.775  33.131  30.211  1.00  0.00     0.275 C 
ENDROOT
BRANCH   1   2
ATOM      2  O   UNL A   1      33.947  32.387  29.308  1.00  0.00    -0.458 OA
BRANCH   2   3
ATOM      3  C   UNL A   1      34.508  32.140  28.098  1.00  0.00     0.338 C 
ATOM      4  O   UNL A   1      35.440  32.743  27.591  1.00  0.00    -0.246 OA
BRANCH   3   5
ATOM      5  C   UNL A   1      33.877  30.958  27.470  1.00  0.00     0.060 A 
ATOM      6  C   UNL A   1      32.522  28.754  26.436  1.00  0.00     0.066 A 
ATOM      7  C   UNL A   1      31.932  30.025  26.379  1.00  0.00     0.029 A 
ATOM      8  C   UNL A   1      33.821  28.596  26.939  1.00  0.00     0.029 A 
ATOM      9  C   UNL A   1      32.598  31.118  26.925  1.00  0.00     0.018 A 
ATOM     10  C   UNL A   1      34.508  29.709  27.433  1.00  0.00     0.018 A 
BRANCH   6  11
ATOM     11  N   UNL A   1      31.755  27.637  26.045  1.00  0.00    -0.220 N 
ATOM     12  C   UNL A   1      30.868  25.972  24.945  1.00  0.00     0.120 A 
ATOM     13  C   UNL A   1      31.471  27.200  24.767  1.00  0.00     0.144 A 
ATOM     14  N   UNL A   1      30.783  25.720  26.287  1.00  0.00    -0.131 NA
ATOM     15  N   UNL A   1      31.329  26.726  26.943  1.00  0.00    -0.062 NA
BRANCH  12  16
ATOM     16  C   UNL A   1      30.466  24.925  23.960  1.00  0.00     0.289 C 
BRANCH  16  17
ATOM     17  O   UNL A   1      30.560  23.568  24.424  1.00  0.00    -0.487 OA
BRANCH  17  18
ATOM     18  C   UNL A   1      31.784  22.955  24.385  1.00  0.00     0.119 A 
ATOM     19  C   UNL A   1      34.335  21.814  24.691  1.00  0.00    -0.024 A 
ATOM     20  C   UNL A   1      33.326  21.535  25.615  1.00  0.00     0.012 A 
ATOM     21  C   UNL A   1      34.034  22.589  23.570  1.00  0.00     0.012 A 
ATOM     22  C   UNL A   1      32.057  22.109  25.462  1.00  0.00     0.047 A 
ATOM     23  C   UNL A   1      32.757  23.131  23.404  1.00  0.00     0.047 A 
BRANCH  19  24
ATOM     24  C   UNL A   1      35.691  21.288  24.879  1.00  0.00     0.029 C 
ATOM     25  O   UNL A   1      39.154  24.491  26.628  1.00  0.00    -0.261 OA
ATOM     26  C   UNL A   1      38.497  23.562  26.217  1.00  0.00     0.290 C 
ATOM     27  N   UNL A   1      38.976  22.328  25.897  1.00  0.00    -0.282 N 
ATOM     28  S   UNL A   1      36.769  23.610  25.927  1.00  0.00    -0.022 SA
ATOM     29  C   UNL A   1      38.099  21.400  25.425  1.00  0.00     0.265 C 
ATOM     30  H   UNL A   1      39.931  22.113  26.005  1.00  0.00     0.174 HD
ATOM     31  C   UNL A   1      36.734  21.984  25.352  1.00  0.00     0.083 C 
ATOM     32  O   UNL A   1      38.395  20.262  25.091  1.00  0.00    -0.268 OA
ENDBRANCH  19  24
ENDBRANCH  17  18
ENDBRANCH  16  17
ENDBRANCH  12  16
ENDBRANCH   6  11
ENDBRANCH   3   5
ENDBRANCH   2   3
ENDBRANCH   1   2
BRANCH   1  33
ATOM     33  C   UNL A   1      34.965  32.390  31.528  1.00  0.00     0.275 C 
BRANCH  33  34
ATOM     34  O   UNL A   1      35.824  31.250  31.412  1.00  0.00    -0.458 OA
BRANCH  34  35
ATOM     35  C   UNL A   1      36.693  31.094  32.439  1.00  0.00     0.338 C 
ATOM     36  O   UNL A   1      36.604  31.582  33.554  1.00  0.00    -0.246 OA
BRANCH  35  37
ATOM     37  C   UNL A   1      37.913  30.432  31.955  1.00  0.00     0.060 A 
ATOM     38  C   UNL A   1      37.940  29.035  31.907  1.00  0.00     0.016 A 
ATOM     39  C   UNL A   1      39.082  31.187  31.781  1.00  0.00     0.016 A 
ATOM     40  C   UNL A   1      39.163  28.395  31.780  1.00  0.00     0.010 A 
ATOM     41  C   UNL A   1      40.301  30.547  31.675  1.00  0.00     0.010 A 
ATOM     42  C   UNL A   1      40.344  29.155  31.721  1.00  0.00    -0.014 A 
BRANCH  42  43
ATOM     43  C   UNL A   1      41.603  28.477  31.429  1.00  0.00     0.031 A 
ATOM     44  C   UNL A   1      42.389  28.255  32.669  1.00  0.00     0.074 A 
ATOM     45  C   UNL A   1      41.952  27.972  30.225  1.00  0.00     0.049 A 
ATOM     46  N   UNL A   1      43.500  28.825  32.996  1.00  0.00    -0.248 NA
ATOM     47  C   UNL A   1      41.766  27.499  33.774  1.00  0.00     0.031 C 
ATOM     48  C   UNL A   1      41.149  27.954  29.001  1.00  0.00     0.029 A 
ATOM     49  N   UNL A   1      43.073  27.283  29.850  1.00  0.00    -0.354 N 
ATOM     50  C   UNL A   1      43.858  28.260  34.213  1.00  0.00     0.074 A 
ATOM     51  C   UNL A   1      42.662  27.671  34.746  1.00  0.00     0.031 C 
ATOM     52  C   UNL A   1      41.704  27.101  28.107  1.00  0.00     0.029 A 
ATOM     53  C   UNL A   1      42.960  26.592  28.639  1.00  0.00     0.049 A 
ATOM     54  H   UNL A   1      43.896  27.275  30.391  1.00  0.00     0.167 HD
ATOM     55  C   UNL A   1      45.170  28.041  34.500  1.00  0.00     0.034 A 
ATOM     56  C   UNL A   1      43.804  25.644  28.126  1.00  0.00     0.034 A 
ATOM     57  C   UNL A   1      46.019  28.881  33.678  1.00  0.00     0.049 A 
ATOM     58  C   UNL A   1      45.120  25.846  28.780  1.00  0.00     0.074 A 
ATOM     59  C   UNL A   1      46.089  30.243  33.442  1.00  0.00     0.029 A 
ATOM     60  N   UNL A   1      46.698  28.292  32.635  1.00  0.00    -0.354 N 
ATOM     61  N   UNL A   1      45.855  26.904  28.586  1.00  0.00    -0.248 NA
ATOM     62  C   UNL A   1      45.376  25.133  30.022  1.00  0.00     0.031 C 
ATOM     63  C   UNL A   1      46.350  30.361  32.044  1.00  0.00     0.029 A 
ATOM     64  C   UNL A   1      46.539  29.081  31.521  1.00  0.00     0.049 A 
ATOM     65  H   UNL A   1      47.209  27.452  32.679  1.00  0.00     0.167 HD
ATOM     66  C   UNL A   1      46.298  27.260  29.849  1.00  0.00     0.074 A 
ATOM     67  C   UNL A   1      46.052  26.080  30.679  1.00  0.00     0.031 C 
ATOM     68  C   UNL A   1      46.547  28.568  30.164  1.00  0.00     0.034 A 
BRANCH  55  69
ATOM     69  C   UNL A   1      45.676  26.774  35.163  1.00  0.00     0.023 A 
ATOM     70  C   UNL A   1      45.487  25.573  34.456  1.00  0.00     0.031 A 
ATOM     71  C   UNL A   1      46.026  26.633  36.527  1.00  0.00     0.131 A 
ATOM     72  C   UNL A   1      45.515  24.335  35.121  1.00  0.00     0.055 A 
ATOM     73  C   UNL A   1      46.119  25.394  37.166  1.00  0.00     0.041 A 
ATOM     74  F   UNL A   1      46.210  27.670  37.351  1.00  0.00    -0.206 F 
ATOM     75  C   UNL A   1      45.827  24.237  36.473  1.00  0.00     0.022 A 
BRANCH  72  76
ATOM     76  S   UNL A   1      44.945  22.872  34.221  1.00  0.00     0.124 S 
ATOM     77  O   UNL A   1      46.156  22.060  34.199  1.00  0.00    -0.237 OA
ATOM     78  O   UNL A   1      43.864  22.397  35.078  1.00  0.00    -0.237 OA
ATOM     79  O   UNL A   1      44.526  23.413  32.930  1.00  0.00    -0.744 OA
ENDBRANCH  72  76
ENDBRANCH  55  69
BRANCH  56  80
ATOM     80  C   UNL A   1      43.465  24.389  27.374  1.00  0.00     0.023 A 
ATOM     81  C   UNL A   1      44.246  23.876  26.304  1.00  0.00     0.031 A 
ATOM     82  C   UNL A   1      42.486  23.517  27.898  1.00  0.00     0.131 A 
ATOM     83  C   UNL A   1      44.032  22.555  25.821  1.00  0.00     0.055 A 
ATOM     84  C   UNL A   1      42.285  22.218  27.422  1.00  0.00     0.041 A 
ATOM     85  F   UNL A   1      41.743  23.863  28.960  1.00  0.00    -0.206 F 
ATOM     86  C   UNL A   1      43.064  21.727  26.391  1.00  0.00     0.022 A 
BRANCH  83  87
ATOM     87  S   UNL A   1      45.067  21.840  24.491  1.00  0.00     0.124 S 
ATOM     88  O   UNL A   1      44.313  20.651  24.111  1.00  0.00    -0.237 OA
ATOM     89  O   UNL A   1      45.120  22.919  23.511  1.00  0.00    -0.237 OA
ATOM     90  O   UNL A   1      46.341  21.566  25.160  1.00  0.00    -0.744 OA
ENDBRANCH  83  87
ENDBRANCH  56  80
BRANCH  68  91
ATOM     91  C   UNL A   1      46.675  29.573  29.032  1.00  0.00     0.023 A 
ATOM     92  C   UNL A   1      45.604  30.252  28.401  1.00  0.00     0.031 A 
ATOM     93  C   UNL A   1      47.979  29.900  28.617  1.00  0.00     0.131 A 
ATOM     94  C   UNL A   1      45.864  31.189  27.379  1.00  0.00     0.055 A 
ATOM     95  C   UNL A   1      48.233  30.848  27.628  1.00  0.00     0.041 A 
ATOM     96  F   UNL A   1      49.044  29.308  29.182  1.00  0.00    -0.206 F 
ATOM     97  C   UNL A   1      47.175  31.488  26.997  1.00  0.00     0.022 A 
BRANCH  94  98
ATOM     98  S   UNL A   1      44.502  31.998  26.475  1.00  0.00     0.124 S 
ATOM     99  O   UNL A   1      45.143  32.519  25.274  1.00  0.00    -0.237 OA
ATOM    100  O   UNL A   1      43.563  30.899  26.271  1.00  0.00    -0.237 OA
ATOM    101  O   UNL A   1      44.038  33.025  27.411  1.00  0.00    -0.744 OA
ENDBRANCH  94  98
ENDBRANCH  68  91
ENDBRANCH  42  43
ENDBRANCH  35  37
ENDBRANCH  34  35
ENDBRANCH  33  34
ENDBRANCH   1  33
TORSDOF 19
ENDMDL
MODEL 3
REMARK VINA RESULT:     -12.4      3.087      4.147
REMARK SMILES O=C1NC(=O)/C(=C/c2ccc(OCc3cn(-c4ccc(C(=O)OCCOC(=O)c5ccc(-c6c7nc(c(-c8cc(S(=O)(=O)[O-])ccc8F)c8ccc([nH]8)c(-c8cc(S(=O)(=O)[O-])ccc8F)c8nc(c(-c9cc(S(=O)(=O)[O-])ccc9F)c9ccc6[nH]9)C=C8)C=C7)cc5)cc4)nn3)cc2)S1
REMARK SMILES IDX 24 1 23 2 21 3 22 4 20 5 17 6 18 7 93 8 19 9 92 10 16 11
REMARK SMILES IDX 14 12 15 13 95 14 94 15 13 16 12 17 11 18 8 19 9 20 97 21
REMARK SMILES IDX 10 22 96 23 7 24 1 25 2 26 3 27 98 28 4 29 6 31 5 32 25 33
REMARK SMILES IDX 26 34 27 35 28 36 29 37 30 38 91 39 31 40 90 41 32 42 33 43
REMARK SMILES IDX 34 44 84 45 35 46 89 47 83 48 85 49 36 50 88 51 82 52 81 53
REMARK SMILES IDX 37 55 69 56 49 57 68 58 50 59 53 60 67 61 86 62 51 63 52 64
REMARK SMILES IDX 66 66 87 67 54 68 38 69 39 70 47 71 40 72 46 73 48 74 45 75
REMARK SMILES IDX 41 76 42 77 43 78 44 79 70 80 71 81 79 82 72 83 78 84 80 85
REMARK SMILES IDX 77 86 73 87 74 88 75 89 76 90 55 91 56 92 64 93 57 94 63 95
REMARK SMILES IDX 65 96 62 97 58 98 59 99 60 100 61 101
REMARK H PARENT 3 30 85 54 53 65
REMARK Flexibility Score: inf
ROOT
ATOM      1  C   UNL A   1      42.472  21.255  26.176  1.00  0.00     0.275 C 
ENDROOT
BRANCH   1   2
ATOM      2  O   UNL A   1      41.153  21.542  25.690  1.00  0.00    -0.458 OA
BRANCH   2   3
ATOM      3  C   UNL A   1      40.212  21.684  26.656  1.00  0.00     0.338 C 
ATOM      4  O   UNL A   1      40.397  21.651  27.863  1.00  0.00    -0.246 OA
BRANCH   3   5
ATOM      5  C   UNL A   1      38.892  21.966  26.051  1.00  0.00     0.060 A 
ATOM      6  C   UNL A   1      36.498  22.450  24.711  1.00  0.00     0.066 A 
ATOM      7  C   UNL A   1      37.062  21.166  24.690  1.00  0.00     0.029 A 
ATOM      8  C   UNL A   1      37.089  23.472  25.466  1.00  0.00     0.029 A 
ATOM      9  C   UNL A   1      38.274  20.936  25.333  1.00  0.00     0.018 A 
ATOM     10  C   UNL A   1      38.277  23.219  26.157  1.00  0.00     0.018 A 
BRANCH   6  11
ATOM     11  N   UNL A   1      35.370  22.703  23.904  1.00  0.00    -0.220 N 
ATOM     12  C   UNL A   1      33.359  23.137  23.170  1.00  0.00     0.120 A 
ATOM     13  C   UNL A   1      34.036  22.576  24.233  1.00  0.00     0.144 A 
ATOM     14  N   UNL A   1      34.275  23.552  22.242  1.00  0.00    -0.131 NA
ATOM     15  N   UNL A   1      35.486  23.295  22.697  1.00  0.00    -0.062 NA
BRANCH  12  16
ATOM     16  C   UNL A   1      31.911  23.447  22.982  1.00  0.00     0.289 C 
BRANCH  16  17
ATOM     17  O   UNL A   1      31.165  23.681  24.187  1.00  0.00    -0.487 OA
BRANCH  17  18
ATOM     18  C   UNL A   1      31.125  24.955  24.687  1.00  0.00     0.119 A 
ATOM     19  C   UNL A   1      31.372  27.640  25.484  1.00  0.00    -0.024 A 
ATOM     20  C   UNL A   1      31.365  27.308  24.127  1.00  0.00     0.012 A 
ATOM     21  C   UNL A   1      31.163  26.635  26.430  1.00  0.00     0.012 A 
ATOM     22  C   UNL A   1      31.247  25.969  23.734  1.00  0.00     0.047 A 
ATOM     23  C   UNL A   1      31.011  25.305  26.030  1.00  0.00     0.047 A 
BRANCH  19  24
ATOM     24  C   UNL A   1      31.577  29.025  25.916  1.00  0.00     0.029 C 
ATOM     25  O   UNL A   1      36.035  30.138  27.964  1.00  0.00    -0.261 OA
ATOM     26  C   UNL A   1      34.917  30.102  27.501  1.00  0.00     0.290 C 
ATOM     27  N   UNL A   1      34.022  31.127  27.503  1.00  0.00    -0.282 N 
ATOM     28  S   UNL A   1      34.199  28.699  26.734  1.00  0.00    -0.022 SA
ATOM     29  C   UNL A   1      32.794  30.909  26.958  1.00  0.00     0.265 C 
ATOM     30  H   UNL A   1      34.256  32.002  27.889  1.00  0.00     0.174 HD
ATOM     31  C   UNL A   1      32.701  29.510  26.462  1.00  0.00     0.083 C 
ATOM     32  O   UNL A   1      31.894  31.734  26.903  1.00  0.00    -0.268 OA
ENDBRANCH  19  24
ENDBRANCH  17  18
ENDBRANCH  16  17
ENDBRANCH  12  16
ENDBRANCH   6  11
ENDBRANCH   3   5
ENDBRANCH   2   3
ENDBRANCH   1   2
BRANCH   1  33
ATOM     33  C   UNL A   1      43.425  22.414  25.913  1.00  0.00     0.275 C 
BRANCH  33  34
ATOM     34  O   UNL A   1      43.093  23.593  26.654  1.00  0.00    -0.458 OA
BRANCH  34  35
ATOM     35  C   UNL A   1      42.832  24.681  25.892  1.00  0.00     0.338 C 
ATOM     36  O   UNL A   1      43.012  24.794  24.691  1.00  0.00    -0.246 OA
BRANCH  35  37
ATOM     37  C   UNL A   1      42.512  25.825  26.759  1.00  0.00     0.060 A 
ATOM     38  C   UNL A   1      41.605  26.782  26.294  1.00  0.00     0.016 A 
ATOM     39  C   UNL A   1      43.284  26.054  27.907  1.00  0.00     0.016 A 
ATOM     40  C   UNL A   1      41.547  28.011  26.931  1.00  0.00     0.010 A 
ATOM     41  C   UNL A   1      43.238  27.287  28.528  1.00  0.00     0.010 A 
ATOM     42  C   UNL A   1      42.405  28.277  28.012  1.00  0.00    -0.014 A 
BRANCH  42  43
ATOM     43  C   UNL A   1      42.221  29.512  28.769  1.00  0.00     0.031 A 
ATOM     44  C   UNL A   1      43.325  30.468  28.505  1.00  0.00     0.074 A 
ATOM     45  C   UNL A   1      41.122  29.821  29.494  1.00  0.00     0.049 A 
ATOM     46  N   UNL A   1      44.243  30.840  29.332  1.00  0.00    -0.248 NA
ATOM     47  C   UNL A   1      43.583  30.881  27.111  1.00  0.00     0.031 C 
ATOM     48  C   UNL A   1      39.897  29.033  29.635  1.00  0.00     0.029 A 
ATOM     49  N   UNL A   1      40.823  30.955  30.198  1.00  0.00    -0.354 N 
ATOM     50  C   UNL A   1      45.008  31.769  28.638  1.00  0.00     0.074 A 
ATOM     51  C   UNL A   1      44.724  31.557  27.246  1.00  0.00     0.031 C 
ATOM     52  C   UNL A   1      38.922  29.802  30.175  1.00  0.00     0.029 A 
ATOM     53  C   UNL A   1      39.471  31.104  30.526  1.00  0.00     0.049 A 
ATOM     54  H   UNL A   1      41.507  31.616  30.455  1.00  0.00     0.167 HD
ATOM     55  C   UNL A   1      45.539  32.837  29.292  1.00  0.00     0.034 A 
ATOM     56  C   UNL A   1      38.837  32.217  31.007  1.00  0.00     0.034 A 
ATOM     57  C   UNL A   1      45.618  32.575  30.716  1.00  0.00     0.049 A 
ATOM     58  C   UNL A   1      39.880  33.066  31.631  1.00  0.00     0.074 A 
ATOM     59  C   UNL A   1      46.184  31.569  31.481  1.00  0.00     0.029 A 
ATOM     60  N   UNL A   1      44.708  33.196  31.541  1.00  0.00    -0.354 N 
ATOM     61  N   UNL A   1      40.531  32.719  32.705  1.00  0.00    -0.248 NA
ATOM     62  C   UNL A   1      40.553  34.044  30.789  1.00  0.00     0.031 C 
ATOM     63  C   UNL A   1      45.239  31.322  32.521  1.00  0.00     0.029 A 
ATOM     64  C   UNL A   1      44.208  32.255  32.410  1.00  0.00     0.049 A 
ATOM     65  H   UNL A   1      44.459  34.147  31.515  1.00  0.00     0.167 HD
ATOM     66  C   UNL A   1      41.851  33.039  32.435  1.00  0.00     0.074 A 
ATOM     67  C   UNL A   1      41.791  33.939  31.282  1.00  0.00     0.031 C 
ATOM     68  C   UNL A   1      42.875  32.317  32.982  1.00  0.00     0.034 A 
BRANCH  55  69
ATOM     69  C   UNL A   1      45.543  34.243  28.723  1.00  0.00     0.023 A 
ATOM     70  C   UNL A   1      44.289  34.817  28.448  1.00  0.00     0.031 A 
ATOM     71  C   UNL A   1      46.657  34.905  28.154  1.00  0.00     0.131 A 
ATOM     72  C   UNL A   1      44.171  35.894  27.552  1.00  0.00     0.055 A 
ATOM     73  C   UNL A   1      46.538  36.018  27.319  1.00  0.00     0.041 A 
ATOM     74  F   UNL A   1      47.916  34.476  28.289  1.00  0.00    -0.206 F 
ATOM     75  C   UNL A   1      45.287  36.498  26.983  1.00  0.00     0.022 A 
BRANCH  72  76
ATOM     76  S   UNL A   1      42.514  36.364  26.999  1.00  0.00     0.124 S 
ATOM     77  O   UNL A   1      42.301  35.424  25.904  1.00  0.00    -0.237 OA
ATOM     78  O   UNL A   1      41.723  36.141  28.204  1.00  0.00    -0.237 OA
ATOM     79  O   UNL A   1      42.673  37.762  26.607  1.00  0.00    -0.744 OA
ENDBRANCH  72  76
ENDBRANCH  55  69
BRANCH  56  80
ATOM     80  C   UNL A   1      37.469  32.741  30.672  1.00  0.00     0.023 A 
ATOM     81  C   UNL A   1      36.509  33.118  31.648  1.00  0.00     0.031 A 
ATOM     82  C   UNL A   1      37.191  33.136  29.346  1.00  0.00     0.131 A 
ATOM     83  C   UNL A   1      35.352  33.857  31.277  1.00  0.00     0.055 A 
ATOM     84  C   UNL A   1      36.055  33.868  28.988  1.00  0.00     0.041 A 
ATOM     85  F   UNL A   1      38.063  32.906  28.353  1.00  0.00    -0.206 F 
ATOM     86  C   UNL A   1      35.137  34.242  29.953  1.00  0.00     0.022 A 
BRANCH  83  87
ATOM     87  S   UNL A   1      34.130  34.419  32.520  1.00  0.00     0.124 S 
ATOM     88  O   UNL A   1      33.099  35.031  31.693  1.00  0.00    -0.237 OA
ATOM     89  O   UNL A   1      33.771  33.178  33.198  1.00  0.00    -0.237 OA
ATOM     90  O   UNL A   1      34.890  35.361  33.344  1.00  0.00    -0.744 OA
ENDBRANCH  83  87
ENDBRANCH  56  80
BRANCH  68  91
ATOM     91  C   UNL A   1      42.569  31.398  34.153  1.00  0.00     0.023 A 
ATOM     92  C   UNL A   1      42.335  30.005  34.074  1.00  0.00     0.031 A 
ATOM     93  C   UNL A   1      42.579  31.979  35.435  1.00  0.00     0.131 A 
ATOM     94  C   UNL A   1      42.092  29.260  35.247  1.00  0.00     0.055 A 
ATOM     95  C   UNL A   1      42.369  31.234  36.594  1.00  0.00     0.041 A 
ATOM     96  F   UNL A   1      42.812  33.293  35.588  1.00  0.00    -0.206 F 
ATOM     97  C   UNL A   1      42.113  29.873  36.503  1.00  0.00     0.022 A 
BRANCH  94  98
ATOM     98  S   UNL A   1      41.680  27.485  35.167  1.00  0.00     0.124 S 
ATOM     99  O   UNL A   1      41.316  27.150  36.538  1.00  0.00    -0.237 OA
ATOM    100  O   UNL A   1      40.591  27.457  34.193  1.00  0.00    -0.237 OA
ATOM    101  O   UNL A   1      42.925  26.870  34.701  1.00  0.00    -0.744 OA
ENDBRANCH  94  98
ENDBRANCH  68  91
ENDBRANCH  42  43
ENDBRANCH  35  37
ENDBRANCH  34  35
ENDBRANCH  33  34
ENDBRANCH   1  33
TORSDOF 19
ENDMDL
