MODEL 1
REMARK VINA RESULT:      -8.9      0.000      0.000
REMARK SMILES NS(=O)(=O)c1ccc(-n2nc(C(=O)NCCCCCCCCCCC(=O)OCCOC(=O)c3ccc(-c4c5nc(c(-c6cc(S(=O)(=O)[O-])ccc6F)c6ccc([nH]6)c(-c6cc(S(=O)(=O)[O-])ccc6F)c6nc(c(-c7cc(S(=O)(=O)[O-])ccc7F)c7ccc4[nH]7)C=C6)C=C5)cc3)cc2-c2ccccc2)cc1
REMARK SMILES IDX 22 1 21 2 20 3 19 4 18 5 17 6 16 7 15 8 14 9 12 10 13 11
REMARK SMILES IDX 11 13 9 14 10 15 97 16 96 17 8 18 5 19 6 20 105 21 7 22
REMARK SMILES IDX 104 23 2 24 3 25 4 26 1 27 98 30 99 31 103 32 100 33 102 34
REMARK SMILES IDX 101 35 23 36 24 37 25 38 26 39 27 40 28 41 29 42 30 43 31 44
REMARK SMILES IDX 32 45 33 46 34 47 95 48 35 49 94 50 36 51 37 52 38 53 88 54
REMARK SMILES IDX 39 55 93 56 87 57 89 58 40 59 92 60 86 61 85 62 41 64 73 65
REMARK SMILES IDX 53 66 72 67 54 68 57 69 71 70 90 71 55 72 56 73 70 75 91 76
REMARK SMILES IDX 58 77 42 78 43 79 51 80 44 81 50 82 52 83 49 84 45 85 46 86
REMARK SMILES IDX 47 87 48 88 74 89 75 90 83 91 76 92 82 93 84 94 81 95 77 96
REMARK SMILES IDX 78 97 79 98 80 99 59 100 60 101 68 102 61 103 67 104 69 105
REMARK SMILES IDX 66 106 62 107 63 108 64 109 65 110
REMARK H PARENT 14 12 1 28 1 29 89 63 57 74
REMARK Flexibility Score: inf
ROOT
ATOM      1  C   UNL A   1      39.240  27.130  29.291  1.00  0.00     0.001 C 
ENDROOT
BRANCH   1   2
ATOM      2  C   UNL A   1      39.030  25.852  28.478  1.00  0.00     0.000 C 
BRANCH   2   3
ATOM      3  C   UNL A   1      40.122  25.661  27.426  1.00  0.00     0.000 C 
BRANCH   3   4
ATOM      4  C   UNL A   1      40.301  24.194  27.033  1.00  0.00     0.000 C 
BRANCH   4   5
ATOM      5  C   UNL A   1      38.988  23.541  26.590  1.00  0.00     0.000 C 
BRANCH   5   6
ATOM      6  C   UNL A   1      39.167  22.086  26.136  1.00  0.00     0.002 C 
BRANCH   6   7
ATOM      7  C   UNL A   1      38.062  21.620  25.184  1.00  0.00     0.021 C 
BRANCH   7   8
ATOM      8  C   UNL A   1      36.819  21.191  25.959  1.00  0.00     0.116 C 
BRANCH   8   9
ATOM      9  N   UNL A   1      36.123  20.162  25.230  1.00  0.00    -0.351 N 
ATOM     10  C   UNL A   1      34.820  20.035  24.824  1.00  0.00     0.271 C 
ATOM     11  O   UNL A   1      34.522  18.941  24.335  1.00  0.00    -0.267 OA
ATOM     12  H   UNL A   1      36.694  19.403  24.974  1.00  0.00     0.163 HD
BRANCH  10  13
ATOM     13  C   UNL A   1      33.854  21.152  24.911  1.00  0.00     0.151 A 
ATOM     14  N   UNL A   1      33.219  23.195  24.720  1.00  0.00    -0.232 N 
ATOM     15  N   UNL A   1      34.123  22.305  24.266  1.00  0.00    -0.162 NA
ATOM     16  C   UNL A   1      32.247  22.605  25.502  1.00  0.00     0.075 A 
ATOM     17  C   UNL A   1      32.607  21.278  25.568  1.00  0.00     0.065 A 
BRANCH  14  18
ATOM     18  C   UNL A   1      33.282  24.544  24.312  1.00  0.00     0.065 A 
ATOM     19  C   UNL A   1      33.049  27.215  23.638  1.00  0.00     0.082 A 
ATOM     20  C   UNL A   1      33.630  26.865  24.860  1.00  0.00     0.024 A 
ATOM     21  C   UNL A   1      32.629  26.237  22.729  1.00  0.00     0.024 A 
ATOM     22  C   UNL A   1      33.742  25.523  25.203  1.00  0.00     0.030 A 
ATOM     23  C   UNL A   1      32.774  24.889  23.055  1.00  0.00     0.030 A 
BRANCH  19  24
ATOM     24  S   UNL A   1      32.776  28.924  23.296  1.00  0.00     0.238 S 
ATOM     25  O   UNL A   1      31.358  29.142  23.128  1.00  0.00    -0.207 OA
ATOM     26  O   UNL A   1      33.758  29.375  22.337  1.00  0.00    -0.207 OA
BRANCH  24  27
ATOM     27  N   UNL A   1      33.200  29.688  24.733  1.00  0.00    -0.225 NA
ATOM     28  H   UNL A   1      33.046  30.692  24.643  1.00  0.00     0.137 HD
ATOM     29  H   UNL A   1      34.184  29.511  24.935  1.00  0.00     0.137 HD
ENDBRANCH  24  27
ENDBRANCH  19  24
ENDBRANCH  14  18
BRANCH  16  30
ATOM     30  C   UNL A   1      31.036  23.235  26.016  1.00  0.00     0.000 A 
ATOM     31  C   UNL A   1      30.721  24.558  25.685  1.00  0.00     0.010 A 
ATOM     32  C   UNL A   1      30.159  22.504  26.828  1.00  0.00     0.010 A 
ATOM     33  C   UNL A   1      29.561  25.152  26.180  1.00  0.00     0.001 A 
ATOM     34  C   UNL A   1      28.996  23.098  27.320  1.00  0.00     0.001 A 
ATOM     35  C   UNL A   1      28.700  24.423  26.998  1.00  0.00     0.000 A 
ENDBRANCH  16  30
ENDBRANCH  10  13
ENDBRANCH   8   9
ENDBRANCH   7   8
ENDBRANCH   6   7
ENDBRANCH   5   6
ENDBRANCH   4   5
ENDBRANCH   3   4
ENDBRANCH   2   3
ENDBRANCH   1   2
BRANCH   1  36
ATOM     36  C   UNL A   1      38.716  28.374  28.568  1.00  0.00     0.012 C 
BRANCH  36  37
ATOM     37  C   UNL A   1      37.658  29.190  29.319  1.00  0.00     0.123 C 
BRANCH  37  38
ATOM     38  C   UNL A   1      37.005  30.356  28.597  1.00  0.00     0.305 C 
ATOM     39  O   UNL A   1      36.557  30.264  27.461  1.00  0.00    -0.252 OA
BRANCH  38  40
ATOM     40  O   UNL A   1      36.899  31.465  29.373  1.00  0.00    -0.462 OA
BRANCH  40  41
ATOM     41  C   UNL A   1      35.646  31.696  30.041  1.00  0.00     0.274 C 
BRANCH  41  42
ATOM     42  C   UNL A   1      35.792  31.622  31.558  1.00  0.00     0.275 C 
BRANCH  42  43
ATOM     43  O   UNL A   1      37.164  31.519  31.933  1.00  0.00    -0.458 OA
BRANCH  43  44
ATOM     44  C   UNL A   1      37.348  31.302  33.254  1.00  0.00     0.338 C 
ATOM     45  O   UNL A   1      36.801  31.887  34.171  1.00  0.00    -0.246 OA
BRANCH  44  46
ATOM     46  C   UNL A   1      38.443  30.363  33.474  1.00  0.00     0.060 A 
ATOM     47  C   UNL A   1      39.605  30.840  34.092  1.00  0.00     0.016 A 
ATOM     48  C   UNL A   1      38.407  29.154  32.775  1.00  0.00     0.016 A 
ATOM     49  C   UNL A   1      40.790  30.170  33.869  1.00  0.00     0.010 A 
ATOM     50  C   UNL A   1      39.592  28.506  32.530  1.00  0.00     0.010 A 
ATOM     51  C   UNL A   1      40.776  29.058  33.021  1.00  0.00    -0.014 A 
BRANCH  51  52
ATOM     52  C   UNL A   1      42.027  28.391  32.726  1.00  0.00     0.031 A 
ATOM     53  C   UNL A   1      42.478  27.483  33.805  1.00  0.00     0.074 A 
ATOM     54  C   UNL A   1      42.592  28.450  31.505  1.00  0.00     0.049 A 
ATOM     55  N   UNL A   1      43.586  27.510  34.465  1.00  0.00    -0.248 NA
ATOM     56  C   UNL A   1      41.503  26.499  34.311  1.00  0.00     0.031 C 
ATOM     57  C   UNL A   1      42.045  29.078  30.299  1.00  0.00     0.029 A 
ATOM     58  N   UNL A   1      43.715  27.832  31.047  1.00  0.00    -0.354 N 
ATOM     59  C   UNL A   1      43.544  26.399  35.300  1.00  0.00     0.074 A 
ATOM     60  C   UNL A   1      42.179  25.952  35.318  1.00  0.00     0.031 C 
ATOM     61  C   UNL A   1      42.709  28.613  29.217  1.00  0.00     0.029 A 
ATOM     62  C   UNL A   1      43.792  27.749  29.660  1.00  0.00     0.049 A 
ATOM     63  H   UNL A   1      44.411  27.475  31.644  1.00  0.00     0.167 HD
ATOM     64  C   UNL A   1      44.681  25.767  35.691  1.00  0.00     0.034 A 
ATOM     65  C   UNL A   1      44.627  26.957  28.934  1.00  0.00     0.034 A 
ATOM     66  C   UNL A   1      45.827  26.641  35.597  1.00  0.00     0.049 A 
ATOM     67  C   UNL A   1      45.741  26.557  29.829  1.00  0.00     0.074 A 
ATOM     68  C   UNL A   1      46.119  27.890  36.114  1.00  0.00     0.029 A 
ATOM     69  N   UNL A   1      46.720  26.457  34.566  1.00  0.00    -0.354 N 
ATOM     70  N   UNL A   1      46.624  27.391  30.300  1.00  0.00    -0.248 NA
ATOM     71  C   UNL A   1      45.604  25.318  30.580  1.00  0.00     0.031 C 
ATOM     72  C   UNL A   1      46.787  28.579  35.058  1.00  0.00     0.029 A 
ATOM     73  C   UNL A   1      46.940  27.688  33.994  1.00  0.00     0.049 A 
ATOM     74  H   UNL A   1      47.127  25.604  34.290  1.00  0.00     0.167 HD
ATOM     75  C   UNL A   1      46.827  26.999  31.613  1.00  0.00     0.074 A 
ATOM     76  C   UNL A   1      46.256  25.656  31.696  1.00  0.00     0.031 C 
ATOM     77  C   UNL A   1      47.177  27.901  32.577  1.00  0.00     0.034 A 
BRANCH  64  78
ATOM     78  C   UNL A   1      44.783  24.265  35.822  1.00  0.00     0.023 A 
ATOM     79  C   UNL A   1      45.306  23.744  37.017  1.00  0.00     0.031 A 
ATOM     80  C   UNL A   1      44.650  23.340  34.755  1.00  0.00     0.131 A 
ATOM     81  C   UNL A   1      45.721  22.403  37.096  1.00  0.00     0.055 A 
ATOM     82  C   UNL A   1      44.989  21.991  34.865  1.00  0.00     0.041 A 
ATOM     83  F   UNL A   1      44.278  23.701  33.521  1.00  0.00    -0.206 F 
ATOM     84  C   UNL A   1      45.556  21.519  36.034  1.00  0.00     0.022 A 
BRANCH  81  85
ATOM     85  S   UNL A   1      46.648  21.877  38.559  1.00  0.00     0.124 S 
ATOM     86  O   UNL A   1      47.997  21.742  38.020  1.00  0.00    -0.237 OA
ATOM     87  O   UNL A   1      46.426  22.995  39.471  1.00  0.00    -0.237 OA
ATOM     88  O   UNL A   1      45.999  20.625  38.939  1.00  0.00    -0.744 OA
ENDBRANCH  81  85
ENDBRANCH  64  78
BRANCH  65  89
ATOM     89  C   UNL A   1      44.351  26.282  27.637  1.00  0.00     0.023 A 
ATOM     90  C   UNL A   1      44.267  24.879  27.521  1.00  0.00     0.031 A 
ATOM     91  C   UNL A   1      43.916  27.036  26.523  1.00  0.00     0.131 A 
ATOM     92  C   UNL A   1      43.765  24.289  26.338  1.00  0.00     0.055 A 
ATOM     93  C   UNL A   1      43.432  26.448  25.352  1.00  0.00     0.041 A 
ATOM     94  F   UNL A   1      43.861  28.377  26.566  1.00  0.00    -0.206 F 
ATOM     95  C   UNL A   1      43.344  25.070  25.259  1.00  0.00     0.022 A 
BRANCH  92  96
ATOM     96  S   UNL A   1      43.544  22.484  26.228  1.00  0.00     0.124 S 
ATOM     97  O   UNL A   1      44.907  22.018  26.002  1.00  0.00    -0.237 OA
ATOM     98  O   UNL A   1      42.951  22.158  27.520  1.00  0.00    -0.237 OA
ATOM     99  O   UNL A   1      42.642  22.321  25.086  1.00  0.00    -0.744 OA
ENDBRANCH  92  96
ENDBRANCH  65  89
BRANCH  77 100
ATOM    100  C   UNL A   1      47.629  29.286  32.141  1.00  0.00     0.023 A 
ATOM    101  C   UNL A   1      46.763  30.360  31.824  1.00  0.00     0.031 A 
ATOM    102  C   UNL A   1      49.010  29.550  32.141  1.00  0.00     0.131 A 
ATOM    103  C   UNL A   1      47.292  31.626  31.500  1.00  0.00     0.055 A 
ATOM    104  C   UNL A   1      49.529  30.810  31.844  1.00  0.00     0.041 A 
ATOM    105  F   UNL A   1      49.889  28.585  32.459  1.00  0.00    -0.206 F 
ATOM    106  C   UNL A   1      48.671  31.852  31.512  1.00  0.00     0.022 A 
BRANCH 103 107
ATOM    107  S   UNL A   1      46.197  33.003  31.023  1.00  0.00     0.124 S 
ATOM    108  O   UNL A   1      47.109  33.992  30.460  1.00  0.00    -0.237 OA
ATOM    109  O   UNL A   1      45.282  32.365  30.080  1.00  0.00    -0.237 OA
ATOM    110  O   UNL A   1      45.580  33.399  32.292  1.00  0.00    -0.744 OA
ENDBRANCH 103 107
ENDBRANCH  77 100
ENDBRANCH  51  52
ENDBRANCH  44  46
ENDBRANCH  43  44
ENDBRANCH  42  43
ENDBRANCH  41  42
ENDBRANCH  40  41
ENDBRANCH  38  40
ENDBRANCH  37  38
ENDBRANCH  36  37
ENDBRANCH   1  36
TORSDOF 29
ENDMDL
MODEL 2
REMARK VINA RESULT:      -8.8      2.599      6.765
REMARK SMILES NS(=O)(=O)c1ccc(-n2nc(C(=O)NCCCCCCCCCCC(=O)OCCOC(=O)c3ccc(-c4c5nc(c(-c6cc(S(=O)(=O)[O-])ccc6F)c6ccc([nH]6)c(-c6cc(S(=O)(=O)[O-])ccc6F)c6nc(c(-c7cc(S(=O)(=O)[O-])ccc7F)c7ccc4[nH]7)C=C6)C=C5)cc3)cc2-c2ccccc2)cc1
REMARK SMILES IDX 22 1 21 2 20 3 19 4 18 5 17 6 16 7 15 8 14 9 12 10 13 11
REMARK SMILES IDX 11 13 9 14 10 15 97 16 96 17 8 18 5 19 6 20 105 21 7 22
REMARK SMILES IDX 104 23 2 24 3 25 4 26 1 27 98 30 99 31 103 32 100 33 102 34
REMARK SMILES IDX 101 35 23 36 24 37 25 38 26 39 27 40 28 41 29 42 30 43 31 44
REMARK SMILES IDX 32 45 33 46 34 47 95 48 35 49 94 50 36 51 37 52 38 53 88 54
REMARK SMILES IDX 39 55 93 56 87 57 89 58 40 59 92 60 86 61 85 62 41 64 73 65
REMARK SMILES IDX 53 66 72 67 54 68 57 69 71 70 90 71 55 72 56 73 70 75 91 76
REMARK SMILES IDX 58 77 42 78 43 79 51 80 44 81 50 82 52 83 49 84 45 85 46 86
REMARK SMILES IDX 47 87 48 88 74 89 75 90 83 91 76 92 82 93 84 94 81 95 77 96
REMARK SMILES IDX 78 97 79 98 80 99 59 100 60 101 68 102 61 103 67 104 69 105
REMARK SMILES IDX 66 106 62 107 63 108 64 109 65 110
REMARK H PARENT 14 12 1 28 1 29 89 63 57 74
REMARK Flexibility Score: inf
ROOT
ATOM      1  C   UNL A   1      38.368  28.262  30.441  1.00  0.00     0.001 C 
ENDROOT
BRANCH   1   2
ATOM      2  C   UNL A   1      39.269  28.596  29.251  1.00  0.00     0.000 C 
BRANCH   2   3
ATOM      3  C   UNL A   1      40.181  27.426  28.882  1.00  0.00     0.000 C 
BRANCH   3   4
ATOM      4  C   UNL A   1      39.534  26.481  27.869  1.00  0.00     0.000 C 
BRANCH   4   5
ATOM      5  C   UNL A   1      40.000  25.031  28.039  1.00  0.00     0.000 C 
BRANCH   5   6
ATOM      6  C   UNL A   1      40.665  24.464  26.778  1.00  0.00     0.002 C 
BRANCH   6   7
ATOM      7  C   UNL A   1      40.458  22.955  26.623  1.00  0.00     0.021 C 
BRANCH   7   8
ATOM      8  C   UNL A   1      38.974  22.616  26.523  1.00  0.00     0.116 C 
BRANCH   8   9
ATOM      9  N   UNL A   1      38.793  21.477  25.659  1.00  0.00    -0.351 N 
ATOM     10  C   UNL A   1      37.682  20.917  25.085  1.00  0.00     0.271 C 
ATOM     11  O   UNL A   1      37.867  19.843  24.507  1.00  0.00    -0.267 OA
ATOM     12  H   UNL A   1      39.630  21.010  25.439  1.00  0.00     0.163 HD
BRANCH  10  13
ATOM     13  C   UNL A   1      36.361  21.586  25.107  1.00  0.00     0.151 A 
ATOM     14  N   UNL A   1      35.022  23.254  24.920  1.00  0.00    -0.232 N 
ATOM     15  N   UNL A   1      36.231  22.800  24.536  1.00  0.00    -0.162 NA
ATOM     16  C   UNL A   1      34.280  22.289  25.570  1.00  0.00     0.075 A 
ATOM     17  C   UNL A   1      35.107  21.190  25.628  1.00  0.00     0.065 A 
BRANCH  14  18
ATOM     18  C   UNL A   1      34.607  24.556  24.570  1.00  0.00     0.065 A 
ATOM     19  C   UNL A   1      33.439  26.980  23.934  1.00  0.00     0.082 A 
ATOM     20  C   UNL A   1      33.884  26.755  25.240  1.00  0.00     0.024 A 
ATOM     21  C   UNL A   1      33.620  26.019  22.932  1.00  0.00     0.024 A 
ATOM     22  C   UNL A   1      34.464  25.534  25.563  1.00  0.00     0.030 A 
ATOM     23  C   UNL A   1      34.236  24.808  23.245  1.00  0.00     0.030 A 
BRANCH  19  24
ATOM     24  S   UNL A   1      32.565  28.473  23.588  1.00  0.00     0.238 S 
ATOM     25  O   UNL A   1      33.161  29.546  24.350  1.00  0.00    -0.207 OA
ATOM     26  O   UNL A   1      31.147  28.200  23.595  1.00  0.00    -0.207 OA
BRANCH  24  27
ATOM     27  N   UNL A   1      32.933  28.783  21.977  1.00  0.00    -0.225 NA
ATOM     28  H   UNL A   1      33.860  29.205  21.914  1.00  0.00     0.137 HD
ATOM     29  H   UNL A   1      32.241  29.422  21.587  1.00  0.00     0.137 HD
ENDBRANCH  24  27
ENDBRANCH  19  24
ENDBRANCH  14  18
BRANCH  16  30
ATOM     30  C   UNL A   1      32.880  22.383  25.971  1.00  0.00     0.000 A 
ATOM     31  C   UNL A   1      31.858  21.988  25.100  1.00  0.00     0.010 A 
ATOM     32  C   UNL A   1      32.550  22.845  27.251  1.00  0.00     0.010 A 
ATOM     33  C   UNL A   1      30.523  22.081  25.492  1.00  0.00     0.001 A 
ATOM     34  C   UNL A   1      31.214  22.934  27.644  1.00  0.00     0.001 A 
ATOM     35  C   UNL A   1      30.201  22.554  26.763  1.00  0.00     0.000 A 
ENDBRANCH  16  30
ENDBRANCH  10  13
ENDBRANCH   8   9
ENDBRANCH   7   8
ENDBRANCH   6   7
ENDBRANCH   5   6
ENDBRANCH   4   5
ENDBRANCH   3   4
ENDBRANCH   2   3
ENDBRANCH   1   2
BRANCH   1  36
ATOM     36  C   UNL A   1      37.534  29.464  30.895  1.00  0.00     0.012 C 
BRANCH  36  37
ATOM     37  C   UNL A   1      36.207  29.676  30.159  1.00  0.00     0.123 C 
BRANCH  37  38
ATOM     38  C   UNL A   1      36.094  30.850  29.203  1.00  0.00     0.305 C 
ATOM     39  O   UNL A   1      36.895  31.044  28.296  1.00  0.00    -0.252 OA
BRANCH  38  40
ATOM     40  O   UNL A   1      34.979  31.595  29.409  1.00  0.00    -0.462 OA
BRANCH  40  41
ATOM     41  C   UNL A   1      35.123  33.026  29.426  1.00  0.00     0.274 C 
BRANCH  41  42
ATOM     42  C   UNL A   1      35.593  33.532  30.785  1.00  0.00     0.275 C 
BRANCH  42  43
ATOM     43  O   UNL A   1      36.862  34.175  30.679  1.00  0.00    -0.458 OA
BRANCH  43  44
ATOM     44  C   UNL A   1      37.636  34.028  31.776  1.00  0.00     0.338 C 
ATOM     45  O   UNL A   1      37.677  34.768  32.743  1.00  0.00    -0.246 OA
BRANCH  44  46
ATOM     46  C   UNL A   1      38.579  32.930  31.597  1.00  0.00     0.060 A 
ATOM     47  C   UNL A   1      39.118  32.331  32.742  1.00  0.00     0.016 A 
ATOM     48  C   UNL A   1      39.136  32.757  30.328  1.00  0.00     0.016 A 
ATOM     49  C   UNL A   1      40.329  31.679  32.634  1.00  0.00     0.010 A 
ATOM     50  C   UNL A   1      40.355  32.134  30.228  1.00  0.00     0.010 A 
ATOM     51  C   UNL A   1      40.968  31.664  31.391  1.00  0.00    -0.014 A 
BRANCH  51  52
ATOM     52  C   UNL A   1      42.272  31.043  31.284  1.00  0.00     0.031 A 
ATOM     53  C   UNL A   1      43.371  32.014  31.084  1.00  0.00     0.074 A 
ATOM     54  C   UNL A   1      42.460  29.736  31.552  1.00  0.00     0.049 A 
ATOM     55  N   UNL A   1      44.221  32.074  30.115  1.00  0.00    -0.248 NA
ATOM     56  C   UNL A   1      43.444  33.154  32.016  1.00  0.00     0.031 C 
ATOM     57  C   UNL A   1      41.471  28.778  32.055  1.00  0.00     0.029 A 
ATOM     58  N   UNL A   1      43.617  29.020  31.567  1.00  0.00    -0.354 N 
ATOM     59  C   UNL A   1      45.082  33.114  30.445  1.00  0.00     0.074 A 
ATOM     60  C   UNL A   1      44.439  33.862  31.489  1.00  0.00     0.031 C 
ATOM     61  C   UNL A   1      42.113  27.693  32.542  1.00  0.00     0.029 A 
ATOM     62  C   UNL A   1      43.538  27.829  32.283  1.00  0.00     0.049 A 
ATOM     63  H   UNL A   1      44.437  29.318  31.112  1.00  0.00     0.167 HD
ATOM     64  C   UNL A   1      46.376  33.117  30.031  1.00  0.00     0.034 A 
ATOM     65  C   UNL A   1      44.578  27.062  32.710  1.00  0.00     0.034 A 
ATOM     66  C   UNL A   1      46.557  32.282  28.866  1.00  0.00     0.049 A 
ATOM     67  C   UNL A   1      45.763  27.439  31.899  1.00  0.00     0.074 A 
ATOM     68  C   UNL A   1      45.960  32.241  27.619  1.00  0.00     0.029 A 
ATOM     69  N   UNL A   1      47.171  31.059  29.015  1.00  0.00    -0.354 N 
ATOM     70  N   UNL A   1      45.864  27.212  30.620  1.00  0.00    -0.248 NA
ATOM     71  C   UNL A   1      46.635  28.486  32.410  1.00  0.00     0.031 C 
ATOM     72  C   UNL A   1      45.803  30.854  27.331  1.00  0.00     0.029 A 
ATOM     73  C   UNL A   1      46.386  30.130  28.373  1.00  0.00     0.049 A 
ATOM     74  H   UNL A   1      48.014  30.882  29.491  1.00  0.00     0.167 HD
ATOM     75  C   UNL A   1      46.461  28.348  30.099  1.00  0.00     0.074 A 
ATOM     76  C   UNL A   1      47.010  29.049  31.257  1.00  0.00     0.031 C 
ATOM     77  C   UNL A   1      46.209  28.759  28.820  1.00  0.00     0.034 A 
BRANCH  64  78
ATOM     78  C   UNL A   1      47.516  33.604  30.896  1.00  0.00     0.023 A 
ATOM     79  C   UNL A   1      47.969  32.759  31.921  1.00  0.00     0.031 A 
ATOM     80  C   UNL A   1      47.994  34.938  30.943  1.00  0.00     0.131 A 
ATOM     81  C   UNL A   1      48.793  33.251  32.949  1.00  0.00     0.055 A 
ATOM     82  C   UNL A   1      48.875  35.401  31.922  1.00  0.00     0.041 A 
ATOM     83  F   UNL A   1      47.566  35.895  30.111  1.00  0.00    -0.206 F 
ATOM     84  C   UNL A   1      49.259  34.563  32.951  1.00  0.00     0.022 A 
BRANCH  81  85
ATOM     85  S   UNL A   1      49.100  32.193  34.384  1.00  0.00     0.124 S 
ATOM     86  O   UNL A   1      49.227  33.176  35.454  1.00  0.00    -0.237 OA
ATOM     87  O   UNL A   1      47.899  31.365  34.407  1.00  0.00    -0.237 OA
ATOM     88  O   UNL A   1      50.333  31.492  34.030  1.00  0.00    -0.744 OA
ENDBRANCH  81  85
ENDBRANCH  64  78
BRANCH  65  89
ATOM     89  C   UNL A   1      44.677  26.271  33.966  1.00  0.00     0.023 A 
ATOM     90  C   UNL A   1      44.794  26.881  35.232  1.00  0.00     0.031 A 
ATOM     91  C   UNL A   1      44.406  24.883  33.954  1.00  0.00     0.131 A 
ATOM     92  C   UNL A   1      44.639  26.114  36.411  1.00  0.00     0.055 A 
ATOM     93  C   UNL A   1      44.266  24.129  35.121  1.00  0.00     0.041 A 
ATOM     94  F   UNL A   1      44.179  24.227  32.806  1.00  0.00    -0.206 F 
ATOM     95  C   UNL A   1      44.371  24.745  36.357  1.00  0.00     0.022 A 
BRANCH  92  96
ATOM     96  S   UNL A   1      44.672  26.918  38.045  1.00  0.00     0.124 S 
ATOM     97  O   UNL A   1      44.577  28.331  37.699  1.00  0.00    -0.237 OA
ATOM     98  O   UNL A   1      43.513  26.332  38.710  1.00  0.00    -0.237 OA
ATOM     99  O   UNL A   1      45.963  26.507  38.600  1.00  0.00    -0.744 OA
ENDBRANCH  92  96
ENDBRANCH  65  89
BRANCH  77 100
ATOM    100  C   UNL A   1      45.499  27.800  27.879  1.00  0.00     0.023 A 
ATOM    101  C   UNL A   1      46.137  26.808  27.096  1.00  0.00     0.031 A 
ATOM    102  C   UNL A   1      44.093  27.837  27.851  1.00  0.00     0.131 A 
ATOM    103  C   UNL A   1      45.372  25.922  26.311  1.00  0.00     0.055 A 
ATOM    104  C   UNL A   1      43.338  26.943  27.091  1.00  0.00     0.041 A 
ATOM    105  F   UNL A   1      43.420  28.734  28.590  1.00  0.00    -0.206 F 
ATOM    106  C   UNL A   1      43.976  25.988  26.309  1.00  0.00     0.022 A 
BRANCH 103 107
ATOM    107  S   UNL A   1      46.178  24.683  25.244  1.00  0.00     0.124 S 
ATOM    108  O   UNL A   1      45.071  24.090  24.504  1.00  0.00    -0.237 OA
ATOM    109  O   UNL A   1      47.108  25.496  24.464  1.00  0.00    -0.237 OA
ATOM    110  O   UNL A   1      46.821  23.780  26.202  1.00  0.00    -0.744 OA
ENDBRANCH 103 107
ENDBRANCH  77 100
ENDBRANCH  51  52
ENDBRANCH  44  46
ENDBRANCH  43  44
ENDBRANCH  42  43
ENDBRANCH  41  42
ENDBRANCH  40  41
ENDBRANCH  38  40
ENDBRANCH  37  38
ENDBRANCH  36  37
ENDBRANCH   1  36
TORSDOF 29
ENDMDL
MODEL 3
REMARK VINA RESULT:      -8.5      9.429     15.506
REMARK SMILES NS(=O)(=O)c1ccc(-n2nc(C(=O)NCCCCCCCCCCC(=O)OCCOC(=O)c3ccc(-c4c5nc(c(-c6cc(S(=O)(=O)[O-])ccc6F)c6ccc([nH]6)c(-c6cc(S(=O)(=O)[O-])ccc6F)c6nc(c(-c7cc(S(=O)(=O)[O-])ccc7F)c7ccc4[nH]7)C=C6)C=C5)cc3)cc2-c2ccccc2)cc1
REMARK SMILES IDX 22 1 21 2 20 3 19 4 18 5 17 6 16 7 15 8 14 9 12 10 13 11
REMARK SMILES IDX 11 13 9 14 10 15 97 16 96 17 8 18 5 19 6 20 105 21 7 22
REMARK SMILES IDX 104 23 2 24 3 25 4 26 1 27 98 30 99 31 103 32 100 33 102 34
REMARK SMILES IDX 101 35 23 36 24 37 25 38 26 39 27 40 28 41 29 42 30 43 31 44
REMARK SMILES IDX 32 45 33 46 34 47 95 48 35 49 94 50 36 51 37 52 38 53 88 54
REMARK SMILES IDX 39 55 93 56 87 57 89 58 40 59 92 60 86 61 85 62 41 64 73 65
REMARK SMILES IDX 53 66 72 67 54 68 57 69 71 70 90 71 55 72 56 73 70 75 91 76
REMARK SMILES IDX 58 77 42 78 43 79 51 80 44 81 50 82 52 83 49 84 45 85 46 86
REMARK SMILES IDX 47 87 48 88 74 89 75 90 83 91 76 92 82 93 84 94 81 95 77 96
REMARK SMILES IDX 78 97 79 98 80 99 59 100 60 101 68 102 61 103 67 104 69 105
REMARK SMILES IDX 66 106 62 107 63 108 64 109 65 110
REMARK H PARENT 14 12 1 28 1 29 89 63 57 74
REMARK Flexibility Score: inf
ROOT
ATOM      1  C   UNL A   1      42.625  36.207  26.465  1.00  0.00     0.001 C 
ENDROOT
BRANCH   1   2
ATOM      2  C   UNL A   1      42.452  37.054  27.727  1.00  0.00     0.000 C 
BRANCH   2   3
ATOM      3  C   UNL A   1      43.529  38.133  27.840  1.00  0.00     0.000 C 
BRANCH   3   4
ATOM      4  C   UNL A   1      43.616  39.002  26.584  1.00  0.00     0.000 C 
BRANCH   4   5
ATOM      5  C   UNL A   1      44.387  40.304  26.825  1.00  0.00     0.000 C 
BRANCH   5   6
ATOM      6  C   UNL A   1      45.900  40.087  26.962  1.00  0.00     0.002 C 
BRANCH   6   7
ATOM      7  C   UNL A   1      46.720  41.272  26.447  1.00  0.00     0.021 C 
BRANCH   7   8
ATOM      8  C   UNL A   1      46.021  41.950  25.272  1.00  0.00     0.116 C 
BRANCH   8   9
ATOM      9  N   UNL A   1      45.645  43.292  25.639  1.00  0.00    -0.351 N 
ATOM     10  C   UNL A   1      45.558  44.457  24.924  1.00  0.00     0.271 C 
ATOM     11  O   UNL A   1      45.338  45.473  25.590  1.00  0.00    -0.267 OA
ATOM     12  H   UNL A   1      45.403  43.390  26.588  1.00  0.00     0.163 HD
BRANCH  10  13
ATOM     13  C   UNL A   1      45.662  44.487  23.448  1.00  0.00     0.151 A 
ATOM     14  N   UNL A   1      46.705  44.464  21.570  1.00  0.00    -0.232 N 
ATOM     15  N   UNL A   1      46.815  44.102  22.864  1.00  0.00    -0.162 NA
ATOM     16  C   UNL A   1      45.435  44.902  21.253  1.00  0.00     0.075 A 
ATOM     17  C   UNL A   1      44.738  44.849  22.439  1.00  0.00     0.065 A 
BRANCH  14  18
ATOM     18  C   UNL A   1      47.791  44.290  20.688  1.00  0.00     0.065 A 
ATOM     19  C   UNL A   1      50.126  44.146  19.214  1.00  0.00     0.082 A 
ATOM     20  C   UNL A   1      49.781  43.085  20.057  1.00  0.00     0.024 A 
ATOM     21  C   UNL A   1      49.286  45.255  19.066  1.00  0.00     0.024 A 
ATOM     22  C   UNL A   1      48.611  43.160  20.804  1.00  0.00     0.030 A 
ATOM     23  C   UNL A   1      48.094  45.316  19.786  1.00  0.00     0.030 A 
BRANCH  19  24
ATOM     24  S   UNL A   1      51.689  44.097  18.399  1.00  0.00     0.238 S 
ATOM     25  O   UNL A   1      52.617  44.932  19.125  1.00  0.00    -0.207 OA
ATOM     26  O   UNL A   1      51.481  44.212  16.974  1.00  0.00    -0.207 OA
BRANCH  24  27
ATOM     27  N   UNL A   1      52.207  42.513  18.629  1.00  0.00    -0.225 NA
ATOM     28  H   UNL A   1      52.975  42.310  17.989  1.00  0.00     0.137 HD
ATOM     29  H   UNL A   1      51.434  41.873  18.447  1.00  0.00     0.137 HD
ENDBRANCH  24  27
ENDBRANCH  19  24
ENDBRANCH  14  18
BRANCH  16  30
ATOM     30  C   UNL A   1      44.922  45.212  19.923  1.00  0.00     0.000 A 
ATOM     31  C   UNL A   1      44.472  44.193  19.075  1.00  0.00     0.010 A 
ATOM     32  C   UNL A   1      44.852  46.543  19.494  1.00  0.00     0.010 A 
ATOM     33  C   UNL A   1      43.983  44.498  17.805  1.00  0.00     0.001 A 
ATOM     34  C   UNL A   1      44.358  46.847  18.224  1.00  0.00     0.001 A 
ATOM     35  C   UNL A   1      43.927  45.824  17.380  1.00  0.00     0.000 A 
ENDBRANCH  16  30
ENDBRANCH  10  13
ENDBRANCH   8   9
ENDBRANCH   7   8
ENDBRANCH   6   7
ENDBRANCH   5   6
ENDBRANCH   4   5
ENDBRANCH   3   4
ENDBRANCH   2   3
ENDBRANCH   1   2
BRANCH   1  36
ATOM     36  C   UNL A   1      43.707  35.136  26.627  1.00  0.00     0.012 C 
BRANCH  36  37
ATOM     37  C   UNL A   1      44.630  34.926  25.421  1.00  0.00     0.123 C 
BRANCH  37  38
ATOM     38  C   UNL A   1      46.113  35.203  25.593  1.00  0.00     0.305 C 
ATOM     39  O   UNL A   1      46.980  34.465  25.142  1.00  0.00    -0.252 OA
BRANCH  38  40
ATOM     40  O   UNL A   1      46.361  36.384  26.215  1.00  0.00    -0.462 OA
BRANCH  40  41
ATOM     41  C   UNL A   1      47.709  36.884  26.189  1.00  0.00     0.274 C 
BRANCH  41  42
ATOM     42  C   UNL A   1      48.457  36.563  27.478  1.00  0.00     0.275 C 
BRANCH  42  43
ATOM     43  O   UNL A   1      47.680  36.919  28.620  1.00  0.00    -0.458 OA
BRANCH  43  44
ATOM     44  C   UNL A   1      47.559  35.921  29.524  1.00  0.00     0.338 C 
ATOM     45  O   UNL A   1      48.422  35.517  30.282  1.00  0.00    -0.246 OA
BRANCH  44  46
ATOM     46  C   UNL A   1      46.278  35.241  29.372  1.00  0.00     0.060 A 
ATOM     47  C   UNL A   1      45.185  35.722  30.104  1.00  0.00     0.016 A 
ATOM     48  C   UNL A   1      46.284  33.977  28.777  1.00  0.00     0.016 A 
ATOM     49  C   UNL A   1      44.147  34.856  30.380  1.00  0.00     0.010 A 
ATOM     50  C   UNL A   1      45.264  33.109  29.077  1.00  0.00     0.010 A 
ATOM     51  C   UNL A   1      44.244  33.536  29.929  1.00  0.00    -0.014 A 
BRANCH  51  52
ATOM     52  C   UNL A   1      43.192  32.603  30.274  1.00  0.00     0.031 A 
ATOM     53  C   UNL A   1      41.898  33.260  30.569  1.00  0.00     0.074 A 
ATOM     54  C   UNL A   1      43.346  31.273  30.129  1.00  0.00     0.049 A 
ATOM     55  N   UNL A   1      41.194  33.195  31.649  1.00  0.00    -0.248 NA
ATOM     56  C   UNL A   1      41.391  34.230  29.582  1.00  0.00     0.031 C 
ATOM     57  C   UNL A   1      44.492  30.567  29.550  1.00  0.00     0.029 A 
ATOM     58  N   UNL A   1      42.444  30.275  30.338  1.00  0.00    -0.354 N 
ATOM     59  C   UNL A   1      40.041  33.923  31.381  1.00  0.00     0.074 A 
ATOM     60  C   UNL A   1      40.312  34.699  30.203  1.00  0.00     0.031 C 
ATOM     61  C   UNL A   1      44.125  29.303  29.242  1.00  0.00     0.029 A 
ATOM     62  C   UNL A   1      42.764  29.079  29.702  1.00  0.00     0.049 A 
ATOM     63  H   UNL A   1      41.637  30.390  30.890  1.00  0.00     0.167 HD
ATOM     64  C   UNL A   1      38.861  33.624  31.984  1.00  0.00     0.034 A 
ATOM     65  C   UNL A   1      41.936  28.020  29.492  1.00  0.00     0.034 A 
ATOM     66  C   UNL A   1      39.070  32.902  33.218  1.00  0.00     0.049 A 
ATOM     67  C   UNL A   1      40.805  28.151  30.444  1.00  0.00     0.074 A 
ATOM     68  C   UNL A   1      39.806  33.159  34.360  1.00  0.00     0.029 A 
ATOM     69  N   UNL A   1      38.810  31.551  33.249  1.00  0.00    -0.354 N 
ATOM     70  N   UNL A   1      40.933  28.045  31.736  1.00  0.00    -0.248 NA
ATOM     71  C   UNL A   1      39.616  28.863  29.999  1.00  0.00     0.031 C 
ATOM     72  C   UNL A   1      40.382  31.904  34.717  1.00  0.00     0.029 A 
ATOM     73  C   UNL A   1      39.899  30.942  33.828  1.00  0.00     0.049 A 
ATOM     74  H   UNL A   1      37.998  31.104  32.919  1.00  0.00     0.167 HD
ATOM     75  C   UNL A   1      40.111  29.029  32.261  1.00  0.00     0.074 A 
ATOM     76  C   UNL A   1      39.246  29.427  31.153  1.00  0.00     0.031 C 
ATOM     77  C   UNL A   1      40.396  29.629  33.455  1.00  0.00     0.034 A 
BRANCH  64  78
ATOM     78  C   UNL A   1      37.531  33.691  31.269  1.00  0.00     0.023 A 
ATOM     79  C   UNL A   1      36.449  34.272  31.948  1.00  0.00     0.031 A 
ATOM     80  C   UNL A   1      37.206  32.986  30.082  1.00  0.00     0.131 A 
ATOM     81  C   UNL A   1      35.132  34.093  31.490  1.00  0.00     0.055 A 
ATOM     82  C   UNL A   1      35.904  32.879  29.589  1.00  0.00     0.041 A 
ATOM     83  F   UNL A   1      38.103  32.280  29.385  1.00  0.00    -0.206 F 
ATOM     84  C   UNL A   1      34.852  33.412  30.309  1.00  0.00     0.022 A 
BRANCH  81  85
ATOM     85  S   UNL A   1      33.771  34.617  32.563  1.00  0.00     0.124 S 
ATOM     86  O   UNL A   1      33.369  33.351  33.167  1.00  0.00    -0.237 OA
ATOM     87  O   UNL A   1      34.436  35.571  33.444  1.00  0.00    -0.237 OA
ATOM     88  O   UNL A   1      32.808  35.196  31.629  1.00  0.00    -0.744 OA
ENDBRANCH  81  85
ENDBRANCH  64  78
BRANCH  65  89
ATOM     89  C   UNL A   1      41.906  27.100  28.323  1.00  0.00     0.023 A 
ATOM     90  C   UNL A   1      42.175  25.721  28.444  1.00  0.00     0.031 A 
ATOM     91  C   UNL A   1      41.362  27.533  27.092  1.00  0.00     0.131 A 
ATOM     92  C   UNL A   1      41.900  24.842  27.370  1.00  0.00     0.055 A 
ATOM     93  C   UNL A   1      41.102  26.663  26.031  1.00  0.00     0.041 A 
ATOM     94  F   UNL A   1      40.977  28.805  26.909  1.00  0.00    -0.206 F 
ATOM     95  C   UNL A   1      41.361  25.309  26.170  1.00  0.00     0.022 A 
BRANCH  92  96
ATOM     96  S   UNL A   1      42.136  23.046  27.563  1.00  0.00     0.124 S 
ATOM     97  O   UNL A   1      43.373  22.814  26.828  1.00  0.00    -0.237 OA
ATOM     98  O   UNL A   1      42.201  22.889  29.012  1.00  0.00    -0.237 OA
ATOM     99  O   UNL A   1      40.937  22.478  26.943  1.00  0.00    -0.744 OA
ENDBRANCH  92  96
ENDBRANCH  65  89
BRANCH  77 100
ATOM    100  C   UNL A   1      41.460  29.003  34.343  1.00  0.00     0.023 A 
ATOM    101  C   UNL A   1      41.242  27.924  35.234  1.00  0.00     0.031 A 
ATOM    102  C   UNL A   1      42.779  29.467  34.203  1.00  0.00     0.131 A 
ATOM    103  C   UNL A   1      42.319  27.374  35.959  1.00  0.00     0.055 A 
ATOM    104  C   UNL A   1      43.847  28.904  34.903  1.00  0.00     0.041 A 
ATOM    105  F   UNL A   1      43.064  30.469  33.355  1.00  0.00    -0.206 F 
ATOM    106  C   UNL A   1      43.619  27.860  35.792  1.00  0.00     0.022 A 
BRANCH 103 107
ATOM    107  S   UNL A   1      42.048  26.031  37.161  1.00  0.00     0.124 S 
ATOM    108  O   UNL A   1      40.636  26.152  37.504  1.00  0.00    -0.237 OA
ATOM    109  O   UNL A   1      42.421  24.844  36.395  1.00  0.00    -0.237 OA
ATOM    110  O   UNL A   1      42.970  26.362  38.251  1.00  0.00    -0.744 OA
ENDBRANCH 103 107
ENDBRANCH  77 100
ENDBRANCH  51  52
ENDBRANCH  44  46
ENDBRANCH  43  44
ENDBRANCH  42  43
ENDBRANCH  41  42
ENDBRANCH  40  41
ENDBRANCH  38  40
ENDBRANCH  37  38
ENDBRANCH  36  37
ENDBRANCH   1  36
TORSDOF 29
ENDMDL
