MODEL 1
REMARK VINA RESULT:     -12.9      0.000      0.000
REMARK SMILES Nc1ccc(-c2cc(Cl)cc3c2O[C@H](C(F)(F)F)C(C(=O)OCCOC(=O)c2ccc(-c4c5nc(c(-c6cc(S(=O)(=O)[O-])ccc6F)c6ccc([nH]6)c(-c6cc(S(=O)(=O)[O-])ccc6F)c6nc(c(-c7cc(S(=O)(=O)[O-])ccc7F)c7ccc4[nH]7)C=C6)C=C5)cc2)=C3)cc1
REMARK SMILES IDX 24 1 23 2 22 3 20 4 21 5 19 6 6 7 7 8 12 9 8 10 11 11 13 12
REMARK SMILES IDX 9 13 10 14 91 15 14 16 5 17 2 18 3 19 93 20 4 21 92 22 1 23
REMARK SMILES IDX 15 26 16 27 17 28 18 29 25 30 26 31 27 32 28 33 29 34 90 35
REMARK SMILES IDX 30 36 89 37 31 38 32 39 33 40 83 41 34 42 88 43 82 44 84 45
REMARK SMILES IDX 35 46 87 47 81 48 80 49 36 51 68 52 48 53 67 54 49 55 52 56
REMARK SMILES IDX 66 57 85 58 50 59 51 60 65 62 86 63 53 64 37 65 38 66 46 67
REMARK SMILES IDX 39 68 45 69 47 70 44 71 40 72 41 73 42 74 43 75 69 76 70 77
REMARK SMILES IDX 78 78 71 79 77 80 79 81 76 82 72 83 73 84 74 85 75 86 54 87
REMARK SMILES IDX 55 88 63 89 56 90 62 91 64 92 61 93 57 94 58 95 59 96 60 97
REMARK H PARENT 1 24 1 25 84 50 52 61
REMARK Flexibility Score: inf
ROOT
ATOM      1  C   UNL A   1      31.891  30.323  26.375  1.00  0.00     0.275 C 
ENDROOT
BRANCH   1   2
ATOM      2  C   UNL A   1      31.455  29.236  25.392  1.00  0.00     0.275 C 
BRANCH   2   3
ATOM      3  O   UNL A   1      32.235  28.031  25.558  1.00  0.00    -0.459 OA
BRANCH   3   4
ATOM      4  C   UNL A   1      31.620  27.016  26.209  1.00  0.00     0.338 C 
ATOM      5  O   UNL A   1      30.627  27.100  26.915  1.00  0.00    -0.246 OA
BRANCH   4   6
ATOM      6  C   UNL A   1      32.309  25.739  25.941  1.00  0.00     0.087 C 
ATOM      7  C   UNL A   1      34.308  22.241  24.768  1.00  0.00     0.026 A 
ATOM      8  C   UNL A   1      35.711  22.204  24.876  1.00  0.00     0.033 A 
ATOM      9  C   UNL A   1      33.626  23.390  25.218  1.00  0.00     0.135 A 
ATOM     10  C   UNL A   1      36.412  23.278  25.419  1.00  0.00     0.042 A 
ATOM     11  C   UNL A   1      34.341  24.475  25.724  1.00  0.00     0.019 A 
ATOM     12  O   UNL A   1      32.255  23.374  25.170  1.00  0.00    -0.475 OA
ATOM     13  Cl  UNL A   1      38.125  23.207  25.539  1.00  0.00    -0.084 Cl
ATOM     14  C   UNL A   1      35.735  24.415  25.841  1.00  0.00     0.032 A 
ATOM     15  C   UNL A   1      33.638  25.686  26.091  1.00  0.00     0.027 C 
ATOM     16  C   UNL A   1      31.511  24.600  25.386  1.00  0.00     0.316 C 
BRANCH   7  17
ATOM     17  C   UNL A   1      33.590  21.109  24.167  1.00  0.00    -0.014 A 
ATOM     18  C   UNL A   1      32.263  18.911  22.982  1.00  0.00     0.031 A 
ATOM     19  C   UNL A   1      33.122  18.721  24.064  1.00  0.00     0.026 A 
ATOM     20  C   UNL A   1      32.093  20.203  22.480  1.00  0.00     0.026 A 
ATOM     21  C   UNL A   1      33.763  19.808  24.663  1.00  0.00     0.011 A 
ATOM     22  C   UNL A   1      32.738  21.293  23.072  1.00  0.00     0.011 A 
BRANCH  18  23
ATOM     23  N   UNL A   1      31.696  17.824  22.336  1.00  0.00    -0.399 N 
ATOM     24  H   UNL A   1      31.782  16.924  22.723  1.00  0.00     0.156 HD
ATOM     25  H   UNL A   1      31.210  17.953  21.491  1.00  0.00     0.156 HD
ENDBRANCH  18  23
ENDBRANCH   7  17
BRANCH  16  26
ATOM     26  C   UNL A   1      30.823  24.993  24.068  1.00  0.00     0.430 C 
ATOM     27  F   UNL A   1      31.613  25.798  23.316  1.00  0.00    -0.167 F 
ATOM     28  F   UNL A   1      30.547  23.908  23.303  1.00  0.00    -0.167 F 
ATOM     29  F   UNL A   1      29.659  25.651  24.273  1.00  0.00    -0.167 F 
ENDBRANCH  16  26
ENDBRANCH   4   6
ENDBRANCH   3   4
ENDBRANCH   2   3
ENDBRANCH   1   2
BRANCH   1  30
ATOM     30  O   UNL A   1      33.319  30.310  26.539  1.00  0.00    -0.458 OA
BRANCH  30  31
ATOM     31  C   UNL A   1      33.822  31.312  27.296  1.00  0.00     0.338 C 
ATOM     32  O   UNL A   1      33.251  32.326  27.655  1.00  0.00    -0.246 OA
BRANCH  31  33
ATOM     33  C   UNL A   1      35.169  30.943  27.750  1.00  0.00     0.060 A 
ATOM     34  C   UNL A   1      36.141  31.895  28.027  1.00  0.00     0.016 A 
ATOM     35  C   UNL A   1      35.408  29.605  28.032  1.00  0.00     0.016 A 
ATOM     36  C   UNL A   1      37.363  31.473  28.569  1.00  0.00     0.010 A 
ATOM     37  C   UNL A   1      36.545  29.215  28.727  1.00  0.00     0.010 A 
ATOM     38  C   UNL A   1      37.570  30.132  28.962  1.00  0.00    -0.014 A 
BRANCH  38  39
ATOM     39  C   UNL A   1      38.845  29.682  29.596  1.00  0.00     0.031 A 
ATOM     40  C   UNL A   1      39.256  30.180  30.967  1.00  0.00     0.074 A 
ATOM     41  C   UNL A   1      39.665  28.852  28.920  1.00  0.00     0.049 A 
ATOM     42  N   UNL A   1      40.310  29.864  31.675  1.00  0.00    -0.248 NA
ATOM     43  C   UNL A   1      38.405  31.198  31.609  1.00  0.00     0.031 C 
ATOM     44  C   UNL A   1      39.450  28.400  27.544  1.00  0.00     0.029 A 
ATOM     45  N   UNL A   1      40.830  28.225  29.293  1.00  0.00    -0.354 N 
ATOM     46  C   UNL A   1      40.256  30.653  32.820  1.00  0.00     0.074 A 
ATOM     47  C   UNL A   1      39.122  31.532  32.671  1.00  0.00     0.031 C 
ATOM     48  C   UNL A   1      40.394  27.505  27.222  1.00  0.00     0.029 A 
ATOM     49  C   UNL A   1      41.318  27.353  28.344  1.00  0.00     0.049 A 
ATOM     50  H   UNL A   1      41.274  28.384  30.157  1.00  0.00     0.167 HD
ATOM     51  C   UNL A   1      41.040  30.612  33.924  1.00  0.00     0.034 A 
ATOM     52  C   UNL A   1      42.371  26.511  28.376  1.00  0.00     0.034 A 
ATOM     53  C   UNL A   1      42.125  29.681  34.088  1.00  0.00     0.049 A 
ATOM     54  C   UNL A   1      43.189  26.424  29.640  1.00  0.00     0.074 A 
ATOM     55  C   UNL A   1      42.921  29.486  35.201  1.00  0.00     0.029 A 
ATOM     56  N   UNL A   1      42.556  28.783  33.122  1.00  0.00    -0.354 N 
ATOM     57  N   UNL A   1      43.041  27.086  30.765  1.00  0.00    -0.248 NA
ATOM     58  C   UNL A   1      44.306  25.469  29.654  1.00  0.00     0.031 C 
ATOM     59  C   UNL A   1      43.870  28.514  34.890  1.00  0.00     0.029 A 
ATOM     60  C   UNL A   1      43.621  28.044  33.610  1.00  0.00     0.049 A 
ATOM     61  H   UNL A   1      42.163  28.684  32.226  1.00  0.00     0.167 HD
ATOM     62  C   UNL A   1      44.029  26.615  31.623  1.00  0.00     0.074 A 
ATOM     63  C   UNL A   1      44.749  25.588  30.901  1.00  0.00     0.031 C 
ATOM     64  C   UNL A   1      44.318  27.004  32.891  1.00  0.00     0.034 A 
BRANCH  51  65
ATOM     65  C   UNL A   1      40.730  31.539  35.078  1.00  0.00     0.023 A 
ATOM     66  C   UNL A   1      39.630  31.282  35.920  1.00  0.00     0.031 A 
ATOM     67  C   UNL A   1      41.432  32.746  35.260  1.00  0.00     0.131 A 
ATOM     68  C   UNL A   1      39.247  32.233  36.877  1.00  0.00     0.055 A 
ATOM     69  C   UNL A   1      41.080  33.663  36.251  1.00  0.00     0.041 A 
ATOM     70  F   UNL A   1      42.481  33.050  34.478  1.00  0.00    -0.206 F 
ATOM     71  C   UNL A   1      39.973  33.414  37.056  1.00  0.00     0.022 A 
BRANCH  68  72
ATOM     72  S   UNL A   1      37.748  32.012  37.876  1.00  0.00     0.124 S 
ATOM     73  O   UNL A   1      36.830  32.964  37.255  1.00  0.00    -0.237 OA
ATOM     74  O   UNL A   1      37.435  30.604  37.647  1.00  0.00    -0.237 OA
ATOM     75  O   UNL A   1      38.174  32.353  39.229  1.00  0.00    -0.744 OA
ENDBRANCH  68  72
ENDBRANCH  51  65
BRANCH  52  76
ATOM     76  C   UNL A   1      42.621  25.616  27.206  1.00  0.00     0.023 A 
ATOM     77  C   UNL A   1      42.148  24.290  27.190  1.00  0.00     0.031 A 
ATOM     78  C   UNL A   1      43.449  26.031  26.149  1.00  0.00     0.131 A 
ATOM     79  C   UNL A   1      42.569  23.410  26.184  1.00  0.00     0.055 A 
ATOM     80  C   UNL A   1      43.803  25.173  25.106  1.00  0.00     0.041 A 
ATOM     81  F   UNL A   1      43.941  27.279  26.126  1.00  0.00    -0.206 F 
ATOM     82  C   UNL A   1      43.379  23.849  25.131  1.00  0.00     0.022 A 
BRANCH  79  83
ATOM     83  S   UNL A   1      42.211  21.634  26.289  1.00  0.00     0.124 S 
ATOM     84  O   UNL A   1      40.781  21.594  26.003  1.00  0.00    -0.237 OA
ATOM     85  O   UNL A   1      43.080  21.093  25.246  1.00  0.00    -0.237 OA
ATOM     86  O   UNL A   1      42.594  21.287  27.654  1.00  0.00    -0.744 OA
ENDBRANCH  79  83
ENDBRANCH  52  76
BRANCH  64  87
ATOM     87  C   UNL A   1      45.458  26.334  33.618  1.00  0.00     0.023 A 
ATOM     88  C   UNL A   1      45.200  25.233  34.460  1.00  0.00     0.031 A 
ATOM     89  C   UNL A   1      46.747  26.893  33.627  1.00  0.00     0.131 A 
ATOM     90  C   UNL A   1      46.202  24.763  35.317  1.00  0.00     0.055 A 
ATOM     91  C   UNL A   1      47.757  26.384  34.444  1.00  0.00     0.041 A 
ATOM     92  F   UNL A   1      47.036  27.951  32.854  1.00  0.00    -0.206 F 
ATOM     93  C   UNL A   1      47.483  25.327  35.307  1.00  0.00     0.022 A 
BRANCH  90  94
ATOM     94  S   UNL A   1      45.851  23.481  36.551  1.00  0.00     0.124 S 
ATOM     95  O   UNL A   1      47.148  22.820  36.677  1.00  0.00    -0.237 OA
ATOM     96  O   UNL A   1      45.440  24.271  37.708  1.00  0.00    -0.237 OA
ATOM     97  O   UNL A   1      44.802  22.676  35.936  1.00  0.00    -0.744 OA
ENDBRANCH  90  94
ENDBRANCH  64  87
ENDBRANCH  38  39
ENDBRANCH  31  33
ENDBRANCH  30  31
ENDBRANCH   1  30
TORSDOF 17
ENDMDL
MODEL 2
REMARK VINA RESULT:     -12.8      1.553      1.909
REMARK SMILES Nc1ccc(-c2cc(Cl)cc3c2O[C@H](C(F)(F)F)C(C(=O)OCCOC(=O)c2ccc(-c4c5nc(c(-c6cc(S(=O)(=O)[O-])ccc6F)c6ccc([nH]6)c(-c6cc(S(=O)(=O)[O-])ccc6F)c6nc(c(-c7cc(S(=O)(=O)[O-])ccc7F)c7ccc4[nH]7)C=C6)C=C5)cc2)=C3)cc1
REMARK SMILES IDX 24 1 23 2 22 3 20 4 21 5 19 6 6 7 7 8 12 9 8 10 11 11 13 12
REMARK SMILES IDX 9 13 10 14 91 15 14 16 5 17 2 18 3 19 93 20 4 21 92 22 1 23
REMARK SMILES IDX 15 26 16 27 17 28 18 29 25 30 26 31 27 32 28 33 29 34 90 35
REMARK SMILES IDX 30 36 89 37 31 38 32 39 33 40 83 41 34 42 88 43 82 44 84 45
REMARK SMILES IDX 35 46 87 47 81 48 80 49 36 51 68 52 48 53 67 54 49 55 52 56
REMARK SMILES IDX 66 57 85 58 50 59 51 60 65 62 86 63 53 64 37 65 38 66 46 67
REMARK SMILES IDX 39 68 45 69 47 70 44 71 40 72 41 73 42 74 43 75 69 76 70 77
REMARK SMILES IDX 78 78 71 79 77 80 79 81 76 82 72 83 73 84 74 85 75 86 54 87
REMARK SMILES IDX 55 88 63 89 56 90 62 91 64 92 61 93 57 94 58 95 59 96 60 97
REMARK H PARENT 1 24 1 25 84 50 52 61
REMARK Flexibility Score: inf
ROOT
ATOM      1  C   UNL A   1      31.446  30.271  25.711  1.00  0.00     0.275 C 
ENDROOT
BRANCH   1   2
ATOM      2  C   UNL A   1      31.210  29.058  24.811  1.00  0.00     0.275 C 
BRANCH   2   3
ATOM      3  O   UNL A   1      32.098  27.969  25.148  1.00  0.00    -0.459 OA
BRANCH   3   4
ATOM      4  C   UNL A   1      31.583  27.023  25.968  1.00  0.00     0.338 C 
ATOM      5  O   UNL A   1      30.671  27.170  26.766  1.00  0.00    -0.246 OA
BRANCH   4   6
ATOM      6  C   UNL A   1      32.273  25.735  25.765  1.00  0.00     0.087 C 
ATOM      7  C   UNL A   1      34.294  22.194  24.773  1.00  0.00     0.026 A 
ATOM      8  C   UNL A   1      35.690  22.148  24.950  1.00  0.00     0.033 A 
ATOM      9  C   UNL A   1      33.601  23.358  25.162  1.00  0.00     0.135 A 
ATOM     10  C   UNL A   1      36.374  23.229  25.501  1.00  0.00     0.042 A 
ATOM     11  C   UNL A   1      34.301  24.449  25.677  1.00  0.00     0.019 A 
ATOM     12  O   UNL A   1      32.234  23.353  25.048  1.00  0.00    -0.475 OA
ATOM     13  Cl  UNL A   1      38.078  23.148  25.706  1.00  0.00    -0.084 Cl
ATOM     14  C   UNL A   1      35.687  24.381  25.863  1.00  0.00     0.032 A 
ATOM     15  C   UNL A   1      33.592  25.675  25.980  1.00  0.00     0.027 C 
ATOM     16  C   UNL A   1      31.492  24.589  25.198  1.00  0.00     0.316 C 
BRANCH   7  17
ATOM     17  C   UNL A   1      33.595  21.053  24.165  1.00  0.00    -0.014 A 
ATOM     18  C   UNL A   1      32.307  18.841  22.965  1.00  0.00     0.031 A 
ATOM     19  C   UNL A   1      33.161  18.660  24.053  1.00  0.00     0.026 A 
ATOM     20  C   UNL A   1      32.123  20.131  22.465  1.00  0.00     0.026 A 
ATOM     21  C   UNL A   1      33.783  19.753  24.658  1.00  0.00     0.011 A 
ATOM     22  C   UNL A   1      32.749  21.228  23.064  1.00  0.00     0.011 A 
BRANCH  18  23
ATOM     23  N   UNL A   1      31.760  17.748  22.313  1.00  0.00    -0.399 N 
ATOM     24  H   UNL A   1      30.798  17.731  22.105  1.00  0.00     0.156 HD
ATOM     25  H   UNL A   1      32.332  16.988  22.061  1.00  0.00     0.156 HD
ENDBRANCH  18  23
ENDBRANCH   7  17
BRANCH  16  26
ATOM     26  C   UNL A   1      30.873  24.956  23.839  1.00  0.00     0.430 C 
ATOM     27  F   UNL A   1      30.510  23.851  23.144  1.00  0.00    -0.167 F 
ATOM     28  F   UNL A   1      29.750  25.702  23.984  1.00  0.00    -0.167 F 
ATOM     29  F   UNL A   1      31.727  25.658  23.059  1.00  0.00    -0.167 F 
ENDBRANCH  16  26
ENDBRANCH   4   6
ENDBRANCH   3   4
ENDBRANCH   2   3
ENDBRANCH   1   2
BRANCH   1  30
ATOM     30  O   UNL A   1      32.794  30.272  26.210  1.00  0.00    -0.458 OA
BRANCH  30  31
ATOM     31  C   UNL A   1      33.131  31.348  26.957  1.00  0.00     0.338 C 
ATOM     32  O   UNL A   1      32.435  32.311  27.226  1.00  0.00    -0.246 OA
BRANCH  31  33
ATOM     33  C   UNL A   1      34.467  31.137  27.530  1.00  0.00     0.060 A 
ATOM     34  C   UNL A   1      35.291  32.194  27.892  1.00  0.00     0.016 A 
ATOM     35  C   UNL A   1      34.837  29.834  27.834  1.00  0.00     0.016 A 
ATOM     36  C   UNL A   1      36.501  31.915  28.541  1.00  0.00     0.010 A 
ATOM     37  C   UNL A   1      35.946  29.575  28.629  1.00  0.00     0.010 A 
ATOM     38  C   UNL A   1      36.831  30.604  28.952  1.00  0.00    -0.014 A 
BRANCH  38  39
ATOM     39  C   UNL A   1      38.088  30.302  29.698  1.00  0.00     0.031 A 
ATOM     40  C   UNL A   1      38.320  30.843  31.094  1.00  0.00     0.074 A 
ATOM     41  C   UNL A   1      39.053  29.571  29.103  1.00  0.00     0.049 A 
ATOM     42  N   UNL A   1      39.338  30.648  31.894  1.00  0.00    -0.248 NA
ATOM     43  C   UNL A   1      37.307  31.757  31.651  1.00  0.00     0.031 C 
ATOM     44  C   UNL A   1      39.011  29.097  27.719  1.00  0.00     0.029 A 
ATOM     45  N   UNL A   1      40.245  29.080  29.581  1.00  0.00    -0.354 N 
ATOM     46  C   UNL A   1      39.095  31.426  33.022  1.00  0.00     0.074 A 
ATOM     47  C   UNL A   1      37.886  32.170  32.768  1.00  0.00     0.031 C 
ATOM     48  C   UNL A   1      40.075  28.316  27.487  1.00  0.00     0.029 A 
ATOM     49  C   UNL A   1      40.908  28.270  28.686  1.00  0.00     0.049 A 
ATOM     50  H   UNL A   1      40.591  29.289  30.479  1.00  0.00     0.167 HD
ATOM     51  C   UNL A   1      39.780  31.474  34.191  1.00  0.00     0.034 A 
ATOM     52  C   UNL A   1      42.044  27.553  28.817  1.00  0.00     0.034 A 
ATOM     53  C   UNL A   1      40.945  30.672  34.456  1.00  0.00     0.049 A 
ATOM     54  C   UNL A   1      42.754  27.559  30.148  1.00  0.00     0.074 A 
ATOM     55  C   UNL A   1      41.659  30.569  35.635  1.00  0.00     0.029 A 
ATOM     56  N   UNL A   1      41.558  29.830  33.540  1.00  0.00    -0.354 N 
ATOM     57  N   UNL A   1      42.434  28.200  31.249  1.00  0.00    -0.248 NA
ATOM     58  C   UNL A   1      43.966  26.738  30.267  1.00  0.00     0.031 C 
ATOM     59  C   UNL A   1      42.736  29.712  35.417  1.00  0.00     0.029 A 
ATOM     60  C   UNL A   1      42.653  29.217  34.124  1.00  0.00     0.049 A 
ATOM     61  H   UNL A   1      41.258  29.687  32.614  1.00  0.00     0.167 HD
ATOM     62  C   UNL A   1      43.392  27.844  32.194  1.00  0.00     0.074 A 
ATOM     63  C   UNL A   1      44.283  26.906  31.546  1.00  0.00     0.031 C 
ATOM     64  C   UNL A   1      43.523  28.263  33.478  1.00  0.00     0.034 A 
BRANCH  51  65
ATOM     65  C   UNL A   1      39.268  32.360  35.305  1.00  0.00     0.023 A 
ATOM     66  C   UNL A   1      39.754  33.674  35.447  1.00  0.00     0.031 A 
ATOM     67  C   UNL A   1      38.410  31.862  36.304  1.00  0.00     0.131 A 
ATOM     68  C   UNL A   1      39.405  34.428  36.577  1.00  0.00     0.055 A 
ATOM     69  C   UNL A   1      38.023  32.636  37.398  1.00  0.00     0.041 A 
ATOM     70  F   UNL A   1      37.927  30.611  36.227  1.00  0.00    -0.206 F 
ATOM     71  C   UNL A   1      38.533  33.922  37.545  1.00  0.00     0.022 A 
BRANCH  68  72
ATOM     72  S   UNL A   1      40.129  36.065  36.876  1.00  0.00     0.124 S 
ATOM     73  O   UNL A   1      41.542  35.741  37.055  1.00  0.00    -0.237 OA
ATOM     74  O   UNL A   1      39.803  36.771  35.640  1.00  0.00    -0.237 OA
ATOM     75  O   UNL A   1      39.444  36.539  38.074  1.00  0.00    -0.744 OA
ENDBRANCH  68  72
ENDBRANCH  51  65
BRANCH  52  76
ATOM     76  C   UNL A   1      42.494  26.692  27.681  1.00  0.00     0.023 A 
ATOM     77  C   UNL A   1      42.206  25.315  27.654  1.00  0.00     0.031 A 
ATOM     78  C   UNL A   1      43.331  27.209  26.678  1.00  0.00     0.131 A 
ATOM     79  C   UNL A   1      42.812  24.494  26.693  1.00  0.00     0.055 A 
ATOM     80  C   UNL A   1      43.870  26.400  25.675  1.00  0.00     0.041 A 
ATOM     81  F   UNL A   1      43.651  28.513  26.669  1.00  0.00    -0.206 F 
ATOM     82  C   UNL A   1      43.628  25.032  25.692  1.00  0.00     0.022 A 
BRANCH  79  83
ATOM     83  S   UNL A   1      42.689  22.687  26.802  1.00  0.00     0.124 S 
ATOM     84  O   UNL A   1      43.920  22.257  26.148  1.00  0.00    -0.237 OA
ATOM     85  O   UNL A   1      42.636  22.478  28.248  1.00  0.00    -0.237 OA
ATOM     86  O   UNL A   1      41.453  22.383  26.088  1.00  0.00    -0.744 OA
ENDBRANCH  79  83
ENDBRANCH  52  76
BRANCH  64  87
ATOM     87  C   UNL A   1      44.665  27.727  34.307  1.00  0.00     0.023 A 
ATOM     88  C   UNL A   1      44.451  26.631  35.167  1.00  0.00     0.031 A 
ATOM     89  C   UNL A   1      45.891  28.407  34.387  1.00  0.00     0.131 A 
ATOM     90  C   UNL A   1      45.426  26.284  36.108  1.00  0.00     0.055 A 
ATOM     91  C   UNL A   1      46.882  28.022  35.290  1.00  0.00     0.041 A 
ATOM     92  F   UNL A   1      46.136  29.466  33.600  1.00  0.00    -0.206 F 
ATOM     93  C   UNL A   1      46.646  26.968  36.169  1.00  0.00     0.022 A 
BRANCH  90  94
ATOM     94  S   UNL A   1      45.108  25.010  37.360  1.00  0.00     0.124 S 
ATOM     95  O   UNL A   1      45.764  23.842  36.775  1.00  0.00    -0.237 OA
ATOM     96  O   UNL A   1      45.762  25.567  38.540  1.00  0.00    -0.237 OA
ATOM     97  O   UNL A   1      43.652  24.935  37.425  1.00  0.00    -0.744 OA
ENDBRANCH  90  94
ENDBRANCH  64  87
ENDBRANCH  38  39
ENDBRANCH  31  33
ENDBRANCH  30  31
ENDBRANCH   1  30
TORSDOF 17
ENDMDL
MODEL 3
REMARK VINA RESULT:     -12.8      5.038     10.011
REMARK SMILES Nc1ccc(-c2cc(Cl)cc3c2O[C@H](C(F)(F)F)C(C(=O)OCCOC(=O)c2ccc(-c4c5nc(c(-c6cc(S(=O)(=O)[O-])ccc6F)c6ccc([nH]6)c(-c6cc(S(=O)(=O)[O-])ccc6F)c6nc(c(-c7cc(S(=O)(=O)[O-])ccc7F)c7ccc4[nH]7)C=C6)C=C5)cc2)=C3)cc1
REMARK SMILES IDX 24 1 23 2 22 3 20 4 21 5 19 6 6 7 7 8 12 9 8 10 11 11 13 12
REMARK SMILES IDX 9 13 10 14 91 15 14 16 5 17 2 18 3 19 93 20 4 21 92 22 1 23
REMARK SMILES IDX 15 26 16 27 17 28 18 29 25 30 26 31 27 32 28 33 29 34 90 35
REMARK SMILES IDX 30 36 89 37 31 38 32 39 33 40 83 41 34 42 88 43 82 44 84 45
REMARK SMILES IDX 35 46 87 47 81 48 80 49 36 51 68 52 48 53 67 54 49 55 52 56
REMARK SMILES IDX 66 57 85 58 50 59 51 60 65 62 86 63 53 64 37 65 38 66 46 67
REMARK SMILES IDX 39 68 45 69 47 70 44 71 40 72 41 73 42 74 43 75 69 76 70 77
REMARK SMILES IDX 78 78 71 79 77 80 79 81 76 82 72 83 73 84 74 85 75 86 54 87
REMARK SMILES IDX 55 88 63 89 56 90 62 91 64 92 61 93 57 94 58 95 59 96 60 97
REMARK H PARENT 1 24 1 25 84 50 52 61
REMARK Flexibility Score: inf
ROOT
ATOM      1  C   UNL A   1      36.370  20.942  25.319  1.00  0.00     0.275 C 
ENDROOT
BRANCH   1   2
ATOM      2  C   UNL A   1      35.269  21.956  25.629  1.00  0.00     0.275 C 
BRANCH   2   3
ATOM      3  O   UNL A   1      34.362  22.108  24.514  1.00  0.00    -0.459 OA
BRANCH   3   4
ATOM      4  C   UNL A   1      34.723  23.020  23.582  1.00  0.00     0.338 C 
ATOM      5  O   UNL A   1      35.481  22.839  22.641  1.00  0.00    -0.246 OA
BRANCH   4   6
ATOM      6  C   UNL A   1      34.053  24.310  23.837  1.00  0.00     0.087 C 
ATOM      7  C   UNL A   1      31.892  27.764  24.841  1.00  0.00     0.026 A 
ATOM      8  C   UNL A   1      32.362  28.564  25.899  1.00  0.00     0.033 A 
ATOM      9  C   UNL A   1      32.647  26.636  24.458  1.00  0.00     0.135 A 
ATOM     10  C   UNL A   1      33.551  28.250  26.555  1.00  0.00     0.042 A 
ATOM     11  C   UNL A   1      33.815  26.310  25.147  1.00  0.00     0.019 A 
ATOM     12  O   UNL A   1      32.207  25.913  23.378  1.00  0.00    -0.475 OA
ATOM     13  Cl  UNL A   1      34.104  29.243  27.844  1.00  0.00    -0.084 Cl
ATOM     14  C   UNL A   1      34.278  27.126  26.185  1.00  0.00     0.032 A 
ATOM     15  C   UNL A   1      34.528  25.096  24.810  1.00  0.00     0.027 C 
ATOM     16  C   UNL A   1      32.793  24.619  23.088  1.00  0.00     0.316 C 
BRANCH   7  17
ATOM     17  C   UNL A   1      30.621  28.096  24.182  1.00  0.00    -0.014 A 
ATOM     18  C   UNL A   1      28.159  28.768  22.966  1.00  0.00     0.031 A 
ATOM     19  C   UNL A   1      29.171  29.719  23.090  1.00  0.00     0.026 A 
ATOM     20  C   UNL A   1      28.376  27.487  23.477  1.00  0.00     0.026 A 
ATOM     21  C   UNL A   1      30.394  29.384  23.674  1.00  0.00     0.011 A 
ATOM     22  C   UNL A   1      29.597  27.148  24.067  1.00  0.00     0.011 A 
BRANCH  18  23
ATOM     23  N   UNL A   1      26.917  29.125  22.466  1.00  0.00    -0.399 N 
ATOM     24  H   UNL A   1      26.244  29.524  23.063  1.00  0.00     0.156 HD
ATOM     25  H   UNL A   1      26.708  28.978  21.516  1.00  0.00     0.156 HD
ENDBRANCH  18  23
ENDBRANCH   7  17
BRANCH  16  26
ATOM     26  C   UNL A   1      31.727  23.536  23.321  1.00  0.00     0.430 C 
ATOM     27  F   UNL A   1      30.492  23.971  22.971  1.00  0.00    -0.167 F 
ATOM     28  F   UNL A   1      31.966  22.428  22.578  1.00  0.00    -0.167 F 
ATOM     29  F   UNL A   1      31.664  23.149  24.616  1.00  0.00    -0.167 F 
ENDBRANCH  16  26
ENDBRANCH   4   6
ENDBRANCH   3   4
ENDBRANCH   2   3
ENDBRANCH   1   2
BRANCH   1  30
ATOM     30  O   UNL A   1      37.610  21.613  25.039  1.00  0.00    -0.458 OA
BRANCH  30  31
ATOM     31  C   UNL A   1      38.670  21.194  25.767  1.00  0.00     0.338 C 
ATOM     32  O   UNL A   1      39.125  20.066  25.831  1.00  0.00    -0.246 OA
BRANCH  31  33
ATOM     33  C   UNL A   1      39.306  22.356  26.404  1.00  0.00     0.060 A 
ATOM     34  C   UNL A   1      40.448  22.236  27.184  1.00  0.00     0.016 A 
ATOM     35  C   UNL A   1      38.808  23.613  26.090  1.00  0.00     0.016 A 
ATOM     36  C   UNL A   1      41.064  23.401  27.660  1.00  0.00     0.010 A 
ATOM     37  C   UNL A   1      39.518  24.762  26.416  1.00  0.00     0.010 A 
ATOM     38  C   UNL A   1      40.630  24.683  27.254  1.00  0.00    -0.014 A 
BRANCH  38  39
ATOM     39  C   UNL A   1      41.315  25.930  27.706  1.00  0.00     0.031 A 
ATOM     40  C   UNL A   1      42.727  26.253  27.260  1.00  0.00     0.074 A 
ATOM     41  C   UNL A   1      40.684  26.762  28.559  1.00  0.00     0.049 A 
ATOM     42  N   UNL A   1      43.454  27.307  27.530  1.00  0.00    -0.248 NA
ATOM     43  C   UNL A   1      43.435  25.248  26.447  1.00  0.00     0.031 C 
ATOM     44  C   UNL A   1      39.376  26.506  29.164  1.00  0.00     0.029 A 
ATOM     45  N   UNL A   1      41.038  27.994  29.054  1.00  0.00    -0.354 N 
ATOM     46  C   UNL A   1      44.696  27.079  26.944  1.00  0.00     0.074 A 
ATOM     47  C   UNL A   1      44.659  25.750  26.386  1.00  0.00     0.031 C 
ATOM     48  C   UNL A   1      39.000  27.579  29.872  1.00  0.00     0.029 A 
ATOM     49  C   UNL A   1      40.058  28.585  29.821  1.00  0.00     0.049 A 
ATOM     50  H   UNL A   1      41.910  28.415  28.876  1.00  0.00     0.167 HD
ATOM     51  C   UNL A   1      45.752  27.921  26.825  1.00  0.00     0.034 A 
ATOM     52  C   UNL A   1      40.003  29.802  30.400  1.00  0.00     0.034 A 
ATOM     53  C   UNL A   1      45.747  29.270  27.325  1.00  0.00     0.049 A 
ATOM     54  C   UNL A   1      41.156  30.753  30.195  1.00  0.00     0.074 A 
ATOM     55  C   UNL A   1      46.722  30.238  27.176  1.00  0.00     0.029 A 
ATOM     56  N   UNL A   1      44.717  29.845  28.055  1.00  0.00    -0.354 N 
ATOM     57  N   UNL A   1      42.269  30.566  29.524  1.00  0.00    -0.248 NA
ATOM     58  C   UNL A   1      41.046  32.084  30.808  1.00  0.00     0.031 C 
ATOM     59  C   UNL A   1      46.310  31.378  27.864  1.00  0.00     0.029 A 
ATOM     60  C   UNL A   1      45.043  31.150  28.379  1.00  0.00     0.049 A 
ATOM     61  H   UNL A   1      43.879  29.393  28.304  1.00  0.00     0.167 HD
ATOM     62  C   UNL A   1      42.980  31.758  29.617  1.00  0.00     0.074 A 
ATOM     63  C   UNL A   1      42.158  32.672  30.381  1.00  0.00     0.031 C 
ATOM     64  C   UNL A   1      44.206  32.064  29.121  1.00  0.00     0.034 A 
BRANCH  51  65
ATOM     65  C   UNL A   1      46.979  27.454  26.073  1.00  0.00     0.023 A 
ATOM     66  C   UNL A   1      47.166  27.817  24.725  1.00  0.00     0.031 A 
ATOM     67  C   UNL A   1      47.886  26.541  26.642  1.00  0.00     0.131 A 
ATOM     68  C   UNL A   1      48.211  27.243  23.987  1.00  0.00     0.055 A 
ATOM     69  C   UNL A   1      48.958  26.016  25.919  1.00  0.00     0.041 A 
ATOM     70  F   UNL A   1      47.749  26.149  27.920  1.00  0.00    -0.206 F 
ATOM     71  C   UNL A   1      49.115  26.356  24.580  1.00  0.00     0.022 A 
BRANCH  68  72
ATOM     72  S   UNL A   1      48.396  27.564  22.210  1.00  0.00     0.124 S 
ATOM     73  O   UNL A   1      49.554  28.455  22.185  1.00  0.00    -0.237 OA
ATOM     74  O   UNL A   1      48.631  26.223  21.682  1.00  0.00    -0.237 OA
ATOM     75  O   UNL A   1      47.130  28.181  21.830  1.00  0.00    -0.744 OA
ENDBRANCH  68  72
ENDBRANCH  51  65
BRANCH  52  76
ATOM     76  C   UNL A   1      38.760  30.206  31.124  1.00  0.00     0.023 A 
ATOM     77  C   UNL A   1      37.742  30.929  30.475  1.00  0.00     0.031 A 
ATOM     78  C   UNL A   1      38.634  29.991  32.507  1.00  0.00     0.131 A 
ATOM     79  C   UNL A   1      36.688  31.475  31.221  1.00  0.00     0.055 A 
ATOM     80  C   UNL A   1      37.541  30.470  33.233  1.00  0.00     0.041 A 
ATOM     81  F   UNL A   1      39.585  29.323  33.177  1.00  0.00    -0.206 F 
ATOM     82  C   UNL A   1      36.572  31.233  32.593  1.00  0.00     0.022 A 
BRANCH  79  83
ATOM     83  S   UNL A   1      35.521  32.643  30.467  1.00  0.00     0.124 S 
ATOM     84  O   UNL A   1      34.353  32.507  31.330  1.00  0.00    -0.237 OA
ATOM     85  O   UNL A   1      36.248  33.906  30.582  1.00  0.00    -0.237 OA
ATOM     86  O   UNL A   1      35.365  32.142  29.105  1.00  0.00    -0.744 OA
ENDBRANCH  79  83
ENDBRANCH  52  76
BRANCH  64  87
ATOM     87  C   UNL A   1      44.769  33.442  29.365  1.00  0.00     0.023 A 
ATOM     88  C   UNL A   1      44.689  34.420  28.354  1.00  0.00     0.031 A 
ATOM     89  C   UNL A   1      45.540  33.725  30.505  1.00  0.00     0.131 A 
ATOM     90  C   UNL A   1      45.414  35.611  28.478  1.00  0.00     0.055 A 
ATOM     91  C   UNL A   1      46.216  34.936  30.648  1.00  0.00     0.041 A 
ATOM     92  F   UNL A   1      45.659  32.819  31.489  1.00  0.00    -0.206 F 
ATOM     93  C   UNL A   1      46.170  35.879  29.624  1.00  0.00     0.022 A 
BRANCH  90  94
ATOM     94  S   UNL A   1      45.492  36.805  27.114  1.00  0.00     0.124 S 
ATOM     95  O   UNL A   1      46.446  37.786  27.626  1.00  0.00    -0.237 OA
ATOM     96  O   UNL A   1      45.978  35.981  26.011  1.00  0.00    -0.237 OA
ATOM     97  O   UNL A   1      44.121  37.284  26.984  1.00  0.00    -0.744 OA
ENDBRANCH  90  94
ENDBRANCH  64  87
ENDBRANCH  38  39
ENDBRANCH  31  33
ENDBRANCH  30  31
ENDBRANCH   1  30
TORSDOF 17
ENDMDL
