MODEL 1
REMARK VINA RESULT:     -11.3      0.000      0.000
REMARK SMILES O=C(OCCOC(=O)[C@H]1SC=C[C@@H]1S(=O)(=O)NCCC1=c2ccccc2=NC1)c1ccc(-c2c3nc(c(-c4cc(S(=O)(=O)[O-])ccc4F)c4ccc([nH]4)c(-c4cc(S(=O)(=O)[O-])ccc4F)c4nc(c(-c5cc(S(=O)(=O)[O-])ccc5F)c5ccc2[nH]5)C=C4)C=C3)cc1
REMARK SMILES IDX 5 1 4 2 3 3 2 4 1 5 29 6 30 7 91 8 31 9 90 10 32 11 33 12
REMARK SMILES IDX 34 13 84 14 35 15 89 16 83 17 85 18 36 19 88 20 82 21 81 22
REMARK SMILES IDX 37 24 69 25 49 26 68 27 50 28 53 29 67 30 86 31 51 32 52 33
REMARK SMILES IDX 66 35 87 36 54 37 38 38 39 39 47 40 40 41 46 42 48 43 45 44
REMARK SMILES IDX 41 45 42 46 43 47 44 48 70 49 71 50 79 51 72 52 78 53 80 54
REMARK SMILES IDX 77 55 73 56 74 57 75 58 76 59 55 60 56 61 64 62 57 63 63 64
REMARK SMILES IDX 65 65 62 66 58 67 59 68 60 69 61 70 6 71 7 72 8 73 9 74
REMARK SMILES IDX 10 75 13 76 11 77 12 78 14 79 15 80 16 81 17 82 18 84 19 85
REMARK SMILES IDX 20 86 21 87 28 88 22 89 26 90 27 91 23 92 25 93 24 94
REMARK H PARENT 85 23 53 34 17 83
REMARK Flexibility Score: inf
ROOT
ATOM      1  C   UNL A   1      37.650  19.664  24.679  1.00  0.00     0.274 C 
ENDROOT
BRANCH   1   2
ATOM      2  C   UNL A   1      39.003  19.589  25.400  1.00  0.00     0.275 C 
BRANCH   2   3
ATOM      3  O   UNL A   1      39.234  20.776  26.183  1.00  0.00    -0.458 OA
BRANCH   3   4
ATOM      4  C   UNL A   1      40.383  20.955  26.898  1.00  0.00     0.338 C 
ATOM      5  O   UNL A   1      40.846  20.025  27.548  1.00  0.00    -0.246 OA
BRANCH   4   6
ATOM      6  C   UNL A   1      40.819  22.369  27.157  1.00  0.00     0.060 A 
ATOM      7  C   UNL A   1      41.657  22.586  28.260  1.00  0.00     0.016 A 
ATOM      8  C   UNL A   1      40.408  23.484  26.423  1.00  0.00     0.016 A 
ATOM      9  C   UNL A   1      41.930  23.882  28.715  1.00  0.00     0.010 A 
ATOM     10  C   UNL A   1      40.692  24.779  26.857  1.00  0.00     0.010 A 
ATOM     11  C   UNL A   1      41.427  24.991  28.025  1.00  0.00    -0.014 A 
BRANCH  11  12
ATOM     12  C   UNL A   1      41.844  26.370  28.357  1.00  0.00     0.031 A 
ATOM     13  C   UNL A   1      40.885  27.406  28.863  1.00  0.00     0.074 A 
ATOM     14  C   UNL A   1      43.109  26.701  28.047  1.00  0.00     0.049 A 
ATOM     15  N   UNL A   1      41.129  28.619  29.281  1.00  0.00    -0.248 NA
ATOM     16  C   UNL A   1      39.466  27.036  28.911  1.00  0.00     0.031 C 
ATOM     17  C   UNL A   1      44.086  25.779  27.466  1.00  0.00     0.029 A 
ATOM     18  N   UNL A   1      43.771  27.894  28.123  1.00  0.00    -0.354 N 
ATOM     19  C   UNL A   1      39.908  29.129  29.715  1.00  0.00     0.074 A 
ATOM     20  C   UNL A   1      38.914  28.113  29.458  1.00  0.00     0.031 C 
ATOM     21  C   UNL A   1      45.216  26.446  27.214  1.00  0.00     0.029 A 
ATOM     22  C   UNL A   1      45.033  27.845  27.587  1.00  0.00     0.049 A 
ATOM     23  H   UNL A   1      43.382  28.706  28.521  1.00  0.00     0.167 HD
ATOM     24  C   UNL A   1      39.655  30.343  30.262  1.00  0.00     0.034 A 
ATOM     25  C   UNL A   1      45.939  28.823  27.400  1.00  0.00     0.034 A 
ATOM     26  C   UNL A   1      40.647  31.386  30.336  1.00  0.00     0.049 A 
ATOM     27  C   UNL A   1      45.618  30.192  27.927  1.00  0.00     0.074 A 
ATOM     28  C   UNL A   1      40.518  32.658  30.864  1.00  0.00     0.029 A 
ATOM     29  N   UNL A   1      41.930  31.301  29.807  1.00  0.00    -0.354 N 
ATOM     30  N   UNL A   1      44.520  30.608  28.517  1.00  0.00    -0.248 NA
ATOM     31  C   UNL A   1      46.657  31.217  27.799  1.00  0.00     0.031 C 
ATOM     32  C   UNL A   1      41.670  33.376  30.541  1.00  0.00     0.029 A 
ATOM     33  C   UNL A   1      42.573  32.521  29.924  1.00  0.00     0.049 A 
ATOM     34  H   UNL A   1      42.323  30.491  29.407  1.00  0.00     0.167 HD
ATOM     35  C   UNL A   1      44.746  31.936  28.857  1.00  0.00     0.074 A 
ATOM     36  C   UNL A   1      46.094  32.245  28.423  1.00  0.00     0.031 C 
ATOM     37  C   UNL A   1      43.915  32.815  29.475  1.00  0.00     0.034 A 
BRANCH  24  38
ATOM     38  C   UNL A   1      38.276  30.638  30.810  1.00  0.00     0.023 A 
ATOM     39  C   UNL A   1      37.337  31.354  30.042  1.00  0.00     0.031 A 
ATOM     40  C   UNL A   1      37.957  30.365  32.153  1.00  0.00     0.131 A 
ATOM     41  C   UNL A   1      36.152  31.815  30.634  1.00  0.00     0.055 A 
ATOM     42  C   UNL A   1      36.759  30.795  32.729  1.00  0.00     0.041 A 
ATOM     43  F   UNL A   1      38.818  29.694  32.936  1.00  0.00    -0.206 F 
ATOM     44  C   UNL A   1      35.856  31.537  31.972  1.00  0.00     0.022 A 
BRANCH  41  45
ATOM     45  S   UNL A   1      34.981  32.854  29.715  1.00  0.00     0.124 S 
ATOM     46  O   UNL A   1      33.959  33.121  30.726  1.00  0.00    -0.237 OA
ATOM     47  O   UNL A   1      35.810  34.001  29.352  1.00  0.00    -0.237 OA
ATOM     48  O   UNL A   1      34.552  32.005  28.610  1.00  0.00    -0.744 OA
ENDBRANCH  41  45
ENDBRANCH  24  38
BRANCH  25  49
ATOM     49  C   UNL A   1      47.238  28.461  26.766  1.00  0.00     0.023 A 
ATOM     50  C   UNL A   1      47.356  28.404  25.362  1.00  0.00     0.031 A 
ATOM     51  C   UNL A   1      48.297  27.966  27.541  1.00  0.00     0.131 A 
ATOM     52  C   UNL A   1      48.463  27.774  24.783  1.00  0.00     0.055 A 
ATOM     53  C   UNL A   1      49.436  27.411  26.957  1.00  0.00     0.041 A 
ATOM     54  F   UNL A   1      48.217  27.977  28.880  1.00  0.00    -0.206 F 
ATOM     55  C   UNL A   1      49.512  27.290  25.572  1.00  0.00     0.022 A 
BRANCH  52  56
ATOM     56  S   UNL A   1      48.490  27.391  23.008  1.00  0.00     0.124 S 
ATOM     57  O   UNL A   1      47.338  28.142  22.518  1.00  0.00    -0.237 OA
ATOM     58  O   UNL A   1      49.797  27.908  22.608  1.00  0.00    -0.237 OA
ATOM     59  O   UNL A   1      48.362  25.938  22.965  1.00  0.00    -0.744 OA
ENDBRANCH  52  56
ENDBRANCH  25  49
BRANCH  37  60
ATOM     60  C   UNL A   1      44.415  34.217  29.724  1.00  0.00     0.023 A 
ATOM     61  C   UNL A   1      44.172  35.222  28.767  1.00  0.00     0.031 A 
ATOM     62  C   UNL A   1      45.263  34.517  30.803  1.00  0.00     0.131 A 
ATOM     63  C   UNL A   1      44.817  36.457  28.876  1.00  0.00     0.055 A 
ATOM     64  C   UNL A   1      45.852  35.774  30.942  1.00  0.00     0.041 A 
ATOM     65  F   UNL A   1      45.537  33.588  31.734  1.00  0.00    -0.206 F 
ATOM     66  C   UNL A   1      45.645  36.744  29.966  1.00  0.00     0.022 A 
BRANCH  63  67
ATOM     67  S   UNL A   1      44.700  37.690  27.551  1.00  0.00     0.124 S 
ATOM     68  O   UNL A   1      43.447  37.316  26.901  1.00  0.00    -0.237 OA
ATOM     69  O   UNL A   1      44.664  38.942  28.302  1.00  0.00    -0.237 OA
ATOM     70  O   UNL A   1      45.903  37.469  26.755  1.00  0.00    -0.744 OA
ENDBRANCH  63  67
ENDBRANCH  37  60
ENDBRANCH  11  12
ENDBRANCH   4   6
ENDBRANCH   3   4
ENDBRANCH   2   3
ENDBRANCH   1   2
BRANCH   1  71
ATOM     71  O   UNL A   1      36.774  20.591  25.345  1.00  0.00    -0.461 OA
BRANCH  71  72
ATOM     72  C   UNL A   1      36.337  21.627  24.579  1.00  0.00     0.321 C 
ATOM     73  O   UNL A   1      37.083  22.375  23.952  1.00  0.00    -0.251 OA
BRANCH  72  74
ATOM     74  C   UNL A   1      34.821  21.692  24.517  1.00  0.00     0.184 C 
ATOM     75  S   UNL A   1      34.148  21.408  26.196  1.00  0.00    -0.117 SA
ATOM     76  C   UNL A   1      34.460  23.128  24.148  1.00  0.00     0.172 C 
ATOM     77  C   UNL A   1      33.799  23.075  26.458  1.00  0.00     0.039 C 
ATOM     78  C   UNL A   1      34.012  23.850  25.393  1.00  0.00     0.003 C 
BRANCH  76  79
ATOM     79  S   UNL A   1      33.159  23.240  22.923  1.00  0.00     0.219 S 
ATOM     80  O   UNL A   1      33.687  23.750  21.683  1.00  0.00    -0.212 OA
ATOM     81  O   UNL A   1      32.324  22.062  22.966  1.00  0.00    -0.212 OA
BRANCH  79  82
ATOM     82  N   UNL A   1      32.233  24.471  23.597  1.00  0.00    -0.214 NA
ATOM     83  H   UNL A   1      32.315  25.271  22.971  1.00  0.00     0.141 HD
BRANCH  82  84
ATOM     84  C   UNL A   1      30.808  24.289  23.851  1.00  0.00     0.103 C 
BRANCH  84  85
ATOM     85  C   UNL A   1      29.978  25.565  23.663  1.00  0.00     0.050 C 
BRANCH  85  86
ATOM     86  C   UNL A   1      30.508  26.930  24.032  1.00  0.00    -0.038 C 
ATOM     87  C   UNL A   1      30.988  27.497  25.144  1.00  0.00     0.001 A 
ATOM     88  C   UNL A   1      30.433  27.957  22.930  1.00  0.00     0.174 C 
ATOM     89  C   UNL A   1      31.236  27.131  26.505  1.00  0.00     0.010 A 
ATOM     90  C   UNL A   1      31.224  28.895  24.718  1.00  0.00     0.065 A 
ATOM     91  N   UNL A   1      30.962  29.216  23.488  1.00  0.00    -0.280 NA
ATOM     92  C   UNL A   1      31.706  28.033  27.379  1.00  0.00     0.001 A 
ATOM     93  C   UNL A   1      31.746  29.836  25.735  1.00  0.00     0.028 A 
ATOM     94  C   UNL A   1      31.968  29.398  26.984  1.00  0.00     0.002 A 
ENDBRANCH  85  86
ENDBRANCH  84  85
ENDBRANCH  82  84
ENDBRANCH  79  82
ENDBRANCH  76  79
ENDBRANCH  72  74
ENDBRANCH  71  72
ENDBRANCH   1  71
TORSDOF 19
ENDMDL
MODEL 2
REMARK VINA RESULT:     -11.3      4.853      9.750
REMARK SMILES O=C(OCCOC(=O)[C@H]1SC=C[C@@H]1S(=O)(=O)NCCC1=c2ccccc2=NC1)c1ccc(-c2c3nc(c(-c4cc(S(=O)(=O)[O-])ccc4F)c4ccc([nH]4)c(-c4cc(S(=O)(=O)[O-])ccc4F)c4nc(c(-c5cc(S(=O)(=O)[O-])ccc5F)c5ccc2[nH]5)C=C4)C=C3)cc1
REMARK SMILES IDX 5 1 4 2 3 3 2 4 1 5 29 6 30 7 91 8 31 9 90 10 32 11 33 12
REMARK SMILES IDX 34 13 84 14 35 15 89 16 83 17 85 18 36 19 88 20 82 21 81 22
REMARK SMILES IDX 37 24 69 25 49 26 68 27 50 28 53 29 67 30 86 31 51 32 52 33
REMARK SMILES IDX 66 35 87 36 54 37 38 38 39 39 47 40 40 41 46 42 48 43 45 44
REMARK SMILES IDX 41 45 42 46 43 47 44 48 70 49 71 50 79 51 72 52 78 53 80 54
REMARK SMILES IDX 77 55 73 56 74 57 75 58 76 59 55 60 56 61 64 62 57 63 63 64
REMARK SMILES IDX 65 65 62 66 58 67 59 68 60 69 61 70 6 71 7 72 8 73 9 74
REMARK SMILES IDX 10 75 13 76 11 77 12 78 14 79 15 80 16 81 17 82 18 84 19 85
REMARK SMILES IDX 20 86 21 87 28 88 22 89 26 90 27 91 23 92 25 93 24 94
REMARK H PARENT 85 23 53 34 17 83
REMARK Flexibility Score: inf
ROOT
ATOM      1  C   UNL A   1      33.325  28.044  26.535  1.00  0.00     0.274 C 
ENDROOT
BRANCH   1   2
ATOM      2  C   UNL A   1      33.342  29.532  26.160  1.00  0.00     0.275 C 
BRANCH   2   3
ATOM      3  O   UNL A   1      33.216  30.360  27.333  1.00  0.00    -0.458 OA
BRANCH   3   4
ATOM      4  C   UNL A   1      34.193  31.239  27.702  1.00  0.00     0.338 C 
ATOM      5  O   UNL A   1      34.092  32.422  27.398  1.00  0.00    -0.246 OA
BRANCH   4   6
ATOM      6  C   UNL A   1      35.513  30.663  28.130  1.00  0.00     0.060 A 
ATOM      7  C   UNL A   1      35.492  29.734  29.179  1.00  0.00     0.016 A 
ATOM      8  C   UNL A   1      36.755  31.024  27.604  1.00  0.00     0.016 A 
ATOM      9  C   UNL A   1      36.678  29.317  29.796  1.00  0.00     0.010 A 
ATOM     10  C   UNL A   1      37.943  30.597  28.199  1.00  0.00     0.010 A 
ATOM     11  C   UNL A   1      37.915  29.766  29.320  1.00  0.00    -0.014 A 
BRANCH  11  12
ATOM     12  C   UNL A   1      39.191  29.206  29.816  1.00  0.00     0.031 A 
ATOM     13  C   UNL A   1      39.825  27.985  29.220  1.00  0.00     0.074 A 
ATOM     14  C   UNL A   1      39.692  29.764  30.932  1.00  0.00     0.049 A 
ATOM     15  N   UNL A   1      40.982  27.443  29.492  1.00  0.00    -0.248 NA
ATOM     16  C   UNL A   1      39.067  27.279  28.182  1.00  0.00     0.031 C 
ATOM     17  C   UNL A   1      39.090  30.900  31.630  1.00  0.00     0.029 A 
ATOM     18  N   UNL A   1      40.774  29.428  31.696  1.00  0.00    -0.354 N 
ATOM     19  C   UNL A   1      41.125  26.379  28.605  1.00  0.00     0.074 A 
ATOM     20  C   UNL A   1      39.912  26.318  27.823  1.00  0.00     0.031 C 
ATOM     21  C   UNL A   1      39.796  31.154  32.736  1.00  0.00     0.029 A 
ATOM     22  C   UNL A   1      40.880  30.181  32.839  1.00  0.00     0.049 A 
ATOM     23  H   UNL A   1      41.413  28.720  31.453  1.00  0.00     0.167 HD
ATOM     24  C   UNL A   1      42.175  25.531  28.477  1.00  0.00     0.034 A 
ATOM     25  C   UNL A   1      41.744  30.087  33.868  1.00  0.00     0.034 A 
ATOM     26  C   UNL A   1      43.285  25.523  29.396  1.00  0.00     0.049 A 
ATOM     27  C   UNL A   1      42.855  29.082  33.765  1.00  0.00     0.074 A 
ATOM     28  C   UNL A   1      44.408  24.715  29.379  1.00  0.00     0.029 A 
ATOM     29  N   UNL A   1      43.380  26.315  30.535  1.00  0.00    -0.354 N 
ATOM     30  N   UNL A   1      43.087  28.209  32.812  1.00  0.00    -0.248 NA
ATOM     31  C   UNL A   1      43.840  29.064  34.850  1.00  0.00     0.031 C 
ATOM     32  C   UNL A   1      45.109  24.929  30.567  1.00  0.00     0.029 A 
ATOM     33  C   UNL A   1      44.499  25.960  31.268  1.00  0.00     0.049 A 
ATOM     34  H   UNL A   1      42.744  27.025  30.783  1.00  0.00     0.167 HD
ATOM     35  C   UNL A   1      44.261  27.555  33.166  1.00  0.00     0.074 A 
ATOM     36  C   UNL A   1      44.699  28.150  34.413  1.00  0.00     0.031 C 
ATOM     37  C   UNL A   1      44.915  26.558  32.517  1.00  0.00     0.034 A 
BRANCH  24  38
ATOM     38  C   UNL A   1      42.192  24.536  27.338  1.00  0.00     0.023 A 
ATOM     39  C   UNL A   1      41.551  23.288  27.465  1.00  0.00     0.031 A 
ATOM     40  C   UNL A   1      42.990  24.753  26.200  1.00  0.00     0.131 A 
ATOM     41  C   UNL A   1      41.759  22.291  26.502  1.00  0.00     0.055 A 
ATOM     42  C   UNL A   1      43.165  23.768  25.223  1.00  0.00     0.041 A 
ATOM     43  F   UNL A   1      43.633  25.920  26.030  1.00  0.00    -0.206 F 
ATOM     44  C   UNL A   1      42.559  22.525  25.380  1.00  0.00     0.022 A 
BRANCH  41  45
ATOM     45  S   UNL A   1      41.058  20.628  26.700  1.00  0.00     0.124 S 
ATOM     46  O   UNL A   1      40.820  20.572  28.141  1.00  0.00    -0.237 OA
ATOM     47  O   UNL A   1      39.856  20.702  25.874  1.00  0.00    -0.237 OA
ATOM     48  O   UNL A   1      42.111  19.744  26.212  1.00  0.00    -0.744 OA
ENDBRANCH  41  45
ENDBRANCH  24  38
BRANCH  25  49
ATOM     49  C   UNL A   1      41.596  31.050  34.995  1.00  0.00     0.023 A 
ATOM     50  C   UNL A   1      40.449  31.019  35.814  1.00  0.00     0.031 A 
ATOM     51  C   UNL A   1      42.479  32.130  35.131  1.00  0.00     0.131 A 
ATOM     52  C   UNL A   1      40.169  32.100  36.658  1.00  0.00     0.055 A 
ATOM     53  C   UNL A   1      42.236  33.166  36.033  1.00  0.00     0.041 A 
ATOM     54  F   UNL A   1      43.570  32.214  34.354  1.00  0.00    -0.206 F 
ATOM     55  C   UNL A   1      41.064  33.167  36.784  1.00  0.00     0.022 A 
BRANCH  52  56
ATOM     56  S   UNL A   1      38.552  32.247  37.472  1.00  0.00     0.124 S 
ATOM     57  O   UNL A   1      37.978  33.409  36.801  1.00  0.00    -0.237 OA
ATOM     58  O   UNL A   1      37.935  30.962  37.150  1.00  0.00    -0.237 OA
ATOM     59  O   UNL A   1      38.889  32.433  38.880  1.00  0.00    -0.744 OA
ENDBRANCH  52  56
ENDBRANCH  25  49
BRANCH  37  60
ATOM     60  C   UNL A   1      46.183  26.016  33.131  1.00  0.00     0.023 A 
ATOM     61  C   UNL A   1      47.431  26.385  32.591  1.00  0.00     0.031 A 
ATOM     62  C   UNL A   1      46.154  25.020  34.121  1.00  0.00     0.131 A 
ATOM     63  C   UNL A   1      48.590  25.720  33.000  1.00  0.00     0.055 A 
ATOM     64  C   UNL A   1      47.323  24.406  34.573  1.00  0.00     0.041 A 
ATOM     65  F   UNL A   1      44.989  24.622  34.657  1.00  0.00    -0.206 F 
ATOM     66  C   UNL A   1      48.545  24.742  33.999  1.00  0.00     0.022 A 
BRANCH  63  67
ATOM     67  S   UNL A   1      50.176  26.015  32.172  1.00  0.00     0.124 S 
ATOM     68  O   UNL A   1      50.136  25.038  31.087  1.00  0.00    -0.237 OA
ATOM     69  O   UNL A   1      50.050  27.411  31.760  1.00  0.00    -0.237 OA
ATOM     70  O   UNL A   1      51.170  25.753  33.208  1.00  0.00    -0.744 OA
ENDBRANCH  63  67
ENDBRANCH  37  60
ENDBRANCH  11  12
ENDBRANCH   4   6
ENDBRANCH   3   4
ENDBRANCH   2   3
ENDBRANCH   1   2
BRANCH   1  71
ATOM     71  O   UNL A   1      32.916  27.245  25.410  1.00  0.00    -0.461 OA
BRANCH  71  72
ATOM     72  C   UNL A   1      31.735  26.589  25.564  1.00  0.00     0.321 C 
ATOM     73  O   UNL A   1      31.137  26.501  26.633  1.00  0.00    -0.251 OA
BRANCH  72  74
ATOM     74  C   UNL A   1      31.200  26.059  24.245  1.00  0.00     0.184 C 
ATOM     75  S   UNL A   1      29.396  26.363  24.174  1.00  0.00    -0.117 SA
ATOM     76  C   UNL A   1      31.823  26.916  23.146  1.00  0.00     0.172 C 
ATOM     77  C   UNL A   1      29.552  27.703  23.102  1.00  0.00     0.039 C 
ATOM     78  C   UNL A   1      30.797  27.913  22.670  1.00  0.00     0.003 C 
BRANCH  76  79
ATOM     79  S   UNL A   1      32.390  25.963  21.739  1.00  0.00     0.219 S 
ATOM     80  O   UNL A   1      31.506  26.159  20.618  1.00  0.00    -0.212 OA
ATOM     81  O   UNL A   1      33.824  26.069  21.605  1.00  0.00    -0.212 OA
BRANCH  79  82
ATOM     82  N   UNL A   1      32.107  24.408  22.312  1.00  0.00    -0.214 NA
ATOM     83  H   UNL A   1      31.158  24.164  22.029  1.00  0.00     0.141 HD
BRANCH  82  84
ATOM     84  C   UNL A   1      32.957  23.292  21.912  1.00  0.00     0.103 C 
BRANCH  84  85
ATOM     85  C   UNL A   1      32.497  21.936  22.462  1.00  0.00     0.050 C 
BRANCH  85  86
ATOM     86  C   UNL A   1      32.783  21.504  23.880  1.00  0.00    -0.038 C 
ATOM     87  C   UNL A   1      33.220  22.109  24.990  1.00  0.00     0.001 A 
ATOM     88  C   UNL A   1      32.618  20.027  24.137  1.00  0.00     0.174 C 
ATOM     89  C   UNL A   1      33.630  23.417  25.400  1.00  0.00     0.010 A 
ATOM     90  C   UNL A   1      33.314  20.989  25.952  1.00  0.00     0.065 A 
ATOM     91  N   UNL A   1      32.968  19.803  25.553  1.00  0.00    -0.280 NA
ATOM     92  C   UNL A   1      34.067  23.635  26.649  1.00  0.00     0.001 A 
ATOM     93  C   UNL A   1      33.802  21.302  27.315  1.00  0.00     0.028 A 
ATOM     94  C   UNL A   1      34.146  22.563  27.616  1.00  0.00     0.002 A 
ENDBRANCH  85  86
ENDBRANCH  84  85
ENDBRANCH  82  84
ENDBRANCH  79  82
ENDBRANCH  76  79
ENDBRANCH  72  74
ENDBRANCH  71  72
ENDBRANCH   1  71
TORSDOF 19
ENDMDL
MODEL 3
REMARK VINA RESULT:     -11.1      4.336      8.196
REMARK SMILES O=C(OCCOC(=O)[C@H]1SC=C[C@@H]1S(=O)(=O)NCCC1=c2ccccc2=NC1)c1ccc(-c2c3nc(c(-c4cc(S(=O)(=O)[O-])ccc4F)c4ccc([nH]4)c(-c4cc(S(=O)(=O)[O-])ccc4F)c4nc(c(-c5cc(S(=O)(=O)[O-])ccc5F)c5ccc2[nH]5)C=C4)C=C3)cc1
REMARK SMILES IDX 5 1 4 2 3 3 2 4 1 5 29 6 30 7 91 8 31 9 90 10 32 11 33 12
REMARK SMILES IDX 34 13 84 14 35 15 89 16 83 17 85 18 36 19 88 20 82 21 81 22
REMARK SMILES IDX 37 24 69 25 49 26 68 27 50 28 53 29 67 30 86 31 51 32 52 33
REMARK SMILES IDX 66 35 87 36 54 37 38 38 39 39 47 40 40 41 46 42 48 43 45 44
REMARK SMILES IDX 41 45 42 46 43 47 44 48 70 49 71 50 79 51 72 52 78 53 80 54
REMARK SMILES IDX 77 55 73 56 74 57 75 58 76 59 55 60 56 61 64 62 57 63 63 64
REMARK SMILES IDX 65 65 62 66 58 67 59 68 60 69 61 70 6 71 7 72 8 73 9 74
REMARK SMILES IDX 10 75 13 76 11 77 12 78 14 79 15 80 16 81 17 82 18 84 19 85
REMARK SMILES IDX 20 86 21 87 28 88 22 89 26 90 27 91 23 92 25 93 24 94
REMARK H PARENT 85 23 53 34 17 83
REMARK Flexibility Score: inf
ROOT
ATOM      1  C   UNL A   1      31.783  30.173  25.646  1.00  0.00     0.274 C 
ENDROOT
BRANCH   1   2
ATOM      2  C   UNL A   1      32.416  30.348  27.033  1.00  0.00     0.275 C 
BRANCH   2   3
ATOM      3  O   UNL A   1      33.828  30.614  26.925  1.00  0.00    -0.458 OA
BRANCH   3   4
ATOM      4  C   UNL A   1      34.480  31.418  27.815  1.00  0.00     0.338 C 
ATOM      5  O   UNL A   1      34.255  32.623  27.825  1.00  0.00    -0.246 OA
BRANCH   4   6
ATOM      6  C   UNL A   1      35.707  30.858  28.478  1.00  0.00     0.060 A 
ATOM      7  C   UNL A   1      36.933  31.460  28.163  1.00  0.00     0.016 A 
ATOM      8  C   UNL A   1      35.724  29.753  29.332  1.00  0.00     0.016 A 
ATOM      9  C   UNL A   1      38.144  30.873  28.547  1.00  0.00     0.010 A 
ATOM     10  C   UNL A   1      36.927  29.173  29.737  1.00  0.00     0.010 A 
ATOM     11  C   UNL A   1      38.147  29.707  29.321  1.00  0.00    -0.014 A 
BRANCH  11  12
ATOM     12  C   UNL A   1      39.392  29.162  29.905  1.00  0.00     0.031 A 
ATOM     13  C   UNL A   1      40.096  29.810  31.060  1.00  0.00     0.074 A 
ATOM     14  C   UNL A   1      39.951  28.127  29.256  1.00  0.00     0.049 A 
ATOM     15  N   UNL A   1      41.137  29.393  31.729  1.00  0.00    -0.248 NA
ATOM     16  C   UNL A   1      39.564  31.094  31.530  1.00  0.00     0.031 C 
ATOM     17  C   UNL A   1      39.380  27.490  28.069  1.00  0.00     0.029 A 
ATOM     18  N   UNL A   1      41.130  27.467  29.462  1.00  0.00    -0.354 N 
ATOM     19  C   UNL A   1      41.336  30.320  32.747  1.00  0.00     0.074 A 
ATOM     20  C   UNL A   1      40.342  31.354  32.576  1.00  0.00     0.031 C 
ATOM     21  C   UNL A   1      40.221  26.546  27.634  1.00  0.00     0.029 A 
ATOM     22  C   UNL A   1      41.401  26.533  28.494  1.00  0.00     0.049 A 
ATOM     23  H   UNL A   1      41.724  27.643  30.227  1.00  0.00     0.167 HD
ATOM     24  C   UNL A   1      42.278  30.304  33.722  1.00  0.00     0.034 A 
ATOM     25  C   UNL A   1      42.488  25.762  28.307  1.00  0.00     0.034 A 
ATOM     26  C   UNL A   1      43.355  29.346  33.748  1.00  0.00     0.049 A 
ATOM     27  C   UNL A   1      43.575  25.812  29.343  1.00  0.00     0.074 A 
ATOM     28  C   UNL A   1      44.373  29.223  34.676  1.00  0.00     0.029 A 
ATOM     29  N   UNL A   1      43.594  28.392  32.765  1.00  0.00    -0.354 N 
ATOM     30  N   UNL A   1      43.652  26.566  30.416  1.00  0.00    -0.248 NA
ATOM     31  C   UNL A   1      44.704  24.894  29.171  1.00  0.00     0.031 C 
ATOM     32  C   UNL A   1      45.288  28.288  34.190  1.00  0.00     0.029 A 
ATOM     33  C   UNL A   1      44.783  27.732  33.023  1.00  0.00     0.049 A 
ATOM     34  H   UNL A   1      43.002  28.213  31.998  1.00  0.00     0.167 HD
ATOM     35  C   UNL A   1      44.823  26.194  31.065  1.00  0.00     0.074 A 
ATOM     36  C   UNL A   1      45.410  25.134  30.269  1.00  0.00     0.031 C 
ATOM     37  C   UNL A   1      45.359  26.683  32.212  1.00  0.00     0.034 A 
BRANCH  24  38
ATOM     38  C   UNL A   1      42.221  31.333  34.829  1.00  0.00     0.023 A 
ATOM     39  C   UNL A   1      43.042  32.478  34.787  1.00  0.00     0.031 A 
ATOM     40  C   UNL A   1      41.486  31.093  36.004  1.00  0.00     0.131 A 
ATOM     41  C   UNL A   1      43.147  33.307  35.913  1.00  0.00     0.055 A 
ATOM     42  C   UNL A   1      41.567  31.942  37.112  1.00  0.00     0.041 A 
ATOM     43  F   UNL A   1      40.695  30.012  36.105  1.00  0.00    -0.206 F 
ATOM     44  C   UNL A   1      42.411  33.047  37.074  1.00  0.00     0.022 A 
BRANCH  41  45
ATOM     45  S   UNL A   1      44.295  34.713  35.945  1.00  0.00     0.124 S 
ATOM     46  O   UNL A   1      44.382  35.061  34.527  1.00  0.00    -0.237 OA
ATOM     47  O   UNL A   1      43.578  35.675  36.778  1.00  0.00    -0.237 OA
ATOM     48  O   UNL A   1      45.514  34.158  36.521  1.00  0.00    -0.744 OA
ENDBRANCH  41  45
ENDBRANCH  24  38
BRANCH  25  49
ATOM     49  C   UNL A   1      42.500  24.842  27.136  1.00  0.00     0.023 A 
ATOM     50  C   UNL A   1      41.913  23.563  27.226  1.00  0.00     0.031 A 
ATOM     51  C   UNL A   1      43.272  25.138  26.003  1.00  0.00     0.131 A 
ATOM     52  C   UNL A   1      42.192  22.599  26.251  1.00  0.00     0.055 A 
ATOM     53  C   UNL A   1      43.481  24.199  24.993  1.00  0.00     0.041 A 
ATOM     54  F   UNL A   1      43.870  26.333  25.886  1.00  0.00    -0.206 F 
ATOM     55  C   UNL A   1      42.961  22.914  25.126  1.00  0.00     0.022 A 
BRANCH  52  56
ATOM     56  S   UNL A   1      41.729  20.862  26.503  1.00  0.00     0.124 S 
ATOM     57  O   UNL A   1      42.170  20.626  27.875  1.00  0.00    -0.237 OA
ATOM     58  O   UNL A   1      40.282  20.904  26.303  1.00  0.00    -0.237 OA
ATOM     59  O   UNL A   1      42.474  20.151  25.469  1.00  0.00    -0.744 OA
ENDBRANCH  52  56
ENDBRANCH  25  49
BRANCH  37  60
ATOM     60  C   UNL A   1      46.662  26.097  32.700  1.00  0.00     0.023 A 
ATOM     61  C   UNL A   1      47.872  26.499  32.102  1.00  0.00     0.031 A 
ATOM     62  C   UNL A   1      46.693  25.035  33.620  1.00  0.00     0.131 A 
ATOM     63  C   UNL A   1      49.052  25.804  32.385  1.00  0.00     0.055 A 
ATOM     64  C   UNL A   1      47.885  24.389  33.948  1.00  0.00     0.041 A 
ATOM     65  F   UNL A   1      45.564  24.605  34.206  1.00  0.00    -0.206 F 
ATOM     66  C   UNL A   1      49.068  24.760  33.316  1.00  0.00     0.022 A 
BRANCH  63  67
ATOM     67  S   UNL A   1      50.580  26.151  31.472  1.00  0.00     0.124 S 
ATOM     68  O   UNL A   1      50.662  27.606  31.563  1.00  0.00    -0.237 OA
ATOM     69  O   UNL A   1      51.574  25.419  32.252  1.00  0.00    -0.237 OA
ATOM     70  O   UNL A   1      50.319  25.626  30.135  1.00  0.00    -0.744 OA
ENDBRANCH  63  67
ENDBRANCH  37  60
ENDBRANCH  11  12
ENDBRANCH   4   6
ENDBRANCH   3   4
ENDBRANCH   2   3
ENDBRANCH   1   2
BRANCH   1  71
ATOM     71  O   UNL A   1      31.432  28.795  25.422  1.00  0.00    -0.461 OA
BRANCH  71  72
ATOM     72  C   UNL A   1      31.760  28.306  24.196  1.00  0.00     0.321 C 
ATOM     73  O   UNL A   1      32.026  29.013  23.228  1.00  0.00    -0.251 OA
BRANCH  72  74
ATOM     74  C   UNL A   1      31.849  26.789  24.191  1.00  0.00     0.184 C 
ATOM     75  S   UNL A   1      33.482  26.295  23.528  1.00  0.00    -0.117 SA
ATOM     76  C   UNL A   1      31.827  26.347  25.652  1.00  0.00     0.172 C 
ATOM     77  C   UNL A   1      34.122  25.918  25.083  1.00  0.00     0.039 C 
ATOM     78  C   UNL A   1      33.231  25.999  26.074  1.00  0.00     0.003 C 
BRANCH  76  79
ATOM     79  S   UNL A   1      30.774  24.928  25.947  1.00  0.00     0.219 S 
ATOM     80  O   UNL A   1      31.537  23.858  26.539  1.00  0.00    -0.212 OA
ATOM     81  O   UNL A   1      29.504  25.349  26.492  1.00  0.00    -0.212 OA
BRANCH  79  82
ATOM     82  N   UNL A   1      30.452  24.473  24.361  1.00  0.00    -0.214 NA
ATOM     83  H   UNL A   1      31.000  25.093  23.765  1.00  0.00     0.141 HD
BRANCH  82  84
ATOM     84  C   UNL A   1      30.718  23.115  23.898  1.00  0.00     0.103 C 
BRANCH  84  85
ATOM     85  C   UNL A   1      32.111  22.932  23.284  1.00  0.00     0.050 C 
BRANCH  85  86
ATOM     86  C   UNL A   1      33.194  22.135  23.970  1.00  0.00    -0.038 C 
ATOM     87  C   UNL A   1      34.531  22.165  23.992  1.00  0.00     0.001 A 
ATOM     88  C   UNL A   1      32.700  20.965  24.785  1.00  0.00     0.174 C 
ATOM     89  C   UNL A   1      35.588  22.928  23.403  1.00  0.00     0.010 A 
ATOM     90  C   UNL A   1      34.867  21.003  24.844  1.00  0.00     0.065 A 
ATOM     91  N   UNL A   1      33.895  20.304  25.343  1.00  0.00    -0.280 NA
ATOM     92  C   UNL A   1      36.870  22.614  23.642  1.00  0.00     0.001 A 
ATOM     93  C   UNL A   1      36.303  20.717  25.067  1.00  0.00     0.028 A 
ATOM     94  C   UNL A   1      37.227  21.499  24.489  1.00  0.00     0.002 A 
ENDBRANCH  85  86
ENDBRANCH  84  85
ENDBRANCH  82  84
ENDBRANCH  79  82
ENDBRANCH  76  79
ENDBRANCH  72  74
ENDBRANCH  71  72
ENDBRANCH   1  71
TORSDOF 19
ENDMDL
