MODEL 1
REMARK VINA RESULT:     -12.6      0.000      0.000
REMARK SMILES Cc1ccc(S(=O)(=O)n2cc(C(=O)C(=O)NCC(=O)OCCOC(=O)c3ccc(-c4c5nc(c(-c6cc(S(=O)(=O)[O-])ccc6F)c6ccc([nH]6)c(-c6cc(S(=O)(=O)[O-])ccc6F)c6nc(c(-c7cc(S(=O)(=O)[O-])ccc7F)c7ccc4[nH]7)C=C6)C=C5)cc3)c3ccccc32)cc1
REMARK SMILES IDX 21 1 20 2 18 3 19 4 17 5 16 6 14 7 15 8 12 10 13 11 11 12
REMARK SMILES IDX 9 13 10 14 94 15 89 16 93 17 90 18 92 19 91 20 6 21 7 22
REMARK SMILES IDX 8 23 5 24 1 25 2 26 3 27 96 28 4 29 95 30 22 31 23 32 24 33
REMARK SMILES IDX 25 34 26 35 27 36 88 37 28 38 87 39 29 40 30 41 31 42 81 43
REMARK SMILES IDX 32 44 86 45 80 46 82 47 33 48 85 49 79 50 78 51 34 53 66 54
REMARK SMILES IDX 46 55 65 56 47 57 50 58 64 59 83 60 48 61 49 62 63 64 84 65
REMARK SMILES IDX 51 66 35 67 36 68 44 69 37 70 43 71 45 72 42 73 38 74 39 75
REMARK SMILES IDX 40 76 41 77 67 78 68 79 76 80 69 81 75 82 77 83 74 84 70 85
REMARK SMILES IDX 71 86 72 87 73 88 52 89 53 90 61 91 54 92 60 93 62 94 59 95
REMARK SMILES IDX 55 96 56 97 57 98 58 99
REMARK H PARENT 16 9 82 52 50 63
REMARK Flexibility Score: inf
ROOT
ATOM      1  C   UNL A   1      38.001  22.175  25.545  1.00  0.00     0.274 C 
ENDROOT
BRANCH   1   2
ATOM      2  O   UNL A   1      36.791  21.729  26.163  1.00  0.00    -0.461 OA
BRANCH   2   3
ATOM      3  C   UNL A   1      35.691  21.992  25.412  1.00  0.00     0.325 C 
ATOM      4  O   UNL A   1      35.276  23.115  25.151  1.00  0.00    -0.250 OA
BRANCH   3   5
ATOM      5  C   UNL A   1      35.185  20.742  24.720  1.00  0.00     0.239 C 
BRANCH   5   6
ATOM      6  N   UNL A   1      34.334  19.847  25.473  1.00  0.00    -0.338 N 
ATOM      7  C   UNL A   1      33.025  19.595  25.125  1.00  0.00     0.292 C 
ATOM      8  O   UNL A   1      32.300  18.830  25.744  1.00  0.00    -0.265 OA
ATOM      9  H   UNL A   1      34.706  19.398  26.267  1.00  0.00     0.164 HD
BRANCH   7  10
ATOM     10  C   UNL A   1      32.474  20.390  23.927  1.00  0.00     0.252 C 
ATOM     11  O   UNL A   1      32.299  19.791  22.870  1.00  0.00    -0.283 OA
BRANCH  10  12
ATOM     12  C   UNL A   1      32.280  21.830  24.068  1.00  0.00     0.054 A 
ATOM     13  N   UNL A   1      31.663  23.782  24.936  1.00  0.00    -0.240 N 
ATOM     14  C   UNL A   1      31.797  22.448  25.206  1.00  0.00     0.117 A 
ATOM     15  C   UNL A   1      32.107  24.085  23.666  1.00  0.00     0.065 A 
ATOM     16  C   UNL A   1      32.523  22.867  23.104  1.00  0.00     0.012 A 
ATOM     17  C   UNL A   1      32.138  25.289  22.937  1.00  0.00     0.028 A 
ATOM     18  C   UNL A   1      33.040  22.877  21.789  1.00  0.00     0.011 A 
ATOM     19  C   UNL A   1      32.625  25.258  21.628  1.00  0.00     0.002 A 
ATOM     20  C   UNL A   1      33.086  24.074  21.067  1.00  0.00     0.001 A 
BRANCH  13  21
ATOM     21  S   UNL A   1      30.764  24.821  25.939  1.00  0.00     0.268 S 
ATOM     22  O   UNL A   1      30.629  24.131  27.212  1.00  0.00    -0.201 OA
ATOM     23  O   UNL A   1      29.609  25.223  25.164  1.00  0.00    -0.201 OA
BRANCH  21  24
ATOM     24  C   UNL A   1      31.752  26.269  26.210  1.00  0.00     0.088 A 
ATOM     25  C   UNL A   1      33.966  29.781  27.316  1.00  0.00     0.044 C 
ATOM     26  C   UNL A   1      33.194  28.570  26.887  1.00  0.00    -0.051 A 
ATOM     27  C   UNL A   1      31.798  28.561  26.976  1.00  0.00     0.005 A 
ATOM     28  C   UNL A   1      33.858  27.434  26.408  1.00  0.00     0.005 A 
ATOM     29  C   UNL A   1      31.076  27.414  26.644  1.00  0.00     0.022 A 
ATOM     30  C   UNL A   1      33.140  26.288  26.058  1.00  0.00     0.022 A 
ENDBRANCH  21  24
ENDBRANCH  13  21
ENDBRANCH  10  12
ENDBRANCH   7  10
ENDBRANCH   5   6
ENDBRANCH   3   5
ENDBRANCH   2   3
ENDBRANCH   1   2
BRANCH   1  31
ATOM     31  C   UNL A   1      38.420  23.539  26.109  1.00  0.00     0.275 C 
BRANCH  31  32
ATOM     32  O   UNL A   1      39.626  23.580  26.944  1.00  0.00    -0.458 OA
BRANCH  32  33
ATOM     33  C   UNL A   1      40.503  24.571  27.284  1.00  0.00     0.338 C 
ATOM     34  O   UNL A   1      41.685  24.486  26.962  1.00  0.00    -0.246 OA
BRANCH  33  35
ATOM     35  C   UNL A   1      39.994  25.848  27.824  1.00  0.00     0.060 A 
ATOM     36  C   UNL A   1      39.331  25.910  29.067  1.00  0.00     0.016 A 
ATOM     37  C   UNL A   1      40.332  27.011  27.179  1.00  0.00     0.016 A 
ATOM     38  C   UNL A   1      39.189  27.140  29.724  1.00  0.00     0.010 A 
ATOM     39  C   UNL A   1      40.468  28.143  27.927  1.00  0.00     0.010 A 
ATOM     40  C   UNL A   1      39.831  28.244  29.169  1.00  0.00    -0.014 A 
BRANCH  40  41
ATOM     41  C   UNL A   1      39.727  29.629  29.608  1.00  0.00     0.031 A 
ATOM     42  C   UNL A   1      38.689  30.544  29.113  1.00  0.00     0.074 A 
ATOM     43  C   UNL A   1      40.548  29.882  30.655  1.00  0.00     0.049 A 
ATOM     44  N   UNL A   1      38.797  31.824  29.082  1.00  0.00    -0.248 NA
ATOM     45  C   UNL A   1      37.404  30.088  28.589  1.00  0.00     0.031 C 
ATOM     46  C   UNL A   1      40.615  30.965  31.613  1.00  0.00     0.029 A 
ATOM     47  N   UNL A   1      41.663  29.108  30.975  1.00  0.00    -0.354 N 
ATOM     48  C   UNL A   1      37.524  32.337  28.912  1.00  0.00     0.074 A 
ATOM     49  C   UNL A   1      36.721  31.232  28.457  1.00  0.00     0.031 C 
ATOM     50  C   UNL A   1      41.849  30.963  32.168  1.00  0.00     0.029 A 
ATOM     51  C   UNL A   1      42.642  29.939  31.493  1.00  0.00     0.049 A 
ATOM     52  H   UNL A   1      41.742  28.134  30.854  1.00  0.00     0.167 HD
ATOM     53  C   UNL A   1      37.239  33.581  29.393  1.00  0.00     0.034 A 
ATOM     54  C   UNL A   1      43.732  30.122  30.686  1.00  0.00     0.034 A 
ATOM     55  C   UNL A   1      38.416  34.123  30.063  1.00  0.00     0.049 A 
ATOM     56  C   UNL A   1      43.691  31.527  30.136  1.00  0.00     0.074 A 
ATOM     57  C   UNL A   1      38.796  34.117  31.395  1.00  0.00     0.029 A 
ATOM     58  N   UNL A   1      39.563  34.369  29.323  1.00  0.00    -0.354 N 
ATOM     59  N   UNL A   1      42.594  32.210  29.925  1.00  0.00    -0.248 NA
ATOM     60  C   UNL A   1      44.900  32.312  29.932  1.00  0.00     0.031 C 
ATOM     61  C   UNL A   1      40.212  34.232  31.435  1.00  0.00     0.029 A 
ATOM     62  C   UNL A   1      40.681  34.324  30.134  1.00  0.00     0.049 A 
ATOM     63  H   UNL A   1      39.579  34.551  28.355  1.00  0.00     0.167 HD
ATOM     64  C   UNL A   1      42.919  33.519  29.691  1.00  0.00     0.074 A 
ATOM     65  C   UNL A   1      44.377  33.523  29.685  1.00  0.00     0.031 C 
ATOM     66  C   UNL A   1      42.001  34.526  29.566  1.00  0.00     0.034 A 
BRANCH  53  67
ATOM     67  C   UNL A   1      35.855  34.160  29.571  1.00  0.00     0.023 A 
ATOM     68  C   UNL A   1      35.403  34.463  30.875  1.00  0.00     0.031 A 
ATOM     69  C   UNL A   1      34.954  34.457  28.532  1.00  0.00     0.131 A 
ATOM     70  C   UNL A   1      34.114  34.970  31.116  1.00  0.00     0.055 A 
ATOM     71  C   UNL A   1      33.655  34.938  28.772  1.00  0.00     0.041 A 
ATOM     72  F   UNL A   1      35.309  34.331  27.244  1.00  0.00    -0.206 F 
ATOM     73  C   UNL A   1      33.226  35.194  30.069  1.00  0.00     0.022 A 
BRANCH  70  74
ATOM     74  S   UNL A   1      33.632  35.353  32.825  1.00  0.00     0.124 S 
ATOM     75  O   UNL A   1      32.244  35.774  32.668  1.00  0.00    -0.237 OA
ATOM     76  O   UNL A   1      33.845  34.078  33.502  1.00  0.00    -0.237 OA
ATOM     77  O   UNL A   1      34.560  36.417  33.210  1.00  0.00    -0.744 OA
ENDBRANCH  70  74
ENDBRANCH  53  67
BRANCH  54  78
ATOM     78  C   UNL A   1      44.126  28.855  29.953  1.00  0.00     0.023 A 
ATOM     79  C   UNL A   1      44.179  28.932  28.536  1.00  0.00     0.031 A 
ATOM     80  C   UNL A   1      44.801  27.779  30.549  1.00  0.00     0.131 A 
ATOM     81  C   UNL A   1      45.045  28.108  27.796  1.00  0.00     0.055 A 
ATOM     82  C   UNL A   1      45.574  26.881  29.786  1.00  0.00     0.041 A 
ATOM     83  F   UNL A   1      44.818  27.634  31.882  1.00  0.00    -0.206 F 
ATOM     84  C   UNL A   1      45.738  27.069  28.411  1.00  0.00     0.022 A 
BRANCH  81  85
ATOM     85  S   UNL A   1      45.516  28.657  26.121  1.00  0.00     0.124 S 
ATOM     86  O   UNL A   1      46.882  28.164  26.004  1.00  0.00    -0.237 OA
ATOM     87  O   UNL A   1      44.518  27.990  25.284  1.00  0.00    -0.237 OA
ATOM     88  O   UNL A   1      45.366  30.109  26.173  1.00  0.00    -0.744 OA
ENDBRANCH  81  85
ENDBRANCH  54  78
BRANCH  66  89
ATOM     89  C   UNL A   1      42.318  35.869  28.967  1.00  0.00     0.023 A 
ATOM     90  C   UNL A   1      43.126  36.789  29.634  1.00  0.00     0.031 A 
ATOM     91  C   UNL A   1      41.902  36.237  27.666  1.00  0.00     0.131 A 
ATOM     92  C   UNL A   1      43.349  38.064  29.110  1.00  0.00     0.055 A 
ATOM     93  C   UNL A   1      42.251  37.456  27.082  1.00  0.00     0.041 A 
ATOM     94  F   UNL A   1      41.151  35.432  26.901  1.00  0.00    -0.206 F 
ATOM     95  C   UNL A   1      42.950  38.398  27.820  1.00  0.00     0.022 A 
BRANCH  92  96
ATOM     96  S   UNL A   1      44.035  39.300  30.232  1.00  0.00     0.124 S 
ATOM     97  O   UNL A   1      43.781  38.687  31.534  1.00  0.00    -0.237 OA
ATOM     98  O   UNL A   1      45.436  39.356  29.824  1.00  0.00    -0.237 OA
ATOM     99  O   UNL A   1      43.250  40.498  29.943  1.00  0.00    -0.744 OA
ENDBRANCH  92  96
ENDBRANCH  66  89
ENDBRANCH  40  41
ENDBRANCH  33  35
ENDBRANCH  32  33
ENDBRANCH  31  32
ENDBRANCH   1  31
TORSDOF 19
ENDMDL
MODEL 2
REMARK VINA RESULT:     -12.6      1.726      2.213
REMARK SMILES Cc1ccc(S(=O)(=O)n2cc(C(=O)C(=O)NCC(=O)OCCOC(=O)c3ccc(-c4c5nc(c(-c6cc(S(=O)(=O)[O-])ccc6F)c6ccc([nH]6)c(-c6cc(S(=O)(=O)[O-])ccc6F)c6nc(c(-c7cc(S(=O)(=O)[O-])ccc7F)c7ccc4[nH]7)C=C6)C=C5)cc3)c3ccccc32)cc1
REMARK SMILES IDX 21 1 20 2 18 3 19 4 17 5 16 6 14 7 15 8 12 10 13 11 11 12
REMARK SMILES IDX 9 13 10 14 94 15 89 16 93 17 90 18 92 19 91 20 6 21 7 22
REMARK SMILES IDX 8 23 5 24 1 25 2 26 3 27 96 28 4 29 95 30 22 31 23 32 24 33
REMARK SMILES IDX 25 34 26 35 27 36 88 37 28 38 87 39 29 40 30 41 31 42 81 43
REMARK SMILES IDX 32 44 86 45 80 46 82 47 33 48 85 49 79 50 78 51 34 53 66 54
REMARK SMILES IDX 46 55 65 56 47 57 50 58 64 59 83 60 48 61 49 62 63 64 84 65
REMARK SMILES IDX 51 66 35 67 36 68 44 69 37 70 43 71 45 72 42 73 38 74 39 75
REMARK SMILES IDX 40 76 41 77 67 78 68 79 76 80 69 81 75 82 77 83 74 84 70 85
REMARK SMILES IDX 71 86 72 87 73 88 52 89 53 90 61 91 54 92 60 93 62 94 59 95
REMARK SMILES IDX 55 96 56 97 57 98 58 99
REMARK H PARENT 16 9 82 52 50 63
REMARK Flexibility Score: inf
ROOT
ATOM      1  C   UNL A   1      37.708  22.499  25.720  1.00  0.00     0.274 C 
ENDROOT
BRANCH   1   2
ATOM      2  O   UNL A   1      36.368  22.191  26.114  1.00  0.00    -0.461 OA
BRANCH   2   3
ATOM      3  C   UNL A   1      35.445  22.621  25.216  1.00  0.00     0.325 C 
ATOM      4  O   UNL A   1      35.216  23.797  24.960  1.00  0.00    -0.250 OA
BRANCH   3   5
ATOM      5  C   UNL A   1      34.916  21.474  24.379  1.00  0.00     0.239 C 
BRANCH   5   6
ATOM      6  N   UNL A   1      34.061  20.502  25.025  1.00  0.00    -0.338 N 
ATOM      7  C   UNL A   1      32.766  20.262  24.617  1.00  0.00     0.292 C 
ATOM      8  O   UNL A   1      32.039  19.433  25.145  1.00  0.00    -0.265 OA
ATOM      9  H   UNL A   1      34.419  19.990  25.787  1.00  0.00     0.164 HD
BRANCH   7  10
ATOM     10  C   UNL A   1      32.235  21.152  23.479  1.00  0.00     0.252 C 
ATOM     11  O   UNL A   1      32.050  20.633  22.382  1.00  0.00    -0.283 OA
BRANCH  10  12
ATOM     12  C   UNL A   1      32.069  22.582  23.723  1.00  0.00     0.054 A 
ATOM     13  N   UNL A   1      31.483  24.479  24.725  1.00  0.00    -0.240 N 
ATOM     14  C   UNL A   1      31.587  23.126  24.898  1.00  0.00     0.117 A 
ATOM     15  C   UNL A   1      31.949  24.863  23.485  1.00  0.00     0.065 A 
ATOM     16  C   UNL A   1      32.345  23.680  22.840  1.00  0.00     0.012 A 
ATOM     17  C   UNL A   1      32.014  26.116  22.846  1.00  0.00     0.028 A 
ATOM     18  C   UNL A   1      32.878  23.774  21.534  1.00  0.00     0.011 A 
ATOM     19  C   UNL A   1      32.515  26.169  21.543  1.00  0.00     0.002 A 
ATOM     20  C   UNL A   1      32.957  25.019  20.901  1.00  0.00     0.001 A 
BRANCH  13  21
ATOM     21  S   UNL A   1      30.595  25.461  25.792  1.00  0.00     0.268 S 
ATOM     22  O   UNL A   1      30.248  24.614  26.921  1.00  0.00    -0.201 OA
ATOM     23  O   UNL A   1      29.582  26.110  24.986  1.00  0.00    -0.201 OA
BRANCH  21  24
ATOM     24  C   UNL A   1      31.696  26.722  26.378  1.00  0.00     0.088 A 
ATOM     25  C   UNL A   1      34.525  29.809  27.342  1.00  0.00     0.044 C 
ATOM     26  C   UNL A   1      33.540  28.717  27.049  1.00  0.00    -0.051 A 
ATOM     27  C   UNL A   1      33.977  27.514  26.485  1.00  0.00     0.005 A 
ATOM     28  C   UNL A   1      32.179  28.892  27.321  1.00  0.00     0.005 A 
ATOM     29  C   UNL A   1      33.060  26.519  26.144  1.00  0.00     0.022 A 
ATOM     30  C   UNL A   1      31.257  27.893  26.999  1.00  0.00     0.022 A 
ENDBRANCH  21  24
ENDBRANCH  13  21
ENDBRANCH  10  12
ENDBRANCH   7  10
ENDBRANCH   5   6
ENDBRANCH   3   5
ENDBRANCH   2   3
ENDBRANCH   1   2
BRANCH   1  31
ATOM     31  C   UNL A   1      38.090  23.912  26.179  1.00  0.00     0.275 C 
BRANCH  31  32
ATOM     32  O   UNL A   1      39.466  24.118  26.646  1.00  0.00    -0.458 OA
BRANCH  32  33
ATOM     33  C   UNL A   1      40.322  25.183  26.613  1.00  0.00     0.338 C 
ATOM     34  O   UNL A   1      41.161  25.273  25.722  1.00  0.00    -0.246 OA
BRANCH  33  35
ATOM     35  C   UNL A   1      40.088  26.341  27.500  1.00  0.00     0.060 A 
ATOM     36  C   UNL A   1      40.081  26.203  28.904  1.00  0.00     0.016 A 
ATOM     37  C   UNL A   1      40.051  27.594  26.944  1.00  0.00     0.016 A 
ATOM     38  C   UNL A   1      40.227  27.335  29.719  1.00  0.00     0.010 A 
ATOM     39  C   UNL A   1      40.489  28.643  27.697  1.00  0.00     0.010 A 
ATOM     40  C   UNL A   1      40.503  28.547  29.093  1.00  0.00    -0.014 A 
BRANCH  40  41
ATOM     41  C   UNL A   1      40.577  29.859  29.721  1.00  0.00     0.031 A 
ATOM     42  C   UNL A   1      39.411  30.746  29.850  1.00  0.00     0.074 A 
ATOM     43  C   UNL A   1      41.766  30.049  30.340  1.00  0.00     0.049 A 
ATOM     44  N   UNL A   1      39.473  32.024  29.953  1.00  0.00    -0.248 NA
ATOM     45  C   UNL A   1      38.034  30.259  29.868  1.00  0.00     0.031 C 
ATOM     46  C   UNL A   1      42.224  31.014  31.317  1.00  0.00     0.029 A 
ATOM     47  N   UNL A   1      42.923  29.329  30.042  1.00  0.00    -0.354 N 
ATOM     48  C   UNL A   1      38.244  32.457  30.416  1.00  0.00     0.074 A 
ATOM     49  C   UNL A   1      37.343  31.356  30.200  1.00  0.00     0.031 C 
ATOM     50  C   UNL A   1      43.576  31.040  31.284  1.00  0.00     0.029 A 
ATOM     51  C   UNL A   1      44.015  30.164  30.201  1.00  0.00     0.049 A 
ATOM     52  H   UNL A   1      42.958  28.384  29.766  1.00  0.00     0.167 HD
ATOM     53  C   UNL A   1      38.175  33.611  31.140  1.00  0.00     0.034 A 
ATOM     54  C   UNL A   1      44.643  30.522  29.039  1.00  0.00     0.034 A 
ATOM     55  C   UNL A   1      39.517  34.157  31.309  1.00  0.00     0.049 A 
ATOM     56  C   UNL A   1      44.344  31.975  28.759  1.00  0.00     0.074 A 
ATOM     57  C   UNL A   1      40.438  34.024  32.336  1.00  0.00     0.029 A 
ATOM     58  N   UNL A   1      40.225  34.574  30.191  1.00  0.00    -0.354 N 
ATOM     59  N   UNL A   1      43.253  32.593  29.134  1.00  0.00    -0.248 NA
ATOM     60  C   UNL A   1      45.331  32.866  28.168  1.00  0.00     0.031 C 
ATOM     61  C   UNL A   1      41.729  34.240  31.781  1.00  0.00     0.029 A 
ATOM     62  C   UNL A   1      41.585  34.518  30.431  1.00  0.00     0.049 A 
ATOM     63  H   UNL A   1      39.816  34.869  29.345  1.00  0.00     0.167 HD
ATOM     64  C   UNL A   1      43.422  33.941  28.967  1.00  0.00     0.074 A 
ATOM     65  C   UNL A   1      44.733  34.056  28.339  1.00  0.00     0.031 C 
ATOM     66  C   UNL A   1      42.523  34.885  29.387  1.00  0.00     0.034 A 
BRANCH  53  67
ATOM     67  C   UNL A   1      36.997  34.060  31.970  1.00  0.00     0.023 A 
ATOM     68  C   UNL A   1      35.823  34.494  31.315  1.00  0.00     0.031 A 
ATOM     69  C   UNL A   1      36.944  34.066  33.377  1.00  0.00     0.131 A 
ATOM     70  C   UNL A   1      34.702  34.959  32.026  1.00  0.00     0.055 A 
ATOM     71  C   UNL A   1      35.835  34.555  34.090  1.00  0.00     0.041 A 
ATOM     72  F   UNL A   1      37.946  33.563  34.114  1.00  0.00    -0.206 F 
ATOM     73  C   UNL A   1      34.708  35.009  33.415  1.00  0.00     0.022 A 
BRANCH  70  74
ATOM     74  S   UNL A   1      33.229  35.472  31.095  1.00  0.00     0.124 S 
ATOM     75  O   UNL A   1      33.246  34.555  29.960  1.00  0.00    -0.237 OA
ATOM     76  O   UNL A   1      32.160  35.272  32.068  1.00  0.00    -0.237 OA
ATOM     77  O   UNL A   1      33.506  36.870  30.764  1.00  0.00    -0.744 OA
ENDBRANCH  70  74
ENDBRANCH  53  67
BRANCH  54  78
ATOM     78  C   UNL A   1      44.702  29.382  28.040  1.00  0.00     0.023 A 
ATOM     79  C   UNL A   1      45.357  28.197  28.469  1.00  0.00     0.031 A 
ATOM     80  C   UNL A   1      43.854  29.265  26.929  1.00  0.00     0.131 A 
ATOM     81  C   UNL A   1      44.998  26.941  27.950  1.00  0.00     0.055 A 
ATOM     82  C   UNL A   1      43.588  28.015  26.335  1.00  0.00     0.041 A 
ATOM     83  F   UNL A   1      43.183  30.327  26.464  1.00  0.00    -0.206 F 
ATOM     84  C   UNL A   1      44.123  26.840  26.872  1.00  0.00     0.022 A 
BRANCH  81  85
ATOM     85  S   UNL A   1      45.403  25.464  28.941  1.00  0.00     0.124 S 
ATOM     86  O   UNL A   1      44.786  24.392  28.170  1.00  0.00    -0.237 OA
ATOM     87  O   UNL A   1      46.867  25.488  28.950  1.00  0.00    -0.237 OA
ATOM     88  O   UNL A   1      44.801  25.739  30.243  1.00  0.00    -0.744 OA
ENDBRANCH  81  85
ENDBRANCH  54  78
BRANCH  66  89
ATOM     89  C   UNL A   1      42.526  36.308  28.901  1.00  0.00     0.023 A 
ATOM     90  C   UNL A   1      43.204  37.311  29.595  1.00  0.00     0.031 A 
ATOM     91  C   UNL A   1      41.931  36.694  27.677  1.00  0.00     0.131 A 
ATOM     92  C   UNL A   1      43.135  38.643  29.184  1.00  0.00     0.055 A 
ATOM     93  C   UNL A   1      41.989  38.001  27.192  1.00  0.00     0.041 A 
ATOM     94  F   UNL A   1      41.278  35.823  26.895  1.00  0.00    -0.206 F 
ATOM     95  C   UNL A   1      42.563  38.997  27.967  1.00  0.00     0.022 A 
BRANCH  92  96
ATOM     96  S   UNL A   1      43.676  39.892  30.369  1.00  0.00     0.124 S 
ATOM     97  O   UNL A   1      42.443  40.647  30.582  1.00  0.00    -0.237 OA
ATOM     98  O   UNL A   1      44.125  39.085  31.499  1.00  0.00    -0.237 OA
ATOM     99  O   UNL A   1      44.729  40.609  29.653  1.00  0.00    -0.744 OA
ENDBRANCH  92  96
ENDBRANCH  66  89
ENDBRANCH  40  41
ENDBRANCH  33  35
ENDBRANCH  32  33
ENDBRANCH  31  32
ENDBRANCH   1  31
TORSDOF 19
ENDMDL
MODEL 3
REMARK VINA RESULT:     -12.5      1.960      2.599
REMARK SMILES Cc1ccc(S(=O)(=O)n2cc(C(=O)C(=O)NCC(=O)OCCOC(=O)c3ccc(-c4c5nc(c(-c6cc(S(=O)(=O)[O-])ccc6F)c6ccc([nH]6)c(-c6cc(S(=O)(=O)[O-])ccc6F)c6nc(c(-c7cc(S(=O)(=O)[O-])ccc7F)c7ccc4[nH]7)C=C6)C=C5)cc3)c3ccccc32)cc1
REMARK SMILES IDX 21 1 20 2 18 3 19 4 17 5 16 6 14 7 15 8 12 10 13 11 11 12
REMARK SMILES IDX 9 13 10 14 94 15 89 16 93 17 90 18 92 19 91 20 6 21 7 22
REMARK SMILES IDX 8 23 5 24 1 25 2 26 3 27 96 28 4 29 95 30 22 31 23 32 24 33
REMARK SMILES IDX 25 34 26 35 27 36 88 37 28 38 87 39 29 40 30 41 31 42 81 43
REMARK SMILES IDX 32 44 86 45 80 46 82 47 33 48 85 49 79 50 78 51 34 53 66 54
REMARK SMILES IDX 46 55 65 56 47 57 50 58 64 59 83 60 48 61 49 62 63 64 84 65
REMARK SMILES IDX 51 66 35 67 36 68 44 69 37 70 43 71 45 72 42 73 38 74 39 75
REMARK SMILES IDX 40 76 41 77 67 78 68 79 76 80 69 81 75 82 77 83 74 84 70 85
REMARK SMILES IDX 71 86 72 87 73 88 52 89 53 90 61 91 54 92 60 93 62 94 59 95
REMARK SMILES IDX 55 96 56 97 57 98 58 99
REMARK H PARENT 16 9 82 52 50 63
REMARK Flexibility Score: inf
ROOT
ATOM      1  C   UNL A   1      37.634  22.425  25.425  1.00  0.00     0.274 C 
ENDROOT
BRANCH   1   2
ATOM      2  O   UNL A   1      36.502  22.038  26.210  1.00  0.00    -0.461 OA
BRANCH   2   3
ATOM      3  C   UNL A   1      35.326  22.202  25.552  1.00  0.00     0.325 C 
ATOM      4  O   UNL A   1      34.747  23.273  25.414  1.00  0.00    -0.250 OA
BRANCH   3   5
ATOM      5  C   UNL A   1      34.946  20.951  24.785  1.00  0.00     0.239 C 
BRANCH   5   6
ATOM      6  N   UNL A   1      34.061  20.005  25.428  1.00  0.00    -0.338 N 
ATOM      7  C   UNL A   1      32.834  19.658  24.904  1.00  0.00     0.292 C 
ATOM      8  O   UNL A   1      32.084  18.849  25.429  1.00  0.00    -0.265 OA
ATOM      9  H   UNL A   1      34.347  19.590  26.274  1.00  0.00     0.164 HD
BRANCH   7  10
ATOM     10  C   UNL A   1      32.405  20.403  23.626  1.00  0.00     0.252 C 
ATOM     11  O   UNL A   1      32.437  19.789  22.565  1.00  0.00    -0.283 OA
BRANCH  10  12
ATOM     12  C   UNL A   1      32.076  21.823  23.716  1.00  0.00     0.054 A 
ATOM     13  N   UNL A   1      32.027  23.993  23.236  1.00  0.00    -0.240 N 
ATOM     14  C   UNL A   1      32.415  22.768  22.768  1.00  0.00     0.117 A 
ATOM     15  C   UNL A   1      31.375  23.885  24.446  1.00  0.00     0.065 A 
ATOM     16  C   UNL A   1      31.375  22.516  24.761  1.00  0.00     0.012 A 
ATOM     17  C   UNL A   1      30.834  24.848  25.319  1.00  0.00     0.028 A 
ATOM     18  C   UNL A   1      30.758  22.104  25.963  1.00  0.00     0.011 A 
ATOM     19  C   UNL A   1      30.260  24.410  26.514  1.00  0.00     0.002 A 
ATOM     20  C   UNL A   1      30.206  23.058  26.826  1.00  0.00     0.001 A 
BRANCH  13  21
ATOM     21  S   UNL A   1      32.585  25.443  22.543  1.00  0.00     0.268 S 
ATOM     22  O   UNL A   1      31.481  25.960  21.752  1.00  0.00    -0.201 OA
ATOM     23  O   UNL A   1      33.869  25.133  21.949  1.00  0.00    -0.201 OA
BRANCH  21  24
ATOM     24  C   UNL A   1      32.877  26.579  23.875  1.00  0.00     0.088 A 
ATOM     25  C   UNL A   1      33.119  29.259  27.223  1.00  0.00     0.044 C 
ATOM     26  C   UNL A   1      33.068  28.347  26.035  1.00  0.00    -0.051 A 
ATOM     27  C   UNL A   1      32.133  28.574  25.018  1.00  0.00     0.005 A 
ATOM     28  C   UNL A   1      33.939  27.256  25.934  1.00  0.00     0.005 A 
ATOM     29  C   UNL A   1      32.032  27.691  23.943  1.00  0.00     0.022 A 
ATOM     30  C   UNL A   1      33.854  26.379  24.851  1.00  0.00     0.022 A 
ENDBRANCH  21  24
ENDBRANCH  13  21
ENDBRANCH  10  12
ENDBRANCH   7  10
ENDBRANCH   5   6
ENDBRANCH   3   5
ENDBRANCH   2   3
ENDBRANCH   1   2
BRANCH   1  31
ATOM     31  C   UNL A   1      38.003  23.888  25.701  1.00  0.00     0.275 C 
BRANCH  31  32
ATOM     32  O   UNL A   1      39.019  24.142  26.729  1.00  0.00    -0.458 OA
BRANCH  32  33
ATOM     33  C   UNL A   1      40.009  25.074  26.865  1.00  0.00     0.338 C 
ATOM     34  O   UNL A   1      41.003  25.028  26.146  1.00  0.00    -0.246 OA
BRANCH  33  35
ATOM     35  C   UNL A   1      39.782  26.270  27.702  1.00  0.00     0.060 A 
ATOM     36  C   UNL A   1      39.686  26.178  29.107  1.00  0.00     0.016 A 
ATOM     37  C   UNL A   1      39.841  27.505  27.108  1.00  0.00     0.016 A 
ATOM     38  C   UNL A   1      39.841  27.327  29.895  1.00  0.00     0.010 A 
ATOM     39  C   UNL A   1      40.285  28.555  27.855  1.00  0.00     0.010 A 
ATOM     40  C   UNL A   1      40.213  28.503  29.252  1.00  0.00    -0.014 A 
BRANCH  40  41
ATOM     41  C   UNL A   1      40.316  29.830  29.844  1.00  0.00     0.031 A 
ATOM     42  C   UNL A   1      39.175  30.754  29.927  1.00  0.00     0.074 A 
ATOM     43  C   UNL A   1      41.499  30.002  30.480  1.00  0.00     0.049 A 
ATOM     44  N   UNL A   1      39.275  32.033  29.996  1.00  0.00    -0.248 NA
ATOM     45  C   UNL A   1      37.784  30.309  29.933  1.00  0.00     0.031 C 
ATOM     46  C   UNL A   1      41.969  30.980  31.438  1.00  0.00     0.029 A 
ATOM     47  N   UNL A   1      42.639  29.239  30.224  1.00  0.00    -0.354 N 
ATOM     48  C   UNL A   1      38.051  32.515  30.424  1.00  0.00     0.074 A 
ATOM     49  C   UNL A   1      37.121  31.436  30.222  1.00  0.00     0.031 C 
ATOM     50  C   UNL A   1      43.322  30.964  31.430  1.00  0.00     0.029 A 
ATOM     51  C   UNL A   1      43.752  30.045  30.379  1.00  0.00     0.049 A 
ATOM     52  H   UNL A   1      42.649  28.286  29.974  1.00  0.00     0.167 HD
ATOM     53  C   UNL A   1      38.005  33.691  31.114  1.00  0.00     0.034 A 
ATOM     54  C   UNL A   1      44.412  30.351  29.220  1.00  0.00     0.034 A 
ATOM     55  C   UNL A   1      39.360  34.201  31.294  1.00  0.00     0.049 A 
ATOM     56  C   UNL A   1      44.162  31.804  28.894  1.00  0.00     0.074 A 
ATOM     57  C   UNL A   1      40.257  34.069  32.340  1.00  0.00     0.029 A 
ATOM     58  N   UNL A   1      40.099  34.565  30.178  1.00  0.00    -0.354 N 
ATOM     59  N   UNL A   1      43.084  32.465  29.232  1.00  0.00    -0.248 NA
ATOM     60  C   UNL A   1      45.186  32.648  28.298  1.00  0.00     0.031 C 
ATOM     61  C   UNL A   1      41.564  34.230  31.804  1.00  0.00     0.029 A 
ATOM     62  C   UNL A   1      41.452  34.475  30.444  1.00  0.00     0.049 A 
ATOM     63  H   UNL A   1      39.715  34.848  29.316  1.00  0.00     0.167 HD
ATOM     64  C   UNL A   1      43.297  33.802  29.031  1.00  0.00     0.074 A 
ATOM     65  C   UNL A   1      44.621  33.859  28.424  1.00  0.00     0.031 C 
ATOM     66  C   UNL A   1      42.420  34.783  29.408  1.00  0.00     0.034 A 
BRANCH  53  67
ATOM     67  C   UNL A   1      36.826  34.198  31.910  1.00  0.00     0.023 A 
ATOM     68  C   UNL A   1      35.663  34.613  31.223  1.00  0.00     0.031 A 
ATOM     69  C   UNL A   1      36.762  34.278  33.314  1.00  0.00     0.131 A 
ATOM     70  C   UNL A   1      34.543  35.128  31.899  1.00  0.00     0.055 A 
ATOM     71  C   UNL A   1      35.655  34.819  33.991  1.00  0.00     0.041 A 
ATOM     72  F   UNL A   1      37.751  33.801  34.085  1.00  0.00    -0.206 F 
ATOM     73  C   UNL A   1      34.539  35.251  33.284  1.00  0.00     0.022 A 
BRANCH  70  74
ATOM     74  S   UNL A   1      33.085  35.612  30.930  1.00  0.00     0.124 S 
ATOM     75  O   UNL A   1      31.997  35.381  31.874  1.00  0.00    -0.237 OA
ATOM     76  O   UNL A   1      33.373  37.005  30.607  1.00  0.00    -0.237 OA
ATOM     77  O   UNL A   1      33.117  34.697  29.789  1.00  0.00    -0.744 OA
ENDBRANCH  70  74
ENDBRANCH  53  67
BRANCH  54  78
ATOM     78  C   UNL A   1      44.454  29.183  28.255  1.00  0.00     0.023 A 
ATOM     79  C   UNL A   1      44.886  27.938  28.785  1.00  0.00     0.031 A 
ATOM     80  C   UNL A   1      43.753  29.139  27.041  1.00  0.00     0.131 A 
ATOM     81  C   UNL A   1      44.438  26.722  28.239  1.00  0.00     0.055 A 
ATOM     82  C   UNL A   1      43.407  27.915  26.433  1.00  0.00     0.041 A 
ATOM     83  F   UNL A   1      43.293  30.263  26.474  1.00  0.00    -0.206 F 
ATOM     84  C   UNL A   1      43.708  26.700  27.054  1.00  0.00     0.022 A 
BRANCH  81  85
ATOM     85  S   UNL A   1      44.512  25.237  29.296  1.00  0.00     0.124 S 
ATOM     86  O   UNL A   1      45.691  24.549  28.785  1.00  0.00    -0.237 OA
ATOM     87  O   UNL A   1      44.634  25.815  30.635  1.00  0.00    -0.237 OA
ATOM     88  O   UNL A   1      43.234  24.571  29.055  1.00  0.00    -0.744 OA
ENDBRANCH  81  85
ENDBRANCH  54  78
BRANCH  66  89
ATOM     89  C   UNL A   1      42.475  36.192  28.884  1.00  0.00     0.023 A 
ATOM     90  C   UNL A   1      43.161  37.195  29.568  1.00  0.00     0.031 A 
ATOM     91  C   UNL A   1      41.924  36.559  27.633  1.00  0.00     0.131 A 
ATOM     92  C   UNL A   1      43.139  38.517  29.119  1.00  0.00     0.055 A 
ATOM     93  C   UNL A   1      42.031  37.849  27.114  1.00  0.00     0.041 A 
ATOM     94  F   UNL A   1      41.268  35.683  26.857  1.00  0.00    -0.206 F 
ATOM     95  C   UNL A   1      42.610  38.852  27.876  1.00  0.00     0.022 A 
BRANCH  92  96
ATOM     96  S   UNL A   1      43.682  39.785  30.282  1.00  0.00     0.124 S 
ATOM     97  O   UNL A   1      44.089  38.975  31.428  1.00  0.00    -0.237 OA
ATOM     98  O   UNL A   1      44.765  40.439  29.556  1.00  0.00    -0.237 OA
ATOM     99  O   UNL A   1      42.485  40.597  30.487  1.00  0.00    -0.744 OA
ENDBRANCH  92  96
ENDBRANCH  66  89
ENDBRANCH  40  41
ENDBRANCH  33  35
ENDBRANCH  32  33
ENDBRANCH  31  32
ENDBRANCH   1  31
TORSDOF 19
ENDMDL
