MODEL 1
REMARK VINA RESULT:     -12.6      0.000      0.000
REMARK SMILES O=C(OCCOC(=O)c1cccn(Cc2ccc3c(c2)OC(F)(F)O3)c1=O)c1ccc(-c2c3nc(c(-c4cc(S(=O)(=O)[O-])ccc4F)c4ccc([nH]4)c(-c4cc(S(=O)(=O)[O-])ccc4F)c4nc(c(-c5cc(S(=O)(=O)[O-])ccc5F)c5ccc2[nH]5)C=C4)C=C3)cc1
REMARK SMILES IDX 4 1 3 2 2 3 1 4 28 5 29 6 90 7 30 8 89 9 31 10 32 11 33 12
REMARK SMILES IDX 83 13 34 14 88 15 82 16 84 17 35 18 87 19 81 20 80 21 36 23
REMARK SMILES IDX 68 24 48 25 67 26 49 27 52 28 66 29 85 30 50 31 51 32 65 34
REMARK SMILES IDX 86 35 53 36 37 37 38 38 46 39 39 40 45 41 47 42 44 43 40 44
REMARK SMILES IDX 41 45 42 46 43 47 69 48 70 49 78 50 71 51 77 52 79 53 76 54
REMARK SMILES IDX 72 55 73 56 74 57 75 58 54 59 55 60 63 61 56 62 62 63 64 64
REMARK SMILES IDX 61 65 57 66 58 67 59 68 60 69 5 70 6 71 7 72 8 73 9 74 10 75
REMARK SMILES IDX 26 76 11 77 13 78 27 79 12 80 14 81 15 82 16 83 20 84 17 85
REMARK SMILES IDX 19 86 18 87 21 88 25 89 22 90 23 91 24 92
REMARK H PARENT 84 22 52 33
REMARK Flexibility Score: inf
ROOT
ATOM      1  C   UNL A   1      34.231  34.403  31.420  1.00  0.00     0.275 C 
ENDROOT
BRANCH   1   2
ATOM      2  O   UNL A   1      34.396  33.071  31.942  1.00  0.00    -0.458 OA
BRANCH   2   3
ATOM      3  C   UNL A   1      35.469  32.503  32.543  1.00  0.00     0.338 C 
ATOM      4  O   UNL A   1      35.570  32.601  33.765  1.00  0.00    -0.246 OA
BRANCH   3   5
ATOM      5  C   UNL A   1      36.627  31.916  31.794  1.00  0.00     0.060 A 
ATOM      6  C   UNL A   1      37.502  31.126  32.554  1.00  0.00     0.016 A 
ATOM      7  C   UNL A   1      36.916  32.070  30.436  1.00  0.00     0.016 A 
ATOM      8  C   UNL A   1      38.690  30.630  32.006  1.00  0.00     0.010 A 
ATOM      9  C   UNL A   1      38.093  31.540  29.874  1.00  0.00     0.010 A 
ATOM     10  C   UNL A   1      39.012  30.841  30.657  1.00  0.00    -0.014 A 
BRANCH  10  11
ATOM     11  C   UNL A   1      40.229  30.199  30.086  1.00  0.00     0.031 A 
ATOM     12  C   UNL A   1      40.263  28.766  29.625  1.00  0.00     0.074 A 
ATOM     13  C   UNL A   1      41.330  30.963  29.937  1.00  0.00     0.049 A 
ATOM     14  N   UNL A   1      41.128  28.199  28.819  1.00  0.00    -0.248 NA
ATOM     15  C   UNL A   1      39.205  27.856  30.088  1.00  0.00     0.031 C 
ATOM     16  C   UNL A   1      41.453  32.343  30.410  1.00  0.00     0.029 A 
ATOM     17  N   UNL A   1      42.542  30.705  29.347  1.00  0.00    -0.354 N 
ATOM     18  C   UNL A   1      40.670  26.903  28.610  1.00  0.00     0.074 A 
ATOM     19  C   UNL A   1      39.502  26.732  29.442  1.00  0.00     0.031 C 
ATOM     20  C   UNL A   1      42.655  32.820  30.064  1.00  0.00     0.029 A 
ATOM     21  C   UNL A   1      43.412  31.769  29.391  1.00  0.00     0.049 A 
ATOM     22  H   UNL A   1      42.767  29.840  28.933  1.00  0.00     0.167 HD
ATOM     23  C   UNL A   1      41.158  25.972  27.755  1.00  0.00     0.034 A 
ATOM     24  C   UNL A   1      44.680  31.893  28.949  1.00  0.00     0.034 A 
ATOM     25  C   UNL A   1      42.388  26.123  27.022  1.00  0.00     0.049 A 
ATOM     26  C   UNL A   1      45.288  30.758  28.173  1.00  0.00     0.074 A 
ATOM     27  C   UNL A   1      42.939  25.255  26.096  1.00  0.00     0.029 A 
ATOM     28  N   UNL A   1      43.288  27.165  27.181  1.00  0.00    -0.354 N 
ATOM     29  N   UNL A   1      44.728  29.638  27.782  1.00  0.00    -0.248 NA
ATOM     30  C   UNL A   1      46.689  30.904  27.759  1.00  0.00     0.031 C 
ATOM     31  C   UNL A   1      44.218  25.716  25.781  1.00  0.00     0.029 A 
ATOM     32  C   UNL A   1      44.430  26.918  26.438  1.00  0.00     0.049 A 
ATOM     33  H   UNL A   1      43.137  27.962  27.739  1.00  0.00     0.167 HD
ATOM     34  C   UNL A   1      45.695  28.962  27.044  1.00  0.00     0.074 A 
ATOM     35  C   UNL A   1      46.871  29.807  27.034  1.00  0.00     0.031 C 
ATOM     36  C   UNL A   1      45.607  27.758  26.424  1.00  0.00     0.034 A 
BRANCH  23  37
ATOM     37  C   UNL A   1      40.356  24.724  27.477  1.00  0.00     0.023 A 
ATOM     38  C   UNL A   1      40.940  23.448  27.529  1.00  0.00     0.031 A 
ATOM     39  C   UNL A   1      39.074  24.845  26.914  1.00  0.00     0.131 A 
ATOM     40  C   UNL A   1      40.248  22.350  26.995  1.00  0.00     0.055 A 
ATOM     41  C   UNL A   1      38.375  23.747  26.409  1.00  0.00     0.041 A 
ATOM     42  F   UNL A   1      38.513  26.052  26.789  1.00  0.00    -0.206 F 
ATOM     43  C   UNL A   1      38.970  22.492  26.438  1.00  0.00     0.022 A 
BRANCH  40  44
ATOM     44  S   UNL A   1      41.012  20.707  26.920  1.00  0.00     0.124 S 
ATOM     45  O   UNL A   1      42.346  21.019  26.411  1.00  0.00    -0.237 OA
ATOM     46  O   UNL A   1      40.960  20.280  28.314  1.00  0.00    -0.237 OA
ATOM     47  O   UNL A   1      40.155  19.966  25.999  1.00  0.00    -0.744 OA
ENDBRANCH  40  44
ENDBRANCH  23  37
BRANCH  24  48
ATOM     48  C   UNL A   1      45.407  33.170  29.210  1.00  0.00     0.023 A 
ATOM     49  C   UNL A   1      45.439  34.180  28.229  1.00  0.00     0.031 A 
ATOM     50  C   UNL A   1      46.183  33.350  30.365  1.00  0.00     0.131 A 
ATOM     51  C   UNL A   1      46.305  35.270  28.374  1.00  0.00     0.055 A 
ATOM     52  C   UNL A   1      46.981  34.481  30.545  1.00  0.00     0.041 A 
ATOM     53  F   UNL A   1      46.196  32.412  31.325  1.00  0.00    -0.206 F 
ATOM     54  C   UNL A   1      47.065  35.436  29.535  1.00  0.00     0.022 A 
BRANCH  51  55
ATOM     55  S   UNL A   1      46.605  36.400  26.985  1.00  0.00     0.124 S 
ATOM     56  O   UNL A   1      48.026  36.691  27.132  1.00  0.00    -0.237 OA
ATOM     57  O   UNL A   1      46.242  35.571  25.838  1.00  0.00    -0.237 OA
ATOM     58  O   UNL A   1      45.700  37.516  27.248  1.00  0.00    -0.744 OA
ENDBRANCH  51  55
ENDBRANCH  24  48
BRANCH  36  59
ATOM     59  C   UNL A   1      46.804  27.248  25.662  1.00  0.00     0.023 A 
ATOM     60  C   UNL A   1      47.102  27.775  24.390  1.00  0.00     0.031 A 
ATOM     61  C   UNL A   1      47.559  26.154  26.118  1.00  0.00     0.131 A 
ATOM     62  C   UNL A   1      48.089  27.178  23.598  1.00  0.00     0.055 A 
ATOM     63  C   UNL A   1      48.584  25.600  25.350  1.00  0.00     0.041 A 
ATOM     64  F   UNL A   1      47.309  25.607  27.318  1.00  0.00    -0.206 F 
ATOM     65  C   UNL A   1      48.841  26.101  24.076  1.00  0.00     0.022 A 
BRANCH  62  66
ATOM     66  S   UNL A   1      48.350  27.704  21.882  1.00  0.00     0.124 S 
ATOM     67  O   UNL A   1      47.172  28.533  21.640  1.00  0.00    -0.237 OA
ATOM     68  O   UNL A   1      49.615  28.430  21.970  1.00  0.00    -0.237 OA
ATOM     69  O   UNL A   1      48.398  26.453  21.133  1.00  0.00    -0.744 OA
ENDBRANCH  62  66
ENDBRANCH  36  59
ENDBRANCH  10  11
ENDBRANCH   3   5
ENDBRANCH   2   3
ENDBRANCH   1   2
BRANCH   1  70
ATOM     70  C   UNL A   1      33.814  34.460  29.951  1.00  0.00     0.275 C 
BRANCH  70  71
ATOM     71  O   UNL A   1      33.691  33.157  29.370  1.00  0.00    -0.458 OA
BRANCH  71  72
ATOM     72  C   UNL A   1      34.308  32.987  28.171  1.00  0.00     0.343 C 
ATOM     73  O   UNL A   1      35.019  33.810  27.609  1.00  0.00    -0.246 OA
BRANCH  72  74
ATOM     74  C   UNL A   1      34.151  31.600  27.711  1.00  0.00     0.125 A 
ATOM     75  C   UNL A   1      35.189  30.767  27.911  1.00  0.00     0.023 A 
ATOM     76  C   UNL A   1      32.900  31.093  27.084  1.00  0.00     0.265 A 
ATOM     77  C   UNL A   1      35.081  29.364  27.599  1.00  0.00     0.019 A 
ATOM     78  N   UNL A   1      32.899  29.732  26.756  1.00  0.00    -0.310 N 
ATOM     79  O   UNL A   1      31.971  31.862  26.848  1.00  0.00    -0.268 OA
ATOM     80  C   UNL A   1      33.960  28.892  27.048  1.00  0.00     0.089 A 
BRANCH  78  81
ATOM     81  C   UNL A   1      31.781  29.187  25.993  1.00  0.00     0.161 C 
BRANCH  81  82
ATOM     82  C   UNL A   1      32.264  28.422  24.783  1.00  0.00    -0.024 A 
ATOM     83  C   UNL A   1      33.088  29.045  23.819  1.00  0.00     0.010 A 
ATOM     84  C   UNL A   1      31.961  27.055  24.676  1.00  0.00     0.056 A 
ATOM     85  C   UNL A   1      33.645  28.306  22.772  1.00  0.00     0.051 A 
ATOM     86  C   UNL A   1      32.546  26.350  23.654  1.00  0.00     0.173 A 
ATOM     87  C   UNL A   1      33.374  26.956  22.733  1.00  0.00     0.172 A 
ATOM     88  O   UNL A   1      32.443  25.008  23.460  1.00  0.00    -0.395 OA
ATOM     89  O   UNL A   1      33.899  26.061  21.852  1.00  0.00    -0.395 OA
ATOM     90  C   UNL A   1      33.473  24.846  22.481  1.00  0.00     0.586 C 
ATOM     91  F   UNL A   1      34.545  24.265  23.078  1.00  0.00    -0.125 F 
ATOM     92  F   UNL A   1      33.031  23.992  21.524  1.00  0.00    -0.125 F 
ENDBRANCH  81  82
ENDBRANCH  78  81
ENDBRANCH  72  74
ENDBRANCH  71  72
ENDBRANCH  70  71
ENDBRANCH   1  70
TORSDOF 16
ENDMDL
MODEL 2
REMARK VINA RESULT:     -12.5      2.979      9.142
REMARK SMILES O=C(OCCOC(=O)c1cccn(Cc2ccc3c(c2)OC(F)(F)O3)c1=O)c1ccc(-c2c3nc(c(-c4cc(S(=O)(=O)[O-])ccc4F)c4ccc([nH]4)c(-c4cc(S(=O)(=O)[O-])ccc4F)c4nc(c(-c5cc(S(=O)(=O)[O-])ccc5F)c5ccc2[nH]5)C=C4)C=C3)cc1
REMARK SMILES IDX 4 1 3 2 2 3 1 4 28 5 29 6 90 7 30 8 89 9 31 10 32 11 33 12
REMARK SMILES IDX 83 13 34 14 88 15 82 16 84 17 35 18 87 19 81 20 80 21 36 23
REMARK SMILES IDX 68 24 48 25 67 26 49 27 52 28 66 29 85 30 50 31 51 32 65 34
REMARK SMILES IDX 86 35 53 36 37 37 38 38 46 39 39 40 45 41 47 42 44 43 40 44
REMARK SMILES IDX 41 45 42 46 43 47 69 48 70 49 78 50 71 51 77 52 79 53 76 54
REMARK SMILES IDX 72 55 73 56 74 57 75 58 54 59 55 60 63 61 56 62 62 63 64 64
REMARK SMILES IDX 61 65 57 66 58 67 59 68 60 69 5 70 6 71 7 72 8 73 9 74 10 75
REMARK SMILES IDX 26 76 11 77 13 78 27 79 12 80 14 81 15 82 16 83 20 84 17 85
REMARK SMILES IDX 19 86 18 87 21 88 25 89 22 90 23 91 24 92
REMARK H PARENT 84 22 52 33
REMARK Flexibility Score: inf
ROOT
ATOM      1  C   UNL A   1      37.099  20.945  24.693  1.00  0.00     0.275 C 
ENDROOT
BRANCH   1   2
ATOM      2  O   UNL A   1      37.734  21.715  25.731  1.00  0.00    -0.458 OA
BRANCH   2   3
ATOM      3  C   UNL A   1      39.029  21.736  26.126  1.00  0.00     0.338 C 
ATOM      4  O   UNL A   1      39.664  20.682  26.093  1.00  0.00    -0.246 OA
BRANCH   3   5
ATOM      5  C   UNL A   1      39.685  22.922  26.766  1.00  0.00     0.060 A 
ATOM      6  C   UNL A   1      39.367  24.168  26.203  1.00  0.00     0.016 A 
ATOM      7  C   UNL A   1      40.563  22.913  27.853  1.00  0.00     0.016 A 
ATOM      8  C   UNL A   1      40.012  25.336  26.622  1.00  0.00     0.010 A 
ATOM      9  C   UNL A   1      41.184  24.095  28.300  1.00  0.00     0.010 A 
ATOM     10  C   UNL A   1      40.943  25.317  27.671  1.00  0.00    -0.014 A 
BRANCH  10  11
ATOM     11  C   UNL A   1      41.520  26.599  28.161  1.00  0.00     0.031 A 
ATOM     12  C   UNL A   1      42.965  26.978  27.966  1.00  0.00     0.074 A 
ATOM     13  C   UNL A   1      40.689  27.472  28.766  1.00  0.00     0.049 A 
ATOM     14  N   UNL A   1      43.502  28.172  28.038  1.00  0.00    -0.248 NA
ATOM     15  C   UNL A   1      43.927  25.919  27.627  1.00  0.00     0.031 C 
ATOM     16  C   UNL A   1      39.287  27.198  29.083  1.00  0.00     0.029 A 
ATOM     17  N   UNL A   1      40.886  28.755  29.210  1.00  0.00    -0.354 N 
ATOM     18  C   UNL A   1      44.833  28.021  27.668  1.00  0.00     0.074 A 
ATOM     19  C   UNL A   1      45.052  26.609  27.459  1.00  0.00     0.031 C 
ATOM     20  C   UNL A   1      38.741  28.286  29.640  1.00  0.00     0.029 A 
ATOM     21  C   UNL A   1      39.764  29.321  29.768  1.00  0.00     0.049 A 
ATOM     22  H   UNL A   1      41.748  29.225  29.138  1.00  0.00     0.167 HD
ATOM     23  C   UNL A   1      45.761  28.989  27.469  1.00  0.00     0.034 A 
ATOM     24  C   UNL A   1      39.569  30.532  30.329  1.00  0.00     0.034 A 
ATOM     25  C   UNL A   1      45.554  30.376  27.794  1.00  0.00     0.049 A 
ATOM     26  C   UNL A   1      40.688  31.535  30.286  1.00  0.00     0.074 A 
ATOM     27  C   UNL A   1      46.416  31.437  27.585  1.00  0.00     0.029 A 
ATOM     28  N   UNL A   1      44.447  30.883  28.456  1.00  0.00    -0.354 N 
ATOM     29  N   UNL A   1      41.858  31.435  29.701  1.00  0.00    -0.248 NA
ATOM     30  C   UNL A   1      40.463  32.821  30.958  1.00  0.00     0.031 C 
ATOM     31  C   UNL A   1      45.881  32.560  28.217  1.00  0.00     0.029 A 
ATOM     32  C   UNL A   1      44.642  32.224  28.743  1.00  0.00     0.049 A 
ATOM     33  H   UNL A   1      43.641  30.367  28.688  1.00  0.00     0.167 HD
ATOM     34  C   UNL A   1      42.494  32.656  29.902  1.00  0.00     0.074 A 
ATOM     35  C   UNL A   1      41.571  33.483  30.652  1.00  0.00     0.031 C 
ATOM     36  C   UNL A   1      43.725  33.054  29.490  1.00  0.00     0.034 A 
BRANCH  23  37
ATOM     37  C   UNL A   1      47.070  28.639  26.806  1.00  0.00     0.023 A 
ATOM     38  C   UNL A   1      47.159  28.431  25.420  1.00  0.00     0.031 A 
ATOM     39  C   UNL A   1      48.166  28.270  27.605  1.00  0.00     0.131 A 
ATOM     40  C   UNL A   1      48.313  27.837  24.885  1.00  0.00     0.055 A 
ATOM     41  C   UNL A   1      49.324  27.707  27.067  1.00  0.00     0.041 A 
ATOM     42  F   UNL A   1      48.093  28.395  28.934  1.00  0.00    -0.206 F 
ATOM     43  C   UNL A   1      49.395  27.477  25.698  1.00  0.00     0.022 A 
BRANCH  40  44
ATOM     44  S   UNL A   1      48.424  27.428  23.121  1.00  0.00     0.124 S 
ATOM     45  O   UNL A   1      48.301  25.971  23.143  1.00  0.00    -0.237 OA
ATOM     46  O   UNL A   1      47.279  28.143  22.567  1.00  0.00    -0.237 OA
ATOM     47  O   UNL A   1      49.736  27.932  22.728  1.00  0.00    -0.744 OA
ENDBRANCH  40  44
ENDBRANCH  23  37
BRANCH  24  48
ATOM     48  C   UNL A   1      38.236  30.839  30.924  1.00  0.00     0.023 A 
ATOM     49  C   UNL A   1      37.240  31.463  30.148  1.00  0.00     0.031 A 
ATOM     50  C   UNL A   1      37.981  30.646  32.290  1.00  0.00     0.131 A 
ATOM     51  C   UNL A   1      36.084  31.961  30.761  1.00  0.00     0.055 A 
ATOM     52  C   UNL A   1      36.788  31.068  32.882  1.00  0.00     0.041 A 
ATOM     53  F   UNL A   1      38.902  30.067  33.076  1.00  0.00    -0.206 F 
ATOM     54  C   UNL A   1      35.843  31.751  32.121  1.00  0.00     0.022 A 
BRANCH  51  55
ATOM     55  S   UNL A   1      34.952  33.048  29.848  1.00  0.00     0.124 S 
ATOM     56  O   UNL A   1      35.870  34.020  29.265  1.00  0.00    -0.237 OA
ATOM     57  O   UNL A   1      34.333  32.117  28.908  1.00  0.00    -0.237 OA
ATOM     58  O   UNL A   1      34.060  33.562  30.883  1.00  0.00    -0.744 OA
ENDBRANCH  51  55
ENDBRANCH  24  48
BRANCH  36  59
ATOM     59  C   UNL A   1      44.181  34.454  29.821  1.00  0.00     0.023 A 
ATOM     60  C   UNL A   1      43.951  35.500  28.906  1.00  0.00     0.031 A 
ATOM     61  C   UNL A   1      44.959  34.727  30.958  1.00  0.00     0.131 A 
ATOM     62  C   UNL A   1      44.536  36.754  29.116  1.00  0.00     0.055 A 
ATOM     63  C   UNL A   1      45.490  35.996  31.194  1.00  0.00     0.041 A 
ATOM     64  F   UNL A   1      45.217  33.763  31.856  1.00  0.00    -0.206 F 
ATOM     65  C   UNL A   1      45.294  37.012  30.262  1.00  0.00     0.022 A 
BRANCH  62  66
ATOM     66  S   UNL A   1      44.428  38.053  27.855  1.00  0.00     0.124 S 
ATOM     67  O   UNL A   1      45.758  37.999  27.253  1.00  0.00    -0.237 OA
ATOM     68  O   UNL A   1      43.340  37.571  27.007  1.00  0.00    -0.237 OA
ATOM     69  O   UNL A   1      44.137  39.261  28.618  1.00  0.00    -0.744 OA
ENDBRANCH  62  66
ENDBRANCH  36  59
ENDBRANCH  10  11
ENDBRANCH   3   5
ENDBRANCH   2   3
ENDBRANCH   1   2
BRANCH   1  70
ATOM     70  C   UNL A   1      35.673  20.501  25.017  1.00  0.00     0.275 C 
BRANCH  70  71
ATOM     71  O   UNL A   1      34.792  21.610  25.223  1.00  0.00    -0.458 OA
BRANCH  71  72
ATOM     72  C   UNL A   1      33.602  21.546  24.570  1.00  0.00     0.343 C 
ATOM     73  O   UNL A   1      32.835  20.591  24.572  1.00  0.00    -0.246 OA
BRANCH  72  74
ATOM     74  C   UNL A   1      33.267  22.855  23.992  1.00  0.00     0.125 A 
ATOM     75  C   UNL A   1      33.511  23.026  22.680  1.00  0.00     0.023 A 
ATOM     76  C   UNL A   1      32.645  23.952  24.782  1.00  0.00     0.265 A 
ATOM     77  C   UNL A   1      33.106  24.233  22.004  1.00  0.00     0.019 A 
ATOM     78  N   UNL A   1      32.338  25.113  24.064  1.00  0.00    -0.310 N 
ATOM     79  O   UNL A   1      32.472  23.821  25.992  1.00  0.00    -0.268 OA
ATOM     80  C   UNL A   1      32.536  25.221  22.698  1.00  0.00     0.089 A 
BRANCH  78  81
ATOM     81  C   UNL A   1      31.878  26.294  24.787  1.00  0.00     0.161 C 
BRANCH  81  82
ATOM     82  C   UNL A   1      30.623  26.863  24.167  1.00  0.00    -0.024 A 
ATOM     83  C   UNL A   1      29.385  26.194  24.304  1.00  0.00     0.010 A 
ATOM     84  C   UNL A   1      30.684  28.113  23.530  1.00  0.00     0.056 A 
ATOM     85  C   UNL A   1      28.203  26.782  23.848  1.00  0.00     0.051 A 
ATOM     86  C   UNL A   1      29.503  28.677  23.120  1.00  0.00     0.173 A 
ATOM     87  C   UNL A   1      28.293  28.035  23.282  1.00  0.00     0.172 A 
ATOM     88  O   UNL A   1      29.367  29.917  22.578  1.00  0.00    -0.395 OA
ATOM     89  O   UNL A   1      27.248  28.802  22.870  1.00  0.00    -0.395 OA
ATOM     90  C   UNL A   1      27.943  30.037  22.655  1.00  0.00     0.586 C 
ATOM     91  F   UNL A   1      27.638  30.891  23.665  1.00  0.00    -0.125 F 
ATOM     92  F   UNL A   1      27.492  30.596  21.504  1.00  0.00    -0.125 F 
ENDBRANCH  81  82
ENDBRANCH  78  81
ENDBRANCH  72  74
ENDBRANCH  71  72
ENDBRANCH  70  71
ENDBRANCH   1  70
TORSDOF 16
ENDMDL
MODEL 3
REMARK VINA RESULT:     -12.5      5.450     10.927
REMARK SMILES O=C(OCCOC(=O)c1cccn(Cc2ccc3c(c2)OC(F)(F)O3)c1=O)c1ccc(-c2c3nc(c(-c4cc(S(=O)(=O)[O-])ccc4F)c4ccc([nH]4)c(-c4cc(S(=O)(=O)[O-])ccc4F)c4nc(c(-c5cc(S(=O)(=O)[O-])ccc5F)c5ccc2[nH]5)C=C4)C=C3)cc1
REMARK SMILES IDX 4 1 3 2 2 3 1 4 28 5 29 6 90 7 30 8 89 9 31 10 32 11 33 12
REMARK SMILES IDX 83 13 34 14 88 15 82 16 84 17 35 18 87 19 81 20 80 21 36 23
REMARK SMILES IDX 68 24 48 25 67 26 49 27 52 28 66 29 85 30 50 31 51 32 65 34
REMARK SMILES IDX 86 35 53 36 37 37 38 38 46 39 39 40 45 41 47 42 44 43 40 44
REMARK SMILES IDX 41 45 42 46 43 47 69 48 70 49 78 50 71 51 77 52 79 53 76 54
REMARK SMILES IDX 72 55 73 56 74 57 75 58 54 59 55 60 63 61 56 62 62 63 64 64
REMARK SMILES IDX 61 65 57 66 58 67 59 68 60 69 5 70 6 71 7 72 8 73 9 74 10 75
REMARK SMILES IDX 26 76 11 77 13 78 27 79 12 80 14 81 15 82 16 83 20 84 17 85
REMARK SMILES IDX 19 86 18 87 21 88 25 89 22 90 23 91 24 92
REMARK H PARENT 84 22 52 33
REMARK Flexibility Score: inf
ROOT
ATOM      1  C   UNL A   1      42.314  20.852  26.150  1.00  0.00     0.275 C 
ENDROOT
BRANCH   1   2
ATOM      2  O   UNL A   1      42.047  22.019  25.351  1.00  0.00    -0.458 OA
BRANCH   2   3
ATOM      3  C   UNL A   1      42.716  23.195  25.282  1.00  0.00     0.338 C 
ATOM      4  O   UNL A   1      43.641  23.291  24.475  1.00  0.00    -0.246 OA
BRANCH   3   5
ATOM      5  C   UNL A   1      42.517  24.323  26.248  1.00  0.00     0.060 A 
ATOM      6  C   UNL A   1      41.595  24.084  27.279  1.00  0.00     0.016 A 
ATOM      7  C   UNL A   1      43.151  25.568  26.229  1.00  0.00     0.016 A 
ATOM      8  C   UNL A   1      41.222  25.099  28.165  1.00  0.00     0.010 A 
ATOM      9  C   UNL A   1      42.803  26.579  27.145  1.00  0.00     0.010 A 
ATOM     10  C   UNL A   1      41.812  26.371  28.105  1.00  0.00    -0.014 A 
BRANCH  10  11
ATOM     11  C   UNL A   1      41.469  27.387  29.139  1.00  0.00     0.031 A 
ATOM     12  C   UNL A   1      40.300  28.327  29.012  1.00  0.00     0.074 A 
ATOM     13  C   UNL A   1      42.223  27.424  30.256  1.00  0.00     0.049 A 
ATOM     14  N   UNL A   1      39.705  29.006  29.962  1.00  0.00    -0.248 NA
ATOM     15  C   UNL A   1      39.699  28.522  27.684  1.00  0.00     0.031 C 
ATOM     16  C   UNL A   1      43.427  26.621  30.472  1.00  0.00     0.029 A 
ATOM     17  N   UNL A   1      42.094  28.147  31.415  1.00  0.00    -0.354 N 
ATOM     18  C   UNL A   1      38.615  29.632  29.368  1.00  0.00     0.074 A 
ATOM     19  C   UNL A   1      38.678  29.330  27.957  1.00  0.00     0.031 C 
ATOM     20  C   UNL A   1      43.908  26.868  31.696  1.00  0.00     0.029 A 
ATOM     21  C   UNL A   1      43.079  27.885  32.338  1.00  0.00     0.049 A 
ATOM     22  H   UNL A   1      41.367  28.792  31.571  1.00  0.00     0.167 HD
ATOM     23  C   UNL A   1      37.629  30.343  29.967  1.00  0.00     0.034 A 
ATOM     24  C   UNL A   1      43.304  28.404  33.563  1.00  0.00     0.034 A 
ATOM     25  C   UNL A   1      37.649  30.728  31.354  1.00  0.00     0.049 A 
ATOM     26  C   UNL A   1      42.298  29.362  34.137  1.00  0.00     0.074 A 
ATOM     27  C   UNL A   1      36.674  31.407  32.063  1.00  0.00     0.029 A 
ATOM     28  N   UNL A   1      38.714  30.536  32.220  1.00  0.00    -0.354 N 
ATOM     29  N   UNL A   1      41.146  29.739  33.636  1.00  0.00    -0.248 NA
ATOM     30  C   UNL A   1      42.605  29.952  35.445  1.00  0.00     0.031 C 
ATOM     31  C   UNL A   1      37.194  31.721  33.319  1.00  0.00     0.029 A 
ATOM     32  C   UNL A   1      38.457  31.161  33.429  1.00  0.00     0.049 A 
ATOM     33  H   UNL A   1      39.532  30.030  32.007  1.00  0.00     0.167 HD
ATOM     34  C   UNL A   1      40.572  30.581  34.584  1.00  0.00     0.074 A 
ATOM     35  C   UNL A   1      41.502  30.646  35.693  1.00  0.00     0.031 C 
ATOM     36  C   UNL A   1      39.380  31.229  34.539  1.00  0.00     0.034 A 
BRANCH  23  37
ATOM     37  C   UNL A   1      36.393  30.707  29.183  1.00  0.00     0.023 A 
ATOM     38  C   UNL A   1      35.562  29.724  28.622  1.00  0.00     0.031 A 
ATOM     39  C   UNL A   1      36.198  32.043  28.791  1.00  0.00     0.131 A 
ATOM     40  C   UNL A   1      34.596  30.096  27.674  1.00  0.00     0.055 A 
ATOM     41  C   UNL A   1      35.218  32.414  27.871  1.00  0.00     0.041 A 
ATOM     42  F   UNL A   1      37.011  32.997  29.256  1.00  0.00    -0.206 F 
ATOM     43  C   UNL A   1      34.418  31.433  27.297  1.00  0.00     0.022 A 
BRANCH  40  44
ATOM     44  S   UNL A   1      33.589  28.849  26.824  1.00  0.00     0.124 S 
ATOM     45  O   UNL A   1      33.134  29.583  25.645  1.00  0.00    -0.237 OA
ATOM     46  O   UNL A   1      34.561  27.793  26.565  1.00  0.00    -0.237 OA
ATOM     47  O   UNL A   1      32.546  28.526  27.792  1.00  0.00    -0.744 OA
ENDBRANCH  40  44
ENDBRANCH  23  37
BRANCH  24  48
ATOM     48  C   UNL A   1      44.519  27.967  34.313  1.00  0.00     0.023 A 
ATOM     49  C   UNL A   1      44.425  26.950  35.282  1.00  0.00     0.031 A 
ATOM     50  C   UNL A   1      45.744  28.637  34.179  1.00  0.00     0.131 A 
ATOM     51  C   UNL A   1      45.499  26.702  36.144  1.00  0.00     0.055 A 
ATOM     52  C   UNL A   1      46.842  28.328  34.984  1.00  0.00     0.041 A 
ATOM     53  F   UNL A   1      45.882  29.622  33.278  1.00  0.00    -0.206 F 
ATOM     54  C   UNL A   1      46.715  27.373  35.990  1.00  0.00     0.022 A 
BRANCH  51  55
ATOM     55  S   UNL A   1      45.287  25.637  37.599  1.00  0.00     0.124 S 
ATOM     56  O   UNL A   1      44.033  24.957  37.297  1.00  0.00    -0.237 OA
ATOM     57  O   UNL A   1      46.488  24.806  37.541  1.00  0.00    -0.237 OA
ATOM     58  O   UNL A   1      45.244  26.580  38.712  1.00  0.00    -0.744 OA
ENDBRANCH  51  55
ENDBRANCH  24  48
BRANCH  36  59
ATOM     59  C   UNL A   1      38.972  32.076  35.719  1.00  0.00     0.023 A 
ATOM     60  C   UNL A   1      38.373  31.472  36.841  1.00  0.00     0.031 A 
ATOM     61  C   UNL A   1      39.041  33.479  35.679  1.00  0.00     0.131 A 
ATOM     62  C   UNL A   1      37.820  32.267  37.852  1.00  0.00     0.055 A 
ATOM     63  C   UNL A   1      38.542  34.266  36.719  1.00  0.00     0.041 A 
ATOM     64  F   UNL A   1      39.593  34.105  34.628  1.00  0.00    -0.206 F 
ATOM     65  C   UNL A   1      37.912  33.661  37.803  1.00  0.00     0.022 A 
BRANCH  62  66
ATOM     66  S   UNL A   1      36.863  31.523  39.201  1.00  0.00     0.124 S 
ATOM     67  O   UNL A   1      36.693  30.151  38.729  1.00  0.00    -0.237 OA
ATOM     68  O   UNL A   1      37.762  31.683  40.342  1.00  0.00    -0.237 OA
ATOM     69  O   UNL A   1      35.643  32.321  39.250  1.00  0.00    -0.744 OA
ENDBRANCH  62  66
ENDBRANCH  36  59
ENDBRANCH  10  11
ENDBRANCH   3   5
ENDBRANCH   2   3
ENDBRANCH   1   2
BRANCH   1  70
ATOM     70  C   UNL A   1      41.146  20.405  27.029  1.00  0.00     0.275 C 
BRANCH  70  71
ATOM     71  O   UNL A   1      39.932  21.091  26.708  1.00  0.00    -0.458 OA
BRANCH  71  72
ATOM     72  C   UNL A   1      39.141  20.487  25.783  1.00  0.00     0.343 C 
ATOM     73  O   UNL A   1      39.279  19.346  25.358  1.00  0.00    -0.246 OA
BRANCH  72  74
ATOM     74  C   UNL A   1      37.975  21.329  25.480  1.00  0.00     0.125 A 
ATOM     75  C   UNL A   1      38.136  22.660  25.590  1.00  0.00     0.023 A 
ATOM     76  C   UNL A   1      36.671  20.772  25.028  1.00  0.00     0.265 A 
ATOM     77  C   UNL A   1      37.086  23.567  25.199  1.00  0.00     0.019 A 
ATOM     78  N   UNL A   1      35.684  21.718  24.726  1.00  0.00    -0.310 N 
ATOM     79  O   UNL A   1      36.501  19.556  24.979  1.00  0.00    -0.268 OA
ATOM     80  C   UNL A   1      35.914  23.081  24.780  1.00  0.00     0.089 A 
BRANCH  78  81
ATOM     81  C   UNL A   1      34.330  21.260  24.433  1.00  0.00     0.161 C 
BRANCH  81  82
ATOM     82  C   UNL A   1      33.300  22.107  25.142  1.00  0.00    -0.024 A 
ATOM     83  C   UNL A   1      33.233  22.128  26.554  1.00  0.00     0.010 A 
ATOM     84  C   UNL A   1      32.468  22.947  24.384  1.00  0.00     0.056 A 
ATOM     85  C   UNL A   1      32.374  23.009  27.214  1.00  0.00     0.051 A 
ATOM     86  C   UNL A   1      31.657  23.822  25.061  1.00  0.00     0.173 A 
ATOM     87  C   UNL A   1      31.616  23.860  26.439  1.00  0.00     0.172 A 
ATOM     88  O   UNL A   1      30.865  24.769  24.489  1.00  0.00    -0.395 OA
ATOM     89  O   UNL A   1      30.799  24.846  26.899  1.00  0.00    -0.395 OA
ATOM     90  C   UNL A   1      30.537  25.520  25.662  1.00  0.00     0.586 C 
ATOM     91  F   UNL A   1      31.242  26.680  25.639  1.00  0.00    -0.125 F 
ATOM     92  F   UNL A   1      29.221  25.846  25.613  1.00  0.00    -0.125 F 
ENDBRANCH  81  82
ENDBRANCH  78  81
ENDBRANCH  72  74
ENDBRANCH  71  72
ENDBRANCH  70  71
ENDBRANCH   1  70
TORSDOF 16
ENDMDL
