MODEL 1
REMARK VINA RESULT:     -10.2      0.000      0.000
REMARK SMILES CCN(CC(=O)OCCOC(=O)c1ccc(-c2c3nc(c(-c4cc(S(=O)(=O)[O-])ccc4F)c4ccc([nH]4)c(-c4cc(S(=O)(=O)[O-])ccc4F)c4nc(c(-c5cc(S(=O)(=O)[O-])ccc5F)c5ccc2[nH]5)C=C4)C=C3)cc1)C(=O)[C@@H]1CC[NH2+][C@@H]1C
REMARK SMILES IDX 8 1 7 2 5 3 6 4 4 5 3 6 2 7 1 8 76 9 77 10 78 11 79 12 82 13
REMARK SMILES IDX 80 14 81 15 83 16 9 19 10 20 11 21 12 22 13 23 14 24 75 25
REMARK SMILES IDX 15 26 74 27 16 28 17 29 18 30 68 31 19 32 73 33 67 34 69 35
REMARK SMILES IDX 20 36 72 37 66 38 65 39 21 41 53 42 33 43 52 44 34 45 37 46
REMARK SMILES IDX 51 47 70 48 35 49 36 50 50 52 71 53 38 54 22 55 23 56 31 57
REMARK SMILES IDX 24 58 30 59 32 60 29 61 25 62 26 63 27 64 28 65 54 66 55 67
REMARK SMILES IDX 63 68 56 69 62 70 64 71 61 72 57 73 58 74 59 75 60 76 39 77
REMARK SMILES IDX 40 78 48 79 41 80 47 81 49 82 46 83 42 84 43 85 44 86 45 87
REMARK H PARENT 81 17 81 18 69 40 37 51
REMARK Flexibility Score: inf
ROOT
ATOM      1  C   UNL A   1      35.785  20.451  25.019  1.00  0.00     0.274 C 
ENDROOT
BRANCH   1   2
ATOM      2  O   UNL A   1      35.609  21.587  25.893  1.00  0.00    -0.461 OA
BRANCH   2   3
ATOM      3  C   UNL A   1      34.445  21.585  26.595  1.00  0.00     0.325 C 
ATOM      4  O   UNL A   1      34.324  22.027  27.736  1.00  0.00    -0.250 OA
BRANCH   3   5
ATOM      5  C   UNL A   1      33.227  21.147  25.785  1.00  0.00     0.242 C 
BRANCH   5   6
ATOM      6  N   UNL A   1      32.615  22.057  24.812  1.00  0.00    -0.331 N 
BRANCH   6   7
ATOM      7  C   UNL A   1      32.558  21.560  23.437  1.00  0.00     0.117 C 
ATOM      8  C   UNL A   1      32.329  20.053  23.415  1.00  0.00     0.027 C 
ENDBRANCH   6   7
BRANCH   6   9
ATOM      9  C   UNL A   1      31.990  23.274  25.080  1.00  0.00     0.232 C 
ATOM     10  O   UNL A   1      30.763  23.361  24.983  1.00  0.00    -0.274 OA
BRANCH   9  11
ATOM     11  C   UNL A   1      32.835  24.493  25.450  1.00  0.00     0.142 C 
ATOM     12  C   UNL A   1      32.186  25.543  26.347  1.00  0.00     0.081 C 
ATOM     13  C   UNL A   1      33.271  25.365  24.257  1.00  0.00     0.192 C 
ATOM     14  C   UNL A   1      33.037  26.788  26.124  1.00  0.00     0.261 C 
ATOM     15  N   UNL A   1      33.875  26.518  24.952  1.00  0.00    -0.343 N 
ATOM     16  C   UNL A   1      32.170  25.885  23.316  1.00  0.00     0.076 C 
ATOM     17  H   UNL A   1      34.826  26.294  25.244  1.00  0.00     0.346 HD
ATOM     18  H   UNL A   1      33.924  27.332  24.339  1.00  0.00     0.346 HD
ENDBRANCH   9  11
ENDBRANCH   6   9
ENDBRANCH   5   6
ENDBRANCH   3   5
ENDBRANCH   2   3
ENDBRANCH   1   2
BRANCH   1  19
ATOM     19  C   UNL A   1      37.235  19.968  24.999  1.00  0.00     0.275 C 
BRANCH  19  20
ATOM     20  O   UNL A   1      38.151  21.081  25.015  1.00  0.00    -0.458 OA
BRANCH  20  21
ATOM     21  C   UNL A   1      39.182  20.940  25.878  1.00  0.00     0.338 C 
ATOM     22  O   UNL A   1      39.750  19.895  26.168  1.00  0.00    -0.246 OA
BRANCH  21  23
ATOM     23  C   UNL A   1      39.569  22.223  26.488  1.00  0.00     0.060 A 
ATOM     24  C   UNL A   1      38.916  23.408  26.148  1.00  0.00     0.016 A 
ATOM     25  C   UNL A   1      40.731  22.257  27.264  1.00  0.00     0.016 A 
ATOM     26  C   UNL A   1      39.496  24.633  26.484  1.00  0.00     0.010 A 
ATOM     27  C   UNL A   1      41.267  23.484  27.665  1.00  0.00     0.010 A 
ATOM     28  C   UNL A   1      40.686  24.684  27.232  1.00  0.00    -0.014 A 
BRANCH  28  29
ATOM     29  C   UNL A   1      41.314  25.993  27.554  1.00  0.00     0.031 A 
ATOM     30  C   UNL A   1      42.704  26.330  27.073  1.00  0.00     0.074 A 
ATOM     31  C   UNL A   1      40.615  26.896  28.267  1.00  0.00     0.049 A 
ATOM     32  N   UNL A   1      43.386  27.437  27.230  1.00  0.00    -0.248 NA
ATOM     33  C   UNL A   1      43.418  25.293  26.316  1.00  0.00     0.031 C 
ATOM     34  C   UNL A   1      39.264  26.689  28.790  1.00  0.00     0.029 A 
ATOM     35  N   UNL A   1      40.939  28.166  28.670  1.00  0.00    -0.354 N 
ATOM     36  C   UNL A   1      44.599  27.237  26.579  1.00  0.00     0.074 A 
ATOM     37  C   UNL A   1      44.571  25.889  26.050  1.00  0.00     0.031 C 
ATOM     38  C   UNL A   1      38.866  27.801  29.425  1.00  0.00     0.029 A 
ATOM     39  C   UNL A   1      39.948  28.778  29.400  1.00  0.00     0.049 A 
ATOM     40  H   UNL A   1      41.798  28.597  28.457  1.00  0.00     0.167 HD
ATOM     41  C   UNL A   1      45.639  28.096  26.433  1.00  0.00     0.034 A 
ATOM     42  C   UNL A   1      39.920  29.981  30.002  1.00  0.00     0.034 A 
ATOM     43  C   UNL A   1      45.682  29.424  26.999  1.00  0.00     0.049 A 
ATOM     44  C   UNL A   1      41.116  30.883  29.894  1.00  0.00     0.074 A 
ATOM     45  C   UNL A   1      46.681  30.377  26.895  1.00  0.00     0.029 A 
ATOM     46  N   UNL A   1      44.690  29.978  27.797  1.00  0.00    -0.354 N 
ATOM     47  N   UNL A   1      42.247  30.680  29.261  1.00  0.00    -0.248 NA
ATOM     48  C   UNL A   1      41.028  32.175  30.585  1.00  0.00     0.031 C 
ATOM     49  C   UNL A   1      46.321  31.481  27.680  1.00  0.00     0.029 A 
ATOM     50  C   UNL A   1      45.070  31.242  28.225  1.00  0.00     0.049 A 
ATOM     51  H   UNL A   1      43.839  29.539  28.026  1.00  0.00     0.167 HD
ATOM     52  C   UNL A   1      43.012  31.820  29.484  1.00  0.00     0.074 A 
ATOM     53  C   UNL A   1      42.198  32.717  30.281  1.00  0.00     0.031 C 
ATOM     54  C   UNL A   1      44.273  32.102  29.067  1.00  0.00     0.034 A 
BRANCH  41  55
ATOM     55  C   UNL A   1      46.842  27.604  25.667  1.00  0.00     0.023 A 
ATOM     56  C   UNL A   1      47.045  27.939  24.316  1.00  0.00     0.031 A 
ATOM     57  C   UNL A   1      47.800  26.789  26.297  1.00  0.00     0.131 A 
ATOM     58  C   UNL A   1      48.157  27.431  23.628  1.00  0.00     0.055 A 
ATOM     59  C   UNL A   1      48.932  26.328  25.621  1.00  0.00     0.041 A 
ATOM     60  F   UNL A   1      47.646  26.422  27.578  1.00  0.00    -0.206 F 
ATOM     61  C   UNL A   1      49.111  26.641  24.277  1.00  0.00     0.022 A 
BRANCH  58  62
ATOM     62  S   UNL A   1      48.294  27.735  21.845  1.00  0.00     0.124 S 
ATOM     63  O   UNL A   1      46.986  28.310  21.539  1.00  0.00    -0.237 OA
ATOM     64  O   UNL A   1      49.427  28.649  21.769  1.00  0.00    -0.237 OA
ATOM     65  O   UNL A   1      48.527  26.404  21.288  1.00  0.00    -0.744 OA
ENDBRANCH  58  62
ENDBRANCH  41  55
BRANCH  42  66
ATOM     66  C   UNL A   1      38.732  30.373  30.807  1.00  0.00     0.023 A 
ATOM     67  C   UNL A   1      37.687  31.120  30.246  1.00  0.00     0.031 A 
ATOM     68  C   UNL A   1      38.630  29.992  32.157  1.00  0.00     0.131 A 
ATOM     69  C   UNL A   1      36.587  31.480  31.039  1.00  0.00     0.055 A 
ATOM     70  C   UNL A   1      37.519  30.320  32.931  1.00  0.00     0.041 A 
ATOM     71  F   UNL A   1      39.604  29.270  32.734  1.00  0.00    -0.206 F 
ATOM     72  C   UNL A   1      36.491  31.074  32.374  1.00  0.00     0.022 A 
BRANCH  69  73
ATOM     73  S   UNL A   1      35.294  32.522  30.312  1.00  0.00     0.124 S 
ATOM     74  O   UNL A   1      34.874  31.724  29.166  1.00  0.00    -0.237 OA
ATOM     75  O   UNL A   1      34.336  32.624  31.408  1.00  0.00    -0.237 OA
ATOM     76  O   UNL A   1      35.998  33.760  29.987  1.00  0.00    -0.744 OA
ENDBRANCH  69  73
ENDBRANCH  42  66
BRANCH  54  77
ATOM     77  C   UNL A   1      44.833  33.434  29.490  1.00  0.00     0.023 A 
ATOM     78  C   UNL A   1      44.661  34.582  28.695  1.00  0.00     0.031 A 
ATOM     79  C   UNL A   1      45.602  33.547  30.661  1.00  0.00     0.131 A 
ATOM     80  C   UNL A   1      45.303  35.777  29.046  1.00  0.00     0.055 A 
ATOM     81  C   UNL A   1      46.197  34.755  31.033  1.00  0.00     0.041 A 
ATOM     82  F   UNL A   1      45.802  32.482  31.452  1.00  0.00    -0.206 F 
ATOM     83  C   UNL A   1      46.062  35.874  30.214  1.00  0.00     0.022 A 
BRANCH  80  84
ATOM     84  S   UNL A   1      45.230  37.174  27.890  1.00  0.00     0.124 S 
ATOM     85  O   UNL A   1      43.793  37.390  27.759  1.00  0.00    -0.237 OA
ATOM     86  O   UNL A   1      45.968  38.209  28.606  1.00  0.00    -0.237 OA
ATOM     87  O   UNL A   1      45.890  36.660  26.690  1.00  0.00    -0.744 OA
ENDBRANCH  80  84
ENDBRANCH  54  77
ENDBRANCH  28  29
ENDBRANCH  21  23
ENDBRANCH  20  21
ENDBRANCH  19  20
ENDBRANCH   1  19
TORSDOF 18
ENDMDL
MODEL 2
REMARK VINA RESULT:     -10.2      1.072      7.922
REMARK SMILES CCN(CC(=O)OCCOC(=O)c1ccc(-c2c3nc(c(-c4cc(S(=O)(=O)[O-])ccc4F)c4ccc([nH]4)c(-c4cc(S(=O)(=O)[O-])ccc4F)c4nc(c(-c5cc(S(=O)(=O)[O-])ccc5F)c5ccc2[nH]5)C=C4)C=C3)cc1)C(=O)[C@@H]1CC[NH2+][C@@H]1C
REMARK SMILES IDX 8 1 7 2 5 3 6 4 4 5 3 6 2 7 1 8 76 9 77 10 78 11 79 12 82 13
REMARK SMILES IDX 80 14 81 15 83 16 9 19 10 20 11 21 12 22 13 23 14 24 75 25
REMARK SMILES IDX 15 26 74 27 16 28 17 29 18 30 68 31 19 32 73 33 67 34 69 35
REMARK SMILES IDX 20 36 72 37 66 38 65 39 21 41 53 42 33 43 52 44 34 45 37 46
REMARK SMILES IDX 51 47 70 48 35 49 36 50 50 52 71 53 38 54 22 55 23 56 31 57
REMARK SMILES IDX 24 58 30 59 32 60 29 61 25 62 26 63 27 64 28 65 54 66 55 67
REMARK SMILES IDX 63 68 56 69 62 70 64 71 61 72 57 73 58 74 59 75 60 76 39 77
REMARK SMILES IDX 40 78 48 79 41 80 47 81 49 82 46 83 42 84 43 85 44 86 45 87
REMARK H PARENT 81 17 81 18 69 40 37 51
REMARK Flexibility Score: inf
ROOT
ATOM      1  C   UNL A   1      35.716  20.686  24.607  1.00  0.00     0.274 C 
ENDROOT
BRANCH   1   2
ATOM      2  O   UNL A   1      35.541  22.115  24.714  1.00  0.00    -0.461 OA
BRANCH   2   3
ATOM      3  C   UNL A   1      35.435  22.763  23.524  1.00  0.00     0.325 C 
ATOM      4  O   UNL A   1      36.377  22.963  22.759  1.00  0.00    -0.250 OA
BRANCH   3   5
ATOM      5  C   UNL A   1      34.000  23.078  23.110  1.00  0.00     0.242 C 
BRANCH   5   6
ATOM      6  N   UNL A   1      33.392  24.364  23.461  1.00  0.00    -0.331 N 
BRANCH   6   7
ATOM      7  C   UNL A   1      33.365  25.361  22.390  1.00  0.00     0.117 C 
ATOM      8  C   UNL A   1      31.934  25.785  22.080  1.00  0.00     0.027 C 
ENDBRANCH   6   7
BRANCH   6   9
ATOM      9  C   UNL A   1      32.744  24.688  24.653  1.00  0.00     0.232 C 
ATOM     10  O   UNL A   1      33.103  25.683  25.289  1.00  0.00    -0.274 OA
BRANCH   9  11
ATOM     11  C   UNL A   1      31.626  23.786  25.176  1.00  0.00     0.142 C 
ATOM     12  C   UNL A   1      30.659  24.392  26.188  1.00  0.00     0.081 C 
ATOM     13  C   UNL A   1      32.105  22.541  25.946  1.00  0.00     0.192 C 
ATOM     14  C   UNL A   1      30.024  23.178  26.857  1.00  0.00     0.261 C 
ATOM     15  N   UNL A   1      30.827  22.016  26.464  1.00  0.00    -0.343 N 
ATOM     16  C   UNL A   1      33.058  22.762  27.134  1.00  0.00     0.076 C 
ATOM     17  H   UNL A   1      30.345  21.485  25.738  1.00  0.00     0.346 HD
ATOM     18  H   UNL A   1      30.980  21.390  27.254  1.00  0.00     0.346 HD
ENDBRANCH   9  11
ENDBRANCH   6   9
ENDBRANCH   5   6
ENDBRANCH   3   5
ENDBRANCH   2   3
ENDBRANCH   1   2
BRANCH   1  19
ATOM     19  C   UNL A   1      37.066  20.233  25.164  1.00  0.00     0.275 C 
BRANCH  19  20
ATOM     20  O   UNL A   1      38.025  21.308  25.130  1.00  0.00    -0.458 OA
BRANCH  20  21
ATOM     21  C   UNL A   1      39.063  21.154  25.983  1.00  0.00     0.338 C 
ATOM     22  O   UNL A   1      39.598  20.099  26.293  1.00  0.00    -0.246 OA
BRANCH  21  23
ATOM     23  C   UNL A   1      39.503  22.439  26.552  1.00  0.00     0.060 A 
ATOM     24  C   UNL A   1      38.953  23.646  26.117  1.00  0.00     0.016 A 
ATOM     25  C   UNL A   1      40.620  22.437  27.392  1.00  0.00     0.016 A 
ATOM     26  C   UNL A   1      39.597  24.845  26.427  1.00  0.00     0.010 A 
ATOM     27  C   UNL A   1      41.216  23.645  27.765  1.00  0.00     0.010 A 
ATOM     28  C   UNL A   1      40.744  24.856  27.241  1.00  0.00    -0.014 A 
BRANCH  28  29
ATOM     29  C   UNL A   1      41.442  26.136  27.536  1.00  0.00     0.031 A 
ATOM     30  C   UNL A   1      40.772  27.221  28.342  1.00  0.00     0.074 A 
ATOM     31  C   UNL A   1      42.700  26.313  27.091  1.00  0.00     0.049 A 
ATOM     32  N   UNL A   1      41.247  28.380  28.723  1.00  0.00    -0.248 NA
ATOM     33  C   UNL A   1      39.392  26.971  28.781  1.00  0.00     0.031 C 
ATOM     34  C   UNL A   1      43.455  25.341  26.300  1.00  0.00     0.029 A 
ATOM     35  N   UNL A   1      43.566  27.365  27.243  1.00  0.00    -0.354 N 
ATOM     36  C   UNL A   1      40.236  28.989  29.459  1.00  0.00     0.074 A 
ATOM     37  C   UNL A   1      39.107  28.082  29.445  1.00  0.00     0.031 C 
ATOM     38  C   UNL A   1      44.679  25.832  26.055  1.00  0.00     0.029 A 
ATOM     39  C   UNL A   1      44.778  27.171  26.626  1.00  0.00     0.049 A 
ATOM     40  H   UNL A   1      43.341  28.182  27.746  1.00  0.00     0.167 HD
ATOM     41  C   UNL A   1      40.246  30.191  30.089  1.00  0.00     0.034 A 
ATOM     42  C   UNL A   1      45.843  27.985  26.509  1.00  0.00     0.034 A 
ATOM     43  C   UNL A   1      41.357  31.112  30.063  1.00  0.00     0.049 A 
ATOM     44  C   UNL A   1      45.799  29.345  27.148  1.00  0.00     0.074 A 
ATOM     45  C   UNL A   1      41.473  32.346  30.682  1.00  0.00     0.029 A 
ATOM     46  N   UNL A   1      42.539  30.911  29.362  1.00  0.00    -0.354 N 
ATOM     47  N   UNL A   1      44.838  29.894  27.851  1.00  0.00    -0.248 NA
ATOM     48  C   UNL A   1      46.986  30.190  26.973  1.00  0.00     0.031 C 
ATOM     49  C   UNL A   1      42.696  32.916  30.305  1.00  0.00     0.029 A 
ATOM     50  C   UNL A   1      43.371  32.012  29.500  1.00  0.00     0.049 A 
ATOM     51  H   UNL A   1      42.755  30.103  28.843  1.00  0.00     0.167 HD
ATOM     52  C   UNL A   1      45.303  31.158  28.199  1.00  0.00     0.074 A 
ATOM     53  C   UNL A   1      46.642  31.272  27.655  1.00  0.00     0.031 C 
ATOM     54  C   UNL A   1      44.680  32.136  28.904  1.00  0.00     0.034 A 
BRANCH  41  55
ATOM     55  C   UNL A   1      38.991  30.600  30.820  1.00  0.00     0.023 A 
ATOM     56  C   UNL A   1      37.911  31.202  30.152  1.00  0.00     0.031 A 
ATOM     57  C   UNL A   1      38.874  30.382  32.205  1.00  0.00     0.131 A 
ATOM     58  C   UNL A   1      36.776  31.601  30.875  1.00  0.00     0.055 A 
ATOM     59  C   UNL A   1      37.722  30.735  32.910  1.00  0.00     0.041 A 
ATOM     60  F   UNL A   1      39.883  29.829  32.895  1.00  0.00    -0.206 F 
ATOM     61  C   UNL A   1      36.667  31.356  32.247  1.00  0.00     0.022 A 
BRANCH  58  62
ATOM     62  S   UNL A   1      35.478  32.535  30.016  1.00  0.00     0.124 S 
ATOM     63  O   UNL A   1      34.431  32.594  31.033  1.00  0.00    -0.237 OA
ATOM     64  O   UNL A   1      36.147  33.794  29.713  1.00  0.00    -0.237 OA
ATOM     65  O   UNL A   1      35.165  31.700  28.858  1.00  0.00    -0.744 OA
ENDBRANCH  58  62
ENDBRANCH  41  55
BRANCH  42  66
ATOM     66  C   UNL A   1      47.018  27.550  25.708  1.00  0.00     0.023 A 
ATOM     67  C   UNL A   1      47.124  27.857  24.345  1.00  0.00     0.031 A 
ATOM     68  C   UNL A   1      48.058  26.820  26.311  1.00  0.00     0.131 A 
ATOM     69  C   UNL A   1      48.244  27.422  23.621  1.00  0.00     0.055 A 
ATOM     70  C   UNL A   1      49.186  26.421  25.596  1.00  0.00     0.041 A 
ATOM     71  F   UNL A   1      48.002  26.509  27.616  1.00  0.00    -0.206 F 
ATOM     72  C   UNL A   1      49.280  26.716  24.239  1.00  0.00     0.022 A 
BRANCH  69  73
ATOM     73  S   UNL A   1      48.312  27.757  21.840  1.00  0.00     0.124 S 
ATOM     74  O   UNL A   1      48.556  26.427  21.293  1.00  0.00    -0.237 OA
ATOM     75  O   UNL A   1      46.990  28.321  21.588  1.00  0.00    -0.237 OA
ATOM     76  O   UNL A   1      49.421  28.699  21.713  1.00  0.00    -0.744 OA
ENDBRANCH  69  73
ENDBRANCH  42  66
BRANCH  54  77
ATOM     77  C   UNL A   1      45.455  33.412  29.103  1.00  0.00     0.023 A 
ATOM     78  C   UNL A   1      45.384  34.460  28.166  1.00  0.00     0.031 A 
ATOM     79  C   UNL A   1      46.324  33.559  30.198  1.00  0.00     0.131 A 
ATOM     80  C   UNL A   1      46.215  35.580  28.307  1.00  0.00     0.055 A 
ATOM     81  C   UNL A   1      47.111  34.700  30.360  1.00  0.00     0.041 A 
ATOM     82  F   UNL A   1      46.433  32.587  31.117  1.00  0.00    -0.206 F 
ATOM     83  C   UNL A   1      47.071  35.712  29.402  1.00  0.00     0.022 A 
BRANCH  80  84
ATOM     84  S   UNL A   1      46.249  36.810  26.973  1.00  0.00     0.124 S 
ATOM     85  O   UNL A   1      47.347  37.678  27.384  1.00  0.00    -0.237 OA
ATOM     86  O   UNL A   1      46.494  35.984  25.796  1.00  0.00    -0.237 OA
ATOM     87  O   UNL A   1      44.921  37.420  27.036  1.00  0.00    -0.744 OA
ENDBRANCH  80  84
ENDBRANCH  54  77
ENDBRANCH  28  29
ENDBRANCH  21  23
ENDBRANCH  20  21
ENDBRANCH  19  20
ENDBRANCH   1  19
TORSDOF 18
ENDMDL
MODEL 3
REMARK VINA RESULT:     -10.2      1.567      1.865
REMARK SMILES CCN(CC(=O)OCCOC(=O)c1ccc(-c2c3nc(c(-c4cc(S(=O)(=O)[O-])ccc4F)c4ccc([nH]4)c(-c4cc(S(=O)(=O)[O-])ccc4F)c4nc(c(-c5cc(S(=O)(=O)[O-])ccc5F)c5ccc2[nH]5)C=C4)C=C3)cc1)C(=O)[C@@H]1CC[NH2+][C@@H]1C
REMARK SMILES IDX 8 1 7 2 5 3 6 4 4 5 3 6 2 7 1 8 76 9 77 10 78 11 79 12 82 13
REMARK SMILES IDX 80 14 81 15 83 16 9 19 10 20 11 21 12 22 13 23 14 24 75 25
REMARK SMILES IDX 15 26 74 27 16 28 17 29 18 30 68 31 19 32 73 33 67 34 69 35
REMARK SMILES IDX 20 36 72 37 66 38 65 39 21 41 53 42 33 43 52 44 34 45 37 46
REMARK SMILES IDX 51 47 70 48 35 49 36 50 50 52 71 53 38 54 22 55 23 56 31 57
REMARK SMILES IDX 24 58 30 59 32 60 29 61 25 62 26 63 27 64 28 65 54 66 55 67
REMARK SMILES IDX 63 68 56 69 62 70 64 71 61 72 57 73 58 74 59 75 60 76 39 77
REMARK SMILES IDX 40 78 48 79 41 80 47 81 49 82 46 83 42 84 43 85 44 86 45 87
REMARK H PARENT 81 17 81 18 69 40 37 51
REMARK Flexibility Score: inf
ROOT
ATOM      1  C   UNL A   1      35.755  20.456  25.039  1.00  0.00     0.274 C 
ENDROOT
BRANCH   1   2
ATOM      2  O   UNL A   1      35.559  21.548  25.964  1.00  0.00    -0.461 OA
BRANCH   2   3
ATOM      3  C   UNL A   1      34.388  21.501  26.653  1.00  0.00     0.325 C 
ATOM      4  O   UNL A   1      34.254  21.878  27.816  1.00  0.00    -0.250 OA
BRANCH   3   5
ATOM      5  C   UNL A   1      33.181  21.103  25.808  1.00  0.00     0.242 C 
BRANCH   5   6
ATOM      6  N   UNL A   1      32.532  22.082  24.932  1.00  0.00    -0.331 N 
BRANCH   6   7
ATOM      7  C   UNL A   1      32.529  21.745  23.508  1.00  0.00     0.117 C 
ATOM      8  C   UNL A   1      32.360  20.243  23.307  1.00  0.00     0.027 C 
ENDBRANCH   6   7
BRANCH   6   9
ATOM      9  C   UNL A   1      31.830  23.221  25.321  1.00  0.00     0.232 C 
ATOM     10  O   UNL A   1      30.607  23.265  25.163  1.00  0.00    -0.274 OA
BRANCH   9  11
ATOM     11  C   UNL A   1      32.588  24.416  25.901  1.00  0.00     0.142 C 
ATOM     12  C   UNL A   1      31.778  25.672  26.206  1.00  0.00     0.081 C 
ATOM     13  C   UNL A   1      33.683  24.995  24.984  1.00  0.00     0.192 C 
ATOM     14  C   UNL A   1      32.829  26.774  26.278  1.00  0.00     0.261 C 
ATOM     15  N   UNL A   1      34.066  26.209  25.731  1.00  0.00    -0.343 N 
ATOM     16  C   UNL A   1      33.274  25.408  23.560  1.00  0.00     0.076 C 
ATOM     17  H   UNL A   1      34.708  25.969  26.487  1.00  0.00     0.346 HD
ATOM     18  H   UNL A   1      34.540  26.879  25.125  1.00  0.00     0.346 HD
ENDBRANCH   9  11
ENDBRANCH   6   9
ENDBRANCH   5   6
ENDBRANCH   3   5
ENDBRANCH   2   3
ENDBRANCH   1   2
BRANCH   1  19
ATOM     19  C   UNL A   1      37.209  19.983  25.018  1.00  0.00     0.275 C 
BRANCH  19  20
ATOM     20  O   UNL A   1      38.117  21.099  25.077  1.00  0.00    -0.458 OA
BRANCH  20  21
ATOM     21  C   UNL A   1      39.139  20.940  25.949  1.00  0.00     0.338 C 
ATOM     22  O   UNL A   1      39.695  19.888  26.232  1.00  0.00    -0.246 OA
BRANCH  21  23
ATOM     23  C   UNL A   1      39.530  22.214  26.577  1.00  0.00     0.060 A 
ATOM     24  C   UNL A   1      38.949  23.419  26.183  1.00  0.00     0.016 A 
ATOM     25  C   UNL A   1      40.634  22.211  27.434  1.00  0.00     0.016 A 
ATOM     26  C   UNL A   1      39.551  24.624  26.553  1.00  0.00     0.010 A 
ATOM     27  C   UNL A   1      41.186  23.419  27.865  1.00  0.00     0.010 A 
ATOM     28  C   UNL A   1      40.685  24.636  27.384  1.00  0.00    -0.014 A 
BRANCH  28  29
ATOM     29  C   UNL A   1      41.338  25.924  27.742  1.00  0.00     0.031 A 
ATOM     30  C   UNL A   1      42.766  26.209  27.349  1.00  0.00     0.074 A 
ATOM     31  C   UNL A   1      40.629  26.854  28.409  1.00  0.00     0.049 A 
ATOM     32  N   UNL A   1      43.476  27.291  27.546  1.00  0.00    -0.248 NA
ATOM     33  C   UNL A   1      43.488  25.145  26.639  1.00  0.00     0.031 C 
ATOM     34  C   UNL A   1      39.241  26.697  28.847  1.00  0.00     0.029 A 
ATOM     35  N   UNL A   1      40.972  28.113  28.830  1.00  0.00    -0.354 N 
ATOM     36  C   UNL A   1      44.720  27.046  26.972  1.00  0.00     0.074 A 
ATOM     37  C   UNL A   1      44.676  25.699  26.444  1.00  0.00     0.031 C 
ATOM     38  C   UNL A   1      38.844  27.825  29.455  1.00  0.00     0.029 A 
ATOM     39  C   UNL A   1      39.961  28.763  29.495  1.00  0.00     0.049 A 
ATOM     40  H   UNL A   1      41.858  28.513  28.670  1.00  0.00     0.167 HD
ATOM     41  C   UNL A   1      45.797  27.867  26.890  1.00  0.00     0.034 A 
ATOM     42  C   UNL A   1      39.938  29.968  30.093  1.00  0.00     0.034 A 
ATOM     43  C   UNL A   1      45.852  29.194  27.455  1.00  0.00     0.049 A 
ATOM     44  C   UNL A   1      41.170  30.827  30.059  1.00  0.00     0.074 A 
ATOM     45  C   UNL A   1      46.889  30.111  27.412  1.00  0.00     0.029 A 
ATOM     46  N   UNL A   1      44.832  29.787  28.189  1.00  0.00    -0.354 N 
ATOM     47  N   UNL A   1      42.330  30.581  29.497  1.00  0.00    -0.248 NA
ATOM     48  C   UNL A   1      41.086  32.123  30.740  1.00  0.00     0.031 C 
ATOM     49  C   UNL A   1      46.521  31.230  28.171  1.00  0.00     0.029 A 
ATOM     50  C   UNL A   1      45.230  31.038  28.638  1.00  0.00     0.049 A 
ATOM     51  H   UNL A   1      43.954  29.379  28.365  1.00  0.00     0.167 HD
ATOM     52  C   UNL A   1      43.120  31.694  29.765  1.00  0.00     0.074 A 
ATOM     53  C   UNL A   1      42.291  32.622  30.509  1.00  0.00     0.031 C 
ATOM     54  C   UNL A   1      44.414  31.929  29.427  1.00  0.00     0.034 A 
BRANCH  41  55
ATOM     55  C   UNL A   1      47.027  27.329  26.201  1.00  0.00     0.023 A 
ATOM     56  C   UNL A   1      47.998  26.589  26.898  1.00  0.00     0.031 A 
ATOM     57  C   UNL A   1      47.229  27.559  24.828  1.00  0.00     0.131 A 
ATOM     58  C   UNL A   1      49.146  26.137  26.229  1.00  0.00     0.055 A 
ATOM     59  C   UNL A   1      48.348  27.063  24.157  1.00  0.00     0.041 A 
ATOM     60  F   UNL A   1      46.343  28.276  24.119  1.00  0.00    -0.206 F 
ATOM     61  C   UNL A   1      49.320  26.355  24.859  1.00  0.00     0.022 A 
BRANCH  58  62
ATOM     62  S   UNL A   1      50.462  25.342  27.192  1.00  0.00     0.124 S 
ATOM     63  O   UNL A   1      49.745  24.234  27.819  1.00  0.00    -0.237 OA
ATOM     64  O   UNL A   1      51.428  24.978  26.164  1.00  0.00    -0.237 OA
ATOM     65  O   UNL A   1      50.895  26.393  28.112  1.00  0.00    -0.744 OA
ENDBRANCH  58  62
ENDBRANCH  41  55
BRANCH  42  66
ATOM     66  C   UNL A   1      38.717  30.405  30.822  1.00  0.00     0.023 A 
ATOM     67  C   UNL A   1      37.702  31.124  30.175  1.00  0.00     0.031 A 
ATOM     68  C   UNL A   1      38.554  30.098  32.184  1.00  0.00     0.131 A 
ATOM     69  C   UNL A   1      36.569  31.527  30.898  1.00  0.00     0.055 A 
ATOM     70  C   UNL A   1      37.410  30.469  32.889  1.00  0.00     0.041 A 
ATOM     71  F   UNL A   1      39.497  29.405  32.842  1.00  0.00    -0.206 F 
ATOM     72  C   UNL A   1      36.412  31.194  32.247  1.00  0.00     0.022 A 
BRANCH  69  73
ATOM     73  S   UNL A   1      35.314  32.532  30.059  1.00  0.00     0.124 S 
ATOM     74  O   UNL A   1      34.344  32.751  31.126  1.00  0.00    -0.237 OA
ATOM     75  O   UNL A   1      36.088  33.698  29.645  1.00  0.00    -0.237 OA
ATOM     76  O   UNL A   1      34.861  31.670  28.970  1.00  0.00    -0.744 OA
ENDBRANCH  69  73
ENDBRANCH  42  66
BRANCH  54  77
ATOM     77  C   UNL A   1      44.994  33.242  29.882  1.00  0.00     0.023 A 
ATOM     78  C   UNL A   1      44.920  34.390  29.072  1.00  0.00     0.031 A 
ATOM     79  C   UNL A   1      45.685  33.334  31.103  1.00  0.00     0.131 A 
ATOM     80  C   UNL A   1      45.582  35.563  29.461  1.00  0.00     0.055 A 
ATOM     81  C   UNL A   1      46.298  34.521  31.509  1.00  0.00     0.041 A 
ATOM     82  F   UNL A   1      45.789  32.268  31.910  1.00  0.00    -0.206 F 
ATOM     83  C   UNL A   1      46.262  35.639  30.679  1.00  0.00     0.022 A 
BRANCH  80  84
ATOM     84  S   UNL A   1      45.642  36.953  28.297  1.00  0.00     0.124 S 
ATOM     85  O   UNL A   1      47.060  37.011  27.960  1.00  0.00    -0.237 OA
ATOM     86  O   UNL A   1      44.751  36.506  27.233  1.00  0.00    -0.237 OA
ATOM     87  O   UNL A   1      45.148  38.082  29.086  1.00  0.00    -0.744 OA
ENDBRANCH  80  84
ENDBRANCH  54  77
ENDBRANCH  28  29
ENDBRANCH  21  23
ENDBRANCH  20  21
ENDBRANCH  19  20
ENDBRANCH   1  19
TORSDOF 18
ENDMDL
