MODEL 1
REMARK VINA RESULT:      -9.8      0.000      0.000
REMARK SMILES O=C(OCCOC(=O)c1ccc(-c2c3nc(c(-c4cc(S(=O)(=O)[O-])ccc4F)c4ccc([nH]4)c(-c4cc(S(=O)(=O)[O-])ccc4F)c4nc(c(-c5cc(S(=O)(=O)[O-])ccc5F)c5ccc2[nH]5)C=C4)C=C3)cc1)c1ccc(-c2ccc(/C=C3/SC(=S)N(c4ccccc4)C3=O)o2)cc1
REMARK SMILES IDX 4 1 3 2 2 3 1 4 72 5 73 6 96 7 74 8 95 9 75 10 76 11 77 12
REMARK SMILES IDX 94 13 78 14 79 15 80 16 81 17 82 18 92 19 83 20 85 21 93 22
REMARK SMILES IDX 84 23 86 24 87 25 91 26 88 27 90 28 89 29 5 30 6 31 7 32
REMARK SMILES IDX 8 33 9 34 10 35 71 36 11 37 70 38 12 39 13 40 14 41 64 42
REMARK SMILES IDX 15 43 69 44 63 45 65 46 16 47 68 48 62 49 61 50 17 52 49 53
REMARK SMILES IDX 29 54 48 55 30 56 33 57 47 58 66 59 31 60 32 61 46 63 67 64
REMARK SMILES IDX 34 65 18 66 19 67 27 68 20 69 26 70 28 71 25 72 21 73 22 74
REMARK SMILES IDX 23 75 24 76 50 77 51 78 59 79 52 80 58 81 60 82 57 83 53 84
REMARK SMILES IDX 54 85 55 86 56 87 35 88 36 89 44 90 37 91 43 92 45 93 42 94
REMARK SMILES IDX 38 95 39 96 40 97 41 98
REMARK H PARENT 65 51 33 62
REMARK Flexibility Score: inf
ROOT
ATOM      1  C   UNL A   1      33.759  34.573  28.928  1.00  0.00     0.275 C 
ENDROOT
BRANCH   1   2
ATOM      2  O   UNL A   1      33.769  34.222  30.322  1.00  0.00    -0.458 OA
BRANCH   2   3
ATOM      3  C   UNL A   1      34.624  33.448  31.031  1.00  0.00     0.338 C 
ATOM      4  O   UNL A   1      34.150  32.479  31.624  1.00  0.00    -0.246 OA
BRANCH   3   5
ATOM      5  C   UNL A   1      36.102  33.697  31.181  1.00  0.00     0.060 A 
ATOM      6  C   UNL A   1      37.071  33.629  30.178  1.00  0.00     0.016 A 
ATOM      7  C   UNL A   1      36.545  34.055  32.469  1.00  0.00     0.016 A 
ATOM      8  C   UNL A   1      38.416  33.921  30.435  1.00  0.00     0.013 A 
ATOM      9  C   UNL A   1      37.896  34.319  32.737  1.00  0.00     0.013 A 
ATOM     10  C   UNL A   1      38.846  34.256  31.717  1.00  0.00     0.017 A 
BRANCH  10  11
ATOM     11  C   UNL A   1      40.253  34.501  31.975  1.00  0.00     0.134 A 
ATOM     12  C   UNL A   1      41.022  34.556  33.113  1.00  0.00     0.051 A 
ATOM     13  O   UNL A   1      41.035  34.717  30.879  1.00  0.00    -0.457 OA
ATOM     14  C   UNL A   1      42.339  34.833  32.685  1.00  0.00     0.051 A 
ATOM     15  C   UNL A   1      42.311  34.983  31.307  1.00  0.00     0.128 A 
BRANCH  15  16
ATOM     16  C   UNL A   1      43.369  35.352  30.445  1.00  0.00     0.068 C 
ATOM     17  C   UNL A   1      44.113  34.441  29.807  1.00  0.00     0.084 C 
ATOM     18  S   UNL A   1      45.282  34.889  28.620  1.00  0.00    -0.054 SA
ATOM     19  C   UNL A   1      44.035  32.954  29.915  1.00  0.00     0.270 C 
ATOM     20  C   UNL A   1      45.462  33.233  28.045  1.00  0.00     0.152 C 
ATOM     21  N   UNL A   1      44.772  32.379  28.890  1.00  0.00    -0.261 N 
ATOM     22  O   UNL A   1      43.469  32.369  30.828  1.00  0.00    -0.268 OA
ATOM     23  S   UNL A   1      46.291  32.919  26.625  1.00  0.00    -0.051 S 
BRANCH  21  24
ATOM     24  C   UNL A   1      44.777  30.973  28.746  1.00  0.00     0.051 A 
ATOM     25  C   UNL A   1      43.677  30.330  28.166  1.00  0.00     0.027 A 
ATOM     26  C   UNL A   1      45.899  30.232  29.137  1.00  0.00     0.027 A 
ATOM     27  C   UNL A   1      43.764  28.981  27.858  1.00  0.00     0.002 A 
ATOM     28  C   UNL A   1      45.962  28.876  28.865  1.00  0.00     0.002 A 
ATOM     29  C   UNL A   1      44.918  28.275  28.177  1.00  0.00     0.000 A 
ENDBRANCH  21  24
ENDBRANCH  15  16
ENDBRANCH  10  11
ENDBRANCH   3   5
ENDBRANCH   2   3
ENDBRANCH   1   2
BRANCH   1  30
ATOM     30  C   UNL A   1      33.477  33.382  28.004  1.00  0.00     0.275 C 
BRANCH  30  31
ATOM     31  O   UNL A   1      34.676  32.704  27.587  1.00  0.00    -0.458 OA
BRANCH  31  32
ATOM     32  C   UNL A   1      34.610  31.346  27.634  1.00  0.00     0.338 C 
ATOM     33  O   UNL A   1      33.763  30.661  27.080  1.00  0.00    -0.246 OA
BRANCH  32  34
ATOM     34  C   UNL A   1      35.781  30.767  28.343  1.00  0.00     0.060 A 
ATOM     35  C   UNL A   1      37.052  31.075  27.841  1.00  0.00     0.016 A 
ATOM     36  C   UNL A   1      35.666  29.926  29.456  1.00  0.00     0.016 A 
ATOM     37  C   UNL A   1      38.199  30.514  28.414  1.00  0.00     0.010 A 
ATOM     38  C   UNL A   1      36.820  29.372  30.036  1.00  0.00     0.010 A 
ATOM     39  C   UNL A   1      38.093  29.637  29.500  1.00  0.00    -0.014 A 
BRANCH  39  40
ATOM     40  C   UNL A   1      39.313  28.960  30.027  1.00  0.00     0.031 A 
ATOM     41  C   UNL A   1      39.905  29.395  31.343  1.00  0.00     0.074 A 
ATOM     42  C   UNL A   1      39.894  27.969  29.324  1.00  0.00     0.049 A 
ATOM     43  N   UNL A   1      40.858  28.851  32.061  1.00  0.00    -0.248 NA
ATOM     44  C   UNL A   1      39.325  30.608  31.933  1.00  0.00     0.031 C 
ATOM     45  C   UNL A   1      39.408  27.451  28.048  1.00  0.00     0.029 A 
ATOM     46  N   UNL A   1      41.022  27.227  29.579  1.00  0.00    -0.354 N 
ATOM     47  C   UNL A   1      41.041  29.695  33.156  1.00  0.00     0.074 A 
ATOM     48  C   UNL A   1      40.051  30.748  33.032  1.00  0.00     0.031 C 
ATOM     49  C   UNL A   1      40.231  26.475  27.628  1.00  0.00     0.029 A 
ATOM     50  C   UNL A   1      41.324  26.324  28.586  1.00  0.00     0.049 A 
ATOM     51  H   UNL A   1      41.562  27.332  30.394  1.00  0.00     0.167 HD
ATOM     52  C   UNL A   1      42.004  29.657  34.118  1.00  0.00     0.034 A 
ATOM     53  C   UNL A   1      42.377  25.490  28.453  1.00  0.00     0.034 A 
ATOM     54  C   UNL A   1      43.089  28.693  34.135  1.00  0.00     0.049 A 
ATOM     55  C   UNL A   1      43.456  25.502  29.513  1.00  0.00     0.074 A 
ATOM     56  C   UNL A   1      44.170  28.643  35.001  1.00  0.00     0.029 A 
ATOM     57  N   UNL A   1      43.324  27.719  33.164  1.00  0.00    -0.354 N 
ATOM     58  N   UNL A   1      43.489  26.143  30.657  1.00  0.00    -0.248 NA
ATOM     59  C   UNL A   1      44.652  24.695  29.241  1.00  0.00     0.031 C 
ATOM     60  C   UNL A   1      45.150  27.828  34.420  1.00  0.00     0.029 A 
ATOM     61  C   UNL A   1      44.621  27.229  33.287  1.00  0.00     0.049 A 
ATOM     62  H   UNL A   1      42.669  27.423  32.490  1.00  0.00     0.167 HD
ATOM     63  C   UNL A   1      44.714  25.820  31.241  1.00  0.00     0.074 A 
ATOM     64  C   UNL A   1      45.358  24.879  30.347  1.00  0.00     0.031 C 
ATOM     65  C   UNL A   1      45.262  26.283  32.395  1.00  0.00     0.034 A 
BRANCH  52  66
ATOM     66  C   UNL A   1      42.079  30.861  35.045  1.00  0.00     0.023 A 
ATOM     67  C   UNL A   1      41.110  31.136  36.024  1.00  0.00     0.031 A 
ATOM     68  C   UNL A   1      43.100  31.817  34.858  1.00  0.00     0.131 A 
ATOM     69  C   UNL A   1      41.125  32.374  36.694  1.00  0.00     0.055 A 
ATOM     70  C   UNL A   1      43.150  33.012  35.575  1.00  0.00     0.041 A 
ATOM     71  F   UNL A   1      44.066  31.623  33.948  1.00  0.00    -0.206 F 
ATOM     72  C   UNL A   1      42.146  33.306  36.486  1.00  0.00     0.022 A 
BRANCH  69  73
ATOM     73  S   UNL A   1      39.716  32.824  37.744  1.00  0.00     0.124 S 
ATOM     74  O   UNL A   1      38.770  31.756  37.435  1.00  0.00    -0.237 OA
ATOM     75  O   UNL A   1      40.295  32.798  39.082  1.00  0.00    -0.237 OA
ATOM     76  O   UNL A   1      39.335  34.148  37.257  1.00  0.00    -0.744 OA
ENDBRANCH  69  73
ENDBRANCH  52  66
BRANCH  53  77
ATOM     77  C   UNL A   1      42.518  24.604  27.259  1.00  0.00     0.023 A 
ATOM     78  C   UNL A   1      42.060  23.277  27.298  1.00  0.00     0.031 A 
ATOM     79  C   UNL A   1      43.188  25.036  26.100  1.00  0.00     0.131 A 
ATOM     80  C   UNL A   1      42.320  22.414  26.221  1.00  0.00     0.055 A 
ATOM     81  C   UNL A   1      43.396  24.189  25.009  1.00  0.00     0.041 A 
ATOM     82  F   UNL A   1      43.660  26.290  26.014  1.00  0.00    -0.206 F 
ATOM     83  C   UNL A   1      42.972  22.864  25.071  1.00  0.00     0.022 A 
BRANCH  80  84
ATOM     84  S   UNL A   1      41.865  20.665  26.378  1.00  0.00     0.124 S 
ATOM     85  O   UNL A   1      40.442  20.700  26.060  1.00  0.00    -0.237 OA
ATOM     86  O   UNL A   1      42.729  20.035  25.386  1.00  0.00    -0.237 OA
ATOM     87  O   UNL A   1      42.188  20.354  27.770  1.00  0.00    -0.744 OA
ENDBRANCH  80  84
ENDBRANCH  53  77
BRANCH  65  88
ATOM     88  C   UNL A   1      46.629  25.746  32.782  1.00  0.00     0.023 A 
ATOM     89  C   UNL A   1      46.801  24.671  33.680  1.00  0.00     0.031 A 
ATOM     90  C   UNL A   1      47.788  26.327  32.237  1.00  0.00     0.131 A 
ATOM     91  C   UNL A   1      48.093  24.264  34.053  1.00  0.00     0.055 A 
ATOM     92  C   UNL A   1      49.068  25.870  32.554  1.00  0.00     0.041 A 
ATOM     93  F   UNL A   1      47.696  27.355  31.377  1.00  0.00    -0.206 F 
ATOM     94  C   UNL A   1      49.227  24.844  33.479  1.00  0.00     0.022 A 
BRANCH  91  95
ATOM     95  S   UNL A   1      48.287  23.048  35.389  1.00  0.00     0.124 S 
ATOM     96  O   UNL A   1      49.609  23.374  35.911  1.00  0.00    -0.237 OA
ATOM     97  O   UNL A   1      47.160  23.363  36.262  1.00  0.00    -0.237 OA
ATOM     98  O   UNL A   1      48.194  21.762  34.698  1.00  0.00    -0.744 OA
ENDBRANCH  91  95
ENDBRANCH  65  88
ENDBRANCH  39  40
ENDBRANCH  32  34
ENDBRANCH  31  32
ENDBRANCH  30  31
ENDBRANCH   1  30
TORSDOF 17
ENDMDL
MODEL 2
REMARK VINA RESULT:      -9.6      1.656      1.964
REMARK SMILES O=C(OCCOC(=O)c1ccc(-c2c3nc(c(-c4cc(S(=O)(=O)[O-])ccc4F)c4ccc([nH]4)c(-c4cc(S(=O)(=O)[O-])ccc4F)c4nc(c(-c5cc(S(=O)(=O)[O-])ccc5F)c5ccc2[nH]5)C=C4)C=C3)cc1)c1ccc(-c2ccc(/C=C3/SC(=S)N(c4ccccc4)C3=O)o2)cc1
REMARK SMILES IDX 4 1 3 2 2 3 1 4 72 5 73 6 96 7 74 8 95 9 75 10 76 11 77 12
REMARK SMILES IDX 94 13 78 14 79 15 80 16 81 17 82 18 92 19 83 20 85 21 93 22
REMARK SMILES IDX 84 23 86 24 87 25 91 26 88 27 90 28 89 29 5 30 6 31 7 32
REMARK SMILES IDX 8 33 9 34 10 35 71 36 11 37 70 38 12 39 13 40 14 41 64 42
REMARK SMILES IDX 15 43 69 44 63 45 65 46 16 47 68 48 62 49 61 50 17 52 49 53
REMARK SMILES IDX 29 54 48 55 30 56 33 57 47 58 66 59 31 60 32 61 46 63 67 64
REMARK SMILES IDX 34 65 18 66 19 67 27 68 20 69 26 70 28 71 25 72 21 73 22 74
REMARK SMILES IDX 23 75 24 76 50 77 51 78 59 79 52 80 58 81 60 82 57 83 53 84
REMARK SMILES IDX 54 85 55 86 56 87 35 88 36 89 44 90 37 91 43 92 45 93 42 94
REMARK SMILES IDX 38 95 39 96 40 97 41 98
REMARK H PARENT 65 51 33 62
REMARK Flexibility Score: inf
ROOT
ATOM      1  C   UNL A   1      33.970  34.105  29.479  1.00  0.00     0.275 C 
ENDROOT
BRANCH   1   2
ATOM      2  O   UNL A   1      34.284  33.221  30.567  1.00  0.00    -0.458 OA
BRANCH   2   3
ATOM      3  C   UNL A   1      35.435  33.046  31.259  1.00  0.00     0.338 C 
ATOM      4  O   UNL A   1      35.353  32.528  32.373  1.00  0.00    -0.246 OA
BRANCH   3   5
ATOM      5  C   UNL A   1      36.804  33.466  30.790  1.00  0.00     0.060 A 
ATOM      6  C   UNL A   1      37.299  33.409  29.486  1.00  0.00     0.016 A 
ATOM      7  C   UNL A   1      37.665  33.991  31.774  1.00  0.00     0.016 A 
ATOM      8  C   UNL A   1      38.583  33.867  29.167  1.00  0.00     0.013 A 
ATOM      9  C   UNL A   1      38.963  34.422  31.464  1.00  0.00     0.013 A 
ATOM     10  C   UNL A   1      39.433  34.367  30.151  1.00  0.00     0.017 A 
BRANCH  10  11
ATOM     11  C   UNL A   1      40.780  34.785  29.810  1.00  0.00     0.134 A 
ATOM     12  C   UNL A   1      41.331  35.464  28.750  1.00  0.00     0.051 A 
ATOM     13  O   UNL A   1      41.752  34.469  30.712  1.00  0.00    -0.457 OA
ATOM     14  C   UNL A   1      42.715  35.556  29.018  1.00  0.00     0.051 A 
ATOM     15  C   UNL A   1      42.958  34.886  30.208  1.00  0.00     0.128 A 
BRANCH  15  16
ATOM     16  C   UNL A   1      44.201  34.635  30.832  1.00  0.00     0.068 C 
ATOM     17  C   UNL A   1      44.930  33.549  30.547  1.00  0.00     0.084 C 
ATOM     18  S   UNL A   1      46.524  33.333  31.169  1.00  0.00    -0.054 SA
ATOM     19  C   UNL A   1      44.580  32.424  29.629  1.00  0.00     0.270 C 
ATOM     20  C   UNL A   1      46.871  32.006  30.063  1.00  0.00     0.152 C 
ATOM     21  N   UNL A   1      45.710  31.655  29.393  1.00  0.00    -0.261 N 
ATOM     22  O   UNL A   1      43.445  32.199  29.234  1.00  0.00    -0.268 OA
ATOM     23  S   UNL A   1      48.435  31.433  29.897  1.00  0.00    -0.051 S 
BRANCH  21  24
ATOM     24  C   UNL A   1      45.634  30.574  28.485  1.00  0.00     0.051 A 
ATOM     25  C   UNL A   1      45.970  30.772  27.141  1.00  0.00     0.027 A 
ATOM     26  C   UNL A   1      45.271  29.301  28.940  1.00  0.00     0.027 A 
ATOM     27  C   UNL A   1      46.074  29.675  26.299  1.00  0.00     0.002 A 
ATOM     28  C   UNL A   1      45.336  28.216  28.083  1.00  0.00     0.002 A 
ATOM     29  C   UNL A   1      45.791  28.404  26.786  1.00  0.00     0.000 A 
ENDBRANCH  21  24
ENDBRANCH  15  16
ENDBRANCH  10  11
ENDBRANCH   3   5
ENDBRANCH   2   3
ENDBRANCH   1   2
BRANCH   1  30
ATOM     30  C   UNL A   1      33.509  33.371  28.215  1.00  0.00     0.275 C 
BRANCH  30  31
ATOM     31  O   UNL A   1      34.555  32.590  27.610  1.00  0.00    -0.458 OA
BRANCH  31  32
ATOM     32  C   UNL A   1      34.366  31.244  27.661  1.00  0.00     0.338 C 
ATOM     33  O   UNL A   1      33.346  30.661  27.324  1.00  0.00    -0.246 OA
BRANCH  32  34
ATOM     34  C   UNL A   1      35.608  30.533  28.063  1.00  0.00     0.060 A 
ATOM     35  C   UNL A   1      35.620  29.924  29.325  1.00  0.00     0.016 A 
ATOM     36  C   UNL A   1      36.750  30.467  27.258  1.00  0.00     0.016 A 
ATOM     37  C   UNL A   1      36.775  29.294  29.801  1.00  0.00     0.010 A 
ATOM     38  C   UNL A   1      37.906  29.824  27.733  1.00  0.00     0.010 A 
ATOM     39  C   UNL A   1      37.937  29.260  29.021  1.00  0.00    -0.014 A 
BRANCH  39  40
ATOM     40  C   UNL A   1      39.192  28.685  29.586  1.00  0.00     0.031 A 
ATOM     41  C   UNL A   1      39.775  29.255  30.854  1.00  0.00     0.074 A 
ATOM     42  C   UNL A   1      39.811  27.665  28.962  1.00  0.00     0.049 A 
ATOM     43  N   UNL A   1      40.758  28.815  31.603  1.00  0.00    -0.248 NA
ATOM     44  C   UNL A   1      39.146  30.485  31.349  1.00  0.00     0.031 C 
ATOM     45  C   UNL A   1      39.336  27.021  27.739  1.00  0.00     0.029 A 
ATOM     46  N   UNL A   1      40.973  26.998  29.262  1.00  0.00    -0.354 N 
ATOM     47  C   UNL A   1      40.913  29.755  32.621  1.00  0.00     0.074 A 
ATOM     48  C   UNL A   1      39.874  30.749  32.422  1.00  0.00     0.031 C 
ATOM     49  C   UNL A   1      40.200  26.051  27.391  1.00  0.00     0.029 A 
ATOM     50  C   UNL A   1      41.307  26.029  28.344  1.00  0.00     0.049 A 
ATOM     51  H   UNL A   1      41.516  27.194  30.059  1.00  0.00     0.167 HD
ATOM     52  C   UNL A   1      41.885  29.841  33.570  1.00  0.00     0.034 A 
ATOM     53  C   UNL A   1      42.396  25.234  28.268  1.00  0.00     0.034 A 
ATOM     54  C   UNL A   1      43.013  28.931  33.654  1.00  0.00     0.049 A 
ATOM     55  C   UNL A   1      43.482  25.384  29.308  1.00  0.00     0.074 A 
ATOM     56  C   UNL A   1      44.103  29.002  34.506  1.00  0.00     0.029 A 
ATOM     57  N   UNL A   1      43.283  27.891  32.764  1.00  0.00    -0.354 N 
ATOM     58  N   UNL A   1      43.497  26.119  30.395  1.00  0.00    -0.248 NA
ATOM     59  C   UNL A   1      44.711  24.611  29.090  1.00  0.00     0.031 C 
ATOM     60  C   UNL A   1      45.113  28.186  33.983  1.00  0.00     0.029 A 
ATOM     61  C   UNL A   1      44.602  27.471  32.911  1.00  0.00     0.049 A 
ATOM     62  H   UNL A   1      42.637  27.510  32.126  1.00  0.00     0.167 HD
ATOM     63  C   UNL A   1      44.740  25.901  30.988  1.00  0.00     0.074 A 
ATOM     64  C   UNL A   1      45.418  24.918  30.168  1.00  0.00     0.031 C 
ATOM     65  C   UNL A   1      45.277  26.482  32.092  1.00  0.00     0.034 A 
BRANCH  52  66
ATOM     66  C   UNL A   1      41.914  31.120  34.393  1.00  0.00     0.023 A 
ATOM     67  C   UNL A   1      41.196  31.278  35.590  1.00  0.00     0.031 A 
ATOM     68  C   UNL A   1      42.597  32.250  33.894  1.00  0.00     0.131 A 
ATOM     69  C   UNL A   1      41.094  32.551  36.181  1.00  0.00     0.055 A 
ATOM     70  C   UNL A   1      42.550  33.493  34.523  1.00  0.00     0.041 A 
ATOM     71  F   UNL A   1      43.312  32.177  32.761  1.00  0.00    -0.206 F 
ATOM     72  C   UNL A   1      41.777  33.655  35.663  1.00  0.00     0.022 A 
BRANCH  69  73
ATOM     73  S   UNL A   1      39.941  32.792  37.561  1.00  0.00     0.124 S 
ATOM     74  O   UNL A   1      38.917  31.795  37.261  1.00  0.00    -0.237 OA
ATOM     75  O   UNL A   1      40.776  32.520  38.725  1.00  0.00    -0.237 OA
ATOM     76  O   UNL A   1      39.514  34.182  37.413  1.00  0.00    -0.744 OA
ENDBRANCH  69  73
ENDBRANCH  52  66
BRANCH  53  77
ATOM     77  C   UNL A   1      42.565  24.259  27.150  1.00  0.00     0.023 A 
ATOM     78  C   UNL A   1      41.963  22.992  27.212  1.00  0.00     0.031 A 
ATOM     79  C   UNL A   1      43.400  24.539  26.053  1.00  0.00     0.131 A 
ATOM     80  C   UNL A   1      42.240  22.035  26.222  1.00  0.00     0.055 A 
ATOM     81  C   UNL A   1      43.629  23.602  25.043  1.00  0.00     0.041 A 
ATOM     82  F   UNL A   1      44.014  25.728  25.949  1.00  0.00    -0.206 F 
ATOM     83  C   UNL A   1      43.058  22.335  25.131  1.00  0.00     0.022 A 
BRANCH  80  84
ATOM     84  S   UNL A   1      41.581  20.357  26.426  1.00  0.00     0.124 S 
ATOM     85  O   UNL A   1      40.145  20.590  26.327  1.00  0.00    -0.237 OA
ATOM     86  O   UNL A   1      42.196  19.651  25.307  1.00  0.00    -0.237 OA
ATOM     87  O   UNL A   1      42.062  19.961  27.749  1.00  0.00    -0.744 OA
ENDBRANCH  80  84
ENDBRANCH  53  77
BRANCH  65  88
ATOM     88  C   UNL A   1      46.671  26.041  32.506  1.00  0.00     0.023 A 
ATOM     89  C   UNL A   1      47.842  26.558  31.914  1.00  0.00     0.031 A 
ATOM     90  C   UNL A   1      46.826  25.078  33.519  1.00  0.00     0.131 A 
ATOM     91  C   UNL A   1      49.101  26.060  32.291  1.00  0.00     0.055 A 
ATOM     92  C   UNL A   1      48.083  24.641  33.941  1.00  0.00     0.041 A 
ATOM     93  F   UNL A   1      45.753  24.543  34.123  1.00  0.00    -0.206 F 
ATOM     94  C   UNL A   1      49.228  25.119  33.315  1.00  0.00     0.022 A 
BRANCH  91  95
ATOM     95  S   UNL A   1      50.570  26.563  31.347  1.00  0.00     0.124 S 
ATOM     96  O   UNL A   1      50.584  28.007  31.549  1.00  0.00    -0.237 OA
ATOM     97  O   UNL A   1      51.635  25.815  32.008  1.00  0.00    -0.237 OA
ATOM     98  O   UNL A   1      50.265  26.131  29.983  1.00  0.00    -0.744 OA
ENDBRANCH  91  95
ENDBRANCH  65  88
ENDBRANCH  39  40
ENDBRANCH  32  34
ENDBRANCH  31  32
ENDBRANCH  30  31
ENDBRANCH   1  30
TORSDOF 17
ENDMDL
MODEL 3
REMARK VINA RESULT:      -9.4      2.018      3.364
REMARK SMILES O=C(OCCOC(=O)c1ccc(-c2c3nc(c(-c4cc(S(=O)(=O)[O-])ccc4F)c4ccc([nH]4)c(-c4cc(S(=O)(=O)[O-])ccc4F)c4nc(c(-c5cc(S(=O)(=O)[O-])ccc5F)c5ccc2[nH]5)C=C4)C=C3)cc1)c1ccc(-c2ccc(/C=C3/SC(=S)N(c4ccccc4)C3=O)o2)cc1
REMARK SMILES IDX 4 1 3 2 2 3 1 4 72 5 73 6 96 7 74 8 95 9 75 10 76 11 77 12
REMARK SMILES IDX 94 13 78 14 79 15 80 16 81 17 82 18 92 19 83 20 85 21 93 22
REMARK SMILES IDX 84 23 86 24 87 25 91 26 88 27 90 28 89 29 5 30 6 31 7 32
REMARK SMILES IDX 8 33 9 34 10 35 71 36 11 37 70 38 12 39 13 40 14 41 64 42
REMARK SMILES IDX 15 43 69 44 63 45 65 46 16 47 68 48 62 49 61 50 17 52 49 53
REMARK SMILES IDX 29 54 48 55 30 56 33 57 47 58 66 59 31 60 32 61 46 63 67 64
REMARK SMILES IDX 34 65 18 66 19 67 27 68 20 69 26 70 28 71 25 72 21 73 22 74
REMARK SMILES IDX 23 75 24 76 50 77 51 78 59 79 52 80 58 81 60 82 57 83 53 84
REMARK SMILES IDX 54 85 55 86 56 87 35 88 36 89 44 90 37 91 43 92 45 93 42 94
REMARK SMILES IDX 38 95 39 96 40 97 41 98
REMARK H PARENT 65 51 33 62
REMARK Flexibility Score: inf
ROOT
ATOM      1  C   UNL A   1      33.943  34.767  28.657  1.00  0.00     0.275 C 
ENDROOT
BRANCH   1   2
ATOM      2  O   UNL A   1      34.247  34.643  30.055  1.00  0.00    -0.458 OA
BRANCH   2   3
ATOM      3  C   UNL A   1      35.036  33.760  30.713  1.00  0.00     0.338 C 
ATOM      4  O   UNL A   1      34.477  32.858  31.337  1.00  0.00    -0.246 OA
BRANCH   3   5
ATOM      5  C   UNL A   1      36.541  33.814  30.770  1.00  0.00     0.060 A 
ATOM      6  C   UNL A   1      37.326  34.174  31.866  1.00  0.00     0.016 A 
ATOM      7  C   UNL A   1      37.221  33.440  29.595  1.00  0.00     0.016 A 
ATOM      8  C   UNL A   1      38.725  34.148  31.807  1.00  0.00     0.013 A 
ATOM      9  C   UNL A   1      38.622  33.442  29.522  1.00  0.00     0.013 A 
ATOM     10  C   UNL A   1      39.388  33.794  30.634  1.00  0.00     0.017 A 
BRANCH  10  11
ATOM     11  C   UNL A   1      40.838  33.827  30.576  1.00  0.00     0.134 A 
ATOM     12  C   UNL A   1      41.800  32.938  30.160  1.00  0.00     0.051 A 
ATOM     13  O   UNL A   1      41.429  34.978  31.006  1.00  0.00    -0.457 OA
ATOM     14  C   UNL A   1      43.042  33.579  30.359  1.00  0.00     0.051 A 
ATOM     15  C   UNL A   1      42.789  34.816  30.935  1.00  0.00     0.128 A 
BRANCH  15  16
ATOM     16  C   UNL A   1      43.722  35.774  31.395  1.00  0.00     0.068 C 
ATOM     17  C   UNL A   1      43.955  36.911  30.730  1.00  0.00     0.084 C 
ATOM     18  S   UNL A   1      44.953  38.159  31.380  1.00  0.00    -0.054 SA
ATOM     19  C   UNL A   1      43.375  37.346  29.424  1.00  0.00     0.270 C 
ATOM     20  C   UNL A   1      44.417  39.334  30.182  1.00  0.00     0.152 C 
ATOM     21  N   UNL A   1      43.646  38.692  29.226  1.00  0.00    -0.261 N 
ATOM     22  O   UNL A   1      42.825  36.586  28.639  1.00  0.00    -0.268 OA
ATOM     23  S   UNL A   1      44.789  40.956  30.365  1.00  0.00    -0.051 S 
BRANCH  21  24
ATOM     24  C   UNL A   1      43.123  39.343  28.086  1.00  0.00     0.051 A 
ATOM     25  C   UNL A   1      41.798  39.794  28.091  1.00  0.00     0.027 A 
ATOM     26  C   UNL A   1      43.942  39.577  26.975  1.00  0.00     0.027 A 
ATOM     27  C   UNL A   1      41.349  40.592  27.049  1.00  0.00     0.002 A 
ATOM     28  C   UNL A   1      43.472  40.339  25.918  1.00  0.00     0.002 A 
ATOM     29  C   UNL A   1      42.200  40.887  25.991  1.00  0.00     0.000 A 
ENDBRANCH  21  24
ENDBRANCH  15  16
ENDBRANCH  10  11
ENDBRANCH   3   5
ENDBRANCH   2   3
ENDBRANCH   1   2
BRANCH   1  30
ATOM     30  C   UNL A   1      33.486  33.451  28.016  1.00  0.00     0.275 C 
BRANCH  30  31
ATOM     31  O   UNL A   1      34.586  32.608  27.628  1.00  0.00    -0.458 OA
BRANCH  31  32
ATOM     32  C   UNL A   1      34.357  31.274  27.762  1.00  0.00     0.338 C 
ATOM     33  O   UNL A   1      33.307  30.707  27.496  1.00  0.00    -0.246 OA
BRANCH  32  34
ATOM     34  C   UNL A   1      35.591  30.545  28.155  1.00  0.00     0.060 A 
ATOM     35  C   UNL A   1      35.617  29.969  29.432  1.00  0.00     0.016 A 
ATOM     36  C   UNL A   1      36.714  30.431  27.328  1.00  0.00     0.016 A 
ATOM     37  C   UNL A   1      36.767  29.324  29.900  1.00  0.00     0.010 A 
ATOM     38  C   UNL A   1      37.865  29.774  27.795  1.00  0.00     0.010 A 
ATOM     39  C   UNL A   1      37.912  29.243  29.096  1.00  0.00    -0.014 A 
BRANCH  39  40
ATOM     40  C   UNL A   1      39.165  28.653  29.649  1.00  0.00     0.031 A 
ATOM     41  C   UNL A   1      39.753  29.201  30.924  1.00  0.00     0.074 A 
ATOM     42  C   UNL A   1      39.778  27.641  29.008  1.00  0.00     0.049 A 
ATOM     43  N   UNL A   1      40.737  28.746  31.664  1.00  0.00    -0.248 NA
ATOM     44  C   UNL A   1      39.131  30.427  31.439  1.00  0.00     0.031 C 
ATOM     45  C   UNL A   1      39.298  27.018  27.777  1.00  0.00     0.029 A 
ATOM     46  N   UNL A   1      40.938  26.964  29.295  1.00  0.00    -0.354 N 
ATOM     47  C   UNL A   1      40.898  29.670  32.696  1.00  0.00     0.074 A 
ATOM     48  C   UNL A   1      39.864  30.671  32.515  1.00  0.00     0.031 C 
ATOM     49  C   UNL A   1      40.155  26.049  27.412  1.00  0.00     0.029 A 
ATOM     50  C   UNL A   1      41.265  26.008  28.361  1.00  0.00     0.049 A 
ATOM     51  H   UNL A   1      41.483  27.146  30.094  1.00  0.00     0.167 HD
ATOM     52  C   UNL A   1      41.873  29.737  33.643  1.00  0.00     0.034 A 
ATOM     53  C   UNL A   1      42.350  25.209  28.270  1.00  0.00     0.034 A 
ATOM     54  C   UNL A   1      42.997  28.820  33.711  1.00  0.00     0.049 A 
ATOM     55  C   UNL A   1      43.440  25.338  29.310  1.00  0.00     0.074 A 
ATOM     56  C   UNL A   1      44.090  28.873  34.561  1.00  0.00     0.029 A 
ATOM     57  N   UNL A   1      43.260  27.793  32.804  1.00  0.00    -0.354 N 
ATOM     58  N   UNL A   1      43.461  26.057  30.408  1.00  0.00    -0.248 NA
ATOM     59  C   UNL A   1      44.665  24.563  29.077  1.00  0.00     0.031 C 
ATOM     60  C   UNL A   1      45.095  28.061  34.023  1.00  0.00     0.029 A 
ATOM     61  C   UNL A   1      44.578  27.365  32.942  1.00  0.00     0.049 A 
ATOM     62  H   UNL A   1      42.611  27.425  32.162  1.00  0.00     0.167 HD
ATOM     63  C   UNL A   1      44.704  25.824  30.995  1.00  0.00     0.074 A 
ATOM     64  C   UNL A   1      45.376  24.851  30.157  1.00  0.00     0.031 C 
ATOM     65  C   UNL A   1      45.247  26.386  32.106  1.00  0.00     0.034 A 
BRANCH  52  66
ATOM     66  C   UNL A   1      41.910  31.003  34.486  1.00  0.00     0.023 A 
ATOM     67  C   UNL A   1      41.109  31.189  35.625  1.00  0.00     0.031 A 
ATOM     68  C   UNL A   1      42.695  32.096  34.060  1.00  0.00     0.131 A 
ATOM     69  C   UNL A   1      41.033  32.460  36.226  1.00  0.00     0.055 A 
ATOM     70  C   UNL A   1      42.669  33.333  34.703  1.00  0.00     0.041 A 
ATOM     71  F   UNL A   1      43.492  31.994  32.986  1.00  0.00    -0.206 F 
ATOM     72  C   UNL A   1      41.818  33.528  35.780  1.00  0.00     0.022 A 
BRANCH  69  73
ATOM     73  S   UNL A   1      39.790  32.752  37.513  1.00  0.00     0.124 S 
ATOM     74  O   UNL A   1      40.577  32.558  38.727  1.00  0.00    -0.237 OA
ATOM     75  O   UNL A   1      39.363  34.120  37.239  1.00  0.00    -0.237 OA
ATOM     76  O   UNL A   1      38.783  31.724  37.257  1.00  0.00    -0.744 OA
ENDBRANCH  69  73
ENDBRANCH  52  66
BRANCH  53  77
ATOM     77  C   UNL A   1      42.512  24.251  27.137  1.00  0.00     0.023 A 
ATOM     78  C   UNL A   1      41.972  22.957  27.215  1.00  0.00     0.031 A 
ATOM     79  C   UNL A   1      43.282  24.576  26.006  1.00  0.00     0.131 A 
ATOM     80  C   UNL A   1      42.247  22.021  26.205  1.00  0.00     0.055 A 
ATOM     81  C   UNL A   1      43.508  23.657  24.978  1.00  0.00     0.041 A 
ATOM     82  F   UNL A   1      43.837  25.793  25.885  1.00  0.00    -0.206 F 
ATOM     83  C   UNL A   1      42.999  22.365  25.081  1.00  0.00     0.022 A 
BRANCH  80  84
ATOM     84  S   UNL A   1      41.674  20.313  26.423  1.00  0.00     0.124 S 
ATOM     85  O   UNL A   1      40.233  20.462  26.261  1.00  0.00    -0.237 OA
ATOM     86  O   UNL A   1      42.373  19.618  25.347  1.00  0.00    -0.237 OA
ATOM     87  O   UNL A   1      42.121  19.975  27.773  1.00  0.00    -0.744 OA
ENDBRANCH  80  84
ENDBRANCH  53  77
BRANCH  65  88
ATOM     88  C   UNL A   1      46.639  25.932  32.509  1.00  0.00     0.023 A 
ATOM     89  C   UNL A   1      46.865  24.882  33.422  1.00  0.00     0.031 A 
ATOM     90  C   UNL A   1      47.767  26.571  31.961  1.00  0.00     0.131 A 
ATOM     91  C   UNL A   1      48.176  24.553  33.809  1.00  0.00     0.055 A 
ATOM     92  C   UNL A   1      49.069  26.190  32.292  1.00  0.00     0.041 A 
ATOM     93  F   UNL A   1      47.623  27.579  31.087  1.00  0.00    -0.206 F 
ATOM     94  C   UNL A   1      49.279  25.189  33.233  1.00  0.00     0.022 A 
BRANCH  91  95
ATOM     95  S   UNL A   1      48.429  23.369  35.163  1.00  0.00     0.124 S 
ATOM     96  O   UNL A   1      47.546  22.273  34.780  1.00  0.00    -0.237 OA
ATOM     97  O   UNL A   1      49.860  23.096  35.075  1.00  0.00    -0.237 OA
ATOM     98  O   UNL A   1      48.012  24.113  36.351  1.00  0.00    -0.744 OA
ENDBRANCH  91  95
ENDBRANCH  65  88
ENDBRANCH  39  40
ENDBRANCH  32  34
ENDBRANCH  31  32
ENDBRANCH  30  31
ENDBRANCH   1  30
TORSDOF 17
ENDMDL
