MODEL 1
REMARK VINA RESULT:     -11.5      0.000      0.000
REMARK SMILES CC[C@@](O)(C(=O)OCCOC(=O)c1ccc(-c2c3nc(c(-c4cc(S(=O)(=O)[O-])ccc4F)c4ccc([nH]4)c(-c4cc(S(=O)(=O)[O-])ccc4F)c4nc(c(-c5cc(S(=O)(=O)[O-])ccc5F)c5ccc2[nH]5)C=C4)C=C3)cc1)[C@@H]1CCOc2ccccc21
REMARK SMILES IDX 9 1 8 2 7 3 5 4 6 5 3 6 2 7 1 8 4 9 76 11 77 12 85 13 78 14
REMARK SMILES IDX 80 15 84 16 79 17 81 18 83 19 82 20 10 21 11 22 12 23 13 24
REMARK SMILES IDX 14 25 75 26 15 27 74 28 16 29 17 30 18 31 68 32 19 33 73 34
REMARK SMILES IDX 67 35 69 36 20 37 72 38 66 39 65 40 21 42 53 43 33 44 52 45
REMARK SMILES IDX 34 46 37 47 51 48 70 49 35 50 36 51 50 53 71 54 38 55 22 56
REMARK SMILES IDX 23 57 31 58 24 59 30 60 32 61 29 62 25 63 26 64 27 65 28 66
REMARK SMILES IDX 54 67 55 68 63 69 56 70 62 71 64 72 61 73 57 74 58 75 59 76
REMARK SMILES IDX 60 77 39 78 40 79 48 80 41 81 47 82 49 83 46 84 42 85 43 86
REMARK SMILES IDX 44 87 45 88
REMARK H PARENT 4 10 69 41 37 52
REMARK Flexibility Score: inf
ROOT
ATOM      1  C   UNL A   1      35.909  21.358  24.694  1.00  0.00     0.275 C 
ENDROOT
BRANCH   1   2
ATOM      2  C   UNL A   1      34.554  20.838  25.190  1.00  0.00     0.274 C 
BRANCH   2   3
ATOM      3  O   UNL A   1      33.569  21.894  25.209  1.00  0.00    -0.460 OA
BRANCH   3   4
ATOM      4  C   UNL A   1      33.127  22.284  26.444  1.00  0.00     0.338 C 
ATOM      5  O   UNL A   1      33.586  21.830  27.484  1.00  0.00    -0.249 OA
BRANCH   4   6
ATOM      6  C   UNL A   1      32.005  23.393  26.352  1.00  0.00     0.168 C 
BRANCH   6   7
ATOM      7  C   UNL A   1      30.713  22.566  26.020  1.00  0.00     0.044 C 
ATOM      8  C   UNL A   1      29.535  22.568  26.977  1.00  0.00     0.007 C 
ENDBRANCH   6   7
BRANCH   6   9
ATOM      9  O   UNL A   1      31.854  24.031  27.621  1.00  0.00    -0.378 OA
ATOM     10  H   UNL A   1      32.457  24.788  27.676  1.00  0.00     0.212 HD
ENDBRANCH   6   9
BRANCH   6  11
ATOM     11  C   UNL A   1      32.392  24.436  25.237  1.00  0.00     0.070 C 
ATOM     12  C   UNL A   1      33.566  25.392  25.528  1.00  0.00     0.053 C 
ATOM     13  C   UNL A   1      31.395  25.419  24.645  1.00  0.00     0.001 A 
ATOM     14  C   UNL A   1      34.118  25.901  24.184  1.00  0.00     0.230 C 
ATOM     15  C   UNL A   1      31.856  26.134  23.526  1.00  0.00     0.122 A 
ATOM     16  C   UNL A   1      30.124  25.717  25.130  1.00  0.00     0.008 A 
ATOM     17  O   UNL A   1      33.160  26.051  23.121  1.00  0.00    -0.493 OA
ATOM     18  C   UNL A   1      31.012  26.957  22.788  1.00  0.00     0.047 A 
ATOM     19  C   UNL A   1      29.274  26.563  24.407  1.00  0.00     0.001 A 
ATOM     20  C   UNL A   1      29.707  27.157  23.222  1.00  0.00     0.004 A 
ENDBRANCH   6  11
ENDBRANCH   4   6
ENDBRANCH   3   4
ENDBRANCH   2   3
ENDBRANCH   1   2
BRANCH   1  21
ATOM     21  O   UNL A   1      36.742  21.660  25.825  1.00  0.00    -0.458 OA
BRANCH  21  22
ATOM     22  C   UNL A   1      38.057  21.370  25.700  1.00  0.00     0.338 C 
ATOM     23  O   UNL A   1      38.541  20.342  25.248  1.00  0.00    -0.246 OA
BRANCH  22  24
ATOM     24  C   UNL A   1      38.839  22.517  26.205  1.00  0.00     0.060 A 
ATOM     25  C   UNL A   1      38.331  23.806  26.059  1.00  0.00     0.016 A 
ATOM     26  C   UNL A   1      40.095  22.332  26.779  1.00  0.00     0.016 A 
ATOM     27  C   UNL A   1      39.064  24.919  26.465  1.00  0.00     0.010 A 
ATOM     28  C   UNL A   1      40.814  23.444  27.236  1.00  0.00     0.010 A 
ATOM     29  C   UNL A   1      40.310  24.749  27.074  1.00  0.00    -0.014 A 
BRANCH  29  30
ATOM     30  C   UNL A   1      41.112  25.936  27.475  1.00  0.00     0.031 A 
ATOM     31  C   UNL A   1      40.492  26.982  28.358  1.00  0.00     0.074 A 
ATOM     32  C   UNL A   1      42.394  26.068  27.080  1.00  0.00     0.049 A 
ATOM     33  N   UNL A   1      40.947  28.161  28.698  1.00  0.00    -0.248 NA
ATOM     34  C   UNL A   1      39.181  26.650  28.936  1.00  0.00     0.031 C 
ATOM     35  C   UNL A   1      43.146  25.083  26.301  1.00  0.00     0.029 A 
ATOM     36  N   UNL A   1      43.293  27.088  27.280  1.00  0.00    -0.354 N 
ATOM     37  C   UNL A   1      39.966  28.726  29.505  1.00  0.00     0.074 A 
ATOM     38  C   UNL A   1      38.887  27.763  29.590  1.00  0.00     0.031 C 
ATOM     39  C   UNL A   1      44.392  25.544  26.097  1.00  0.00     0.029 A 
ATOM     40  C   UNL A   1      44.507  26.884  26.664  1.00  0.00     0.049 A 
ATOM     41  H   UNL A   1      43.089  27.889  27.815  1.00  0.00     0.167 HD
ATOM     42  C   UNL A   1      39.965  29.939  30.113  1.00  0.00     0.034 A 
ATOM     43  C   UNL A   1      45.571  27.703  26.530  1.00  0.00     0.034 A 
ATOM     44  C   UNL A   1      41.051  30.884  30.024  1.00  0.00     0.049 A 
ATOM     45  C   UNL A   1      45.504  29.090  27.123  1.00  0.00     0.074 A 
ATOM     46  C   UNL A   1      41.143  32.150  30.579  1.00  0.00     0.029 A 
ATOM     47  N   UNL A   1      42.237  30.670  29.332  1.00  0.00    -0.354 N 
ATOM     48  N   UNL A   1      44.541  29.645  27.822  1.00  0.00    -0.248 NA
ATOM     49  C   UNL A   1      46.661  29.966  26.893  1.00  0.00     0.031 C 
ATOM     50  C   UNL A   1      42.355  32.722  30.174  1.00  0.00     0.029 A 
ATOM     51  C   UNL A   1      43.051  31.789  29.422  1.00  0.00     0.049 A 
ATOM     52  H   UNL A   1      42.465  29.844  28.849  1.00  0.00     0.167 HD
ATOM     53  C   UNL A   1      44.989  30.926  28.134  1.00  0.00     0.074 A 
ATOM     54  C   UNL A   1      46.313  31.056  27.560  1.00  0.00     0.031 C 
ATOM     55  C   UNL A   1      44.364  31.908  28.833  1.00  0.00     0.034 A 
BRANCH  42  56
ATOM     56  C   UNL A   1      38.714  30.332  30.858  1.00  0.00     0.023 A 
ATOM     57  C   UNL A   1      37.638  30.977  30.225  1.00  0.00     0.031 A 
ATOM     58  C   UNL A   1      38.620  30.097  32.242  1.00  0.00     0.131 A 
ATOM     59  C   UNL A   1      36.547  31.427  30.986  1.00  0.00     0.055 A 
ATOM     60  C   UNL A   1      37.500  30.481  32.980  1.00  0.00     0.041 A 
ATOM     61  F   UNL A   1      39.628  29.506  32.904  1.00  0.00    -0.206 F 
ATOM     62  C   UNL A   1      36.461  31.163  32.355  1.00  0.00     0.022 A 
BRANCH  59  63
ATOM     63  S   UNL A   1      35.306  32.484  30.189  1.00  0.00     0.124 S 
ATOM     64  O   UNL A   1      34.319  32.638  31.256  1.00  0.00    -0.237 OA
ATOM     65  O   UNL A   1      36.076  33.675  29.853  1.00  0.00    -0.237 OA
ATOM     66  O   UNL A   1      34.859  31.687  29.048  1.00  0.00    -0.744 OA
ENDBRANCH  59  63
ENDBRANCH  42  56
BRANCH  43  67
ATOM     67  C   UNL A   1      46.763  27.279  25.737  1.00  0.00     0.023 A 
ATOM     68  C   UNL A   1      46.979  27.757  24.435  1.00  0.00     0.031 A 
ATOM     69  C   UNL A   1      47.668  26.331  26.249  1.00  0.00     0.131 A 
ATOM     70  C   UNL A   1      48.046  27.253  23.672  1.00  0.00     0.055 A 
ATOM     71  C   UNL A   1      48.759  25.875  25.508  1.00  0.00     0.041 A 
ATOM     72  F   UNL A   1      47.504  25.832  27.485  1.00  0.00    -0.206 F 
ATOM     73  C   UNL A   1      48.945  26.326  24.204  1.00  0.00     0.022 A 
BRANCH  70  74
ATOM     74  S   UNL A   1      48.190  27.756  21.935  1.00  0.00     0.124 S 
ATOM     75  O   UNL A   1      49.357  28.630  21.974  1.00  0.00    -0.237 OA
ATOM     76  O   UNL A   1      48.370  26.473  21.263  1.00  0.00    -0.237 OA
ATOM     77  O   UNL A   1      46.918  28.424  21.667  1.00  0.00    -0.744 OA
ENDBRANCH  70  74
ENDBRANCH  43  67
BRANCH  55  78
ATOM     78  C   UNL A   1      45.132  33.189  29.048  1.00  0.00     0.023 A 
ATOM     79  C   UNL A   1      45.054  34.260  28.141  1.00  0.00     0.031 A 
ATOM     80  C   UNL A   1      45.964  33.332  30.173  1.00  0.00     0.131 A 
ATOM     81  C   UNL A   1      45.833  35.409  28.348  1.00  0.00     0.055 A 
ATOM     82  C   UNL A   1      46.697  34.497  30.401  1.00  0.00     0.041 A 
ATOM     83  F   UNL A   1      46.076  32.339  31.070  1.00  0.00    -0.206 F 
ATOM     84  C   UNL A   1      46.642  35.540  29.480  1.00  0.00     0.022 A 
BRANCH  81  85
ATOM     85  S   UNL A   1      45.835  36.705  27.079  1.00  0.00     0.124 S 
ATOM     86  O   UNL A   1      44.417  37.040  26.984  1.00  0.00    -0.237 OA
ATOM     87  O   UNL A   1      46.692  37.724  27.673  1.00  0.00    -0.237 OA
ATOM     88  O   UNL A   1      46.393  36.035  25.905  1.00  0.00    -0.744 OA
ENDBRANCH  81  85
ENDBRANCH  55  78
ENDBRANCH  29  30
ENDBRANCH  22  24
ENDBRANCH  21  22
ENDBRANCH   1  21
TORSDOF 17
ENDMDL
MODEL 2
REMARK VINA RESULT:     -11.5      1.763      2.376
REMARK SMILES CC[C@@](O)(C(=O)OCCOC(=O)c1ccc(-c2c3nc(c(-c4cc(S(=O)(=O)[O-])ccc4F)c4ccc([nH]4)c(-c4cc(S(=O)(=O)[O-])ccc4F)c4nc(c(-c5cc(S(=O)(=O)[O-])ccc5F)c5ccc2[nH]5)C=C4)C=C3)cc1)[C@@H]1CCOc2ccccc21
REMARK SMILES IDX 9 1 8 2 7 3 5 4 6 5 3 6 2 7 1 8 4 9 76 11 77 12 85 13 78 14
REMARK SMILES IDX 80 15 84 16 79 17 81 18 83 19 82 20 10 21 11 22 12 23 13 24
REMARK SMILES IDX 14 25 75 26 15 27 74 28 16 29 17 30 18 31 68 32 19 33 73 34
REMARK SMILES IDX 67 35 69 36 20 37 72 38 66 39 65 40 21 42 53 43 33 44 52 45
REMARK SMILES IDX 34 46 37 47 51 48 70 49 35 50 36 51 50 53 71 54 38 55 22 56
REMARK SMILES IDX 23 57 31 58 24 59 30 60 32 61 29 62 25 63 26 64 27 65 28 66
REMARK SMILES IDX 54 67 55 68 63 69 56 70 62 71 64 72 61 73 57 74 58 75 59 76
REMARK SMILES IDX 60 77 39 78 40 79 48 80 41 81 47 82 49 83 46 84 42 85 43 86
REMARK SMILES IDX 44 87 45 88
REMARK H PARENT 4 10 69 41 37 52
REMARK Flexibility Score: inf
ROOT
ATOM      1  C   UNL A   1      36.027  20.597  24.954  1.00  0.00     0.275 C 
ENDROOT
BRANCH   1   2
ATOM      2  C   UNL A   1      34.572  20.807  25.389  1.00  0.00     0.274 C 
BRANCH   2   3
ATOM      3  O   UNL A   1      33.776  21.330  24.303  1.00  0.00    -0.460 OA
BRANCH   3   4
ATOM      4  C   UNL A   1      33.053  22.459  24.575  1.00  0.00     0.338 C 
ATOM      5  O   UNL A   1      32.275  22.535  25.518  1.00  0.00    -0.249 OA
BRANCH   4   6
ATOM      6  C   UNL A   1      33.374  23.630  23.564  1.00  0.00     0.168 C 
BRANCH   6   7
ATOM      7  C   UNL A   1      34.844  24.030  23.937  1.00  0.00     0.044 C 
ATOM      8  C   UNL A   1      35.176  24.513  25.337  1.00  0.00     0.007 C 
ENDBRANCH   6   7
BRANCH   6   9
ATOM      9  O   UNL A   1      33.336  23.133  22.225  1.00  0.00    -0.378 OA
ATOM     10  H   UNL A   1      33.185  22.176  22.240  1.00  0.00     0.212 HD
ENDBRANCH   6   9
BRANCH   6  11
ATOM     11  C   UNL A   1      32.331  24.794  23.764  1.00  0.00     0.070 C 
ATOM     12  C   UNL A   1      30.911  24.587  23.201  1.00  0.00     0.053 C 
ATOM     13  C   UNL A   1      32.590  26.221  23.306  1.00  0.00     0.001 A 
ATOM     14  C   UNL A   1      29.952  25.527  23.956  1.00  0.00     0.230 C 
ATOM     15  C   UNL A   1      31.646  27.166  23.743  1.00  0.00     0.122 A 
ATOM     16  C   UNL A   1      33.609  26.659  22.465  1.00  0.00     0.008 A 
ATOM     17  O   UNL A   1      30.505  26.780  24.393  1.00  0.00    -0.493 OA
ATOM     18  C   UNL A   1      31.827  28.529  23.531  1.00  0.00     0.047 A 
ATOM     19  C   UNL A   1      33.787  28.027  22.225  1.00  0.00     0.001 A 
ATOM     20  C   UNL A   1      32.915  28.962  22.783  1.00  0.00     0.004 A 
ENDBRANCH   6  11
ENDBRANCH   4   6
ENDBRANCH   3   4
ENDBRANCH   2   3
ENDBRANCH   1   2
BRANCH   1  21
ATOM     21  O   UNL A   1      36.885  21.423  25.757  1.00  0.00    -0.458 OA
BRANCH  21  22
ATOM     22  C   UNL A   1      38.200  21.110  25.755  1.00  0.00     0.338 C 
ATOM     23  O   UNL A   1      38.703  20.060  25.381  1.00  0.00    -0.246 OA
BRANCH  22  24
ATOM     24  C   UNL A   1      38.957  22.263  26.285  1.00  0.00     0.060 A 
ATOM     25  C   UNL A   1      38.538  23.555  25.973  1.00  0.00     0.016 A 
ATOM     26  C   UNL A   1      40.107  22.077  27.048  1.00  0.00     0.016 A 
ATOM     27  C   UNL A   1      39.259  24.669  26.399  1.00  0.00     0.010 A 
ATOM     28  C   UNL A   1      40.807  23.194  27.523  1.00  0.00     0.010 A 
ATOM     29  C   UNL A   1      40.395  24.500  27.195  1.00  0.00    -0.014 A 
BRANCH  29  30
ATOM     30  C   UNL A   1      41.189  25.684  27.622  1.00  0.00     0.031 A 
ATOM     31  C   UNL A   1      40.535  26.748  28.459  1.00  0.00     0.074 A 
ATOM     32  C   UNL A   1      42.490  25.798  27.292  1.00  0.00     0.049 A 
ATOM     33  N   UNL A   1      40.984  27.926  28.806  1.00  0.00    -0.248 NA
ATOM     34  C   UNL A   1      39.192  26.437  28.972  1.00  0.00     0.031 C 
ATOM     35  C   UNL A   1      43.271  24.795  26.566  1.00  0.00     0.029 A 
ATOM     36  N   UNL A   1      43.389  26.811  27.526  1.00  0.00    -0.354 N 
ATOM     37  C   UNL A   1      39.969  28.512  29.555  1.00  0.00     0.074 A 
ATOM     38  C   UNL A   1      38.877  27.561  29.596  1.00  0.00     0.031 C 
ATOM     39  C   UNL A   1      44.531  25.240  26.420  1.00  0.00     0.029 A 
ATOM     40  C   UNL A   1      44.631  26.587  26.976  1.00  0.00     0.049 A 
ATOM     41  H   UNL A   1      43.166  27.621  28.039  1.00  0.00     0.167 HD
ATOM     42  C   UNL A   1      39.951  29.732  30.147  1.00  0.00     0.034 A 
ATOM     43  C   UNL A   1      45.709  27.393  26.887  1.00  0.00     0.034 A 
ATOM     44  C   UNL A   1      41.050  30.665  30.102  1.00  0.00     0.049 A 
ATOM     45  C   UNL A   1      45.627  28.788  27.458  1.00  0.00     0.074 A 
ATOM     46  C   UNL A   1      41.127  31.937  30.645  1.00  0.00     0.029 A 
ATOM     47  N   UNL A   1      42.267  30.430  29.475  1.00  0.00    -0.354 N 
ATOM     48  N   UNL A   1      44.635  29.362  28.099  1.00  0.00    -0.248 NA
ATOM     49  C   UNL A   1      46.804  29.649  27.277  1.00  0.00     0.031 C 
ATOM     50  C   UNL A   1      42.364  32.491  30.296  1.00  0.00     0.029 A 
ATOM     51  C   UNL A   1      43.087  31.542  29.593  1.00  0.00     0.049 A 
ATOM     52  H   UNL A   1      42.511  29.596  29.014  1.00  0.00     0.167 HD
ATOM     53  C   UNL A   1      45.080  30.642  28.418  1.00  0.00     0.074 A 
ATOM     54  C   UNL A   1      46.433  30.751  27.912  1.00  0.00     0.031 C 
ATOM     55  C   UNL A   1      44.431  31.639  29.071  1.00  0.00     0.034 A 
BRANCH  42  56
ATOM     56  C   UNL A   1      38.666  30.148  30.821  1.00  0.00     0.023 A 
ATOM     57  C   UNL A   1      37.645  30.823  30.132  1.00  0.00     0.031 A 
ATOM     58  C   UNL A   1      38.487  29.903  32.194  1.00  0.00     0.131 A 
ATOM     59  C   UNL A   1      36.521  31.291  30.832  1.00  0.00     0.055 A 
ATOM     60  C   UNL A   1      37.335  30.308  32.870  1.00  0.00     0.041 A 
ATOM     61  F   UNL A   1      39.440  29.285  32.908  1.00  0.00    -0.206 F 
ATOM     62  C   UNL A   1      36.350  31.018  32.191  1.00  0.00     0.022 A 
BRANCH  59  63
ATOM     63  S   UNL A   1      35.353  32.383  29.974  1.00  0.00     0.124 S 
ATOM     64  O   UNL A   1      34.363  32.637  31.019  1.00  0.00    -0.237 OA
ATOM     65  O   UNL A   1      36.195  33.514  29.601  1.00  0.00    -0.237 OA
ATOM     66  O   UNL A   1      34.875  31.566  28.860  1.00  0.00    -0.744 OA
ENDBRANCH  59  63
ENDBRANCH  42  56
BRANCH  43  67
ATOM     67  C   UNL A   1      46.936  26.946  26.162  1.00  0.00     0.023 A 
ATOM     68  C   UNL A   1      47.988  26.307  26.837  1.00  0.00     0.031 A 
ATOM     69  C   UNL A   1      47.103  27.221  24.792  1.00  0.00     0.131 A 
ATOM     70  C   UNL A   1      49.176  26.002  26.152  1.00  0.00     0.055 A 
ATOM     71  C   UNL A   1      48.264  26.867  24.103  1.00  0.00     0.041 A 
ATOM     72  F   UNL A   1      46.134  27.840  24.099  1.00  0.00    -0.206 F 
ATOM     73  C   UNL A   1      49.316  26.265  24.787  1.00  0.00     0.022 A 
BRANCH  70  74
ATOM     74  S   UNL A   1      50.580  25.341  27.092  1.00  0.00     0.124 S 
ATOM     75  O   UNL A   1      51.503  24.968  26.027  1.00  0.00    -0.237 OA
ATOM     76  O   UNL A   1      50.968  26.490  27.905  1.00  0.00    -0.237 OA
ATOM     77  O   UNL A   1      49.997  24.225  27.835  1.00  0.00    -0.744 OA
ENDBRANCH  70  74
ENDBRANCH  43  67
BRANCH  55  78
ATOM     78  C   UNL A   1      45.200  32.916  29.310  1.00  0.00     0.023 A 
ATOM     79  C   UNL A   1      45.187  33.972  28.382  1.00  0.00     0.031 A 
ATOM     80  C   UNL A   1      45.968  33.068  30.478  1.00  0.00     0.131 A 
ATOM     81  C   UNL A   1      45.967  35.115  28.616  1.00  0.00     0.055 A 
ATOM     82  C   UNL A   1      46.701  34.229  30.729  1.00  0.00     0.041 A 
ATOM     83  F   UNL A   1      46.017  32.089  31.395  1.00  0.00    -0.206 F 
ATOM     84  C   UNL A   1      46.711  35.256  29.790  1.00  0.00     0.022 A 
BRANCH  81  85
ATOM     85  S   UNL A   1      46.057  36.390  27.328  1.00  0.00     0.124 S 
ATOM     86  O   UNL A   1      46.210  35.589  26.117  1.00  0.00    -0.237 OA
ATOM     87  O   UNL A   1      44.780  37.079  27.479  1.00  0.00    -0.237 OA
ATOM     88  O   UNL A   1      47.231  37.176  27.703  1.00  0.00    -0.744 OA
ENDBRANCH  81  85
ENDBRANCH  55  78
ENDBRANCH  29  30
ENDBRANCH  22  24
ENDBRANCH  21  22
ENDBRANCH   1  21
TORSDOF 17
ENDMDL
MODEL 3
REMARK VINA RESULT:     -11.4      1.625      2.240
REMARK SMILES CC[C@@](O)(C(=O)OCCOC(=O)c1ccc(-c2c3nc(c(-c4cc(S(=O)(=O)[O-])ccc4F)c4ccc([nH]4)c(-c4cc(S(=O)(=O)[O-])ccc4F)c4nc(c(-c5cc(S(=O)(=O)[O-])ccc5F)c5ccc2[nH]5)C=C4)C=C3)cc1)[C@@H]1CCOc2ccccc21
REMARK SMILES IDX 9 1 8 2 7 3 5 4 6 5 3 6 2 7 1 8 4 9 76 11 77 12 85 13 78 14
REMARK SMILES IDX 80 15 84 16 79 17 81 18 83 19 82 20 10 21 11 22 12 23 13 24
REMARK SMILES IDX 14 25 75 26 15 27 74 28 16 29 17 30 18 31 68 32 19 33 73 34
REMARK SMILES IDX 67 35 69 36 20 37 72 38 66 39 65 40 21 42 53 43 33 44 52 45
REMARK SMILES IDX 34 46 37 47 51 48 70 49 35 50 36 51 50 53 71 54 38 55 22 56
REMARK SMILES IDX 23 57 31 58 24 59 30 60 32 61 29 62 25 63 26 64 27 65 28 66
REMARK SMILES IDX 54 67 55 68 63 69 56 70 62 71 64 72 61 73 57 74 58 75 59 76
REMARK SMILES IDX 60 77 39 78 40 79 48 80 41 81 47 82 49 83 46 84 42 85 43 86
REMARK SMILES IDX 44 87 45 88
REMARK H PARENT 4 10 69 41 37 52
REMARK Flexibility Score: inf
ROOT
ATOM      1  C   UNL A   1      36.557  21.065  24.595  1.00  0.00     0.275 C 
ENDROOT
BRANCH   1   2
ATOM      2  C   UNL A   1      35.293  20.302  25.008  1.00  0.00     0.274 C 
BRANCH   2   3
ATOM      3  O   UNL A   1      34.149  21.182  25.054  1.00  0.00    -0.460 OA
BRANCH   3   4
ATOM      4  C   UNL A   1      33.184  20.967  24.108  1.00  0.00     0.338 C 
ATOM      5  O   UNL A   1      32.806  19.846  23.793  1.00  0.00    -0.249 OA
BRANCH   4   6
ATOM      6  C   UNL A   1      32.613  22.318  23.521  1.00  0.00     0.168 C 
BRANCH   6   7
ATOM      7  C   UNL A   1      33.871  22.976  22.853  1.00  0.00     0.044 C 
ATOM      8  C   UNL A   1      34.593  24.121  23.540  1.00  0.00     0.007 C 
ENDBRANCH   6   7
BRANCH   6   9
ATOM      9  O   UNL A   1      31.633  22.033  22.522  1.00  0.00    -0.378 OA
ATOM     10  H   UNL A   1      30.853  21.636  22.939  1.00  0.00     0.212 HD
ENDBRANCH   6   9
BRANCH   6  11
ATOM     11  C   UNL A   1      31.996  23.176  24.690  1.00  0.00     0.070 C 
ATOM     12  C   UNL A   1      30.910  22.517  25.564  1.00  0.00     0.053 C 
ATOM     13  C   UNL A   1      31.363  24.540  24.467  1.00  0.00     0.001 A 
ATOM     14  C   UNL A   1      30.859  23.262  26.911  1.00  0.00     0.230 C 
ATOM     15  C   UNL A   1      31.049  25.248  25.639  1.00  0.00     0.122 A 
ATOM     16  C   UNL A   1      31.016  25.113  23.246  1.00  0.00     0.008 A 
ATOM     17  O   UNL A   1      31.164  24.666  26.872  1.00  0.00    -0.493 OA
ATOM     18  C   UNL A   1      30.603  26.566  25.597  1.00  0.00     0.047 A 
ATOM     19  C   UNL A   1      30.544  26.430  23.193  1.00  0.00     0.001 A 
ATOM     20  C   UNL A   1      30.368  27.165  24.366  1.00  0.00     0.004 A 
ENDBRANCH   6  11
ENDBRANCH   4   6
ENDBRANCH   3   4
ENDBRANCH   2   3
ENDBRANCH   1   2
BRANCH   1  21
ATOM     21  O   UNL A   1      37.224  21.548  25.772  1.00  0.00    -0.458 OA
BRANCH  21  22
ATOM     22  C   UNL A   1      38.537  21.247  25.889  1.00  0.00     0.338 C 
ATOM     23  O   UNL A   1      39.072  20.181  25.617  1.00  0.00    -0.246 OA
BRANCH  22  24
ATOM     24  C   UNL A   1      39.246  22.435  26.406  1.00  0.00     0.060 A 
ATOM     25  C   UNL A   1      38.799  23.706  26.047  1.00  0.00     0.016 A 
ATOM     26  C   UNL A   1      40.380  22.304  27.205  1.00  0.00     0.016 A 
ATOM     27  C   UNL A   1      39.476  24.851  26.462  1.00  0.00     0.010 A 
ATOM     28  C   UNL A   1      41.034  23.453  27.668  1.00  0.00     0.010 A 
ATOM     29  C   UNL A   1      40.594  24.738  27.292  1.00  0.00    -0.014 A 
BRANCH  29  30
ATOM     30  C   UNL A   1      41.342  25.955  27.707  1.00  0.00     0.031 A 
ATOM     31  C   UNL A   1      40.652  26.995  28.545  1.00  0.00     0.074 A 
ATOM     32  C   UNL A   1      42.635  26.121  27.366  1.00  0.00     0.049 A 
ATOM     33  N   UNL A   1      41.055  28.192  28.884  1.00  0.00    -0.248 NA
ATOM     34  C   UNL A   1      39.327  26.631  29.071  1.00  0.00     0.031 C 
ATOM     35  C   UNL A   1      43.450  25.148  26.637  1.00  0.00     0.029 A 
ATOM     36  N   UNL A   1      43.493  27.172  27.587  1.00  0.00    -0.354 N 
ATOM     37  C   UNL A   1      40.023  28.739  29.639  1.00  0.00     0.074 A 
ATOM     38  C   UNL A   1      38.972  27.744  29.694  1.00  0.00     0.031 C 
ATOM     39  C   UNL A   1      44.689  25.644  26.478  1.00  0.00     0.029 A 
ATOM     40  C   UNL A   1      44.738  26.996  27.027  1.00  0.00     0.049 A 
ATOM     41  H   UNL A   1      43.241  27.974  28.099  1.00  0.00     0.167 HD
ATOM     42  C   UNL A   1      39.959  29.961  30.225  1.00  0.00     0.034 A 
ATOM     43  C   UNL A   1      45.781  27.846  26.925  1.00  0.00     0.034 A 
ATOM     44  C   UNL A   1      41.018  30.938  30.167  1.00  0.00     0.049 A 
ATOM     45  C   UNL A   1      45.646  29.239  27.491  1.00  0.00     0.074 A 
ATOM     46  C   UNL A   1      41.047  32.214  30.704  1.00  0.00     0.029 A 
ATOM     47  N   UNL A   1      42.239  30.750  29.530  1.00  0.00    -0.354 N 
ATOM     48  N   UNL A   1      44.637  29.775  28.139  1.00  0.00    -0.248 NA
ATOM     49  C   UNL A   1      46.785  30.147  27.296  1.00  0.00     0.031 C 
ATOM     50  C   UNL A   1      42.257  32.818  30.342  1.00  0.00     0.029 A 
ATOM     51  C   UNL A   1      43.013  31.896  29.636  1.00  0.00     0.049 A 
ATOM     52  H   UNL A   1      42.513  29.925  29.071  1.00  0.00     0.167 HD
ATOM     53  C   UNL A   1      45.032  31.074  28.448  1.00  0.00     0.074 A 
ATOM     54  C   UNL A   1      46.374  31.236  27.929  1.00  0.00     0.031 C 
ATOM     55  C   UNL A   1      44.347  32.046  29.103  1.00  0.00     0.034 A 
BRANCH  42  56
ATOM     56  C   UNL A   1      38.665  30.326  30.909  1.00  0.00     0.023 A 
ATOM     57  C   UNL A   1      37.624  30.988  30.236  1.00  0.00     0.031 A 
ATOM     58  C   UNL A   1      38.493  30.045  32.277  1.00  0.00     0.131 A 
ATOM     59  C   UNL A   1      36.489  31.410  30.946  1.00  0.00     0.055 A 
ATOM     60  C   UNL A   1      37.330  30.403  32.961  1.00  0.00     0.041 A 
ATOM     61  F   UNL A   1      39.463  29.437  32.976  1.00  0.00    -0.206 F 
ATOM     62  C   UNL A   1      36.326  31.102  32.299  1.00  0.00     0.022 A 
BRANCH  59  63
ATOM     63  S   UNL A   1      35.291  32.488  30.114  1.00  0.00     0.124 S 
ATOM     64  O   UNL A   1      34.307  32.711  31.171  1.00  0.00    -0.237 OA
ATOM     65  O   UNL A   1      36.106  33.640  29.746  1.00  0.00    -0.237 OA
ATOM     66  O   UNL A   1      34.818  31.676  28.994  1.00  0.00    -0.744 OA
ENDBRANCH  59  63
ENDBRANCH  42  56
BRANCH  43  67
ATOM     67  C   UNL A   1      47.019  27.448  26.191  1.00  0.00     0.023 A 
ATOM     68  C   UNL A   1      47.198  27.768  24.836  1.00  0.00     0.031 A 
ATOM     69  C   UNL A   1      48.012  26.674  26.821  1.00  0.00     0.131 A 
ATOM     70  C   UNL A   1      48.320  27.282  24.144  1.00  0.00     0.055 A 
ATOM     71  C   UNL A   1      49.152  26.240  26.144  1.00  0.00     0.041 A 
ATOM     72  F   UNL A   1      47.888  26.330  28.113  1.00  0.00    -0.206 F 
ATOM     73  C   UNL A   1      49.304  26.533  24.792  1.00  0.00     0.022 A 
BRANCH  70  74
ATOM     74  S   UNL A   1      48.429  27.563  22.355  1.00  0.00     0.124 S 
ATOM     75  O   UNL A   1      49.613  28.409  22.258  1.00  0.00    -0.237 OA
ATOM     76  O   UNL A   1      48.568  26.203  21.843  1.00  0.00    -0.237 OA
ATOM     77  O   UNL A   1      47.163  28.220  22.035  1.00  0.00    -0.744 OA
ENDBRANCH  70  74
ENDBRANCH  43  67
BRANCH  55  78
ATOM     78  C   UNL A   1      45.065  33.354  29.329  1.00  0.00     0.023 A 
ATOM     79  C   UNL A   1      45.858  33.576  30.468  1.00  0.00     0.031 A 
ATOM     80  C   UNL A   1      44.939  34.398  28.394  1.00  0.00     0.131 A 
ATOM     81  C   UNL A   1      46.458  34.830  30.667  1.00  0.00     0.055 A 
ATOM     82  C   UNL A   1      45.580  35.624  28.572  1.00  0.00     0.041 A 
ATOM     83  F   UNL A   1      44.193  34.239  27.290  1.00  0.00    -0.206 F 
ATOM     84  C   UNL A   1      46.336  35.849  29.720  1.00  0.00     0.022 A 
BRANCH  81  85
ATOM     85  S   UNL A   1      47.341  35.138  32.221  1.00  0.00     0.124 S 
ATOM     86  O   UNL A   1      48.619  35.660  31.748  1.00  0.00    -0.237 OA
ATOM     87  O   UNL A   1      46.470  36.098  32.891  1.00  0.00    -0.237 OA
ATOM     88  O   UNL A   1      47.405  33.819  32.849  1.00  0.00    -0.744 OA
ENDBRANCH  81  85
ENDBRANCH  55  78
ENDBRANCH  29  30
ENDBRANCH  22  24
ENDBRANCH  21  22
ENDBRANCH   1  21
TORSDOF 17
ENDMDL
