MODEL 1
REMARK VINA RESULT:     -12.1      0.000      0.000
REMARK SMILES C[C@@H]1CN(S(=O)(=O)c2cccc(C(=O)N3CCC[C@@H]3C(=O)OCCOC(=O)c3ccc(-c4c5nc(c(-c6cc(S(=O)(=O)[O-])ccc6F)c6ccc([nH]6)c(-c6cc(S(=O)(=O)[O-])ccc6F)c6nc(c(-c7cc(S(=O)(=O)[O-])ccc7F)c7ccc4[nH]7)C=C6)C=C5)cc3)c2)C[C@H](C)O1
REMARK SMILES IDX 23 1 22 2 20 3 21 4 19 5 15 6 16 7 17 8 18 9 13 10 14 11
REMARK SMILES IDX 12 12 8 13 9 14 91 15 10 16 11 17 5 18 6 19 7 20 4 21 1 22
REMARK SMILES IDX 2 23 3 24 95 25 93 26 92 27 94 28 24 29 25 30 26 31 27 32
REMARK SMILES IDX 28 33 29 34 90 35 30 36 89 37 31 38 32 39 33 40 83 41 34 42
REMARK SMILES IDX 88 43 82 44 84 45 35 46 87 47 81 48 80 49 36 51 68 52 48 53
REMARK SMILES IDX 67 54 49 55 52 56 66 57 85 58 50 59 51 60 65 62 86 63 53 64
REMARK SMILES IDX 37 65 38 66 46 67 39 68 45 69 47 70 44 71 40 72 41 73 42 74
REMARK SMILES IDX 43 75 69 76 70 77 78 78 71 79 77 80 79 81 76 82 72 83 73 84
REMARK SMILES IDX 74 85 75 86 54 87 55 88 63 89 56 90 62 91 64 92 61 93 57 94
REMARK SMILES IDX 58 95 59 96 60 97
REMARK H PARENT 84 50 52 61
REMARK Flexibility Score: inf
ROOT
ATOM      1  C   UNL A   1      31.258  29.968  25.706  1.00  0.00     0.274 C 
ENDROOT
BRANCH   1   2
ATOM      2  O   UNL A   1      31.553  28.712  26.354  1.00  0.00    -0.461 OA
BRANCH   2   3
ATOM      3  C   UNL A   1      32.383  27.877  25.674  1.00  0.00     0.328 C 
ATOM      4  O   UNL A   1      33.230  27.175  26.219  1.00  0.00    -0.250 OA
BRANCH   3   5
ATOM      5  C   UNL A   1      32.228  27.957  24.146  1.00  0.00     0.195 C 
ATOM      6  N   UNL A   1      31.761  26.708  23.556  1.00  0.00    -0.325 N 
ATOM      7  C   UNL A   1      32.158  26.696  22.164  1.00  0.00     0.121 C 
ATOM      8  C   UNL A   1      33.561  27.259  22.225  1.00  0.00     0.024 C 
ATOM      9  C   UNL A   1      33.476  28.325  23.322  1.00  0.00     0.039 C 
BRANCH   6  10
ATOM     10  C   UNL A   1      30.533  26.195  23.935  1.00  0.00     0.254 C 
ATOM     11  O   UNL A   1      29.475  26.799  23.840  1.00  0.00    -0.269 OA
BRANCH  10  12
ATOM     12  C   UNL A   1      30.643  24.904  24.675  1.00  0.00     0.041 A 
ATOM     13  C   UNL A   1      31.590  22.681  24.826  1.00  0.00     0.083 A 
ATOM     14  C   UNL A   1      31.177  22.585  26.155  1.00  0.00     0.022 A 
ATOM     15  C   UNL A   1      31.273  23.811  24.079  1.00  0.00     0.035 A 
ATOM     16  C   UNL A   1      30.482  23.652  26.738  1.00  0.00     0.002 A 
ATOM     17  C   UNL A   1      30.227  24.817  26.004  1.00  0.00     0.014 A 
BRANCH  13  18
ATOM     18  S   UNL A   1      32.388  21.335  23.996  1.00  0.00     0.243 S 
ATOM     19  O   UNL A   1      32.124  21.485  22.579  1.00  0.00    -0.207 OA
ATOM     20  O   UNL A   1      32.025  20.113  24.685  1.00  0.00    -0.207 OA
BRANCH  18  21
ATOM     21  N   UNL A   1      34.092  21.557  24.225  1.00  0.00    -0.193 NA
ATOM     22  C   UNL A   1      37.110  20.418  24.933  1.00  0.00     0.040 C 
ATOM     23  C   UNL A   1      36.154  21.327  25.698  1.00  0.00     0.130 C 
ATOM     24  C   UNL A   1      34.663  20.975  25.491  1.00  0.00     0.134 C 
ATOM     25  O   UNL A   1      36.462  22.709  25.488  1.00  0.00    -0.373 OA
ATOM     26  C   UNL A   1      35.904  23.295  24.309  1.00  0.00     0.130 C 
ATOM     27  C   UNL A   1      34.401  23.033  24.198  1.00  0.00     0.134 C 
ATOM     28  C   UNL A   1      36.671  22.925  23.045  1.00  0.00     0.040 C 
ENDBRANCH  18  21
ENDBRANCH  13  18
ENDBRANCH  10  12
ENDBRANCH   6  10
ENDBRANCH   3   5
ENDBRANCH   2   3
ENDBRANCH   1   2
BRANCH   1  29
ATOM     29  C   UNL A   1      31.819  31.143  26.513  1.00  0.00     0.275 C 
BRANCH  29  30
ATOM     30  O   UNL A   1      33.123  30.849  27.049  1.00  0.00    -0.458 OA
BRANCH  30  31
ATOM     31  C   UNL A   1      33.791  31.920  27.540  1.00  0.00     0.338 C 
ATOM     32  O   UNL A   1      33.356  33.050  27.684  1.00  0.00    -0.246 OA
BRANCH  31  33
ATOM     33  C   UNL A   1      35.107  31.505  28.045  1.00  0.00     0.060 A 
ATOM     34  C   UNL A   1      35.249  30.184  28.475  1.00  0.00     0.016 A 
ATOM     35  C   UNL A   1      36.158  32.412  28.185  1.00  0.00     0.016 A 
ATOM     36  C   UNL A   1      36.438  29.756  29.054  1.00  0.00     0.010 A 
ATOM     37  C   UNL A   1      37.354  31.982  28.770  1.00  0.00     0.010 A 
ATOM     38  C   UNL A   1      37.496  30.656  29.217  1.00  0.00    -0.014 A 
BRANCH  38  39
ATOM     39  C   UNL A   1      38.722  30.213  29.923  1.00  0.00     0.031 A 
ATOM     40  C   UNL A   1      39.636  29.222  29.262  1.00  0.00     0.074 A 
ATOM     41  C   UNL A   1      39.028  30.733  31.125  1.00  0.00     0.049 A 
ATOM     42  N   UNL A   1      40.702  28.633  29.737  1.00  0.00    -0.248 NA
ATOM     43  C   UNL A   1      39.301  28.842  27.881  1.00  0.00     0.031 C 
ATOM     44  C   UNL A   1      38.249  31.756  31.824  1.00  0.00     0.029 A 
ATOM     45  N   UNL A   1      40.076  30.474  31.972  1.00  0.00    -0.354 N 
ATOM     46  C   UNL A   1      41.157  27.796  28.724  1.00  0.00     0.074 A 
ATOM     47  C   UNL A   1      40.235  27.941  27.616  1.00  0.00     0.031 C 
ATOM     48  C   UNL A   1      38.845  32.036  32.995  1.00  0.00     0.029 A 
ATOM     49  C   UNL A   1      40.012  31.173  33.154  1.00  0.00     0.049 A 
ATOM     50  H   UNL A   1      40.803  29.848  31.754  1.00  0.00     0.167 HD
ATOM     51  C   UNL A   1      42.244  26.984  28.724  1.00  0.00     0.034 A 
ATOM     52  C   UNL A   1      40.785  31.097  34.256  1.00  0.00     0.034 A 
ATOM     53  C   UNL A   1      43.149  26.861  29.841  1.00  0.00     0.049 A 
ATOM     54  C   UNL A   1      41.940  30.128  34.262  1.00  0.00     0.074 A 
ATOM     55  C   UNL A   1      44.277  26.066  29.956  1.00  0.00     0.029 A 
ATOM     56  N   UNL A   1      43.028  27.550  31.042  1.00  0.00    -0.354 N 
ATOM     57  N   UNL A   1      42.339  29.311  33.312  1.00  0.00    -0.248 NA
ATOM     58  C   UNL A   1      42.748  30.069  35.486  1.00  0.00     0.031 C 
ATOM     59  C   UNL A   1      44.801  26.229  31.243  1.00  0.00     0.029 A 
ATOM     60  C   UNL A   1      44.043  27.178  31.911  1.00  0.00     0.049 A 
ATOM     61  H   UNL A   1      42.323  28.206  31.247  1.00  0.00     0.167 HD
ATOM     62  C   UNL A   1      43.458  28.660  33.820  1.00  0.00     0.074 A 
ATOM     63  C   UNL A   1      43.680  29.189  35.150  1.00  0.00     0.031 C 
ATOM     64  C   UNL A   1      44.238  27.710  33.239  1.00  0.00     0.034 A 
BRANCH  51  65
ATOM     65  C   UNL A   1      42.464  26.124  27.504  1.00  0.00     0.023 A 
ATOM     66  C   UNL A   1      41.957  24.817  27.412  1.00  0.00     0.031 A 
ATOM     67  C   UNL A   1      43.227  26.612  26.428  1.00  0.00     0.131 A 
ATOM     68  C   UNL A   1      42.273  24.020  26.300  1.00  0.00     0.055 A 
ATOM     69  C   UNL A   1      43.475  25.840  25.291  1.00  0.00     0.041 A 
ATOM     70  F   UNL A   1      43.758  27.844  26.470  1.00  0.00    -0.206 F 
ATOM     71  C   UNL A   1      43.008  24.531  25.228  1.00  0.00     0.022 A 
BRANCH  68  72
ATOM     72  S   UNL A   1      41.822  22.263  26.333  1.00  0.00     0.124 S 
ATOM     73  O   UNL A   1      42.564  21.746  25.186  1.00  0.00    -0.237 OA
ATOM     74  O   UNL A   1      42.295  21.840  27.646  1.00  0.00    -0.237 OA
ATOM     75  O   UNL A   1      40.370  22.278  26.169  1.00  0.00    -0.744 OA
ENDBRANCH  68  72
ENDBRANCH  51  65
BRANCH  52  76
ATOM     76  C   UNL A   1      40.461  31.908  35.463  1.00  0.00     0.023 A 
ATOM     77  C   UNL A   1      39.391  31.569  36.305  1.00  0.00     0.031 A 
ATOM     78  C   UNL A   1      41.195  33.070  35.765  1.00  0.00     0.131 A 
ATOM     79  C   UNL A   1      39.057  32.404  37.383  1.00  0.00     0.055 A 
ATOM     80  C   UNL A   1      40.894  33.868  36.870  1.00  0.00     0.041 A 
ATOM     81  F   UNL A   1      42.226  33.444  34.991  1.00  0.00    -0.206 F 
ATOM     82  C   UNL A   1      39.810  33.543  37.679  1.00  0.00     0.022 A 
BRANCH  79  83
ATOM     83  S   UNL A   1      37.566  32.030  38.345  1.00  0.00     0.124 S 
ATOM     84  O   UNL A   1      37.315  30.641  37.978  1.00  0.00    -0.237 OA
ATOM     85  O   UNL A   1      38.022  32.260  39.712  1.00  0.00    -0.237 OA
ATOM     86  O   UNL A   1      36.588  32.994  37.846  1.00  0.00    -0.744 OA
ENDBRANCH  79  83
ENDBRANCH  52  76
BRANCH  64  87
ATOM     87  C   UNL A   1      45.424  27.227  34.034  1.00  0.00     0.023 A 
ATOM     88  C   UNL A   1      46.683  27.842  33.931  1.00  0.00     0.031 A 
ATOM     89  C   UNL A   1      45.293  26.120  34.892  1.00  0.00     0.131 A 
ATOM     90  C   UNL A   1      47.777  27.315  34.635  1.00  0.00     0.055 A 
ATOM     91  C   UNL A   1      46.372  25.634  35.631  1.00  0.00     0.041 A 
ATOM     92  F   UNL A   1      44.113  25.496  35.026  1.00  0.00    -0.206 F 
ATOM     93  C   UNL A   1      47.625  26.224  35.494  1.00  0.00     0.022 A 
BRANCH  90  94
ATOM     94  S   UNL A   1      49.421  28.023  34.347  1.00  0.00     0.124 S 
ATOM     95  O   UNL A   1      50.005  27.067  33.412  1.00  0.00    -0.237 OA
ATOM     96  O   UNL A   1      49.105  29.338  33.800  1.00  0.00    -0.237 OA
ATOM     97  O   UNL A   1      50.027  28.036  35.678  1.00  0.00    -0.744 OA
ENDBRANCH  90  94
ENDBRANCH  64  87
ENDBRANCH  38  39
ENDBRANCH  31  33
ENDBRANCH  30  31
ENDBRANCH  29  30
ENDBRANCH   1  29
TORSDOF 18
ENDMDL
MODEL 2
REMARK VINA RESULT:     -12.0      4.665      7.928
REMARK SMILES C[C@@H]1CN(S(=O)(=O)c2cccc(C(=O)N3CCC[C@@H]3C(=O)OCCOC(=O)c3ccc(-c4c5nc(c(-c6cc(S(=O)(=O)[O-])ccc6F)c6ccc([nH]6)c(-c6cc(S(=O)(=O)[O-])ccc6F)c6nc(c(-c7cc(S(=O)(=O)[O-])ccc7F)c7ccc4[nH]7)C=C6)C=C5)cc3)c2)C[C@H](C)O1
REMARK SMILES IDX 23 1 22 2 20 3 21 4 19 5 15 6 16 7 17 8 18 9 13 10 14 11
REMARK SMILES IDX 12 12 8 13 9 14 91 15 10 16 11 17 5 18 6 19 7 20 4 21 1 22
REMARK SMILES IDX 2 23 3 24 95 25 93 26 92 27 94 28 24 29 25 30 26 31 27 32
REMARK SMILES IDX 28 33 29 34 90 35 30 36 89 37 31 38 32 39 33 40 83 41 34 42
REMARK SMILES IDX 88 43 82 44 84 45 35 46 87 47 81 48 80 49 36 51 68 52 48 53
REMARK SMILES IDX 67 54 49 55 52 56 66 57 85 58 50 59 51 60 65 62 86 63 53 64
REMARK SMILES IDX 37 65 38 66 46 67 39 68 45 69 47 70 44 71 40 72 41 73 42 74
REMARK SMILES IDX 43 75 69 76 70 77 78 78 71 79 77 80 79 81 76 82 72 83 73 84
REMARK SMILES IDX 74 85 75 86 54 87 55 88 63 89 56 90 62 91 64 92 61 93 57 94
REMARK SMILES IDX 58 95 59 96 60 97
REMARK H PARENT 84 50 52 61
REMARK Flexibility Score: inf
ROOT
ATOM      1  C   UNL A   1      37.810  20.747  24.925  1.00  0.00     0.274 C 
ENDROOT
BRANCH   1   2
ATOM      2  O   UNL A   1      36.710  20.968  25.833  1.00  0.00    -0.461 OA
BRANCH   2   3
ATOM      3  C   UNL A   1      35.480  20.618  25.369  1.00  0.00     0.328 C 
ATOM      4  O   UNL A   1      35.287  19.663  24.623  1.00  0.00    -0.250 OA
BRANCH   3   5
ATOM      5  C   UNL A   1      34.360  21.583  25.792  1.00  0.00     0.195 C 
ATOM      6  N   UNL A   1      34.833  22.947  25.995  1.00  0.00    -0.325 N 
ATOM      7  C   UNL A   1      33.899  23.618  26.875  1.00  0.00     0.121 C 
ATOM      8  C   UNL A   1      33.600  22.546  27.901  1.00  0.00     0.024 C 
ATOM      9  C   UNL A   1      33.584  21.254  27.080  1.00  0.00     0.039 C 
BRANCH   6  10
ATOM     10  C   UNL A   1      35.408  23.632  24.938  1.00  0.00     0.254 C 
ATOM     11  O   UNL A   1      36.563  24.028  24.920  1.00  0.00    -0.269 OA
BRANCH  10  12
ATOM     12  C   UNL A   1      34.419  24.032  23.895  1.00  0.00     0.041 A 
ATOM     13  C   UNL A   1      33.228  25.798  22.743  1.00  0.00     0.083 A 
ATOM     14  C   UNL A   1      32.840  24.901  21.748  1.00  0.00     0.022 A 
ATOM     15  C   UNL A   1      33.964  25.351  23.835  1.00  0.00     0.035 A 
ATOM     16  C   UNL A   1      33.236  23.560  21.839  1.00  0.00     0.002 A 
ATOM     17  C   UNL A   1      34.036  23.128  22.903  1.00  0.00     0.014 A 
BRANCH  13  18
ATOM     18  S   UNL A   1      32.687  27.484  22.743  1.00  0.00     0.243 S 
ATOM     19  O   UNL A   1      31.310  27.495  22.291  1.00  0.00    -0.207 OA
ATOM     20  O   UNL A   1      33.691  28.270  22.055  1.00  0.00    -0.207 OA
BRANCH  18  21
ATOM     21  N   UNL A   1      32.686  28.002  24.397  1.00  0.00    -0.193 NA
ATOM     22  C   UNL A   1      31.583  27.829  27.505  1.00  0.00     0.040 C 
ATOM     23  C   UNL A   1      31.417  28.885  26.417  1.00  0.00     0.130 C 
ATOM     24  C   UNL A   1      31.334  28.299  24.990  1.00  0.00     0.134 C 
ATOM     25  O   UNL A   1      32.372  29.942  26.561  1.00  0.00    -0.373 OA
ATOM     26  C   UNL A   1      33.655  29.698  25.977  1.00  0.00     0.130 C 
ATOM     27  C   UNL A   1      33.543  29.237  24.522  1.00  0.00     0.134 C 
ATOM     28  C   UNL A   1      34.528  28.784  26.829  1.00  0.00     0.040 C 
ENDBRANCH  18  21
ENDBRANCH  13  18
ENDBRANCH  10  12
ENDBRANCH   6  10
ENDBRANCH   3   5
ENDBRANCH   2   3
ENDBRANCH   1   2
BRANCH   1  29
ATOM     29  C   UNL A   1      38.869  19.842  25.560  1.00  0.00     0.275 C 
BRANCH  29  30
ATOM     30  O   UNL A   1      40.111  20.540  25.770  1.00  0.00    -0.458 OA
BRANCH  30  31
ATOM     31  C   UNL A   1      40.521  20.595  27.059  1.00  0.00     0.338 C 
ATOM     32  O   UNL A   1      40.751  19.649  27.795  1.00  0.00    -0.246 OA
BRANCH  31  33
ATOM     33  C   UNL A   1      40.822  21.984  27.435  1.00  0.00     0.060 A 
ATOM     34  C   UNL A   1      40.186  23.000  26.719  1.00  0.00     0.016 A 
ATOM     35  C   UNL A   1      41.776  22.290  28.405  1.00  0.00     0.016 A 
ATOM     36  C   UNL A   1      40.501  24.332  26.959  1.00  0.00     0.010 A 
ATOM     37  C   UNL A   1      42.095  23.632  28.646  1.00  0.00     0.010 A 
ATOM     38  C   UNL A   1      41.468  24.658  27.916  1.00  0.00    -0.014 A 
BRANCH  38  39
ATOM     39  C   UNL A   1      41.862  26.075  28.094  1.00  0.00     0.031 A 
ATOM     40  C   UNL A   1      43.199  26.538  27.590  1.00  0.00     0.074 A 
ATOM     41  C   UNL A   1      41.006  26.944  28.663  1.00  0.00     0.049 A 
ATOM     42  N   UNL A   1      43.778  27.703  27.724  1.00  0.00    -0.248 NA
ATOM     43  C   UNL A   1      43.990  25.554  26.835  1.00  0.00     0.031 C 
ATOM     44  C   UNL A   1      39.655  26.616  29.121  1.00  0.00     0.029 A 
ATOM     45  N   UNL A   1      41.144  28.277  28.951  1.00  0.00    -0.354 N 
ATOM     46  C   UNL A   1      45.010  27.589  27.090  1.00  0.00     0.074 A 
ATOM     47  C   UNL A   1      45.100  26.233  26.590  1.00  0.00     0.031 C 
ATOM     48  C   UNL A   1      39.089  27.721  29.635  1.00  0.00     0.029 A 
ATOM     49  C   UNL A   1      40.055  28.814  29.597  1.00  0.00     0.049 A 
ATOM     50  H   UNL A   1      41.945  28.799  28.719  1.00  0.00     0.167 HD
ATOM     51  C   UNL A   1      45.973  28.533  26.943  1.00  0.00     0.034 A 
ATOM     52  C   UNL A   1      39.873  30.038  30.132  1.00  0.00     0.034 A 
ATOM     53  C   UNL A   1      45.857  29.879  27.449  1.00  0.00     0.049 A 
ATOM     54  C   UNL A   1      40.991  31.046  30.025  1.00  0.00     0.074 A 
ATOM     55  C   UNL A   1      46.770  30.917  27.364  1.00  0.00     0.029 A 
ATOM     56  N   UNL A   1      44.758  30.377  28.139  1.00  0.00    -0.354 N 
ATOM     57  N   UNL A   1      42.169  30.916  29.457  1.00  0.00    -0.248 NA
ATOM     58  C   UNL A   1      40.754  32.362  30.631  1.00  0.00     0.031 C 
ATOM     59  C   UNL A   1      46.250  32.018  28.053  1.00  0.00     0.029 A 
ATOM     60  C   UNL A   1      44.982  31.695  28.509  1.00  0.00     0.049 A 
ATOM     61  H   UNL A   1      43.939  29.867  28.338  1.00  0.00     0.167 HD
ATOM     62  C   UNL A   1      42.803  32.143  29.620  1.00  0.00     0.074 A 
ATOM     63  C   UNL A   1      41.872  33.003  30.323  1.00  0.00     0.031 C 
ATOM     64  C   UNL A   1      44.043  32.530  29.222  1.00  0.00     0.034 A 
BRANCH  51  65
ATOM     65  C   UNL A   1      47.255  28.113  26.266  1.00  0.00     0.023 A 
ATOM     66  C   UNL A   1      47.415  28.170  24.871  1.00  0.00     0.031 A 
ATOM     67  C   UNL A   1      48.324  27.613  27.032  1.00  0.00     0.131 A 
ATOM     68  C   UNL A   1      48.588  27.674  24.281  1.00  0.00     0.055 A 
ATOM     69  C   UNL A   1      49.518  27.191  26.444  1.00  0.00     0.041 A 
ATOM     70  F   UNL A   1      48.219  27.513  28.367  1.00  0.00    -0.206 F 
ATOM     71  C   UNL A   1      49.650  27.207  25.059  1.00  0.00     0.022 A 
BRANCH  68  72
ATOM     72  S   UNL A   1      48.656  27.523  22.474  1.00  0.00     0.124 S 
ATOM     73  O   UNL A   1      49.901  28.221  22.165  1.00  0.00    -0.237 OA
ATOM     74  O   UNL A   1      48.665  26.079  22.277  1.00  0.00    -0.237 OA
ATOM     75  O   UNL A   1      47.443  28.205  22.027  1.00  0.00    -0.744 OA
ENDBRANCH  68  72
ENDBRANCH  51  65
BRANCH  52  76
ATOM     76  C   UNL A   1      38.619  30.363  30.867  1.00  0.00     0.023 A 
ATOM     77  C   UNL A   1      37.569  31.059  30.248  1.00  0.00     0.031 A 
ATOM     78  C   UNL A   1      38.472  30.018  32.223  1.00  0.00     0.131 A 
ATOM     79  C   UNL A   1      36.438  31.427  30.994  1.00  0.00     0.055 A 
ATOM     80  C   UNL A   1      37.322  30.338  32.947  1.00  0.00     0.041 A 
ATOM     81  F   UNL A   1      39.446  29.355  32.866  1.00  0.00    -0.206 F 
ATOM     82  C   UNL A   1      36.302  31.059  32.335  1.00  0.00     0.022 A 
BRANCH  79  83
ATOM     83  S   UNL A   1      35.181  32.474  30.211  1.00  0.00     0.124 S 
ATOM     84  O   UNL A   1      34.232  32.666  31.301  1.00  0.00    -0.237 OA
ATOM     85  O   UNL A   1      35.961  33.646  29.825  1.00  0.00    -0.237 OA
ATOM     86  O   UNL A   1      34.701  31.656  29.100  1.00  0.00    -0.744 OA
ENDBRANCH  79  83
ENDBRANCH  52  76
BRANCH  64  87
ATOM     87  C   UNL A   1      44.433  33.958  29.504  1.00  0.00     0.023 A 
ATOM     88  C   UNL A   1      44.164  34.992  28.591  1.00  0.00     0.031 A 
ATOM     89  C   UNL A   1      45.100  34.284  30.699  1.00  0.00     0.131 A 
ATOM     90  C   UNL A   1      44.607  36.296  28.862  1.00  0.00     0.055 A 
ATOM     91  C   UNL A   1      45.490  35.592  30.988  1.00  0.00     0.041 A 
ATOM     92  F   UNL A   1      45.381  33.334  31.604  1.00  0.00    -0.206 F 
ATOM     93  C   UNL A   1      45.256  36.603  30.061  1.00  0.00     0.022 A 
BRANCH  90  94
ATOM     94  S   UNL A   1      44.400  37.570  27.588  1.00  0.00     0.124 S 
ATOM     95  O   UNL A   1      45.564  37.343  26.738  1.00  0.00    -0.237 OA
ATOM     96  O   UNL A   1      43.108  37.222  27.005  1.00  0.00    -0.237 OA
ATOM     97  O   UNL A   1      44.420  38.819  28.347  1.00  0.00    -0.744 OA
ENDBRANCH  90  94
ENDBRANCH  64  87
ENDBRANCH  38  39
ENDBRANCH  31  33
ENDBRANCH  30  31
ENDBRANCH  29  30
ENDBRANCH   1  29
TORSDOF 18
ENDMDL
MODEL 3
REMARK VINA RESULT:     -11.9      1.844      2.633
REMARK SMILES C[C@@H]1CN(S(=O)(=O)c2cccc(C(=O)N3CCC[C@@H]3C(=O)OCCOC(=O)c3ccc(-c4c5nc(c(-c6cc(S(=O)(=O)[O-])ccc6F)c6ccc([nH]6)c(-c6cc(S(=O)(=O)[O-])ccc6F)c6nc(c(-c7cc(S(=O)(=O)[O-])ccc7F)c7ccc4[nH]7)C=C6)C=C5)cc3)c2)C[C@H](C)O1
REMARK SMILES IDX 23 1 22 2 20 3 21 4 19 5 15 6 16 7 17 8 18 9 13 10 14 11
REMARK SMILES IDX 12 12 8 13 9 14 91 15 10 16 11 17 5 18 6 19 7 20 4 21 1 22
REMARK SMILES IDX 2 23 3 24 95 25 93 26 92 27 94 28 24 29 25 30 26 31 27 32
REMARK SMILES IDX 28 33 29 34 90 35 30 36 89 37 31 38 32 39 33 40 83 41 34 42
REMARK SMILES IDX 88 43 82 44 84 45 35 46 87 47 81 48 80 49 36 51 68 52 48 53
REMARK SMILES IDX 67 54 49 55 52 56 66 57 85 58 50 59 51 60 65 62 86 63 53 64
REMARK SMILES IDX 37 65 38 66 46 67 39 68 45 69 47 70 44 71 40 72 41 73 42 74
REMARK SMILES IDX 43 75 69 76 70 77 78 78 71 79 77 80 79 81 76 82 72 83 73 84
REMARK SMILES IDX 74 85 75 86 54 87 55 88 63 89 56 90 62 91 64 92 61 93 57 94
REMARK SMILES IDX 58 95 59 96 60 97
REMARK H PARENT 84 50 52 61
REMARK Flexibility Score: inf
ROOT
ATOM      1  C   UNL A   1      31.946  29.276  27.240  1.00  0.00     0.274 C 
ENDROOT
BRANCH   1   2
ATOM      2  O   UNL A   1      32.983  28.509  26.592  1.00  0.00    -0.461 OA
BRANCH   2   3
ATOM      3  C   UNL A   1      32.741  28.160  25.300  1.00  0.00     0.328 C 
ATOM      4  O   UNL A   1      33.596  28.193  24.420  1.00  0.00    -0.250 OA
BRANCH   3   5
ATOM      5  C   UNL A   1      31.271  27.807  25.018  1.00  0.00     0.195 C 
ATOM      6  N   UNL A   1      31.094  26.429  24.574  1.00  0.00    -0.325 N 
ATOM      7  C   UNL A   1      29.848  26.353  23.841  1.00  0.00     0.121 C 
ATOM      8  C   UNL A   1      29.879  27.626  23.022  1.00  0.00     0.024 C 
ATOM      9  C   UNL A   1      30.526  28.646  23.965  1.00  0.00     0.039 C 
BRANCH   6  10
ATOM     10  C   UNL A   1      31.477  25.392  25.406  1.00  0.00     0.254 C 
ATOM     11  O   UNL A   1      31.095  25.256  26.558  1.00  0.00    -0.269 OA
BRANCH  10  12
ATOM     12  C   UNL A   1      32.575  24.560  24.834  1.00  0.00     0.041 A 
ATOM     13  C   UNL A   1      33.898  22.534  24.926  1.00  0.00     0.083 A 
ATOM     14  C   UNL A   1      34.382  22.780  23.641  1.00  0.00     0.022 A 
ATOM     15  C   UNL A   1      33.045  23.448  25.535  1.00  0.00     0.035 A 
ATOM     16  C   UNL A   1      33.968  23.931  22.959  1.00  0.00     0.002 A 
ATOM     17  C   UNL A   1      33.054  24.814  23.548  1.00  0.00     0.014 A 
BRANCH  13  18
ATOM     18  S   UNL A   1      34.450  21.149  25.883  1.00  0.00     0.243 S 
ATOM     19  O   UNL A   1      33.834  21.256  27.190  1.00  0.00    -0.207 OA
ATOM     20  O   UNL A   1      35.892  21.072  25.756  1.00  0.00    -0.207 OA
BRANCH  18  21
ATOM     21  N   UNL A   1      33.800  19.734  25.124  1.00  0.00    -0.193 NA
ATOM     22  C   UNL A   1      32.893  18.015  22.454  1.00  0.00     0.040 C 
ATOM     23  C   UNL A   1      32.088  18.669  23.572  1.00  0.00     0.130 C 
ATOM     24  C   UNL A   1      32.717  19.976  24.106  1.00  0.00     0.134 C 
ATOM     25  O   UNL A   1      31.743  17.727  24.592  1.00  0.00    -0.373 OA
ATOM     26  C   UNL A   1      32.743  17.503  25.590  1.00  0.00     0.130 C 
ATOM     27  C   UNL A   1      33.256  18.814  26.189  1.00  0.00     0.134 C 
ATOM     28  C   UNL A   1      33.861  16.586  25.112  1.00  0.00     0.040 C 
ENDBRANCH  18  21
ENDBRANCH  13  18
ENDBRANCH  10  12
ENDBRANCH   6  10
ENDBRANCH   3   5
ENDBRANCH   2   3
ENDBRANCH   1   2
BRANCH   1  29
ATOM     29  C   UNL A   1      32.028  30.752  26.842  1.00  0.00     0.275 C 
BRANCH  29  30
ATOM     30  O   UNL A   1      33.388  31.172  26.626  1.00  0.00    -0.458 OA
BRANCH  30  31
ATOM     31  C   UNL A   1      33.859  32.062  27.532  1.00  0.00     0.338 C 
ATOM     32  O   UNL A   1      33.269  33.032  27.980  1.00  0.00    -0.246 OA
BRANCH  31  33
ATOM     33  C   UNL A   1      35.158  31.613  28.051  1.00  0.00     0.060 A 
ATOM     34  C   UNL A   1      35.226  30.336  28.612  1.00  0.00     0.016 A 
ATOM     35  C   UNL A   1      36.269  32.457  28.076  1.00  0.00     0.016 A 
ATOM     36  C   UNL A   1      36.399  29.890  29.208  1.00  0.00     0.010 A 
ATOM     37  C   UNL A   1      37.450  32.009  28.677  1.00  0.00     0.010 A 
ATOM     38  C   UNL A   1      37.518  30.729  29.257  1.00  0.00    -0.014 A 
BRANCH  38  39
ATOM     39  C   UNL A   1      38.730  30.278  29.979  1.00  0.00     0.031 A 
ATOM     40  C   UNL A   1      39.639  29.269  29.339  1.00  0.00     0.074 A 
ATOM     41  C   UNL A   1      39.031  30.807  31.180  1.00  0.00     0.049 A 
ATOM     42  N   UNL A   1      40.694  28.673  29.831  1.00  0.00    -0.248 NA
ATOM     43  C   UNL A   1      39.314  28.879  27.958  1.00  0.00     0.031 C 
ATOM     44  C   UNL A   1      38.257  31.847  31.859  1.00  0.00     0.029 A 
ATOM     45  N   UNL A   1      40.067  30.544  32.040  1.00  0.00    -0.354 N 
ATOM     46  C   UNL A   1      41.148  27.820  28.831  1.00  0.00     0.074 A 
ATOM     47  C   UNL A   1      40.240  27.964  27.713  1.00  0.00     0.031 C 
ATOM     48  C   UNL A   1      38.845  32.132  33.033  1.00  0.00     0.029 A 
ATOM     49  C   UNL A   1      39.999  31.256  33.214  1.00  0.00     0.049 A 
ATOM     50  H   UNL A   1      40.788  29.907  31.836  1.00  0.00     0.167 HD
ATOM     51  C   UNL A   1      42.225  26.995  28.851  1.00  0.00     0.034 A 
ATOM     52  C   UNL A   1      40.759  31.182  34.325  1.00  0.00     0.034 A 
ATOM     53  C   UNL A   1      43.117  26.872  29.979  1.00  0.00     0.049 A 
ATOM     54  C   UNL A   1      41.902  30.199  34.352  1.00  0.00     0.074 A 
ATOM     55  C   UNL A   1      44.234  26.065  30.114  1.00  0.00     0.029 A 
ATOM     56  N   UNL A   1      42.992  27.575  31.172  1.00  0.00    -0.354 N 
ATOM     57  N   UNL A   1      42.301  29.368  33.416  1.00  0.00    -0.248 NA
ATOM     58  C   UNL A   1      42.697  30.144  35.586  1.00  0.00     0.031 C 
ATOM     59  C   UNL A   1      44.746  26.235  31.405  1.00  0.00     0.029 A 
ATOM     60  C   UNL A   1      43.994  27.200  32.055  1.00  0.00     0.049 A 
ATOM     61  H   UNL A   1      42.293  28.242  31.362  1.00  0.00     0.167 HD
ATOM     62  C   UNL A   1      43.407  28.708  33.942  1.00  0.00     0.074 A 
ATOM     63  C   UNL A   1      43.622  29.249  35.269  1.00  0.00     0.031 C 
ATOM     64  C   UNL A   1      44.181  27.744  33.379  1.00  0.00     0.034 A 
BRANCH  51  65
ATOM     65  C   UNL A   1      42.447  26.119  27.643  1.00  0.00     0.023 A 
ATOM     66  C   UNL A   1      41.929  24.815  27.561  1.00  0.00     0.031 A 
ATOM     67  C   UNL A   1      43.224  26.588  26.567  1.00  0.00     0.131 A 
ATOM     68  C   UNL A   1      42.247  24.004  26.460  1.00  0.00     0.055 A 
ATOM     69  C   UNL A   1      43.473  25.802  25.441  1.00  0.00     0.041 A 
ATOM     70  F   UNL A   1      43.765  27.816  26.600  1.00  0.00    -0.206 F 
ATOM     71  C   UNL A   1      42.996  24.496  25.389  1.00  0.00     0.022 A 
BRANCH  68  72
ATOM     72  S   UNL A   1      41.780  22.251  26.509  1.00  0.00     0.124 S 
ATOM     73  O   UNL A   1      42.435  21.805  27.736  1.00  0.00    -0.237 OA
ATOM     74  O   UNL A   1      40.324  22.312  26.545  1.00  0.00    -0.237 OA
ATOM     75  O   UNL A   1      42.350  21.710  25.276  1.00  0.00    -0.744 OA
ENDBRANCH  68  72
ENDBRANCH  51  65
BRANCH  52  76
ATOM     76  C   UNL A   1      40.433  32.010  35.520  1.00  0.00     0.023 A 
ATOM     77  C   UNL A   1      39.334  31.709  36.339  1.00  0.00     0.031 A 
ATOM     78  C   UNL A   1      41.195  33.151  35.833  1.00  0.00     0.131 A 
ATOM     79  C   UNL A   1      39.002  32.560  37.404  1.00  0.00     0.055 A 
ATOM     80  C   UNL A   1      40.893  33.964  36.926  1.00  0.00     0.041 A 
ATOM     81  F   UNL A   1      42.254  33.488  35.081  1.00  0.00    -0.206 F 
ATOM     82  C   UNL A   1      39.782  33.677  37.712  1.00  0.00     0.022 A 
BRANCH  79  83
ATOM     83  S   UNL A   1      37.478  32.236  38.334  1.00  0.00     0.124 S 
ATOM     84  O   UNL A   1      36.516  33.080  37.633  1.00  0.00    -0.237 OA
ATOM     85  O   UNL A   1      37.316  30.797  38.159  1.00  0.00    -0.237 OA
ATOM     86  O   UNL A   1      37.810  32.663  39.691  1.00  0.00    -0.744 OA
ENDBRANCH  79  83
ENDBRANCH  52  76
BRANCH  64  87
ATOM     87  C   UNL A   1      45.352  27.254  34.192  1.00  0.00     0.023 A 
ATOM     88  C   UNL A   1      45.245  26.148  35.051  1.00  0.00     0.031 A 
ATOM     89  C   UNL A   1      46.590  27.919  34.116  1.00  0.00     0.131 A 
ATOM     90  C   UNL A   1      46.341  25.770  35.842  1.00  0.00     0.055 A 
ATOM     91  C   UNL A   1      47.692  27.505  34.864  1.00  0.00     0.041 A 
ATOM     92  F   UNL A   1      46.745  28.982  33.311  1.00  0.00    -0.206 F 
ATOM     93  C   UNL A   1      47.566  26.433  35.743  1.00  0.00     0.022 A 
BRANCH  90  94
ATOM     94  S   UNL A   1      46.118  24.450  37.066  1.00  0.00     0.124 S 
ATOM     95  O   UNL A   1      46.862  24.968  38.210  1.00  0.00    -0.237 OA
ATOM     96  O   UNL A   1      44.668  24.405  37.218  1.00  0.00    -0.237 OA
ATOM     97  O   UNL A   1      46.710  23.280  36.421  1.00  0.00    -0.744 OA
ENDBRANCH  90  94
ENDBRANCH  64  87
ENDBRANCH  38  39
ENDBRANCH  31  33
ENDBRANCH  30  31
ENDBRANCH  29  30
ENDBRANCH   1  29
TORSDOF 18
ENDMDL
