MODEL 1
REMARK VINA RESULT:     -12.0      0.000      0.000
REMARK SMILES CC[NH+]1CCC2(CC1)OC[C@H](C(=O)OCCOC(=O)c1ccc(-c3c4nc(c(-c5cc(S(=O)(=O)[O-])ccc5F)c5ccc([nH]5)c(-c5cc(S(=O)(=O)[O-])ccc5F)c5nc(c(-c6cc(S(=O)(=O)[O-])ccc6F)c6ccc3[nH]6)C=C5)C=C4)cc1)N2C(=O)c1ccccc1
REMARK SMILES IDX 16 1 15 2 14 3 12 4 13 5 11 6 3 7 4 8 8 9 5 11 7 12 6 13
REMARK SMILES IDX 9 14 83 15 10 16 2 17 1 18 84 19 85 20 86 21 87 22 91 23
REMARK SMILES IDX 88 24 90 25 89 26 17 27 18 28 19 29 20 30 21 31 82 32 22 33
REMARK SMILES IDX 81 34 23 35 24 36 25 37 75 38 26 39 80 40 74 41 76 42 27 43
REMARK SMILES IDX 79 44 73 45 72 46 28 48 60 49 40 50 59 51 41 52 44 53 58 54
REMARK SMILES IDX 77 55 42 56 43 57 57 59 78 60 45 61 29 62 30 63 38 64 31 65
REMARK SMILES IDX 37 66 39 67 36 68 32 69 33 70 34 71 35 72 61 73 62 74 70 75
REMARK SMILES IDX 63 76 69 77 71 78 68 79 64 80 65 81 66 82 67 83 46 84 47 85
REMARK SMILES IDX 55 86 48 87 54 88 56 89 53 90 49 91 50 92 51 93 52 94
REMARK H PARENT 3 10 76 47 44 58
REMARK Flexibility Score: inf
ROOT
ATOM      1  C   UNL A   1      31.442  32.500  26.905  1.00  0.00     0.275 C 
ENDROOT
BRANCH   1   2
ATOM      2  C   UNL A   1      31.304  31.192  26.119  1.00  0.00     0.274 C 
BRANCH   2   3
ATOM      3  O   UNL A   1      32.176  30.151  26.603  1.00  0.00    -0.460 OA
BRANCH   3   4
ATOM      4  C   UNL A   1      31.879  28.879  26.225  1.00  0.00     0.331 C 
ATOM      5  O   UNL A   1      31.384  28.048  26.980  1.00  0.00    -0.250 OA
BRANCH   4   6
ATOM      6  C   UNL A   1      32.112  28.617  24.729  1.00  0.00     0.224 C 
ATOM      7  N   UNL A   1      32.671  23.473  23.709  1.00  0.00    -0.335 N 
ATOM      8  C   UNL A   1      32.317  24.101  24.980  1.00  0.00     0.267 C 
ATOM      9  C   UNL A   1      32.581  24.379  22.570  1.00  0.00     0.267 C 
ATOM     10  H   UNL A   1      31.946  22.805  23.446  1.00  0.00     0.348 HD
ATOM     11  C   UNL A   1      33.071  25.390  25.224  1.00  0.00     0.120 C 
ATOM     12  C   UNL A   1      33.145  25.788  22.742  1.00  0.00     0.120 C 
ATOM     13  C   UNL A   1      32.886  26.426  24.109  1.00  0.00     0.155 C 
ATOM     14  O   UNL A   1      34.020  27.325  24.305  1.00  0.00    -0.352 OA
ATOM     15  N   UNL A   1      31.706  27.304  24.254  1.00  0.00    -0.293 N 
ATOM     16  C   UNL A   1      33.561  28.677  24.335  1.00  0.00     0.200 C 
BRANCH   7  17
ATOM     17  C   UNL A   1      33.836  22.600  23.840  1.00  0.00     0.258 C 
ATOM     18  C   UNL A   1      35.154  23.082  23.253  1.00  0.00     0.071 C 
ENDBRANCH   7  17
BRANCH  15  19
ATOM     19  C   UNL A   1      30.345  27.181  24.035  1.00  0.00     0.256 C 
ATOM     20  O   UNL A   1      29.673  26.292  24.558  1.00  0.00    -0.269 OA
BRANCH  19  21
ATOM     21  C   UNL A   1      29.588  28.132  23.229  1.00  0.00     0.040 A 
ATOM     22  C   UNL A   1      30.267  29.045  22.413  1.00  0.00     0.014 A 
ATOM     23  C   UNL A   1      28.209  28.239  23.420  1.00  0.00     0.014 A 
ATOM     24  C   UNL A   1      29.537  29.990  21.691  1.00  0.00     0.001 A 
ATOM     25  C   UNL A   1      27.481  29.165  22.675  1.00  0.00     0.001 A 
ATOM     26  C   UNL A   1      28.144  30.031  21.802  1.00  0.00     0.000 A 
ENDBRANCH  19  21
ENDBRANCH  15  19
ENDBRANCH   4   6
ENDBRANCH   3   4
ENDBRANCH   2   3
ENDBRANCH   1   2
BRANCH   1  27
ATOM     27  O   UNL A   1      32.746  33.084  26.733  1.00  0.00    -0.458 OA
BRANCH  27  28
ATOM     28  C   UNL A   1      33.214  33.765  27.804  1.00  0.00     0.338 C 
ATOM     29  O   UNL A   1      32.649  34.678  28.392  1.00  0.00    -0.246 OA
BRANCH  28  30
ATOM     30  C   UNL A   1      34.448  33.137  28.301  1.00  0.00     0.060 A 
ATOM     31  C   UNL A   1      34.336  31.898  28.938  1.00  0.00     0.016 A 
ATOM     32  C   UNL A   1      35.687  33.765  28.199  1.00  0.00     0.016 A 
ATOM     33  C   UNL A   1      35.450  31.276  29.479  1.00  0.00     0.010 A 
ATOM     34  C   UNL A   1      36.814  33.141  28.746  1.00  0.00     0.010 A 
ATOM     35  C   UNL A   1      36.696  31.898  29.395  1.00  0.00    -0.014 A 
BRANCH  35  36
ATOM     36  C   UNL A   1      37.843  31.254  30.068  1.00  0.00     0.031 A 
ATOM     37  C   UNL A   1      38.136  31.591  31.499  1.00  0.00     0.074 A 
ATOM     38  C   UNL A   1      38.549  30.310  29.419  1.00  0.00     0.049 A 
ATOM     39  N   UNL A   1      39.096  31.159  32.272  1.00  0.00    -0.248 NA
ATOM     40  C   UNL A   1      37.218  32.541  32.146  1.00  0.00     0.031 C 
ATOM     41  C   UNL A   1      38.290  29.856  28.050  1.00  0.00     0.029 A 
ATOM     42  N   UNL A   1      39.614  29.551  29.826  1.00  0.00    -0.354 N 
ATOM     43  C   UNL A   1      38.911  31.794  33.495  1.00  0.00     0.074 A 
ATOM     44  C   UNL A   1      37.760  32.661  33.348  1.00  0.00     0.031 C 
ATOM     45  C   UNL A   1      39.172  28.894  27.735  1.00  0.00     0.029 A 
ATOM     46  C   UNL A   1      40.085  28.697  28.857  1.00  0.00     0.049 A 
ATOM     47  H   UNL A   1      40.006  29.611  30.727  1.00  0.00     0.167 HD
ATOM     48  C   UNL A   1      39.637  31.660  34.632  1.00  0.00     0.034 A 
ATOM     49  C   UNL A   1      41.147  27.870  28.869  1.00  0.00     0.034 A 
ATOM     50  C   UNL A   1      40.787  30.794  34.746  1.00  0.00     0.049 A 
ATOM     51  C   UNL A   1      41.979  27.790  30.124  1.00  0.00     0.074 A 
ATOM     52  C   UNL A   1      41.620  30.599  35.833  1.00  0.00     0.029 A 
ATOM     53  N   UNL A   1      41.265  29.974  33.729  1.00  0.00    -0.354 N 
ATOM     54  N   UNL A   1      41.821  28.428  31.263  1.00  0.00    -0.248 NA
ATOM     55  C   UNL A   1      43.123  26.873  30.099  1.00  0.00     0.031 C 
ATOM     56  C   UNL A   1      42.633  29.709  35.457  1.00  0.00     0.029 A 
ATOM     57  C   UNL A   1      42.392  29.288  34.158  1.00  0.00     0.049 A 
ATOM     58  H   UNL A   1      40.863  29.892  32.835  1.00  0.00     0.167 HD
ATOM     59  C   UNL A   1      42.834  27.966  32.098  1.00  0.00     0.074 A 
ATOM     60  C   UNL A   1      43.579  26.981  31.337  1.00  0.00     0.031 C 
ATOM     61  C   UNL A   1      43.127  28.320  33.377  1.00  0.00     0.034 A 
BRANCH  48  62
ATOM     62  C   UNL A   1      39.244  32.526  35.804  1.00  0.00     0.023 A 
ATOM     63  C   UNL A   1      39.668  33.862  35.917  1.00  0.00     0.031 A 
ATOM     64  C   UNL A   1      38.477  31.988  36.853  1.00  0.00     0.131 A 
ATOM     65  C   UNL A   1      39.382  34.592  37.082  1.00  0.00     0.055 A 
ATOM     66  C   UNL A   1      38.131  32.743  37.975  1.00  0.00     0.041 A 
ATOM     67  F   UNL A   1      38.067  30.711  36.814  1.00  0.00    -0.206 F 
ATOM     68  C   UNL A   1      38.596  34.049  38.102  1.00  0.00     0.022 A 
BRANCH  65  69
ATOM     69  S   UNL A   1      40.170  36.210  37.311  1.00  0.00     0.124 S 
ATOM     70  O   UNL A   1      39.429  36.742  38.452  1.00  0.00    -0.237 OA
ATOM     71  O   UNL A   1      41.561  35.852  37.562  1.00  0.00    -0.237 OA
ATOM     72  O   UNL A   1      39.922  36.894  36.043  1.00  0.00    -0.744 OA
ENDBRANCH  65  69
ENDBRANCH  48  62
BRANCH  49  73
ATOM     73  C   UNL A   1      41.513  27.088  27.654  1.00  0.00     0.023 A 
ATOM     74  C   UNL A   1      41.298  25.702  27.586  1.00  0.00     0.031 A 
ATOM     75  C   UNL A   1      42.136  27.713  26.559  1.00  0.00     0.131 A 
ATOM     76  C   UNL A   1      41.743  24.979  26.468  1.00  0.00     0.055 A 
ATOM     77  C   UNL A   1      42.529  26.998  25.427  1.00  0.00     0.041 A 
ATOM     78  F   UNL A   1      42.369  29.035  26.572  1.00  0.00    -0.206 F 
ATOM     79  C   UNL A   1      42.346  25.620  25.382  1.00  0.00     0.022 A 
BRANCH  76  80
ATOM     80  S   UNL A   1      41.605  23.171  26.490  1.00  0.00     0.124 S 
ATOM     81  O   UNL A   1      40.170  22.980  26.317  1.00  0.00    -0.237 OA
ATOM     82  O   UNL A   1      42.444  22.789  25.359  1.00  0.00    -0.237 OA
ATOM     83  O   UNL A   1      42.129  22.806  27.804  1.00  0.00    -0.744 OA
ENDBRANCH  76  80
ENDBRANCH  49  73
BRANCH  61  84
ATOM     84  C   UNL A   1      44.276  27.593  34.031  1.00  0.00     0.023 A 
ATOM     85  C   UNL A   1      44.076  26.423  34.787  1.00  0.00     0.031 A 
ATOM     86  C   UNL A   1      45.581  28.104  33.933  1.00  0.00     0.131 A 
ATOM     87  C   UNL A   1      45.153  25.847  35.478  1.00  0.00     0.055 A 
ATOM     88  C   UNL A   1      46.660  27.489  34.570  1.00  0.00     0.041 A 
ATOM     89  F   UNL A   1      45.829  29.217  33.225  1.00  0.00    -0.206 F 
ATOM     90  C   UNL A   1      46.446  26.365  35.363  1.00  0.00     0.022 A 
BRANCH  87  91
ATOM     91  S   UNL A   1      44.818  24.486  36.629  1.00  0.00     0.124 S 
ATOM     92  O   UNL A   1      46.101  24.340  37.309  1.00  0.00    -0.237 OA
ATOM     93  O   UNL A   1      43.727  25.022  37.435  1.00  0.00    -0.237 OA
ATOM     94  O   UNL A   1      44.453  23.377  35.750  1.00  0.00    -0.744 OA
ENDBRANCH  87  91
ENDBRANCH  61  84
ENDBRANCH  35  36
ENDBRANCH  28  30
ENDBRANCH  27  28
ENDBRANCH   1  27
TORSDOF 17
ENDMDL
MODEL 2
REMARK VINA RESULT:     -12.0      4.990      7.940
REMARK SMILES CC[NH+]1CCC2(CC1)OC[C@H](C(=O)OCCOC(=O)c1ccc(-c3c4nc(c(-c5cc(S(=O)(=O)[O-])ccc5F)c5ccc([nH]5)c(-c5cc(S(=O)(=O)[O-])ccc5F)c5nc(c(-c6cc(S(=O)(=O)[O-])ccc6F)c6ccc3[nH]6)C=C5)C=C4)cc1)N2C(=O)c1ccccc1
REMARK SMILES IDX 16 1 15 2 14 3 12 4 13 5 11 6 3 7 4 8 8 9 5 11 7 12 6 13
REMARK SMILES IDX 9 14 83 15 10 16 2 17 1 18 84 19 85 20 86 21 87 22 91 23
REMARK SMILES IDX 88 24 90 25 89 26 17 27 18 28 19 29 20 30 21 31 82 32 22 33
REMARK SMILES IDX 81 34 23 35 24 36 25 37 75 38 26 39 80 40 74 41 76 42 27 43
REMARK SMILES IDX 79 44 73 45 72 46 28 48 60 49 40 50 59 51 41 52 44 53 58 54
REMARK SMILES IDX 77 55 42 56 43 57 57 59 78 60 45 61 29 62 30 63 38 64 31 65
REMARK SMILES IDX 37 66 39 67 36 68 32 69 33 70 34 71 35 72 61 73 62 74 70 75
REMARK SMILES IDX 63 76 69 77 71 78 68 79 64 80 65 81 66 82 67 83 46 84 47 85
REMARK SMILES IDX 55 86 48 87 54 88 56 89 53 90 49 91 50 92 51 93 52 94
REMARK H PARENT 3 10 76 47 44 58
REMARK Flexibility Score: inf
ROOT
ATOM      1  C   UNL A   1      35.781  20.750  25.054  1.00  0.00     0.275 C 
ENDROOT
BRANCH   1   2
ATOM      2  C   UNL A   1      34.310  21.117  25.276  1.00  0.00     0.274 C 
BRANCH   2   3
ATOM      3  O   UNL A   1      33.627  21.465  24.054  1.00  0.00    -0.460 OA
BRANCH   3   4
ATOM      4  C   UNL A   1      32.770  22.519  24.111  1.00  0.00     0.331 C 
ATOM      5  O   UNL A   1      31.598  22.419  24.460  1.00  0.00    -0.250 OA
BRANCH   4   6
ATOM      6  C   UNL A   1      33.442  23.868  23.810  1.00  0.00     0.224 C 
ATOM      7  N   UNL A   1      29.955  27.824  23.781  1.00  0.00    -0.335 N 
ATOM      8  C   UNL A   1      29.723  26.428  24.144  1.00  0.00     0.267 C 
ATOM      9  C   UNL A   1      31.368  28.172  23.689  1.00  0.00     0.267 C 
ATOM     10  H   UNL A   1      29.686  28.427  24.558  1.00  0.00     0.348 HD
ATOM     11  C   UNL A   1      30.485  25.462  23.265  1.00  0.00     0.120 C 
ATOM     12  C   UNL A   1      32.293  27.187  22.979  1.00  0.00     0.120 C 
ATOM     13  C   UNL A   1      31.998  25.709  23.254  1.00  0.00     0.155 C 
ATOM     14  O   UNL A   1      32.434  25.026  22.040  1.00  0.00    -0.352 OA
ATOM     15  N   UNL A   1      32.754  25.038  24.332  1.00  0.00    -0.293 N 
ATOM     16  C   UNL A   1      33.536  24.170  22.340  1.00  0.00     0.200 C 
BRANCH   7  17
ATOM     17  C   UNL A   1      29.037  28.274  22.736  1.00  0.00     0.258 C 
ATOM     18  C   UNL A   1      27.598  28.568  23.134  1.00  0.00     0.071 C 
ENDBRANCH   7  17
BRANCH  15  19
ATOM     19  C   UNL A   1      32.970  25.263  25.680  1.00  0.00     0.256 C 
ATOM     20  O   UNL A   1      33.290  24.361  26.454  1.00  0.00    -0.269 OA
BRANCH  19  21
ATOM     21  C   UNL A   1      32.907  26.594  26.277  1.00  0.00     0.040 A 
ATOM     22  C   UNL A   1      31.732  27.014  26.911  1.00  0.00     0.014 A 
ATOM     23  C   UNL A   1      33.952  27.490  26.049  1.00  0.00     0.014 A 
ATOM     24  C   UNL A   1      31.660  28.309  27.427  1.00  0.00     0.001 A 
ATOM     25  C   UNL A   1      33.888  28.773  26.591  1.00  0.00     0.001 A 
ATOM     26  C   UNL A   1      32.747  29.177  27.290  1.00  0.00     0.000 A 
ENDBRANCH  19  21
ENDBRANCH  15  19
ENDBRANCH   4   6
ENDBRANCH   3   4
ENDBRANCH   2   3
ENDBRANCH   1   2
BRANCH   1  27
ATOM     27  O   UNL A   1      36.656  21.568  25.853  1.00  0.00    -0.458 OA
BRANCH  27  28
ATOM     28  C   UNL A   1      37.976  21.332  25.679  1.00  0.00     0.338 C 
ATOM     29  O   UNL A   1      38.475  20.394  25.070  1.00  0.00    -0.246 OA
BRANCH  28  30
ATOM     30  C   UNL A   1      38.762  22.471  26.177  1.00  0.00     0.060 A 
ATOM     31  C   UNL A   1      38.214  23.749  26.039  1.00  0.00     0.016 A 
ATOM     32  C   UNL A   1      40.033  22.307  26.722  1.00  0.00     0.016 A 
ATOM     33  C   UNL A   1      38.923  24.870  26.436  1.00  0.00     0.010 A 
ATOM     34  C   UNL A   1      40.753  23.438  27.124  1.00  0.00     0.010 A 
ATOM     35  C   UNL A   1      40.203  24.723  26.973  1.00  0.00    -0.014 A 
BRANCH  35  36
ATOM     36  C   UNL A   1      40.968  25.946  27.294  1.00  0.00     0.031 A 
ATOM     37  C   UNL A   1      40.356  26.979  28.193  1.00  0.00     0.074 A 
ATOM     38  C   UNL A   1      42.233  26.072  26.854  1.00  0.00     0.049 A 
ATOM     39  N   UNL A   1      40.840  28.126  28.587  1.00  0.00    -0.248 NA
ATOM     40  C   UNL A   1      39.017  26.672  28.720  1.00  0.00     0.031 C 
ATOM     41  C   UNL A   1      42.944  25.083  26.039  1.00  0.00     0.029 A 
ATOM     42  N   UNL A   1      43.150  27.073  27.040  1.00  0.00    -0.354 N 
ATOM     43  C   UNL A   1      39.861  28.690  29.398  1.00  0.00     0.074 A 
ATOM     44  C   UNL A   1      38.746  27.767  29.415  1.00  0.00     0.031 C 
ATOM     45  C   UNL A   1      44.189  25.528  25.801  1.00  0.00     0.029 A 
ATOM     46  C   UNL A   1      44.347  26.848  26.403  1.00  0.00     0.049 A 
ATOM     47  H   UNL A   1      42.969  27.876  27.579  1.00  0.00     0.167 HD
ATOM     48  C   UNL A   1      39.898  29.869  30.065  1.00  0.00     0.034 A 
ATOM     49  C   UNL A   1      45.436  27.634  26.299  1.00  0.00     0.034 A 
ATOM     50  C   UNL A   1      41.022  30.775  30.022  1.00  0.00     0.049 A 
ATOM     51  C   UNL A   1      45.426  28.970  26.995  1.00  0.00     0.074 A 
ATOM     52  C   UNL A   1      41.163  32.011  30.628  1.00  0.00     0.029 A 
ATOM     53  N   UNL A   1      42.205  30.538  29.329  1.00  0.00    -0.354 N 
ATOM     54  N   UNL A   1      44.477  29.516  27.725  1.00  0.00    -0.248 NA
ATOM     55  C   UNL A   1      46.633  29.792  26.862  1.00  0.00     0.031 C 
ATOM     56  C   UNL A   1      42.403  32.545  30.256  1.00  0.00     0.029 A 
ATOM     57  C   UNL A   1      43.069  31.612  29.478  1.00  0.00     0.049 A 
ATOM     58  H   UNL A   1      42.400  29.726  28.809  1.00  0.00     0.167 HD
ATOM     59  C   UNL A   1      44.988  30.735  28.159  1.00  0.00     0.074 A 
ATOM     60  C   UNL A   1      46.334  30.831  27.628  1.00  0.00     0.031 C 
ATOM     61  C   UNL A   1      44.403  31.692  28.927  1.00  0.00     0.034 A 
BRANCH  48  62
ATOM     62  C   UNL A   1      38.658  30.265  30.829  1.00  0.00     0.023 A 
ATOM     63  C   UNL A   1      37.604  30.972  30.221  1.00  0.00     0.031 A 
ATOM     64  C   UNL A   1      38.553  29.978  32.202  1.00  0.00     0.131 A 
ATOM     65  C   UNL A   1      36.526  31.427  30.998  1.00  0.00     0.055 A 
ATOM     66  C   UNL A   1      37.443  30.367  32.952  1.00  0.00     0.041 A 
ATOM     67  F   UNL A   1      39.539  29.331  32.841  1.00  0.00    -0.206 F 
ATOM     68  C   UNL A   1      36.427  31.109  32.355  1.00  0.00     0.022 A 
BRANCH  65  69
ATOM     69  S   UNL A   1      35.328  32.561  30.244  1.00  0.00     0.124 S 
ATOM     70  O   UNL A   1      36.164  33.722  29.949  1.00  0.00    -0.237 OA
ATOM     71  O   UNL A   1      34.857  31.803  29.092  1.00  0.00    -0.237 OA
ATOM     72  O   UNL A   1      34.340  32.767  31.301  1.00  0.00    -0.744 OA
ENDBRANCH  65  69
ENDBRANCH  48  62
BRANCH  49  73
ATOM     73  C   UNL A   1      46.604  27.205  25.478  1.00  0.00     0.023 A 
ATOM     74  C   UNL A   1      46.887  27.806  24.241  1.00  0.00     0.031 A 
ATOM     75  C   UNL A   1      47.427  26.145  25.899  1.00  0.00     0.131 A 
ATOM     76  C   UNL A   1      47.935  27.314  23.447  1.00  0.00     0.055 A 
ATOM     77  C   UNL A   1      48.501  25.694  25.130  1.00  0.00     0.041 A 
ATOM     78  F   UNL A   1      47.200  25.532  27.071  1.00  0.00    -0.206 F 
ATOM     79  C   UNL A   1      48.753  26.270  23.890  1.00  0.00     0.022 A 
BRANCH  76  80
ATOM     80  S   UNL A   1      48.162  27.999  21.783  1.00  0.00     0.124 S 
ATOM     81  O   UNL A   1      47.008  28.884  21.667  1.00  0.00    -0.237 OA
ATOM     82  O   UNL A   1      49.461  28.652  21.899  1.00  0.00    -0.237 OA
ATOM     83  O   UNL A   1      48.133  26.819  20.922  1.00  0.00    -0.744 OA
ENDBRANCH  76  80
ENDBRANCH  49  73
BRANCH  61  84
ATOM     84  C   UNL A   1      45.249  32.894  29.265  1.00  0.00     0.023 A 
ATOM     85  C   UNL A   1      45.264  34.041  28.450  1.00  0.00     0.031 A 
ATOM     86  C   UNL A   1      46.086  32.872  30.394  1.00  0.00     0.131 A 
ATOM     87  C   UNL A   1      46.155  35.087  28.734  1.00  0.00     0.055 A 
ATOM     88  C   UNL A   1      46.923  33.944  30.707  1.00  0.00     0.041 A 
ATOM     89  F   UNL A   1      46.113  31.804  31.206  1.00  0.00    -0.206 F 
ATOM     90  C   UNL A   1      46.974  35.052  29.865  1.00  0.00     0.022 A 
BRANCH  87  91
ATOM     91  S   UNL A   1      46.318  36.439  27.535  1.00  0.00     0.124 S 
ATOM     92  O   UNL A   1      47.135  37.399  28.270  1.00  0.00    -0.237 OA
ATOM     93  O   UNL A   1      46.969  35.778  26.409  1.00  0.00    -0.237 OA
ATOM     94  O   UNL A   1      44.937  36.853  27.297  1.00  0.00    -0.744 OA
ENDBRANCH  87  91
ENDBRANCH  61  84
ENDBRANCH  35  36
ENDBRANCH  28  30
ENDBRANCH  27  28
ENDBRANCH   1  27
TORSDOF 17
ENDMDL
MODEL 3
REMARK VINA RESULT:     -12.0      4.968     10.518
REMARK SMILES CC[NH+]1CCC2(CC1)OC[C@H](C(=O)OCCOC(=O)c1ccc(-c3c4nc(c(-c5cc(S(=O)(=O)[O-])ccc5F)c5ccc([nH]5)c(-c5cc(S(=O)(=O)[O-])ccc5F)c5nc(c(-c6cc(S(=O)(=O)[O-])ccc6F)c6ccc3[nH]6)C=C5)C=C4)cc1)N2C(=O)c1ccccc1
REMARK SMILES IDX 16 1 15 2 14 3 12 4 13 5 11 6 3 7 4 8 8 9 5 11 7 12 6 13
REMARK SMILES IDX 9 14 83 15 10 16 2 17 1 18 84 19 85 20 86 21 87 22 91 23
REMARK SMILES IDX 88 24 90 25 89 26 17 27 18 28 19 29 20 30 21 31 82 32 22 33
REMARK SMILES IDX 81 34 23 35 24 36 25 37 75 38 26 39 80 40 74 41 76 42 27 43
REMARK SMILES IDX 79 44 73 45 72 46 28 48 60 49 40 50 59 51 41 52 44 53 58 54
REMARK SMILES IDX 77 55 42 56 43 57 57 59 78 60 45 61 29 62 30 63 38 64 31 65
REMARK SMILES IDX 37 66 39 67 36 68 32 69 33 70 34 71 35 72 61 73 62 74 70 75
REMARK SMILES IDX 63 76 69 77 71 78 68 79 64 80 65 81 66 82 67 83 46 84 47 85
REMARK SMILES IDX 55 86 48 87 54 88 56 89 53 90 49 91 50 92 51 93 52 94
REMARK H PARENT 3 10 76 47 44 58
REMARK Flexibility Score: inf
ROOT
ATOM      1  C   UNL A   1      38.243  20.197  25.319  1.00  0.00     0.275 C 
ENDROOT
BRANCH   1   2
ATOM      2  C   UNL A   1      36.943  20.582  24.605  1.00  0.00     0.274 C 
BRANCH   2   3
ATOM      3  O   UNL A   1      37.042  21.833  23.893  1.00  0.00    -0.460 OA
BRANCH   3   4
ATOM      4  C   UNL A   1      35.904  22.568  23.788  1.00  0.00     0.331 C 
ATOM      5  O   UNL A   1      35.648  23.284  22.824  1.00  0.00    -0.250 OA
BRANCH   4   6
ATOM      6  C   UNL A   1      34.911  22.324  24.935  1.00  0.00     0.224 C 
ATOM      7  N   UNL A   1      30.827  25.654  24.729  1.00  0.00    -0.335 N 
ATOM      8  C   UNL A   1      31.903  25.494  23.754  1.00  0.00     0.267 C 
ATOM      9  C   UNL A   1      30.766  24.573  25.706  1.00  0.00     0.267 C 
ATOM     10  H   UNL A   1      29.928  25.513  24.270  1.00  0.00     0.348 HD
ATOM     11  C   UNL A   1      33.246  25.244  24.403  1.00  0.00     0.120 C 
ATOM     12  C   UNL A   1      32.083  24.092  26.312  1.00  0.00     0.120 C 
ATOM     13  C   UNL A   1      33.258  24.025  25.332  1.00  0.00     0.155 C 
ATOM     14  O   UNL A   1      34.432  24.259  26.167  1.00  0.00    -0.352 OA
ATOM     15  N   UNL A   1      33.540  22.732  24.673  1.00  0.00    -0.293 N 
ATOM     16  C   UNL A   1      35.250  23.089  26.185  1.00  0.00     0.200 C 
BRANCH   7  17
ATOM     17  C   UNL A   1      30.705  27.038  25.184  1.00  0.00     0.258 C 
ATOM     18  C   UNL A   1      31.379  27.416  26.495  1.00  0.00     0.071 C 
ENDBRANCH   7  17
BRANCH  15  19
ATOM     19  C   UNL A   1      32.824  21.835  23.901  1.00  0.00     0.256 C 
ATOM     20  O   UNL A   1      32.197  22.183  22.901  1.00  0.00    -0.269 OA
BRANCH  19  21
ATOM     21  C   UNL A   1      32.814  20.400  24.167  1.00  0.00     0.040 A 
ATOM     22  C   UNL A   1      32.544  19.504  23.125  1.00  0.00     0.014 A 
ATOM     23  C   UNL A   1      32.894  19.952  25.486  1.00  0.00     0.014 A 
ATOM     24  C   UNL A   1      32.478  18.137  23.400  1.00  0.00     0.001 A 
ATOM     25  C   UNL A   1      32.857  18.585  25.752  1.00  0.00     0.001 A 
ATOM     26  C   UNL A   1      32.661  17.678  24.707  1.00  0.00     0.000 A 
ENDBRANCH  19  21
ENDBRANCH  15  19
ENDBRANCH   4   6
ENDBRANCH   3   4
ENDBRANCH   2   3
ENDBRANCH   1   2
BRANCH   1  27
ATOM     27  O   UNL A   1      39.066  21.349  25.576  1.00  0.00    -0.458 OA
BRANCH  27  28
ATOM     28  C   UNL A   1      39.922  21.220  26.615  1.00  0.00     0.338 C 
ATOM     29  O   UNL A   1      40.419  20.180  27.027  1.00  0.00    -0.246 OA
BRANCH  28  30
ATOM     30  C   UNL A   1      40.333  22.548  27.097  1.00  0.00     0.060 A 
ATOM     31  C   UNL A   1      39.734  23.667  26.511  1.00  0.00     0.016 A 
ATOM     32  C   UNL A   1      41.322  22.707  28.065  1.00  0.00     0.016 A 
ATOM     33  C   UNL A   1      40.114  24.947  26.878  1.00  0.00     0.010 A 
ATOM     34  C   UNL A   1      41.709  24.000  28.438  1.00  0.00     0.010 A 
ATOM     35  C   UNL A   1      41.112  25.123  27.838  1.00  0.00    -0.014 A 
BRANCH  35  36
ATOM     36  C   UNL A   1      41.560  26.500  28.132  1.00  0.00     0.031 A 
ATOM     37  C   UNL A   1      42.932  26.930  27.708  1.00  0.00     0.074 A 
ATOM     38  C   UNL A   1      40.701  27.372  28.691  1.00  0.00     0.049 A 
ATOM     39  N   UNL A   1      43.531  28.078  27.881  1.00  0.00    -0.248 NA
ATOM     40  C   UNL A   1      43.736  25.929  26.989  1.00  0.00     0.031 C 
ATOM     41  C   UNL A   1      39.318  27.069  29.067  1.00  0.00     0.029 A 
ATOM     42  N   UNL A   1      40.857  28.691  29.026  1.00  0.00    -0.354 N 
ATOM     43  C   UNL A   1      44.789  27.938  27.306  1.00  0.00     0.074 A 
ATOM     44  C   UNL A   1      44.873  26.582  26.804  1.00  0.00     0.031 C 
ATOM     45  C   UNL A   1      38.751  28.176  29.576  1.00  0.00     0.029 A 
ATOM     46  C   UNL A   1      39.742  29.247  29.607  1.00  0.00     0.049 A 
ATOM     47  H   UNL A   1      41.688  29.194  28.865  1.00  0.00     0.167 HD
ATOM     48  C   UNL A   1      45.777  28.860  27.208  1.00  0.00     0.034 A 
ATOM     49  C   UNL A   1      39.555  30.476  30.127  1.00  0.00     0.034 A 
ATOM     50  C   UNL A   1      45.668  30.203  27.727  1.00  0.00     0.049 A 
ATOM     51  C   UNL A   1      40.693  31.462  30.066  1.00  0.00     0.074 A 
ATOM     52  C   UNL A   1      46.612  31.215  27.716  1.00  0.00     0.029 A 
ATOM     53  N   UNL A   1      44.539  30.723  28.352  1.00  0.00    -0.354 N 
ATOM     54  N   UNL A   1      41.896  31.306  29.558  1.00  0.00    -0.248 NA
ATOM     55  C   UNL A   1      40.446  32.790  30.637  1.00  0.00     0.031 C 
ATOM     56  C   UNL A   1      46.076  32.323  28.384  1.00  0.00     0.029 A 
ATOM     57  C   UNL A   1      44.771  32.031  28.747  1.00  0.00     0.049 A 
ATOM     58  H   UNL A   1      43.698  30.233  28.493  1.00  0.00     0.167 HD
ATOM     59  C   UNL A   1      42.539  32.528  29.727  1.00  0.00     0.074 A 
ATOM     60  C   UNL A   1      41.581  33.413  30.361  1.00  0.00     0.031 C 
ATOM     61  C   UNL A   1      43.805  32.892  29.391  1.00  0.00     0.034 A 
BRANCH  48  62
ATOM     62  C   UNL A   1      47.076  28.412  26.581  1.00  0.00     0.023 A 
ATOM     63  C   UNL A   1      47.234  28.319  25.187  1.00  0.00     0.031 A 
ATOM     64  C   UNL A   1      48.154  28.021  27.395  1.00  0.00     0.131 A 
ATOM     65  C   UNL A   1      48.417  27.781  24.651  1.00  0.00     0.055 A 
ATOM     66  C   UNL A   1      49.354  27.558  26.854  1.00  0.00     0.041 A 
ATOM     67  F   UNL A   1      48.050  28.062  28.732  1.00  0.00    -0.206 F 
ATOM     68  C   UNL A   1      49.486  27.421  25.475  1.00  0.00     0.022 A 
BRANCH  65  69
ATOM     69  S   UNL A   1      48.482  27.423  22.874  1.00  0.00     0.124 S 
ATOM     70  O   UNL A   1      47.367  28.221  22.370  1.00  0.00    -0.237 OA
ATOM     71  O   UNL A   1      49.816  27.882  22.508  1.00  0.00    -0.237 OA
ATOM     72  O   UNL A   1      48.282  25.976  22.809  1.00  0.00    -0.744 OA
ENDBRANCH  65  69
ENDBRANCH  48  62
BRANCH  49  73
ATOM     73  C   UNL A   1      38.265  30.831  30.785  1.00  0.00     0.023 A 
ATOM     74  C   UNL A   1      37.254  31.512  30.089  1.00  0.00     0.031 A 
ATOM     75  C   UNL A   1      38.048  30.539  32.144  1.00  0.00     0.131 A 
ATOM     76  C   UNL A   1      36.092  31.919  30.764  1.00  0.00     0.055 A 
ATOM     77  C   UNL A   1      36.869  30.898  32.797  1.00  0.00     0.041 A 
ATOM     78  F   UNL A   1      38.983  29.892  32.858  1.00  0.00    -0.206 F 
ATOM     79  C   UNL A   1      35.887  31.605  32.110  1.00  0.00     0.022 A 
BRANCH  76  80
ATOM     80  S   UNL A   1      34.887  32.946  29.879  1.00  0.00     0.124 S 
ATOM     81  O   UNL A   1      34.287  31.980  28.966  1.00  0.00    -0.237 OA
ATOM     82  O   UNL A   1      34.035  33.417  30.965  1.00  0.00    -0.237 OA
ATOM     83  O   UNL A   1      35.713  33.972  29.247  1.00  0.00    -0.744 OA
ENDBRANCH  76  80
ENDBRANCH  49  73
BRANCH  61  84
ATOM     84  C   UNL A   1      44.190  34.324  29.669  1.00  0.00     0.023 A 
ATOM     85  C   UNL A   1      43.992  35.340  28.717  1.00  0.00     0.031 A 
ATOM     86  C   UNL A   1      44.806  34.665  30.885  1.00  0.00     0.131 A 
ATOM     87  C   UNL A   1      44.475  36.634  28.967  1.00  0.00     0.055 A 
ATOM     88  C   UNL A   1      45.226  35.968  31.154  1.00  0.00     0.041 A 
ATOM     89  F   UNL A   1      45.020  33.735  31.829  1.00  0.00    -0.206 F 
ATOM     90  C   UNL A   1      45.078  36.957  30.186  1.00  0.00     0.022 A 
BRANCH  87  91
ATOM     91  S   UNL A   1      44.416  37.858  27.629  1.00  0.00     0.124 S 
ATOM     92  O   UNL A   1      43.081  37.644  27.080  1.00  0.00    -0.237 OA
ATOM     93  O   UNL A   1      44.617  39.112  28.348  1.00  0.00    -0.237 OA
ATOM     94  O   UNL A   1      45.518  37.462  26.755  1.00  0.00    -0.744 OA
ENDBRANCH  87  91
ENDBRANCH  61  84
ENDBRANCH  35  36
ENDBRANCH  28  30
ENDBRANCH  27  28
ENDBRANCH   1  27
TORSDOF 17
ENDMDL
