MODEL 1
REMARK VINA RESULT:     -11.9      0.000      0.000
REMARK SMILES Cc1nc(C)c(C(=O)N2CCC([C@H](C)C(=O)OCCOC(=O)c3ccc(-c4c5nc(c(-c6cc(S(=O)(=O)[O-])ccc6F)c6ccc([nH]6)c(-c6cc(S(=O)(=O)[O-])ccc6F)c6nc(c(-c7cc(S(=O)(=O)[O-])ccc7F)c7ccc4[nH]7)C=C6)C=C5)cc3)CC2)s1
REMARK SMILES IDX 19 1 18 2 17 3 15 4 16 5 13 6 14 7 12 8 7 9 8 10 9 11 10 12
REMARK SMILES IDX 87 13 11 14 86 15 6 16 1 17 2 18 3 19 88 20 4 21 5 22 20 23
REMARK SMILES IDX 21 24 22 25 23 26 24 27 85 28 25 29 84 30 26 31 27 32 28 33
REMARK SMILES IDX 78 34 29 35 83 36 77 37 79 38 30 39 82 40 76 41 75 42 31 44
REMARK SMILES IDX 63 45 43 46 62 47 44 48 47 49 61 50 80 51 45 52 46 53 60 55
REMARK SMILES IDX 81 56 48 57 32 58 33 59 41 60 34 61 40 62 42 63 39 64 35 65
REMARK SMILES IDX 36 66 37 67 38 68 64 69 65 70 73 71 66 72 72 73 74 74 71 75
REMARK SMILES IDX 67 76 68 77 69 78 70 79 49 80 50 81 58 82 51 83 57 84 59 85
REMARK SMILES IDX 56 86 52 87 53 88 54 89 55 90
REMARK H PARENT 79 43 47 54
REMARK Flexibility Score: inf
ROOT
ATOM      1  C   UNL A   1      31.423  30.851  25.938  1.00  0.00     0.275 C 
ENDROOT
BRANCH   1   2
ATOM      2  C   UNL A   1      31.006  29.699  25.018  1.00  0.00     0.274 C 
BRANCH   2   3
ATOM      3  O   UNL A   1      32.114  29.172  24.262  1.00  0.00    -0.462 OA
BRANCH   3   4
ATOM      4  C   UNL A   1      31.885  27.981  23.652  1.00  0.00     0.309 C 
ATOM      5  O   UNL A   1      30.840  27.345  23.740  1.00  0.00    -0.252 OA
BRANCH   4   6
ATOM      6  C   UNL A   1      33.087  27.463  22.873  1.00  0.00     0.099 C 
ATOM      7  C   UNL A   1      34.034  28.590  22.452  1.00  0.00     0.020 C 
BRANCH   6   8
ATOM      8  C   UNL A   1      33.761  26.202  23.487  1.00  0.00     0.006 C 
ATOM      9  C   UNL A   1      33.629  22.713  25.869  1.00  0.00     0.265 C 
ATOM     10  O   UNL A   1      33.248  22.994  27.007  1.00  0.00    -0.268 OA
ATOM     11  N   UNL A   1      34.021  23.724  24.990  1.00  0.00    -0.338 N 
ATOM     12  C   UNL A   1      34.544  24.964  25.540  1.00  0.00     0.120 C 
ATOM     13  C   UNL A   1      33.951  23.652  23.532  1.00  0.00     0.120 C 
ATOM     14  C   UNL A   1      33.775  26.172  25.025  1.00  0.00     0.026 C 
ATOM     15  C   UNL A   1      33.210  24.862  22.956  1.00  0.00     0.026 C 
BRANCH   9  16
ATOM     16  C   UNL A   1      33.725  21.330  25.437  1.00  0.00     0.115 A 
ATOM     17  C   UNL A   1      32.705  17.900  23.931  1.00  0.00     0.079 C 
ATOM     18  C   UNL A   1      33.319  19.132  24.493  1.00  0.00     0.091 A 
ATOM     19  N   UNL A   1      34.613  19.322  24.626  1.00  0.00    -0.246 NA
ATOM     20  S   UNL A   1      32.330  20.443  24.968  1.00  0.00    -0.113 S 
ATOM     21  C   UNL A   1      34.859  20.594  25.133  1.00  0.00     0.061 A 
ATOM     22  C   UNL A   1      36.277  21.026  25.259  1.00  0.00     0.068 C 
ENDBRANCH   9  16
ENDBRANCH   6   8
ENDBRANCH   4   6
ENDBRANCH   3   4
ENDBRANCH   2   3
ENDBRANCH   1   2
BRANCH   1  23
ATOM     23  O   UNL A   1      32.730  30.646  26.505  1.00  0.00    -0.458 OA
BRANCH  23  24
ATOM     24  C   UNL A   1      33.232  31.706  27.183  1.00  0.00     0.338 C 
ATOM     25  O   UNL A   1      32.676  32.769  27.399  1.00  0.00    -0.246 OA
BRANCH  24  26
ATOM     26  C   UNL A   1      34.543  31.359  27.754  1.00  0.00     0.060 A 
ATOM     27  C   UNL A   1      34.749  30.046  28.181  1.00  0.00     0.016 A 
ATOM     28  C   UNL A   1      35.519  32.333  27.966  1.00  0.00     0.016 A 
ATOM     29  C   UNL A   1      35.932  29.691  28.822  1.00  0.00     0.010 A 
ATOM     30  C   UNL A   1      36.707  31.977  28.617  1.00  0.00     0.010 A 
ATOM     31  C   UNL A   1      36.913  30.658  29.059  1.00  0.00    -0.014 A 
BRANCH  31  32
ATOM     32  C   UNL A   1      38.114  30.306  29.853  1.00  0.00     0.031 A 
ATOM     33  C   UNL A   1      39.115  29.343  29.282  1.00  0.00     0.074 A 
ATOM     34  C   UNL A   1      38.317  30.866  31.059  1.00  0.00     0.049 A 
ATOM     35  N   UNL A   1      40.163  28.802  29.846  1.00  0.00    -0.248 NA
ATOM     36  C   UNL A   1      38.900  28.935  27.886  1.00  0.00     0.031 C 
ATOM     37  C   UNL A   1      37.450  31.868  31.679  1.00  0.00     0.029 A 
ATOM     38  N   UNL A   1      39.310  30.665  31.983  1.00  0.00    -0.354 N 
ATOM     39  C   UNL A   1      40.723  27.971  28.883  1.00  0.00     0.074 A 
ATOM     40  C   UNL A   1      39.886  28.068  27.706  1.00  0.00     0.031 C 
ATOM     41  C   UNL A   1      37.944  32.185  32.887  1.00  0.00     0.029 A 
ATOM     42  C   UNL A   1      39.126  31.369  33.149  1.00  0.00     0.049 A 
ATOM     43  H   UNL A   1      40.082  30.074  31.826  1.00  0.00     0.167 HD
ATOM     44  C   UNL A   1      41.834  27.198  28.978  1.00  0.00     0.034 A 
ATOM     45  C   UNL A   1      39.809  31.326  34.311  1.00  0.00     0.034 A 
ATOM     46  C   UNL A   1      42.650  27.113  30.165  1.00  0.00     0.049 A 
ATOM     47  C   UNL A   1      40.990  30.395  34.424  1.00  0.00     0.074 A 
ATOM     48  C   UNL A   1      43.788  26.354  30.381  1.00  0.00     0.029 A 
ATOM     49  N   UNL A   1      42.411  27.809  31.344  1.00  0.00    -0.354 N 
ATOM     50  N   UNL A   1      41.488  29.579  33.524  1.00  0.00    -0.248 NA
ATOM     51  C   UNL A   1      41.700  30.380  35.710  1.00  0.00     0.031 C 
ATOM     52  C   UNL A   1      44.200  26.548  31.706  1.00  0.00     0.029 A 
ATOM     53  C   UNL A   1      43.362  27.479  32.298  1.00  0.00     0.049 A 
ATOM     54  H   UNL A   1      41.672  28.445  31.483  1.00  0.00     0.167 HD
ATOM     55  C   UNL A   1      42.582  28.966  34.130  1.00  0.00     0.074 A 
ATOM     56  C   UNL A   1      42.679  29.521  35.466  1.00  0.00     0.031 C 
ATOM     57  C   UNL A   1      43.431  28.033  33.630  1.00  0.00     0.034 A 
BRANCH  44  58
ATOM     58  C   UNL A   1      42.177  26.337  27.788  1.00  0.00     0.023 A 
ATOM     59  C   UNL A   1      41.687  25.027  27.651  1.00  0.00     0.031 A 
ATOM     60  C   UNL A   1      43.050  26.820  26.795  1.00  0.00     0.131 A 
ATOM     61  C   UNL A   1      42.129  24.221  26.589  1.00  0.00     0.055 A 
ATOM     62  C   UNL A   1      43.426  26.039  25.701  1.00  0.00     0.041 A 
ATOM     63  F   UNL A   1      43.569  28.055  26.884  1.00  0.00    -0.206 F 
ATOM     64  C   UNL A   1      42.977  24.725  25.601  1.00  0.00     0.022 A 
BRANCH  61  65
ATOM     65  S   UNL A   1      41.691  22.460  26.594  1.00  0.00     0.124 S 
ATOM     66  O   UNL A   1      40.231  22.518  26.583  1.00  0.00    -0.237 OA
ATOM     67  O   UNL A   1      42.320  21.975  25.372  1.00  0.00    -0.237 OA
ATOM     68  O   UNL A   1      42.277  21.965  27.838  1.00  0.00    -0.744 OA
ENDBRANCH  61  65
ENDBRANCH  44  58
BRANCH  45  69
ATOM     69  C   UNL A   1      39.356  32.132  35.480  1.00  0.00     0.023 A 
ATOM     70  C   UNL A   1      38.640  31.546  36.536  1.00  0.00     0.031 A 
ATOM     71  C   UNL A   1      39.600  33.515  35.536  1.00  0.00     0.131 A 
ATOM     72  C   UNL A   1      38.166  32.348  37.586  1.00  0.00     0.055 A 
ATOM     73  C   UNL A   1      39.168  34.300  36.605  1.00  0.00     0.041 A 
ATOM     74  F   UNL A   1      40.279  34.126  34.550  1.00  0.00    -0.206 F 
ATOM     75  C   UNL A   1      38.435  33.718  37.635  1.00  0.00     0.022 A 
BRANCH  72  76
ATOM     76  S   UNL A   1      37.125  31.584  38.861  1.00  0.00     0.124 S 
ATOM     77  O   UNL A   1      36.922  30.246  38.320  1.00  0.00    -0.237 OA
ATOM     78  O   UNL A   1      37.976  31.677  40.042  1.00  0.00    -0.237 OA
ATOM     79  O   UNL A   1      35.936  32.435  38.885  1.00  0.00    -0.744 OA
ENDBRANCH  72  76
ENDBRANCH  45  69
BRANCH  57  80
ATOM     80  C   UNL A   1      44.560  27.592  34.527  1.00  0.00     0.023 A 
ATOM     81  C   UNL A   1      44.453  26.451  35.341  1.00  0.00     0.031 A 
ATOM     82  C   UNL A   1      45.752  28.335  34.578  1.00  0.00     0.131 A 
ATOM     83  C   UNL A   1      45.501  26.116  36.212  1.00  0.00     0.055 A 
ATOM     84  C   UNL A   1      46.812  27.966  35.406  1.00  0.00     0.041 A 
ATOM     85  F   UNL A   1      45.904  29.434  33.822  1.00  0.00    -0.206 F 
ATOM     86  C   UNL A   1      46.685  26.858  36.239  1.00  0.00     0.022 A 
BRANCH  83  87
ATOM     87  S   UNL A   1      45.265  24.742  37.373  1.00  0.00     0.124 S 
ATOM     88  O   UNL A   1      44.931  23.640  36.476  1.00  0.00    -0.237 OA
ATOM     89  O   UNL A   1      46.567  24.659  38.027  1.00  0.00    -0.237 OA
ATOM     90  O   UNL A   1      44.172  25.199  38.229  1.00  0.00    -0.744 OA
ENDBRANCH  83  87
ENDBRANCH  57  80
ENDBRANCH  31  32
ENDBRANCH  24  26
ENDBRANCH  23  24
ENDBRANCH   1  23
TORSDOF 16
ENDMDL
MODEL 2
REMARK VINA RESULT:     -11.8      5.186     10.508
REMARK SMILES Cc1nc(C)c(C(=O)N2CCC([C@H](C)C(=O)OCCOC(=O)c3ccc(-c4c5nc(c(-c6cc(S(=O)(=O)[O-])ccc6F)c6ccc([nH]6)c(-c6cc(S(=O)(=O)[O-])ccc6F)c6nc(c(-c7cc(S(=O)(=O)[O-])ccc7F)c7ccc4[nH]7)C=C6)C=C5)cc3)CC2)s1
REMARK SMILES IDX 19 1 18 2 17 3 15 4 16 5 13 6 14 7 12 8 7 9 8 10 9 11 10 12
REMARK SMILES IDX 87 13 11 14 86 15 6 16 1 17 2 18 3 19 88 20 4 21 5 22 20 23
REMARK SMILES IDX 21 24 22 25 23 26 24 27 85 28 25 29 84 30 26 31 27 32 28 33
REMARK SMILES IDX 78 34 29 35 83 36 77 37 79 38 30 39 82 40 76 41 75 42 31 44
REMARK SMILES IDX 63 45 43 46 62 47 44 48 47 49 61 50 80 51 45 52 46 53 60 55
REMARK SMILES IDX 81 56 48 57 32 58 33 59 41 60 34 61 40 62 42 63 39 64 35 65
REMARK SMILES IDX 36 66 37 67 38 68 64 69 65 70 73 71 66 72 72 73 74 74 71 75
REMARK SMILES IDX 67 76 68 77 69 78 70 79 49 80 50 81 58 82 51 83 57 84 59 85
REMARK SMILES IDX 56 86 52 87 53 88 54 89 55 90
REMARK H PARENT 79 43 47 54
REMARK Flexibility Score: inf
ROOT
ATOM      1  C   UNL A   1      37.698  20.385  24.762  1.00  0.00     0.275 C 
ENDROOT
BRANCH   1   2
ATOM      2  C   UNL A   1      36.231  19.986  24.954  1.00  0.00     0.274 C 
BRANCH   2   3
ATOM      3  O   UNL A   1      35.457  21.026  25.585  1.00  0.00    -0.462 OA
BRANCH   3   4
ATOM      4  C   UNL A   1      34.111  20.904  25.460  1.00  0.00     0.309 C 
ATOM      5  O   UNL A   1      33.362  20.527  26.354  1.00  0.00    -0.252 OA
BRANCH   4   6
ATOM      6  C   UNL A   1      33.605  21.232  24.061  1.00  0.00     0.099 C 
ATOM      7  C   UNL A   1      32.285  20.525  23.742  1.00  0.00     0.020 C 
BRANCH   6   8
ATOM      8  C   UNL A   1      33.677  22.740  23.685  1.00  0.00     0.006 C 
ATOM      9  C   UNL A   1      31.874  26.529  23.182  1.00  0.00     0.265 C 
ATOM     10  O   UNL A   1      30.916  26.442  22.412  1.00  0.00    -0.268 OA
ATOM     11  N   UNL A   1      32.792  25.483  23.284  1.00  0.00    -0.338 N 
ATOM     12  C   UNL A   1      32.985  24.608  22.139  1.00  0.00     0.120 C 
ATOM     13  C   UNL A   1      33.595  25.174  24.465  1.00  0.00     0.120 C 
ATOM     14  C   UNL A   1      32.773  23.148  22.508  1.00  0.00     0.026 C 
ATOM     15  C   UNL A   1      33.442  23.704  24.867  1.00  0.00     0.026 C 
BRANCH   9  16
ATOM     16  C   UNL A   1      32.095  27.736  23.960  1.00  0.00     0.115 A 
ATOM     17  C   UNL A   1      31.967  30.239  26.925  1.00  0.00     0.079 C 
ATOM     18  C   UNL A   1      32.188  29.422  25.703  1.00  0.00     0.091 A 
ATOM     19  N   UNL A   1      33.103  29.677  24.794  1.00  0.00    -0.246 NA
ATOM     20  S   UNL A   1      31.254  28.015  25.432  1.00  0.00    -0.113 S 
ATOM     21  C   UNL A   1      33.083  28.696  23.808  1.00  0.00     0.061 A 
ATOM     22  C   UNL A   1      34.119  28.765  22.742  1.00  0.00     0.068 C 
ENDBRANCH   9  16
ENDBRANCH   6   8
ENDBRANCH   4   6
ENDBRANCH   3   4
ENDBRANCH   2   3
ENDBRANCH   1   2
BRANCH   1  23
ATOM     23  O   UNL A   1      38.119  21.377  25.715  1.00  0.00    -0.458 OA
BRANCH  23  24
ATOM     24  C   UNL A   1      39.345  21.171  26.253  1.00  0.00     0.338 C 
ATOM     25  O   UNL A   1      39.995  20.141  26.222  1.00  0.00    -0.246 OA
BRANCH  24  26
ATOM     26  C   UNL A   1      39.870  22.432  26.801  1.00  0.00     0.060 A 
ATOM     27  C   UNL A   1      39.448  23.629  26.220  1.00  0.00     0.016 A 
ATOM     28  C   UNL A   1      40.844  22.434  27.799  1.00  0.00     0.016 A 
ATOM     29  C   UNL A   1      39.992  24.842  26.631  1.00  0.00     0.010 A 
ATOM     30  C   UNL A   1      41.397  23.654  28.208  1.00  0.00     0.010 A 
ATOM     31  C   UNL A   1      40.983  24.862  27.617  1.00  0.00    -0.014 A 
BRANCH  31  32
ATOM     32  C   UNL A   1      41.650  26.139  27.961  1.00  0.00     0.031 A 
ATOM     33  C   UNL A   1      40.887  27.183  28.726  1.00  0.00     0.074 A 
ATOM     34  C   UNL A   1      42.933  26.349  27.617  1.00  0.00     0.049 A 
ATOM     35  N   UNL A   1      41.226  28.410  29.023  1.00  0.00    -0.248 NA
ATOM     36  C   UNL A   1      39.559  26.786  29.219  1.00  0.00     0.031 C 
ATOM     37  C   UNL A   1      43.792  25.377  26.939  1.00  0.00     0.029 A 
ATOM     38  N   UNL A   1      43.735  27.449  27.780  1.00  0.00    -0.354 N 
ATOM     39  C   UNL A   1      40.147  28.943  29.719  1.00  0.00     0.074 A 
ATOM     40  C   UNL A   1      39.137  27.908  29.783  1.00  0.00     0.031 C 
ATOM     41  C   UNL A   1      44.999  25.931  26.733  1.00  0.00     0.029 A 
ATOM     42  C   UNL A   1      44.979  27.310  27.212  1.00  0.00     0.049 A 
ATOM     43  H   UNL A   1      43.449  28.260  28.259  1.00  0.00     0.167 HD
ATOM     44  C   UNL A   1      40.017  30.183  30.252  1.00  0.00     0.034 A 
ATOM     45  C   UNL A   1      45.973  28.209  27.058  1.00  0.00     0.034 A 
ATOM     46  C   UNL A   1      41.037  31.201  30.171  1.00  0.00     0.049 A 
ATOM     47  C   UNL A   1      45.773  29.608  27.583  1.00  0.00     0.074 A 
ATOM     48  C   UNL A   1      41.009  32.495  30.660  1.00  0.00     0.029 A 
ATOM     49  N   UNL A   1      42.270  31.039  29.551  1.00  0.00    -0.354 N 
ATOM     50  N   UNL A   1      44.732  30.119  28.201  1.00  0.00    -0.248 NA
ATOM     51  C   UNL A   1      46.880  30.553  27.387  1.00  0.00     0.031 C 
ATOM     52  C   UNL A   1      42.200  33.131  30.287  1.00  0.00     0.029 A 
ATOM     53  C   UNL A   1      43.001  32.216  29.624  1.00  0.00     0.049 A 
ATOM     54  H   UNL A   1      42.581  30.209  29.122  1.00  0.00     0.167 HD
ATOM     55  C   UNL A   1      45.069  31.439  28.484  1.00  0.00     0.074 A 
ATOM     56  C   UNL A   1      46.415  31.640  27.984  1.00  0.00     0.031 C 
ATOM     57  C   UNL A   1      44.336  32.399  29.104  1.00  0.00     0.034 A 
BRANCH  44  58
ATOM     58  C   UNL A   1      38.697  30.517  30.903  1.00  0.00     0.023 A 
ATOM     59  C   UNL A   1      37.653  31.136  30.194  1.00  0.00     0.031 A 
ATOM     60  C   UNL A   1      38.497  30.254  32.271  1.00  0.00     0.131 A 
ATOM     61  C   UNL A   1      36.488  31.537  30.869  1.00  0.00     0.055 A 
ATOM     62  C   UNL A   1      37.307  30.586  32.919  1.00  0.00     0.041 A 
ATOM     63  F   UNL A   1      39.467  29.685  33.005  1.00  0.00    -0.206 F 
ATOM     64  C   UNL A   1      36.299  31.246  32.221  1.00  0.00     0.022 A 
BRANCH  61  65
ATOM     65  S   UNL A   1      35.285  32.569  29.987  1.00  0.00     0.124 S 
ATOM     66  O   UNL A   1      34.227  32.706  30.985  1.00  0.00    -0.237 OA
ATOM     67  O   UNL A   1      36.052  33.775  29.701  1.00  0.00    -0.237 OA
ATOM     68  O   UNL A   1      34.930  31.762  28.822  1.00  0.00    -0.744 OA
ENDBRANCH  61  65
ENDBRANCH  44  58
BRANCH  45  69
ATOM     69  C   UNL A   1      47.212  27.839  26.318  1.00  0.00     0.023 A 
ATOM     70  C   UNL A   1      47.304  27.992  24.925  1.00  0.00     0.031 A 
ATOM     71  C   UNL A   1      48.315  27.288  26.995  1.00  0.00     0.131 A 
ATOM     72  C   UNL A   1      48.460  27.566  24.252  1.00  0.00     0.055 A 
ATOM     73  C   UNL A   1      49.480  26.910  26.327  1.00  0.00     0.041 A 
ATOM     74  F   UNL A   1      48.279  27.119  28.327  1.00  0.00    -0.206 F 
ATOM     75  C   UNL A   1      49.553  27.039  24.943  1.00  0.00     0.022 A 
BRANCH  72  76
ATOM     76  S   UNL A   1      48.489  27.647  22.439  1.00  0.00     0.124 S 
ATOM     77  O   UNL A   1      48.589  26.237  22.079  1.00  0.00    -0.237 OA
ATOM     78  O   UNL A   1      47.216  28.295  22.145  1.00  0.00    -0.237 OA
ATOM     79  O   UNL A   1      49.675  28.451  22.153  1.00  0.00    -0.744 OA
ENDBRANCH  72  76
ENDBRANCH  45  69
BRANCH  57  80
ATOM     80  C   UNL A   1      45.001  33.737  29.306  1.00  0.00     0.023 A 
ATOM     81  C   UNL A   1      44.783  34.811  28.426  1.00  0.00     0.031 A 
ATOM     82  C   UNL A   1      45.879  33.932  30.387  1.00  0.00     0.131 A 
ATOM     83  C   UNL A   1      45.476  36.017  28.612  1.00  0.00     0.055 A 
ATOM     84  C   UNL A   1      46.524  35.151  30.598  1.00  0.00     0.041 A 
ATOM     85  F   UNL A   1      46.124  32.938  31.256  1.00  0.00    -0.206 F 
ATOM     86  C   UNL A   1      46.334  36.198  29.701  1.00  0.00     0.022 A 
BRANCH  83  87
ATOM     87  S   UNL A   1      45.307  37.323  27.364  1.00  0.00     0.124 S 
ATOM     88  O   UNL A   1      43.963  37.077  26.848  1.00  0.00    -0.237 OA
ATOM     89  O   UNL A   1      45.472  38.536  28.157  1.00  0.00    -0.237 OA
ATOM     90  O   UNL A   1      46.392  37.044  26.426  1.00  0.00    -0.744 OA
ENDBRANCH  83  87
ENDBRANCH  57  80
ENDBRANCH  31  32
ENDBRANCH  24  26
ENDBRANCH  23  24
ENDBRANCH   1  23
TORSDOF 16
ENDMDL
MODEL 3
REMARK VINA RESULT:     -11.8      1.735      7.805
REMARK SMILES Cc1nc(C)c(C(=O)N2CCC([C@H](C)C(=O)OCCOC(=O)c3ccc(-c4c5nc(c(-c6cc(S(=O)(=O)[O-])ccc6F)c6ccc([nH]6)c(-c6cc(S(=O)(=O)[O-])ccc6F)c6nc(c(-c7cc(S(=O)(=O)[O-])ccc7F)c7ccc4[nH]7)C=C6)C=C5)cc3)CC2)s1
REMARK SMILES IDX 19 1 18 2 17 3 15 4 16 5 13 6 14 7 12 8 7 9 8 10 9 11 10 12
REMARK SMILES IDX 87 13 11 14 86 15 6 16 1 17 2 18 3 19 88 20 4 21 5 22 20 23
REMARK SMILES IDX 21 24 22 25 23 26 24 27 85 28 25 29 84 30 26 31 27 32 28 33
REMARK SMILES IDX 78 34 29 35 83 36 77 37 79 38 30 39 82 40 76 41 75 42 31 44
REMARK SMILES IDX 63 45 43 46 62 47 44 48 47 49 61 50 80 51 45 52 46 53 60 55
REMARK SMILES IDX 81 56 48 57 32 58 33 59 41 60 34 61 40 62 42 63 39 64 35 65
REMARK SMILES IDX 36 66 37 67 38 68 64 69 65 70 73 71 66 72 72 73 74 74 71 75
REMARK SMILES IDX 67 76 68 77 69 78 70 79 49 80 50 81 58 82 51 83 57 84 59 85
REMARK SMILES IDX 56 86 52 87 53 88 54 89 55 90
REMARK H PARENT 79 43 47 54
REMARK Flexibility Score: inf
ROOT
ATOM      1  C   UNL A   1      31.424  32.829  26.879  1.00  0.00     0.275 C 
ENDROOT
BRANCH   1   2
ATOM      2  C   UNL A   1      31.085  31.537  26.128  1.00  0.00     0.274 C 
BRANCH   2   3
ATOM      3  O   UNL A   1      32.165  30.583  26.160  1.00  0.00    -0.462 OA
BRANCH   3   4
ATOM      4  C   UNL A   1      32.051  29.548  25.289  1.00  0.00     0.309 C 
ATOM      5  O   UNL A   1      31.102  29.380  24.531  1.00  0.00    -0.252 OA
BRANCH   4   6
ATOM      6  C   UNL A   1      33.207  28.560  25.374  1.00  0.00     0.099 C 
ATOM      7  C   UNL A   1      34.004  28.710  26.673  1.00  0.00     0.020 C 
BRANCH   6   8
ATOM      8  C   UNL A   1      32.843  27.103  24.964  1.00  0.00     0.006 C 
ATOM      9  C   UNL A   1      33.892  23.314  23.414  1.00  0.00     0.265 C 
ATOM     10  O   UNL A   1      34.400  23.441  22.298  1.00  0.00    -0.268 OA
ATOM     11  N   UNL A   1      33.214  24.382  24.002  1.00  0.00    -0.338 N 
ATOM     12  C   UNL A   1      32.598  25.378  23.141  1.00  0.00     0.120 C 
ATOM     13  C   UNL A   1      33.062  24.600  25.439  1.00  0.00     0.120 C 
ATOM     14  C   UNL A   1      33.077  26.782  23.478  1.00  0.00     0.026 C 
ATOM     15  C   UNL A   1      33.505  26.012  25.832  1.00  0.00     0.026 C 
BRANCH   9  16
ATOM     16  C   UNL A   1      33.946  22.044  24.115  1.00  0.00     0.115 A 
ATOM     17  C   UNL A   1      32.904  18.516  25.359  1.00  0.00     0.079 C 
ATOM     18  C   UNL A   1      33.519  19.811  24.967  1.00  0.00     0.091 A 
ATOM     19  N   UNL A   1      34.790  20.109  25.129  1.00  0.00    -0.246 NA
ATOM     20  S   UNL A   1      32.573  21.013  24.202  1.00  0.00    -0.113 S 
ATOM     21  C   UNL A   1      35.054  21.373  24.612  1.00  0.00     0.061 A 
ATOM     22  C   UNL A   1      36.465  21.843  24.618  1.00  0.00     0.068 C 
ENDBRANCH   9  16
ENDBRANCH   6   8
ENDBRANCH   4   6
ENDBRANCH   3   4
ENDBRANCH   2   3
ENDBRANCH   1   2
BRANCH   1  23
ATOM     23  O   UNL A   1      32.809  33.192  26.735  1.00  0.00    -0.458 OA
BRANCH  23  24
ATOM     24  C   UNL A   1      33.348  33.829  27.801  1.00  0.00     0.338 C 
ATOM     25  O   UNL A   1      32.903  34.812  28.370  1.00  0.00    -0.246 OA
BRANCH  24  26
ATOM     26  C   UNL A   1      34.524  33.090  28.285  1.00  0.00     0.060 A 
ATOM     27  C   UNL A   1      34.334  31.797  28.776  1.00  0.00     0.016 A 
ATOM     28  C   UNL A   1      35.778  33.696  28.357  1.00  0.00     0.016 A 
ATOM     29  C   UNL A   1      35.393  31.094  29.341  1.00  0.00     0.010 A 
ATOM     30  C   UNL A   1      36.844  32.992  28.932  1.00  0.00     0.010 A 
ATOM     31  C   UNL A   1      36.653  31.693  29.438  1.00  0.00    -0.014 A 
BRANCH  31  32
ATOM     32  C   UNL A   1      37.745  30.992  30.153  1.00  0.00     0.031 A 
ATOM     33  C   UNL A   1      38.030  31.346  31.585  1.00  0.00     0.074 A 
ATOM     34  C   UNL A   1      38.454  30.031  29.535  1.00  0.00     0.049 A 
ATOM     35  N   UNL A   1      39.009  30.955  32.359  1.00  0.00    -0.248 NA
ATOM     36  C   UNL A   1      37.082  32.270  32.227  1.00  0.00     0.031 C 
ATOM     37  C   UNL A   1      38.215  29.555  28.172  1.00  0.00     0.029 A 
ATOM     38  N   UNL A   1      39.523  29.289  29.967  1.00  0.00    -0.354 N 
ATOM     39  C   UNL A   1      38.810  31.600  33.574  1.00  0.00     0.074 A 
ATOM     40  C   UNL A   1      37.626  32.420  33.426  1.00  0.00     0.031 C 
ATOM     41  C   UNL A   1      39.122  28.609  27.875  1.00  0.00     0.029 A 
ATOM     42  C   UNL A   1      40.037  28.454  29.003  1.00  0.00     0.049 A 
ATOM     43  H   UNL A   1      39.888  29.348  30.879  1.00  0.00     0.167 HD
ATOM     44  C   UNL A   1      39.550  31.512  34.707  1.00  0.00     0.034 A 
ATOM     45  C   UNL A   1      41.145  27.685  29.016  1.00  0.00     0.034 A 
ATOM     46  C   UNL A   1      40.731  30.691  34.830  1.00  0.00     0.049 A 
ATOM     47  C   UNL A   1      42.002  27.669  30.256  1.00  0.00     0.074 A 
ATOM     48  C   UNL A   1      41.567  30.535  35.922  1.00  0.00     0.029 A 
ATOM     49  N   UNL A   1      41.246  29.888  33.819  1.00  0.00    -0.354 N 
ATOM     50  N   UNL A   1      41.833  28.316  31.387  1.00  0.00    -0.248 NA
ATOM     51  C   UNL A   1      43.201  26.821  30.221  1.00  0.00     0.031 C 
ATOM     52  C   UNL A   1      42.618  29.685  35.552  1.00  0.00     0.029 A 
ATOM     53  C   UNL A   1      42.402  29.255  34.253  1.00  0.00     0.049 A 
ATOM     54  H   UNL A   1      40.849  29.783  32.925  1.00  0.00     0.167 HD
ATOM     55  C   UNL A   1      42.894  27.937  32.204  1.00  0.00     0.074 A 
ATOM     56  C   UNL A   1      43.687  26.993  31.441  1.00  0.00     0.031 C 
ATOM     57  C   UNL A   1      43.187  28.329  33.470  1.00  0.00     0.034 A 
BRANCH  44  58
ATOM     58  C   UNL A   1      39.138  32.383  35.868  1.00  0.00     0.023 A 
ATOM     59  C   UNL A   1      39.563  33.718  35.985  1.00  0.00     0.031 A 
ATOM     60  C   UNL A   1      38.343  31.853  36.902  1.00  0.00     0.131 A 
ATOM     61  C   UNL A   1      39.254  34.453  37.141  1.00  0.00     0.055 A 
ATOM     62  C   UNL A   1      37.976  32.613  38.013  1.00  0.00     0.041 A 
ATOM     63  F   UNL A   1      37.927  30.577  36.857  1.00  0.00    -0.206 F 
ATOM     64  C   UNL A   1      38.445  33.917  38.145  1.00  0.00     0.022 A 
BRANCH  61  65
ATOM     65  S   UNL A   1      40.042  36.070  37.380  1.00  0.00     0.124 S 
ATOM     66  O   UNL A   1      39.256  36.622  38.480  1.00  0.00    -0.237 OA
ATOM     67  O   UNL A   1      41.418  35.707  37.697  1.00  0.00    -0.237 OA
ATOM     68  O   UNL A   1      39.852  36.737  36.093  1.00  0.00    -0.744 OA
ENDBRANCH  61  65
ENDBRANCH  44  58
BRANCH  45  69
ATOM     69  C   UNL A   1      41.546  26.926  27.798  1.00  0.00     0.023 A 
ATOM     70  C   UNL A   1      41.362  25.537  27.712  1.00  0.00     0.031 A 
ATOM     71  C   UNL A   1      42.160  27.579  26.715  1.00  0.00     0.131 A 
ATOM     72  C   UNL A   1      41.818  24.842  26.580  1.00  0.00     0.055 A 
ATOM     73  C   UNL A   1      42.568  26.891  25.571  1.00  0.00     0.041 A 
ATOM     74  F   UNL A   1      42.361  28.906  26.747  1.00  0.00    -0.206 F 
ATOM     75  C   UNL A   1      42.408  25.510  25.505  1.00  0.00     0.022 A 
BRANCH  72  76
ATOM     76  S   UNL A   1      41.693  23.032  26.563  1.00  0.00     0.124 S 
ATOM     77  O   UNL A   1      40.248  22.832  26.541  1.00  0.00    -0.237 OA
ATOM     78  O   UNL A   1      42.406  22.691  25.337  1.00  0.00    -0.237 OA
ATOM     79  O   UNL A   1      42.360  22.632  27.801  1.00  0.00    -0.744 OA
ENDBRANCH  72  76
ENDBRANCH  45  69
BRANCH  57  80
ATOM     80  C   UNL A   1      44.396  27.699  34.114  1.00  0.00     0.023 A 
ATOM     81  C   UNL A   1      44.304  26.497  34.838  1.00  0.00     0.031 A 
ATOM     82  C   UNL A   1      45.653  28.320  34.014  1.00  0.00     0.131 A 
ATOM     83  C   UNL A   1      45.441  25.982  35.479  1.00  0.00     0.055 A 
ATOM     84  C   UNL A   1      46.790  27.774  34.609  1.00  0.00     0.041 A 
ATOM     85  F   UNL A   1      45.794  29.470  33.336  1.00  0.00    -0.206 F 
ATOM     86  C   UNL A   1      46.686  26.605  35.358  1.00  0.00     0.022 A 
BRANCH  83  87
ATOM     87  S   UNL A   1      45.255  24.527  36.548  1.00  0.00     0.124 S 
ATOM     88  O   UNL A   1      46.606  23.975  36.545  1.00  0.00    -0.237 OA
ATOM     89  O   UNL A   1      44.810  25.118  37.805  1.00  0.00    -0.237 OA
ATOM     90  O   UNL A   1      44.253  23.718  35.856  1.00  0.00    -0.744 OA
ENDBRANCH  83  87
ENDBRANCH  57  80
ENDBRANCH  31  32
ENDBRANCH  24  26
ENDBRANCH  23  24
ENDBRANCH   1  23
TORSDOF 16
ENDMDL
