MODEL 1
REMARK VINA RESULT:     -10.7      0.000      0.000
REMARK SMILES CCN(CC(=O)NC)C(=O)c1ccncc1/C=C/C(=O)OCCOC(=O)c1ccc(-c2c3nc(c(-c4cc(S(=O)(=O)[O-])ccc4F)c4ccc([nH]4)c(-c4cc(S(=O)(=O)[O-])ccc4F)c4nc(c(-c5cc(S(=O)(=O)[O-])ccc5F)c5ccc2[nH]5)C=C4)C=C3)cc1
REMARK SMILES IDX 22 1 21 2 19 3 20 4 18 5 17 6 16 7 11 8 12 9 13 10 15 11
REMARK SMILES IDX 14 12 9 13 10 14 3 15 2 16 1 17 4 18 5 19 6 20 7 21 8 22
REMARK SMILES IDX 23 24 24 25 25 26 26 27 27 28 28 29 89 30 29 31 88 32 30 33
REMARK SMILES IDX 31 34 32 35 82 36 33 37 87 38 81 39 83 40 34 41 86 42 80 43
REMARK SMILES IDX 79 44 35 46 67 47 47 48 66 49 48 50 51 51 65 52 84 53 49 54
REMARK SMILES IDX 50 55 64 57 85 58 52 59 36 60 37 61 45 62 38 63 44 64 46 65
REMARK SMILES IDX 43 66 39 67 40 68 41 69 42 70 68 71 69 72 77 73 70 74 76 75
REMARK SMILES IDX 78 76 75 77 71 78 72 79 73 80 74 81 53 82 54 83 62 84 55 85
REMARK SMILES IDX 61 86 63 87 60 88 56 89 57 90 58 91 59 92
REMARK H PARENT 7 23 83 45 51 56
REMARK Flexibility Score: inf
ROOT
ATOM      1  C   UNL A   1      31.958  28.627  25.515  1.00  0.00     0.275 C 
ENDROOT
BRANCH   1   2
ATOM      2  O   UNL A   1      33.038  27.683  25.394  1.00  0.00    -0.459 OA
BRANCH   2   3
ATOM      3  C   UNL A   1      33.122  27.048  24.202  1.00  0.00     0.330 C 
ATOM      4  O   UNL A   1      32.587  27.398  23.160  1.00  0.00    -0.247 OA
BRANCH   3   5
ATOM      5  C   UNL A   1      33.996  25.859  24.243  1.00  0.00     0.094 C 
ATOM      6  C   UNL A   1      34.306  25.134  25.331  1.00  0.00     0.018 C 
BRANCH   6   7
ATOM      7  C   UNL A   1      35.230  23.994  25.220  1.00  0.00     0.006 A 
ATOM      8  C   UNL A   1      34.924  22.793  24.563  1.00  0.00     0.050 A 
ATOM      9  C   UNL A   1      35.912  21.825  24.367  1.00  0.00     0.034 A 
ATOM     10  C   UNL A   1      37.152  22.032  24.938  1.00  0.00     0.112 A 
ATOM     11  C   UNL A   1      36.510  24.082  25.768  1.00  0.00     0.119 A 
ATOM     12  N   UNL A   1      37.466  23.131  25.648  1.00  0.00    -0.264 NA
BRANCH   8  13
ATOM     13  C   UNL A   1      33.566  22.556  24.022  1.00  0.00     0.255 C 
ATOM     14  O   UNL A   1      33.366  22.816  22.838  1.00  0.00    -0.269 OA
BRANCH  13  15
ATOM     15  N   UNL A   1      32.553  22.100  24.877  1.00  0.00    -0.330 N 
BRANCH  15  16
ATOM     16  C   UNL A   1      32.635  20.709  25.322  1.00  0.00     0.117 C 
ATOM     17  C   UNL A   1      32.560  19.734  24.155  1.00  0.00     0.027 C 
ENDBRANCH  15  16
BRANCH  15  18
ATOM     18  C   UNL A   1      31.311  22.831  25.169  1.00  0.00     0.219 C 
BRANCH  18  19
ATOM     19  C   UNL A   1      31.237  23.622  26.493  1.00  0.00     0.239 C 
ATOM     20  O   UNL A   1      31.890  23.256  27.475  1.00  0.00    -0.273 OA
ATOM     21  N   UNL A   1      30.576  24.806  26.610  1.00  0.00    -0.358 N 
ATOM     22  C   UNL A   1      29.885  25.580  25.612  1.00  0.00     0.142 C 
ATOM     23  H   UNL A   1      30.569  25.193  27.515  1.00  0.00     0.163 HD
ENDBRANCH  18  19
ENDBRANCH  15  18
ENDBRANCH  13  15
ENDBRANCH   8  13
ENDBRANCH   6   7
ENDBRANCH   3   5
ENDBRANCH   2   3
ENDBRANCH   1   2
BRANCH   1  24
ATOM     24  C   UNL A   1      32.486  30.056  25.669  1.00  0.00     0.275 C 
BRANCH  24  25
ATOM     25  O   UNL A   1      32.398  30.528  27.026  1.00  0.00    -0.458 OA
BRANCH  25  26
ATOM     26  C   UNL A   1      33.102  31.656  27.292  1.00  0.00     0.338 C 
ATOM     27  O   UNL A   1      32.712  32.805  27.177  1.00  0.00    -0.246 OA
BRANCH  26  28
ATOM     28  C   UNL A   1      34.419  31.305  27.852  1.00  0.00     0.060 A 
ATOM     29  C   UNL A   1      34.626  29.991  28.288  1.00  0.00     0.016 A 
ATOM     30  C   UNL A   1      35.412  32.272  28.026  1.00  0.00     0.016 A 
ATOM     31  C   UNL A   1      35.821  29.643  28.918  1.00  0.00     0.010 A 
ATOM     32  C   UNL A   1      36.609  31.921  28.657  1.00  0.00     0.010 A 
ATOM     33  C   UNL A   1      36.815  30.610  29.123  1.00  0.00    -0.014 A 
BRANCH  33  34
ATOM     34  C   UNL A   1      38.039  30.279  29.897  1.00  0.00     0.031 A 
ATOM     35  C   UNL A   1      39.045  29.327  29.313  1.00  0.00     0.074 A 
ATOM     36  C   UNL A   1      38.243  30.820  31.112  1.00  0.00     0.049 A 
ATOM     37  N   UNL A   1      40.113  28.808  29.860  1.00  0.00    -0.248 NA
ATOM     38  C   UNL A   1      38.808  28.899  27.926  1.00  0.00     0.031 C 
ATOM     39  C   UNL A   1      37.364  31.793  31.759  1.00  0.00     0.029 A 
ATOM     40  N   UNL A   1      39.248  30.617  32.025  1.00  0.00    -0.354 N 
ATOM     41  C   UNL A   1      40.671  27.978  28.892  1.00  0.00     0.074 A 
ATOM     42  C   UNL A   1      39.804  28.046  27.735  1.00  0.00     0.031 C 
ATOM     43  C   UNL A   1      37.863  32.095  32.970  1.00  0.00     0.029 A 
ATOM     44  C   UNL A   1      39.065  31.299  33.206  1.00  0.00     0.049 A 
ATOM     45  H   UNL A   1      40.024  30.038  31.851  1.00  0.00     0.167 HD
ATOM     46  C   UNL A   1      41.803  27.235  28.965  1.00  0.00     0.034 A 
ATOM     47  C   UNL A   1      39.766  31.259  34.356  1.00  0.00     0.034 A 
ATOM     48  C   UNL A   1      42.653  27.178  30.131  1.00  0.00     0.049 A 
ATOM     49  C   UNL A   1      40.977  30.360  34.445  1.00  0.00     0.074 A 
ATOM     50  C   UNL A   1      43.821  26.459  30.314  1.00  0.00     0.029 A 
ATOM     51  N   UNL A   1      42.421  27.864  31.316  1.00  0.00    -0.354 N 
ATOM     52  N   UNL A   1      41.483  29.564  33.531  1.00  0.00    -0.248 NA
ATOM     53  C   UNL A   1      41.713  30.356  35.717  1.00  0.00     0.031 C 
ATOM     54  C   UNL A   1      44.260  26.658  31.627  1.00  0.00     0.029 A 
ATOM     55  C   UNL A   1      43.410  27.564  32.241  1.00  0.00     0.049 A 
ATOM     56  H   UNL A   1      41.666  28.474  31.478  1.00  0.00     0.167 HD
ATOM     57  C   UNL A   1      42.619  28.998  34.107  1.00  0.00     0.074 A 
ATOM     58  C   UNL A   1      42.721  29.540  35.444  1.00  0.00     0.031 C 
ATOM     59  C   UNL A   1      43.502  28.118  33.571  1.00  0.00     0.034 A 
BRANCH  46  60
ATOM     60  C   UNL A   1      42.150  26.380  27.769  1.00  0.00     0.023 A 
ATOM     61  C   UNL A   1      41.762  25.032  27.681  1.00  0.00     0.031 A 
ATOM     62  C   UNL A   1      42.909  26.917  26.714  1.00  0.00     0.131 A 
ATOM     63  C   UNL A   1      42.190  24.250  26.597  1.00  0.00     0.055 A 
ATOM     64  C   UNL A   1      43.266  26.155  25.600  1.00  0.00     0.041 A 
ATOM     65  F   UNL A   1      43.328  28.192  26.752  1.00  0.00    -0.206 F 
ATOM     66  C   UNL A   1      42.919  24.809  25.544  1.00  0.00     0.022 A 
BRANCH  63  67
ATOM     67  S   UNL A   1      41.902  22.460  26.650  1.00  0.00     0.124 S 
ATOM     68  O   UNL A   1      40.449  22.399  26.782  1.00  0.00    -0.237 OA
ATOM     69  O   UNL A   1      42.448  22.014  25.375  1.00  0.00    -0.237 OA
ATOM     70  O   UNL A   1      42.645  22.029  27.832  1.00  0.00    -0.744 OA
ENDBRANCH  63  67
ENDBRANCH  46  60
BRANCH  47  71
ATOM     71  C   UNL A   1      39.323  32.051  35.539  1.00  0.00     0.023 A 
ATOM     72  C   UNL A   1      38.594  31.458  36.581  1.00  0.00     0.031 A 
ATOM     73  C   UNL A   1      39.582  33.432  35.620  1.00  0.00     0.131 A 
ATOM     74  C   UNL A   1      38.111  32.249  37.636  1.00  0.00     0.055 A 
ATOM     75  C   UNL A   1      39.148  34.203  36.698  1.00  0.00     0.041 A 
ATOM     76  F   UNL A   1      40.273  34.052  34.648  1.00  0.00    -0.206 F 
ATOM     77  C   UNL A   1      38.395  33.614  37.709  1.00  0.00     0.022 A 
BRANCH  74  78
ATOM     78  S   UNL A   1      37.025  31.483  38.871  1.00  0.00     0.124 S 
ATOM     79  O   UNL A   1      37.842  31.566  40.077  1.00  0.00    -0.237 OA
ATOM     80  O   UNL A   1      35.854  32.351  38.828  1.00  0.00    -0.237 OA
ATOM     81  O   UNL A   1      36.817  30.133  38.351  1.00  0.00    -0.744 OA
ENDBRANCH  74  78
ENDBRANCH  47  71
BRANCH  59  82
ATOM     82  C   UNL A   1      44.701  27.745  34.409  1.00  0.00     0.023 A 
ATOM     83  C   UNL A   1      44.661  26.700  35.346  1.00  0.00     0.031 A 
ATOM     84  C   UNL A   1      45.910  28.446  34.245  1.00  0.00     0.131 A 
ATOM     85  C   UNL A   1      45.801  26.408  36.114  1.00  0.00     0.055 A 
ATOM     86  C   UNL A   1      47.052  28.119  34.975  1.00  0.00     0.041 A 
ATOM     87  F   UNL A   1      46.000  29.453  33.362  1.00  0.00    -0.206 F 
ATOM     88  C   UNL A   1      47.000  27.100  35.921  1.00  0.00     0.022 A 
BRANCH  85  89
ATOM     89  S   UNL A   1      45.685  25.144  37.410  1.00  0.00     0.124 S 
ATOM     90  O   UNL A   1      46.351  24.006  36.786  1.00  0.00    -0.237 OA
ATOM     91  O   UNL A   1      46.394  25.769  38.521  1.00  0.00    -0.237 OA
ATOM     92  O   UNL A   1      44.245  24.986  37.608  1.00  0.00    -0.744 OA
ENDBRANCH  85  89
ENDBRANCH  59  82
ENDBRANCH  33  34
ENDBRANCH  26  28
ENDBRANCH  25  26
ENDBRANCH  24  25
ENDBRANCH   1  24
TORSDOF 20
ENDMDL
MODEL 2
REMARK VINA RESULT:     -10.7      1.593      1.888
REMARK SMILES CCN(CC(=O)NC)C(=O)c1ccncc1/C=C/C(=O)OCCOC(=O)c1ccc(-c2c3nc(c(-c4cc(S(=O)(=O)[O-])ccc4F)c4ccc([nH]4)c(-c4cc(S(=O)(=O)[O-])ccc4F)c4nc(c(-c5cc(S(=O)(=O)[O-])ccc5F)c5ccc2[nH]5)C=C4)C=C3)cc1
REMARK SMILES IDX 22 1 21 2 19 3 20 4 18 5 17 6 16 7 11 8 12 9 13 10 15 11
REMARK SMILES IDX 14 12 9 13 10 14 3 15 2 16 1 17 4 18 5 19 6 20 7 21 8 22
REMARK SMILES IDX 23 24 24 25 25 26 26 27 27 28 28 29 89 30 29 31 88 32 30 33
REMARK SMILES IDX 31 34 32 35 82 36 33 37 87 38 81 39 83 40 34 41 86 42 80 43
REMARK SMILES IDX 79 44 35 46 67 47 47 48 66 49 48 50 51 51 65 52 84 53 49 54
REMARK SMILES IDX 50 55 64 57 85 58 52 59 36 60 37 61 45 62 38 63 44 64 46 65
REMARK SMILES IDX 43 66 39 67 40 68 41 69 42 70 68 71 69 72 77 73 70 74 76 75
REMARK SMILES IDX 78 76 75 77 71 78 72 79 73 80 74 81 53 82 54 83 62 84 55 85
REMARK SMILES IDX 61 86 63 87 60 88 56 89 57 90 58 91 59 92
REMARK H PARENT 7 23 83 45 51 56
REMARK Flexibility Score: inf
ROOT
ATOM      1  C   UNL A   1      32.176  29.069  24.783  1.00  0.00     0.275 C 
ENDROOT
BRANCH   1   2
ATOM      2  O   UNL A   1      33.266  28.366  25.408  1.00  0.00    -0.459 OA
BRANCH   2   3
ATOM      3  C   UNL A   1      32.989  27.103  25.806  1.00  0.00     0.330 C 
ATOM      4  O   UNL A   1      31.989  26.741  26.410  1.00  0.00    -0.247 OA
BRANCH   3   5
ATOM      5  C   UNL A   1      34.019  26.130  25.395  1.00  0.00     0.094 C 
ATOM      6  C   UNL A   1      34.034  24.816  25.677  1.00  0.00     0.018 C 
BRANCH   6   7
ATOM      7  C   UNL A   1      35.158  23.977  25.230  1.00  0.00     0.006 A 
ATOM      8  C   UNL A   1      35.160  23.232  24.041  1.00  0.00     0.050 A 
ATOM      9  C   UNL A   1      36.325  22.591  23.613  1.00  0.00     0.034 A 
ATOM     10  C   UNL A   1      37.426  22.612  24.446  1.00  0.00     0.112 A 
ATOM     11  C   UNL A   1      36.322  23.911  25.994  1.00  0.00     0.119 A 
ATOM     12  N   UNL A   1      37.443  23.243  25.634  1.00  0.00    -0.264 NA
BRANCH   8  13
ATOM     13  C   UNL A   1      33.945  23.158  23.196  1.00  0.00     0.255 C 
ATOM     14  O   UNL A   1      33.989  23.673  22.081  1.00  0.00    -0.269 OA
BRANCH  13  15
ATOM     15  N   UNL A   1      32.786  22.559  23.707  1.00  0.00    -0.330 N 
BRANCH  15  16
ATOM     16  C   UNL A   1      32.946  21.275  24.390  1.00  0.00     0.117 C 
ATOM     17  C   UNL A   1      32.437  20.115  23.545  1.00  0.00     0.027 C 
ENDBRANCH  15  16
BRANCH  15  18
ATOM     18  C   UNL A   1      31.414  23.001  23.411  1.00  0.00     0.219 C 
BRANCH  18  19
ATOM     19  C   UNL A   1      30.841  24.167  24.243  1.00  0.00     0.239 C 
ATOM     20  O   UNL A   1      30.473  23.982  25.407  1.00  0.00    -0.273 OA
ATOM     21  N   UNL A   1      30.832  25.455  23.801  1.00  0.00    -0.358 N 
ATOM     22  C   UNL A   1      31.354  26.016  22.583  1.00  0.00     0.142 C 
ATOM     23  H   UNL A   1      30.403  26.102  24.407  1.00  0.00     0.163 HD
ENDBRANCH  18  19
ENDBRANCH  15  18
ENDBRANCH  13  15
ENDBRANCH   8  13
ENDBRANCH   6   7
ENDBRANCH   3   5
ENDBRANCH   2   3
ENDBRANCH   1   2
BRANCH   1  24
ATOM     24  C   UNL A   1      31.782  30.310  25.589  1.00  0.00     0.275 C 
BRANCH  24  25
ATOM     25  O   UNL A   1      32.431  30.355  26.874  1.00  0.00    -0.458 OA
BRANCH  25  26
ATOM     26  C   UNL A   1      33.036  31.531  27.173  1.00  0.00     0.338 C 
ATOM     27  O   UNL A   1      32.546  32.645  27.098  1.00  0.00    -0.246 OA
BRANCH  26  28
ATOM     28  C   UNL A   1      34.383  31.280  27.714  1.00  0.00     0.060 A 
ATOM     29  C   UNL A   1      34.733  29.964  28.037  1.00  0.00     0.016 A 
ATOM     30  C   UNL A   1      35.262  32.332  27.982  1.00  0.00     0.016 A 
ATOM     31  C   UNL A   1      35.959  29.696  28.646  1.00  0.00     0.010 A 
ATOM     32  C   UNL A   1      36.491  32.060  28.593  1.00  0.00     0.010 A 
ATOM     33  C   UNL A   1      36.840  30.744  28.946  1.00  0.00    -0.014 A 
BRANCH  33  34
ATOM     34  C   UNL A   1      38.092  30.484  29.701  1.00  0.00     0.031 A 
ATOM     35  C   UNL A   1      39.145  29.598  29.097  1.00  0.00     0.074 A 
ATOM     36  C   UNL A   1      38.279  31.028  30.917  1.00  0.00     0.049 A 
ATOM     37  N   UNL A   1      40.251  29.141  29.627  1.00  0.00    -0.248 NA
ATOM     38  C   UNL A   1      38.917  29.164  27.711  1.00  0.00     0.031 C 
ATOM     39  C   UNL A   1      37.351  31.943  31.582  1.00  0.00     0.029 A 
ATOM     40  N   UNL A   1      39.307  30.881  31.816  1.00  0.00    -0.354 N 
ATOM     41  C   UNL A   1      40.845  28.353  28.646  1.00  0.00     0.074 A 
ATOM     42  C   UNL A   1      39.959  28.374  27.501  1.00  0.00     0.031 C 
ATOM     43  C   UNL A   1      37.848  32.267  32.788  1.00  0.00     0.029 A 
ATOM     44  C   UNL A   1      39.100  31.544  33.003  1.00  0.00     0.049 A 
ATOM     45  H   UNL A   1      40.115  30.351  31.627  1.00  0.00     0.167 HD
ATOM     46  C   UNL A   1      42.020  27.678  28.699  1.00  0.00     0.034 A 
ATOM     47  C   UNL A   1      39.817  31.540  34.144  1.00  0.00     0.034 A 
ATOM     48  C   UNL A   1      42.888  27.666  29.853  1.00  0.00     0.049 A 
ATOM     49  C   UNL A   1      41.082  30.716  34.210  1.00  0.00     0.074 A 
ATOM     50  C   UNL A   1      44.100  27.018  30.016  1.00  0.00     0.029 A 
ATOM     51  N   UNL A   1      42.631  28.330  31.046  1.00  0.00    -0.354 N 
ATOM     52  N   UNL A   1      41.622  29.957  33.285  1.00  0.00    -0.248 NA
ATOM     53  C   UNL A   1      41.833  30.748  35.473  1.00  0.00     0.031 C 
ATOM     54  C   UNL A   1      44.544  27.236  31.324  1.00  0.00     0.029 A 
ATOM     55  C   UNL A   1      43.649  28.085  31.956  1.00  0.00     0.049 A 
ATOM     56  H   UNL A   1      41.843  28.892  31.222  1.00  0.00     0.167 HD
ATOM     57  C   UNL A   1      42.797  29.458  33.841  1.00  0.00     0.074 A 
ATOM     58  C   UNL A   1      42.885  29.997  35.181  1.00  0.00     0.031 C 
ATOM     59  C   UNL A   1      43.725  28.636  33.288  1.00  0.00     0.034 A 
BRANCH  46  60
ATOM     60  C   UNL A   1      42.402  26.853  27.493  1.00  0.00     0.023 A 
ATOM     61  C   UNL A   1      42.128  25.477  27.417  1.00  0.00     0.031 A 
ATOM     62  C   UNL A   1      43.079  27.450  26.415  1.00  0.00     0.131 A 
ATOM     63  C   UNL A   1      42.588  24.731  26.320  1.00  0.00     0.055 A 
ATOM     64  C   UNL A   1      43.465  26.719  25.290  1.00  0.00     0.041 A 
ATOM     65  F   UNL A   1      43.389  28.757  26.440  1.00  0.00    -0.206 F 
ATOM     66  C   UNL A   1      43.233  25.348  25.245  1.00  0.00     0.022 A 
BRANCH  63  67
ATOM     67  S   UNL A   1      42.456  22.924  26.382  1.00  0.00     0.124 S 
ATOM     68  O   UNL A   1      42.649  22.565  24.979  1.00  0.00    -0.237 OA
ATOM     69  O   UNL A   1      43.534  22.558  27.291  1.00  0.00    -0.237 OA
ATOM     70  O   UNL A   1      41.105  22.697  26.893  1.00  0.00    -0.744 OA
ENDBRANCH  63  67
ENDBRANCH  46  60
BRANCH  47  71
ATOM     71  C   UNL A   1      39.343  32.296  35.337  1.00  0.00     0.023 A 
ATOM     72  C   UNL A   1      39.755  33.617  35.575  1.00  0.00     0.031 A 
ATOM     73  C   UNL A   1      38.502  31.688  36.289  1.00  0.00     0.131 A 
ATOM     74  C   UNL A   1      39.364  34.271  36.754  1.00  0.00     0.055 A 
ATOM     75  C   UNL A   1      38.071  32.362  37.432  1.00  0.00     0.041 A 
ATOM     76  F   UNL A   1      38.080  30.425  36.113  1.00  0.00    -0.206 F 
ATOM     77  C   UNL A   1      38.515  33.658  37.677  1.00  0.00     0.022 A 
BRANCH  74  78
ATOM     78  S   UNL A   1      40.058  35.909  37.111  1.00  0.00     0.124 S 
ATOM     79  O   UNL A   1      41.467  35.595  37.323  1.00  0.00    -0.237 OA
ATOM     80  O   UNL A   1      39.741  36.645  35.892  1.00  0.00    -0.237 OA
ATOM     81  O   UNL A   1      39.327  36.336  38.302  1.00  0.00    -0.744 OA
ENDBRANCH  74  78
ENDBRANCH  47  71
BRANCH  59  82
ATOM     82  C   UNL A   1      44.955  28.332  34.107  1.00  0.00     0.023 A 
ATOM     83  C   UNL A   1      45.004  27.259  35.014  1.00  0.00     0.031 A 
ATOM     84  C   UNL A   1      46.106  29.127  33.958  1.00  0.00     0.131 A 
ATOM     85  C   UNL A   1      46.168  27.032  35.765  1.00  0.00     0.055 A 
ATOM     86  C   UNL A   1      47.276  28.867  34.671  1.00  0.00     0.041 A 
ATOM     87  F   UNL A   1      46.112  30.163  33.105  1.00  0.00    -0.206 F 
ATOM     88  C   UNL A   1      47.309  27.820  35.587  1.00  0.00     0.022 A 
BRANCH  85  89
ATOM     89  S   UNL A   1      46.159  25.726  37.024  1.00  0.00     0.124 S 
ATOM     90  O   UNL A   1      44.917  26.002  37.738  1.00  0.00    -0.237 OA
ATOM     91  O   UNL A   1      46.175  24.512  36.215  1.00  0.00    -0.237 OA
ATOM     92  O   UNL A   1      47.381  25.976  37.787  1.00  0.00    -0.744 OA
ENDBRANCH  85  89
ENDBRANCH  59  82
ENDBRANCH  33  34
ENDBRANCH  26  28
ENDBRANCH  25  26
ENDBRANCH  24  25
ENDBRANCH   1  24
TORSDOF 20
ENDMDL
MODEL 3
REMARK VINA RESULT:     -10.7      1.116      2.307
REMARK SMILES CCN(CC(=O)NC)C(=O)c1ccncc1/C=C/C(=O)OCCOC(=O)c1ccc(-c2c3nc(c(-c4cc(S(=O)(=O)[O-])ccc4F)c4ccc([nH]4)c(-c4cc(S(=O)(=O)[O-])ccc4F)c4nc(c(-c5cc(S(=O)(=O)[O-])ccc5F)c5ccc2[nH]5)C=C4)C=C3)cc1
REMARK SMILES IDX 22 1 21 2 19 3 20 4 18 5 17 6 16 7 11 8 12 9 13 10 15 11
REMARK SMILES IDX 14 12 9 13 10 14 3 15 2 16 1 17 4 18 5 19 6 20 7 21 8 22
REMARK SMILES IDX 23 24 24 25 25 26 26 27 27 28 28 29 89 30 29 31 88 32 30 33
REMARK SMILES IDX 31 34 32 35 82 36 33 37 87 38 81 39 83 40 34 41 86 42 80 43
REMARK SMILES IDX 79 44 35 46 67 47 47 48 66 49 48 50 51 51 65 52 84 53 49 54
REMARK SMILES IDX 50 55 64 57 85 58 52 59 36 60 37 61 45 62 38 63 44 64 46 65
REMARK SMILES IDX 43 66 39 67 40 68 41 69 42 70 68 71 69 72 77 73 70 74 76 75
REMARK SMILES IDX 78 76 75 77 71 78 72 79 73 80 74 81 53 82 54 83 62 84 55 85
REMARK SMILES IDX 61 86 63 87 60 88 56 89 57 90 58 91 59 92
REMARK H PARENT 7 23 83 45 51 56
REMARK Flexibility Score: inf
ROOT
ATOM      1  C   UNL A   1      31.951  29.444  24.744  1.00  0.00     0.275 C 
ENDROOT
BRANCH   1   2
ATOM      2  O   UNL A   1      30.972  29.396  23.690  1.00  0.00    -0.459 OA
BRANCH   2   3
ATOM      3  C   UNL A   1      30.682  28.159  23.223  1.00  0.00     0.330 C 
ATOM      4  O   UNL A   1      30.282  27.889  22.100  1.00  0.00    -0.247 OA
BRANCH   3   5
ATOM      5  C   UNL A   1      30.946  27.094  24.210  1.00  0.00     0.094 C 
ATOM      6  C   UNL A   1      31.371  25.848  23.945  1.00  0.00     0.018 C 
BRANCH   6   7
ATOM      7  C   UNL A   1      31.550  24.879  25.038  1.00  0.00     0.006 A 
ATOM      8  C   UNL A   1      32.760  24.230  25.325  1.00  0.00     0.050 A 
ATOM      9  C   UNL A   1      32.885  23.448  26.476  1.00  0.00     0.034 A 
ATOM     10  C   UNL A   1      31.760  23.239  27.249  1.00  0.00     0.112 A 
ATOM     11  C   UNL A   1      30.480  24.579  25.881  1.00  0.00     0.119 A 
ATOM     12  N   UNL A   1      30.558  23.773  26.966  1.00  0.00    -0.264 NA
BRANCH   8  13
ATOM     13  C   UNL A   1      33.937  24.405  24.442  1.00  0.00     0.255 C 
ATOM     14  O   UNL A   1      34.512  25.491  24.461  1.00  0.00    -0.269 OA
BRANCH  13  15
ATOM     15  N   UNL A   1      34.319  23.362  23.588  1.00  0.00    -0.330 N 
BRANCH  15  16
ATOM     16  C   UNL A   1      33.313  22.874  22.643  1.00  0.00     0.117 C 
ATOM     17  C   UNL A   1      33.038  23.882  21.536  1.00  0.00     0.027 C 
ENDBRANCH  15  16
BRANCH  15  18
ATOM     18  C   UNL A   1      35.555  22.576  23.725  1.00  0.00     0.219 C 
BRANCH  18  19
ATOM     19  C   UNL A   1      35.802  21.855  25.067  1.00  0.00     0.239 C 
ATOM     20  O   UNL A   1      36.516  22.373  25.931  1.00  0.00    -0.273 OA
ATOM     21  N   UNL A   1      35.161  20.707  25.418  1.00  0.00    -0.358 N 
ATOM     22  C   UNL A   1      34.143  19.968  24.717  1.00  0.00     0.142 C 
ATOM     23  H   UNL A   1      35.434  20.324  26.282  1.00  0.00     0.163 HD
ENDBRANCH  18  19
ENDBRANCH  15  18
ENDBRANCH  13  15
ENDBRANCH   8  13
ENDBRANCH   6   7
ENDBRANCH   3   5
ENDBRANCH   2   3
ENDBRANCH   1   2
BRANCH   1  24
ATOM     24  C   UNL A   1      31.584  30.496  25.795  1.00  0.00     0.275 C 
BRANCH  24  25
ATOM     25  O   UNL A   1      32.432  30.425  26.957  1.00  0.00    -0.458 OA
BRANCH  25  26
ATOM     26  C   UNL A   1      33.101  31.566  27.253  1.00  0.00     0.338 C 
ATOM     27  O   UNL A   1      32.672  32.705  27.182  1.00  0.00    -0.246 OA
BRANCH  26  28
ATOM     28  C   UNL A   1      34.436  31.241  27.786  1.00  0.00     0.060 A 
ATOM     29  C   UNL A   1      34.705  29.914  28.138  1.00  0.00     0.016 A 
ATOM     30  C   UNL A   1      35.385  32.240  28.017  1.00  0.00     0.016 A 
ATOM     31  C   UNL A   1      35.918  29.582  28.741  1.00  0.00     0.010 A 
ATOM     32  C   UNL A   1      36.601  31.905  28.621  1.00  0.00     0.010 A 
ATOM     33  C   UNL A   1      36.868  30.578  29.003  1.00  0.00    -0.014 A 
BRANCH  33  34
ATOM     34  C   UNL A   1      38.111  30.255  29.751  1.00  0.00     0.031 A 
ATOM     35  C   UNL A   1      39.089  29.275  29.167  1.00  0.00     0.074 A 
ATOM     36  C   UNL A   1      38.356  30.828  30.944  1.00  0.00     0.049 A 
ATOM     37  N   UNL A   1      40.167  28.759  29.698  1.00  0.00    -0.248 NA
ATOM     38  C   UNL A   1      38.808  28.809  27.800  1.00  0.00     0.031 C 
ATOM     39  C   UNL A   1      37.506  31.830  31.587  1.00  0.00     0.029 A 
ATOM     40  N   UNL A   1      39.384  30.640  31.834  1.00  0.00    -0.354 N 
ATOM     41  C   UNL A   1      40.688  27.896  28.740  1.00  0.00     0.074 A 
ATOM     42  C   UNL A   1      39.788  27.940  27.606  1.00  0.00     0.031 C 
ATOM     43  C   UNL A   1      38.044  32.161  32.773  1.00  0.00     0.029 A 
ATOM     44  C   UNL A   1      39.243  31.358  32.998  1.00  0.00     0.049 A 
ATOM     45  H   UNL A   1      40.149  30.047  31.654  1.00  0.00     0.167 HD
ATOM     46  C   UNL A   1      41.813  27.141  28.802  1.00  0.00     0.034 A 
ATOM     47  C   UNL A   1      39.977  31.343  34.129  1.00  0.00     0.034 A 
ATOM     48  C   UNL A   1      42.695  27.108  29.944  1.00  0.00     0.049 A 
ATOM     49  C   UNL A   1      41.180  30.434  34.209  1.00  0.00     0.074 A 
ATOM     50  C   UNL A   1      43.861  26.381  30.114  1.00  0.00     0.029 A 
ATOM     51  N   UNL A   1      42.506  27.830  31.115  1.00  0.00    -0.354 N 
ATOM     52  N   UNL A   1      41.651  29.606  33.305  1.00  0.00    -0.248 NA
ATOM     53  C   UNL A   1      41.952  30.457  35.459  1.00  0.00     0.031 C 
ATOM     54  C   UNL A   1      44.339  26.613  31.408  1.00  0.00     0.029 A 
ATOM     55  C   UNL A   1      43.518  27.546  32.019  1.00  0.00     0.049 A 
ATOM     56  H   UNL A   1      41.762  28.454  31.280  1.00  0.00     0.167 HD
ATOM     57  C   UNL A   1      42.796  29.043  33.864  1.00  0.00     0.074 A 
ATOM     58  C   UNL A   1      42.943  29.622  35.182  1.00  0.00     0.031 C 
ATOM     59  C   UNL A   1      43.654  28.137  33.330  1.00  0.00     0.034 A 
BRANCH  46  60
ATOM     60  C   UNL A   1      42.116  26.248  27.622  1.00  0.00     0.023 A 
ATOM     61  C   UNL A   1      41.662  24.919  27.560  1.00  0.00     0.031 A 
ATOM     62  C   UNL A   1      42.897  26.728  26.556  1.00  0.00     0.131 A 
ATOM     63  C   UNL A   1      42.051  24.097  26.490  1.00  0.00     0.055 A 
ATOM     64  C   UNL A   1      43.215  25.929  25.456  1.00  0.00     0.041 A 
ATOM     65  F   UNL A   1      43.378  27.981  26.569  1.00  0.00    -0.206 F 
ATOM     66  C   UNL A   1      42.803  24.599  25.426  1.00  0.00     0.022 A 
BRANCH  63  67
ATOM     67  S   UNL A   1      41.676  22.324  26.578  1.00  0.00     0.124 S 
ATOM     68  O   UNL A   1      42.342  21.822  25.379  1.00  0.00    -0.237 OA
ATOM     69  O   UNL A   1      42.271  21.938  27.851  1.00  0.00    -0.237 OA
ATOM     70  O   UNL A   1      40.216  22.281  26.533  1.00  0.00    -0.744 OA
ENDBRANCH  63  67
ENDBRANCH  46  60
BRANCH  47  71
ATOM     71  C   UNL A   1      39.576  32.174  35.300  1.00  0.00     0.023 A 
ATOM     72  C   UNL A   1      38.809  31.638  36.346  1.00  0.00     0.031 A 
ATOM     73  C   UNL A   1      39.917  33.539  35.365  1.00  0.00     0.131 A 
ATOM     74  C   UNL A   1      38.370  32.469  37.389  1.00  0.00     0.055 A 
ATOM     75  C   UNL A   1      39.525  34.347  36.433  1.00  0.00     0.041 A 
ATOM     76  F   UNL A   1      40.646  34.105  34.390  1.00  0.00    -0.206 F 
ATOM     77  C   UNL A   1      38.734  33.816  37.447  1.00  0.00     0.022 A 
BRANCH  74  78
ATOM     78  S   UNL A   1      37.236  31.783  38.628  1.00  0.00     0.124 S 
ATOM     79  O   UNL A   1      36.096  32.687  38.521  1.00  0.00    -0.237 OA
ATOM     80  O   UNL A   1      37.029  30.427  38.133  1.00  0.00    -0.237 OA
ATOM     81  O   UNL A   1      37.994  31.881  39.874  1.00  0.00    -0.744 OA
ENDBRANCH  74  78
ENDBRANCH  47  71
BRANCH  59  82
ATOM     82  C   UNL A   1      44.872  27.775  34.143  1.00  0.00     0.023 A 
ATOM     83  C   UNL A   1      44.886  26.677  35.020  1.00  0.00     0.031 A 
ATOM     84  C   UNL A   1      46.046  28.541  34.018  1.00  0.00     0.131 A 
ATOM     85  C   UNL A   1      46.041  26.397  35.768  1.00  0.00     0.055 A 
ATOM     86  C   UNL A   1      47.206  28.227  34.727  1.00  0.00     0.041 A 
ATOM     87  F   UNL A   1      46.085  29.599  33.194  1.00  0.00    -0.206 F 
ATOM     88  C   UNL A   1      47.205  27.156  35.614  1.00  0.00     0.022 A 
BRANCH  85  89
ATOM     89  S   UNL A   1      45.990  25.058  36.990  1.00  0.00     0.124 S 
ATOM     90  O   UNL A   1      45.897  23.875  36.141  1.00  0.00    -0.237 OA
ATOM     91  O   UNL A   1      47.251  25.235  37.702  1.00  0.00    -0.237 OA
ATOM     92  O   UNL A   1      44.792  25.353  37.774  1.00  0.00    -0.744 OA
ENDBRANCH  85  89
ENDBRANCH  59  82
ENDBRANCH  33  34
ENDBRANCH  26  28
ENDBRANCH  25  26
ENDBRANCH  24  25
ENDBRANCH   1  24
TORSDOF 20
ENDMDL
