MODEL 1
REMARK VINA RESULT:     -11.2      0.000      0.000
REMARK SMILES O=C(OCCOC(=O)c1cc(Br)ccc1NC(=O)c1ccc(Br)s1)c1ccc(-c2c3nc(c(-c4cc(S(=O)(=O)[O-])ccc4F)c4ccc([nH]4)c(-c4cc(S(=O)(=O)[O-])ccc4F)c4nc(c(-c5cc(S(=O)(=O)[O-])ccc5F)c5ccc2[nH]5)C=C4)C=C3)cc1
REMARK SMILES IDX 4 1 3 2 2 3 1 4 25 5 26 6 87 7 27 8 86 9 28 10 29 11 30 12
REMARK SMILES IDX 80 13 31 14 85 15 79 16 81 17 32 18 84 19 78 20 77 21 33 23
REMARK SMILES IDX 65 24 45 25 64 26 46 27 49 28 63 29 82 30 47 31 48 32 62 34
REMARK SMILES IDX 83 35 50 36 34 37 35 38 43 39 36 40 42 41 44 42 41 43 37 44
REMARK SMILES IDX 38 45 39 46 40 47 66 48 67 49 75 50 68 51 74 52 76 53 73 54
REMARK SMILES IDX 69 55 70 56 71 57 72 58 51 59 52 60 60 61 53 62 59 63 61 64
REMARK SMILES IDX 58 65 54 66 55 67 56 68 57 69 5 70 6 71 7 72 8 73 9 74 10 75
REMARK SMILES IDX 15 76 11 77 14 78 12 79 13 80 16 81 17 82 18 84 19 85 20 86
REMARK SMILES IDX 24 87 21 88 22 89 23 90
REMARK H PARENT 81 22 49 33 16 83
REMARK Flexibility Score: inf
ROOT
ATOM      1  C   UNL A   1      31.737  29.368  26.596  1.00  0.00     0.275 C 
ENDROOT
BRANCH   1   2
ATOM      2  O   UNL A   1      32.914  30.163  26.396  1.00  0.00    -0.458 OA
BRANCH   2   3
ATOM      3  C   UNL A   1      33.503  31.077  27.200  1.00  0.00     0.338 C 
ATOM      4  O   UNL A   1      32.943  32.163  27.340  1.00  0.00    -0.246 OA
BRANCH   3   5
ATOM      5  C   UNL A   1      34.860  30.908  27.821  1.00  0.00     0.060 A 
ATOM      6  C   UNL A   1      35.862  31.877  27.917  1.00  0.00     0.016 A 
ATOM      7  C   UNL A   1      35.124  29.650  28.390  1.00  0.00     0.016 A 
ATOM      8  C   UNL A   1      37.031  31.648  28.650  1.00  0.00     0.010 A 
ATOM      9  C   UNL A   1      36.278  29.422  29.142  1.00  0.00     0.010 A 
ATOM     10  C   UNL A   1      37.238  30.431  29.291  1.00  0.00    -0.014 A 
BRANCH  10  11
ATOM     11  C   UNL A   1      38.522  30.148  29.975  1.00  0.00     0.031 A 
ATOM     12  C   UNL A   1      39.420  29.111  29.370  1.00  0.00     0.074 A 
ATOM     13  C   UNL A   1      38.891  30.807  31.092  1.00  0.00     0.049 A 
ATOM     14  N   UNL A   1      40.545  28.628  29.821  1.00  0.00    -0.248 NA
ATOM     15  C   UNL A   1      39.000  28.555  28.073  1.00  0.00     0.031 C 
ATOM     16  C   UNL A   1      38.163  31.916  31.707  1.00  0.00     0.029 A 
ATOM     17  N   UNL A   1      39.968  30.625  31.926  1.00  0.00    -0.354 N 
ATOM     18  C   UNL A   1      40.973  27.726  28.855  1.00  0.00     0.074 A 
ATOM     19  C   UNL A   1      39.950  27.668  27.837  1.00  0.00     0.031 C 
ATOM     20  C   UNL A   1      38.773  32.266  32.853  1.00  0.00     0.029 A 
ATOM     21  C   UNL A   1      39.911  31.388  33.073  1.00  0.00     0.049 A 
ATOM     22  H   UNL A   1      40.709  30.010  31.724  1.00  0.00     0.167 HD
ATOM     23  C   UNL A   1      42.141  27.044  28.804  1.00  0.00     0.034 A 
ATOM     24  C   UNL A   1      40.669  31.350  34.188  1.00  0.00     0.034 A 
ATOM     25  C   UNL A   1      43.147  27.127  29.826  1.00  0.00     0.049 A 
ATOM     26  C   UNL A   1      41.865  30.435  34.201  1.00  0.00     0.074 A 
ATOM     27  C   UNL A   1      44.391  26.525  29.859  1.00  0.00     0.029 A 
ATOM     28  N   UNL A   1      43.014  27.841  31.009  1.00  0.00    -0.354 N 
ATOM     29  N   UNL A   1      42.286  29.627  33.256  1.00  0.00    -0.248 NA
ATOM     30  C   UNL A   1      42.706  30.452  35.404  1.00  0.00     0.031 C 
ATOM     31  C   UNL A   1      44.973  26.807  31.099  1.00  0.00     0.029 A 
ATOM     32  C   UNL A   1      44.127  27.646  31.806  1.00  0.00     0.049 A 
ATOM     33  H   UNL A   1      42.239  28.402  31.246  1.00  0.00     0.167 HD
ATOM     34  C   UNL A   1      43.475  29.084  33.728  1.00  0.00     0.074 A 
ATOM     35  C   UNL A   1      43.695  29.647  35.045  1.00  0.00     0.031 C 
ATOM     36  C   UNL A   1      44.321  28.217  33.118  1.00  0.00     0.034 A 
BRANCH  23  37
ATOM     37  C   UNL A   1      42.351  26.135  27.625  1.00  0.00     0.023 A 
ATOM     38  C   UNL A   1      41.874  24.811  27.619  1.00  0.00     0.031 A 
ATOM     39  C   UNL A   1      43.084  26.580  26.514  1.00  0.00     0.131 A 
ATOM     40  C   UNL A   1      42.198  23.958  26.555  1.00  0.00     0.055 A 
ATOM     41  C   UNL A   1      43.339  25.749  25.423  1.00  0.00     0.041 A 
ATOM     42  F   UNL A   1      43.587  27.825  26.483  1.00  0.00    -0.206 F 
ATOM     43  C   UNL A   1      42.906  24.426  25.445  1.00  0.00     0.022 A 
BRANCH  40  44
ATOM     44  S   UNL A   1      41.800  22.196  26.705  1.00  0.00     0.124 S 
ATOM     45  O   UNL A   1      42.102  21.709  25.361  1.00  0.00    -0.237 OA
ATOM     46  O   UNL A   1      42.706  21.755  27.761  1.00  0.00    -0.237 OA
ATOM     47  O   UNL A   1      40.383  22.193  27.059  1.00  0.00    -0.744 OA
ENDBRANCH  40  44
ENDBRANCH  23  37
BRANCH  24  48
ATOM     48  C   UNL A   1      40.298  32.123  35.410  1.00  0.00     0.023 A 
ATOM     49  C   UNL A   1      39.338  31.657  36.321  1.00  0.00     0.031 A 
ATOM     50  C   UNL A   1      40.822  33.414  35.610  1.00  0.00     0.131 A 
ATOM     51  C   UNL A   1      38.890  32.496  37.357  1.00  0.00     0.055 A 
ATOM     52  C   UNL A   1      40.415  34.222  36.674  1.00  0.00     0.041 A 
ATOM     53  F   UNL A   1      41.722  33.920  34.750  1.00  0.00    -0.206 F 
ATOM     54  C   UNL A   1      39.432  33.770  37.547  1.00  0.00     0.022 A 
BRANCH  51  55
ATOM     55  S   UNL A   1      37.492  31.949  38.377  1.00  0.00     0.124 S 
ATOM     56  O   UNL A   1      36.454  32.898  37.990  1.00  0.00    -0.237 OA
ATOM     57  O   UNL A   1      37.307  30.575  37.923  1.00  0.00    -0.237 OA
ATOM     58  O   UNL A   1      37.989  32.090  39.744  1.00  0.00    -0.744 OA
ENDBRANCH  51  55
ENDBRANCH  24  48
BRANCH  36  59
ATOM     59  C   UNL A   1      45.585  27.868  33.852  1.00  0.00     0.023 A 
ATOM     60  C   UNL A   1      45.660  26.745  34.689  1.00  0.00     0.031 A 
ATOM     61  C   UNL A   1      46.734  28.663  33.693  1.00  0.00     0.131 A 
ATOM     62  C   UNL A   1      46.852  26.468  35.372  1.00  0.00     0.055 A 
ATOM     63  C   UNL A   1      47.935  28.345  34.323  1.00  0.00     0.041 A 
ATOM     64  F   UNL A   1      46.708  29.752  32.908  1.00  0.00    -0.206 F 
ATOM     65  C   UNL A   1      47.996  27.246  35.176  1.00  0.00     0.022 A 
BRANCH  62  66
ATOM     66  S   UNL A   1      46.864  25.115  36.576  1.00  0.00     0.124 S 
ATOM     67  O   UNL A   1      47.155  23.962  35.731  1.00  0.00    -0.237 OA
ATOM     68  O   UNL A   1      47.926  25.518  37.491  1.00  0.00    -0.237 OA
ATOM     69  O   UNL A   1      45.515  25.148  37.141  1.00  0.00    -0.744 OA
ENDBRANCH  62  66
ENDBRANCH  36  59
ENDBRANCH  10  11
ENDBRANCH   3   5
ENDBRANCH   2   3
ENDBRANCH   1   2
BRANCH   1  70
ATOM     70  C   UNL A   1      31.913  28.197  27.566  1.00  0.00     0.275 C 
BRANCH  70  71
ATOM     71  O   UNL A   1      31.877  26.894  26.961  1.00  0.00    -0.458 OA
BRANCH  71  72
ATOM     72  C   UNL A   1      32.907  26.578  26.129  1.00  0.00     0.340 C 
ATOM     73  O   UNL A   1      34.071  26.906  26.238  1.00  0.00    -0.246 OA
BRANCH  72  74
ATOM     74  C   UNL A   1      32.390  25.675  25.081  1.00  0.00     0.084 A 
ATOM     75  C   UNL A   1      32.570  26.064  23.747  1.00  0.00     0.033 A 
ATOM     76  C   UNL A   1      31.735  24.470  25.397  1.00  0.00     0.056 A 
ATOM     77  C   UNL A   1      32.026  25.291  22.729  1.00  0.00     0.018 A 
ATOM     78  C   UNL A   1      30.989  23.881  24.373  1.00  0.00     0.028 A 
ATOM     79  Br  UNL A   1      32.507  25.629  20.939  1.00  0.00    -0.051 Br
ATOM     80  C   UNL A   1      31.152  24.261  23.039  1.00  0.00     0.018 A 
BRANCH  76  81
ATOM     81  N   UNL A   1      31.863  23.906  26.692  1.00  0.00    -0.320 N 
ATOM     82  C   UNL A   1      32.631  22.872  27.208  1.00  0.00     0.265 C 
ATOM     83  H   UNL A   1      31.286  24.338  27.364  1.00  0.00     0.170 HD
ATOM     84  O   UNL A   1      32.511  22.626  28.410  1.00  0.00    -0.268 OA
BRANCH  82  85
ATOM     85  C   UNL A   1      33.561  22.140  26.374  1.00  0.00     0.093 A 
ATOM     86  C   UNL A   1      33.375  20.989  25.626  1.00  0.00     0.027 A 
ATOM     87  S   UNL A   1      35.164  22.735  26.213  1.00  0.00    -0.123 S 
ATOM     88  C   UNL A   1      34.600  20.506  25.070  1.00  0.00     0.028 A 
ATOM     89  C   UNL A   1      35.634  21.370  25.328  1.00  0.00     0.071 A 
ATOM     90  Br  UNL A   1      37.396  21.071  24.769  1.00  0.00    -0.039 Br
ENDBRANCH  82  85
ENDBRANCH  76  81
ENDBRANCH  72  74
ENDBRANCH  71  72
ENDBRANCH  70  71
ENDBRANCH   1  70
TORSDOF 16
ENDMDL
MODEL 2
REMARK VINA RESULT:     -11.1      5.244     10.216
REMARK SMILES O=C(OCCOC(=O)c1cc(Br)ccc1NC(=O)c1ccc(Br)s1)c1ccc(-c2c3nc(c(-c4cc(S(=O)(=O)[O-])ccc4F)c4ccc([nH]4)c(-c4cc(S(=O)(=O)[O-])ccc4F)c4nc(c(-c5cc(S(=O)(=O)[O-])ccc5F)c5ccc2[nH]5)C=C4)C=C3)cc1
REMARK SMILES IDX 4 1 3 2 2 3 1 4 25 5 26 6 87 7 27 8 86 9 28 10 29 11 30 12
REMARK SMILES IDX 80 13 31 14 85 15 79 16 81 17 32 18 84 19 78 20 77 21 33 23
REMARK SMILES IDX 65 24 45 25 64 26 46 27 49 28 63 29 82 30 47 31 48 32 62 34
REMARK SMILES IDX 83 35 50 36 34 37 35 38 43 39 36 40 42 41 44 42 41 43 37 44
REMARK SMILES IDX 38 45 39 46 40 47 66 48 67 49 75 50 68 51 74 52 76 53 73 54
REMARK SMILES IDX 69 55 70 56 71 57 72 58 51 59 52 60 60 61 53 62 59 63 61 64
REMARK SMILES IDX 58 65 54 66 55 67 56 68 57 69 5 70 6 71 7 72 8 73 9 74 10 75
REMARK SMILES IDX 15 76 11 77 14 78 12 79 13 80 16 81 17 82 18 84 19 85 20 86
REMARK SMILES IDX 24 87 21 88 22 89 23 90
REMARK H PARENT 81 22 49 33 16 83
REMARK Flexibility Score: inf
ROOT
ATOM      1  C   UNL A   1      38.580  19.859  25.042  1.00  0.00     0.275 C 
ENDROOT
BRANCH   1   2
ATOM      2  O   UNL A   1      39.572  19.490  26.011  1.00  0.00    -0.458 OA
BRANCH   2   3
ATOM      3  C   UNL A   1      40.870  19.851  26.120  1.00  0.00     0.338 C 
ATOM      4  O   UNL A   1      41.723  18.984  25.936  1.00  0.00    -0.246 OA
BRANCH   3   5
ATOM      5  C   UNL A   1      41.338  21.200  26.586  1.00  0.00     0.060 A 
ATOM      6  C   UNL A   1      41.700  21.556  27.887  1.00  0.00     0.016 A 
ATOM      7  C   UNL A   1      41.449  22.188  25.592  1.00  0.00     0.016 A 
ATOM      8  C   UNL A   1      42.261  22.805  28.173  1.00  0.00     0.010 A 
ATOM      9  C   UNL A   1      42.031  23.429  25.865  1.00  0.00     0.010 A 
ATOM     10  C   UNL A   1      42.458  23.741  27.162  1.00  0.00    -0.014 A 
BRANCH  10  11
ATOM     11  C   UNL A   1      42.951  25.101  27.481  1.00  0.00     0.031 A 
ATOM     12  C   UNL A   1      41.971  26.081  28.055  1.00  0.00     0.074 A 
ATOM     13  C   UNL A   1      44.238  25.454  27.286  1.00  0.00     0.049 A 
ATOM     14  N   UNL A   1      42.135  27.344  28.335  1.00  0.00    -0.248 NA
ATOM     15  C   UNL A   1      40.630  25.559  28.370  1.00  0.00     0.031 C 
ATOM     16  C   UNL A   1      45.309  24.559  26.848  1.00  0.00     0.029 A 
ATOM     17  N   UNL A   1      44.864  26.671  27.412  1.00  0.00    -0.354 N 
ATOM     18  C   UNL A   1      40.924  27.763  28.874  1.00  0.00     0.074 A 
ATOM     19  C   UNL A   1      40.013  26.644  28.805  1.00  0.00     0.031 C 
ATOM     20  C   UNL A   1      46.437  25.271  26.675  1.00  0.00     0.029 A 
ATOM     21  C   UNL A   1      46.163  26.672  26.953  1.00  0.00     0.049 A 
ATOM     22  H   UNL A   1      44.425  27.466  27.793  1.00  0.00     0.167 HD
ATOM     23  C   UNL A   1      40.620  28.963  29.419  1.00  0.00     0.034 A 
ATOM     24  C   UNL A   1      47.017  27.694  26.745  1.00  0.00     0.034 A 
ATOM     25  C   UNL A   1      41.548  30.058  29.484  1.00  0.00     0.049 A 
ATOM     26  C   UNL A   1      46.592  29.072  27.178  1.00  0.00     0.074 A 
ATOM     27  C   UNL A   1      41.372  31.301  30.060  1.00  0.00     0.029 A 
ATOM     28  N   UNL A   1      42.822  30.046  28.932  1.00  0.00    -0.354 N 
ATOM     29  N   UNL A   1      45.462  29.441  27.736  1.00  0.00    -0.248 NA
ATOM     30  C   UNL A   1      47.560  30.160  26.992  1.00  0.00     0.031 C 
ATOM     31  C   UNL A   1      42.507  32.070  29.781  1.00  0.00     0.029 A 
ATOM     32  C   UNL A   1      43.421  31.281  29.101  1.00  0.00     0.049 A 
ATOM     33  H   UNL A   1      43.237  29.272  28.485  1.00  0.00     0.167 HD
ATOM     34  C   UNL A   1      45.608  30.793  28.022  1.00  0.00     0.074 A 
ATOM     35  C   UNL A   1      46.929  31.175  27.563  1.00  0.00     0.031 C 
ATOM     36  C   UNL A   1      44.738  31.638  28.630  1.00  0.00     0.034 A 
BRANCH  23  37
ATOM     37  C   UNL A   1      39.222  29.142  29.943  1.00  0.00     0.023 A 
ATOM     38  C   UNL A   1      38.230  29.797  29.191  1.00  0.00     0.031 A 
ATOM     39  C   UNL A   1      38.891  28.697  31.233  1.00  0.00     0.131 A 
ATOM     40  C   UNL A   1      36.976  30.053  29.764  1.00  0.00     0.055 A 
ATOM     41  C   UNL A   1      37.617  28.888  31.769  1.00  0.00     0.041 A 
ATOM     42  F   UNL A   1      39.809  28.093  32.003  1.00  0.00    -0.206 F 
ATOM     43  C   UNL A   1      36.655  29.581  31.039  1.00  0.00     0.022 A 
BRANCH  40  44
ATOM     44  S   UNL A   1      35.820  31.130  28.874  1.00  0.00     0.124 S 
ATOM     45  O   UNL A   1      36.735  31.999  28.137  1.00  0.00    -0.237 OA
ATOM     46  O   UNL A   1      35.057  30.181  28.071  1.00  0.00    -0.237 OA
ATOM     47  O   UNL A   1      35.071  31.786  29.943  1.00  0.00    -0.744 OA
ENDBRANCH  40  44
ENDBRANCH  23  37
BRANCH  24  48
ATOM     48  C   UNL A   1      48.315  27.495  26.033  1.00  0.00     0.023 A 
ATOM     49  C   UNL A   1      48.424  27.624  24.639  1.00  0.00     0.031 A 
ATOM     50  C   UNL A   1      49.443  27.044  26.742  1.00  0.00     0.131 A 
ATOM     51  C   UNL A   1      49.617  27.253  23.994  1.00  0.00     0.055 A 
ATOM     52  C   UNL A   1      50.644  26.730  26.102  1.00  0.00     0.041 A 
ATOM     53  F   UNL A   1      49.382  26.874  28.074  1.00  0.00    -0.206 F 
ATOM     54  C   UNL A   1      50.732  26.819  24.717  1.00  0.00     0.022 A 
BRANCH  51  55
ATOM     55  S   UNL A   1      49.650  27.219  22.179  1.00  0.00     0.124 S 
ATOM     56  O   UNL A   1      51.040  26.860  21.916  1.00  0.00    -0.237 OA
ATOM     57  O   UNL A   1      48.655  26.197  21.878  1.00  0.00    -0.237 OA
ATOM     58  O   UNL A   1      49.275  28.582  21.805  1.00  0.00    -0.744 OA
ENDBRANCH  51  55
ENDBRANCH  24  48
BRANCH  36  59
ATOM     59  C   UNL A   1      45.213  33.042  28.878  1.00  0.00     0.023 A 
ATOM     60  C   UNL A   1      44.812  34.107  28.058  1.00  0.00     0.031 A 
ATOM     61  C   UNL A   1      46.062  33.316  29.964  1.00  0.00     0.131 A 
ATOM     62  C   UNL A   1      45.295  35.397  28.312  1.00  0.00     0.055 A 
ATOM     63  C   UNL A   1      46.487  34.612  30.251  1.00  0.00     0.041 A 
ATOM     64  F   UNL A   1      46.479  32.328  30.774  1.00  0.00    -0.206 F 
ATOM     65  C   UNL A   1      46.110  35.661  29.416  1.00  0.00     0.022 A 
BRANCH  62  66
ATOM     66  S   UNL A   1      44.899  36.715  27.134  1.00  0.00     0.124 S 
ATOM     67  O   UNL A   1      44.745  37.869  28.015  1.00  0.00    -0.237 OA
ATOM     68  O   UNL A   1      46.073  36.727  26.269  1.00  0.00    -0.237 OA
ATOM     69  O   UNL A   1      43.667  36.248  26.500  1.00  0.00    -0.744 OA
ENDBRANCH  62  66
ENDBRANCH  36  59
ENDBRANCH  10  11
ENDBRANCH   3   5
ENDBRANCH   2   3
ENDBRANCH   1   2
BRANCH   1  70
ATOM     70  C   UNL A   1      37.840  21.164  25.349  1.00  0.00     0.275 C 
BRANCH  70  71
ATOM     71  O   UNL A   1      36.609  21.009  26.072  1.00  0.00    -0.458 OA
BRANCH  71  72
ATOM     72  C   UNL A   1      35.541  21.725  25.622  1.00  0.00     0.340 C 
ATOM     73  O   UNL A   1      35.479  22.925  25.445  1.00  0.00    -0.246 OA
BRANCH  72  74
ATOM     74  C   UNL A   1      34.459  20.776  25.293  1.00  0.00     0.084 A 
ATOM     75  C   UNL A   1      34.820  19.581  24.656  1.00  0.00     0.033 A 
ATOM     76  C   UNL A   1      33.113  21.051  25.597  1.00  0.00     0.056 A 
ATOM     77  C   UNL A   1      33.830  18.696  24.251  1.00  0.00     0.018 A 
ATOM     78  C   UNL A   1      32.156  20.272  24.941  1.00  0.00     0.028 A 
ATOM     79  Br  UNL A   1      34.302  16.966  23.670  1.00  0.00    -0.051 Br
ATOM     80  C   UNL A   1      32.500  19.082  24.298  1.00  0.00     0.018 A 
BRANCH  76  81
ATOM     81  N   UNL A   1      32.785  22.062  26.536  1.00  0.00    -0.320 N 
ATOM     82  C   UNL A   1      32.245  23.334  26.416  1.00  0.00     0.265 C 
ATOM     83  H   UNL A   1      32.982  21.808  27.468  1.00  0.00     0.170 HD
ATOM     84  O   UNL A   1      32.074  23.976  27.454  1.00  0.00    -0.268 OA
BRANCH  82  85
ATOM     85  C   UNL A   1      31.864  23.868  25.124  1.00  0.00     0.093 A 
ATOM     86  C   UNL A   1      30.653  23.805  24.453  1.00  0.00     0.027 A 
ATOM     87  S   UNL A   1      33.029  24.751  24.224  1.00  0.00    -0.123 S 
ATOM     88  C   UNL A   1      30.747  24.329  23.127  1.00  0.00     0.028 A 
ATOM     89  C   UNL A   1      31.988  24.865  22.893  1.00  0.00     0.071 A 
ATOM     90  Br  UNL A   1      32.493  25.636  21.263  1.00  0.00    -0.039 Br
ENDBRANCH  82  85
ENDBRANCH  76  81
ENDBRANCH  72  74
ENDBRANCH  71  72
ENDBRANCH  70  71
ENDBRANCH   1  70
TORSDOF 16
ENDMDL
MODEL 3
REMARK VINA RESULT:     -11.0      4.917      7.659
REMARK SMILES O=C(OCCOC(=O)c1cc(Br)ccc1NC(=O)c1ccc(Br)s1)c1ccc(-c2c3nc(c(-c4cc(S(=O)(=O)[O-])ccc4F)c4ccc([nH]4)c(-c4cc(S(=O)(=O)[O-])ccc4F)c4nc(c(-c5cc(S(=O)(=O)[O-])ccc5F)c5ccc2[nH]5)C=C4)C=C3)cc1
REMARK SMILES IDX 4 1 3 2 2 3 1 4 25 5 26 6 87 7 27 8 86 9 28 10 29 11 30 12
REMARK SMILES IDX 80 13 31 14 85 15 79 16 81 17 32 18 84 19 78 20 77 21 33 23
REMARK SMILES IDX 65 24 45 25 64 26 46 27 49 28 63 29 82 30 47 31 48 32 62 34
REMARK SMILES IDX 83 35 50 36 34 37 35 38 43 39 36 40 42 41 44 42 41 43 37 44
REMARK SMILES IDX 38 45 39 46 40 47 66 48 67 49 75 50 68 51 74 52 76 53 73 54
REMARK SMILES IDX 69 55 70 56 71 57 72 58 51 59 52 60 60 61 53 62 59 63 61 64
REMARK SMILES IDX 58 65 54 66 55 67 56 68 57 69 5 70 6 71 7 72 8 73 9 74 10 75
REMARK SMILES IDX 15 76 11 77 14 78 12 79 13 80 16 81 17 82 18 84 19 85 20 86
REMARK SMILES IDX 24 87 21 88 22 89 23 90
REMARK H PARENT 81 22 49 33 16 83
REMARK Flexibility Score: inf
ROOT
ATOM      1  C   UNL A   1      38.642  19.630  25.368  1.00  0.00     0.275 C 
ENDROOT
BRANCH   1   2
ATOM      2  O   UNL A   1      40.038  19.695  25.693  1.00  0.00    -0.458 OA
BRANCH   2   3
ATOM      3  C   UNL A   1      40.658  20.090  26.828  1.00  0.00     0.338 C 
ATOM      4  O   UNL A   1      40.863  19.241  27.694  1.00  0.00    -0.246 OA
BRANCH   3   5
ATOM      5  C   UNL A   1      40.987  21.517  27.161  1.00  0.00     0.060 A 
ATOM      6  C   UNL A   1      41.540  21.992  28.353  1.00  0.00     0.016 A 
ATOM      7  C   UNL A   1      40.737  22.458  26.147  1.00  0.00     0.016 A 
ATOM      8  C   UNL A   1      41.939  23.325  28.493  1.00  0.00     0.010 A 
ATOM      9  C   UNL A   1      41.155  23.786  26.271  1.00  0.00     0.010 A 
ATOM     10  C   UNL A   1      41.777  24.226  27.446  1.00  0.00    -0.014 A 
BRANCH  10  11
ATOM     11  C   UNL A   1      42.099  25.661  27.630  1.00  0.00     0.031 A 
ATOM     12  C   UNL A   1      43.441  26.139  27.160  1.00  0.00     0.074 A 
ATOM     13  C   UNL A   1      41.219  26.521  28.180  1.00  0.00     0.049 A 
ATOM     14  N   UNL A   1      43.987  27.317  27.285  1.00  0.00    -0.248 NA
ATOM     15  C   UNL A   1      44.271  25.159  26.439  1.00  0.00     0.031 C 
ATOM     16  C   UNL A   1      39.844  26.204  28.565  1.00  0.00     0.029 A 
ATOM     17  N   UNL A   1      41.357  27.842  28.533  1.00  0.00    -0.354 N 
ATOM     18  C   UNL A   1      45.216  27.223  26.643  1.00  0.00     0.074 A 
ATOM     19  C   UNL A   1      45.370  25.855  26.205  1.00  0.00     0.031 C 
ATOM     20  C   UNL A   1      39.293  27.275  29.162  1.00  0.00     0.029 A 
ATOM     21  C   UNL A   1      40.280  28.340  29.235  1.00  0.00     0.049 A 
ATOM     22  H   UNL A   1      42.149  28.381  28.305  1.00  0.00     0.167 HD
ATOM     23  C   UNL A   1      46.113  28.207  26.404  1.00  0.00     0.034 A 
ATOM     24  C   UNL A   1      40.129  29.507  29.894  1.00  0.00     0.034 A 
ATOM     25  C   UNL A   1      45.933  29.563  26.843  1.00  0.00     0.049 A 
ATOM     26  C   UNL A   1      41.227  30.530  29.784  1.00  0.00     0.074 A 
ATOM     27  C   UNL A   1      46.745  30.657  26.613  1.00  0.00     0.029 A 
ATOM     28  N   UNL A   1      44.873  30.005  27.623  1.00  0.00    -0.354 N 
ATOM     29  N   UNL A   1      42.361  30.445  29.127  1.00  0.00    -0.248 NA
ATOM     30  C   UNL A   1      41.015  31.814  30.464  1.00  0.00     0.031 C 
ATOM     31  C   UNL A   1      46.222  31.740  27.326  1.00  0.00     0.029 A 
ATOM     32  C   UNL A   1      45.042  31.342  27.935  1.00  0.00     0.049 A 
ATOM     33  H   UNL A   1      44.114  29.449  27.913  1.00  0.00     0.167 HD
ATOM     34  C   UNL A   1      42.971  31.686  29.267  1.00  0.00     0.074 A 
ATOM     35  C   UNL A   1      42.084  32.496  30.081  1.00  0.00     0.031 C 
ATOM     36  C   UNL A   1      44.145  32.126  28.751  1.00  0.00     0.034 A 
BRANCH  23  37
ATOM     37  C   UNL A   1      47.369  27.825  25.670  1.00  0.00     0.023 A 
ATOM     38  C   UNL A   1      47.522  28.065  24.292  1.00  0.00     0.031 A 
ATOM     39  C   UNL A   1      48.406  27.163  26.347  1.00  0.00     0.131 A 
ATOM     40  C   UNL A   1      48.654  27.582  23.622  1.00  0.00     0.055 A 
ATOM     41  C   UNL A   1      49.566  26.753  25.688  1.00  0.00     0.041 A 
ATOM     42  F   UNL A   1      48.297  26.884  27.655  1.00  0.00    -0.206 F 
ATOM     43  C   UNL A   1      49.689  26.949  24.316  1.00  0.00     0.022 A 
BRANCH  40  44
ATOM     44  S   UNL A   1      48.693  27.671  21.811  1.00  0.00     0.124 S 
ATOM     45  O   UNL A   1      49.172  26.336  21.460  1.00  0.00    -0.237 OA
ATOM     46  O   UNL A   1      47.301  27.957  21.479  1.00  0.00    -0.237 OA
ATOM     47  O   UNL A   1      49.634  28.756  21.541  1.00  0.00    -0.744 OA
ENDBRANCH  40  44
ENDBRANCH  23  37
BRANCH  24  48
ATOM     48  C   UNL A   1      38.951  29.757  30.777  1.00  0.00     0.023 A 
ATOM     49  C   UNL A   1      37.879  30.569  30.374  1.00  0.00     0.031 A 
ATOM     50  C   UNL A   1      38.951  29.277  32.100  1.00  0.00     0.131 A 
ATOM     51  C   UNL A   1      36.882  30.922  31.300  1.00  0.00     0.055 A 
ATOM     52  C   UNL A   1      37.928  29.585  33.000  1.00  0.00     0.041 A 
ATOM     53  F   UNL A   1      39.967  28.520  32.546  1.00  0.00    -0.206 F 
ATOM     54  C   UNL A   1      36.892  30.425  32.606  1.00  0.00     0.022 A 
BRANCH  51  55
ATOM     55  S   UNL A   1      35.637  32.150  30.811  1.00  0.00     0.124 S 
ATOM     56  O   UNL A   1      34.707  32.089  31.934  1.00  0.00    -0.237 OA
ATOM     57  O   UNL A   1      36.437  33.365  30.705  1.00  0.00    -0.237 OA
ATOM     58  O   UNL A   1      35.123  31.631  29.546  1.00  0.00    -0.744 OA
ENDBRANCH  51  55
ENDBRANCH  24  48
BRANCH  36  59
ATOM     59  C   UNL A   1      44.509  33.561  29.010  1.00  0.00     0.023 A 
ATOM     60  C   UNL A   1      45.250  33.937  30.140  1.00  0.00     0.031 A 
ATOM     61  C   UNL A   1      44.123  34.560  28.099  1.00  0.00     0.131 A 
ATOM     62  C   UNL A   1      45.549  35.289  30.354  1.00  0.00     0.055 A 
ATOM     63  C   UNL A   1      44.480  35.894  28.284  1.00  0.00     0.041 A 
ATOM     64  F   UNL A   1      43.406  34.250  27.006  1.00  0.00    -0.206 F 
ATOM     65  C   UNL A   1      45.190  36.266  29.422  1.00  0.00     0.022 A 
BRANCH  62  66
ATOM     66  S   UNL A   1      46.354  35.760  31.907  1.00  0.00     0.124 S 
ATOM     67  O   UNL A   1      45.746  37.058  32.179  1.00  0.00    -0.237 OA
ATOM     68  O   UNL A   1      45.969  34.676  32.803  1.00  0.00    -0.237 OA
ATOM     69  O   UNL A   1      47.774  35.799  31.557  1.00  0.00    -0.744 OA
ENDBRANCH  62  66
ENDBRANCH  36  59
ENDBRANCH  10  11
ENDBRANCH   3   5
ENDBRANCH   2   3
ENDBRANCH   1   2
BRANCH   1  70
ATOM     70  C   UNL A   1      37.944  20.990  25.272  1.00  0.00     0.275 C 
BRANCH  70  71
ATOM     71  O   UNL A   1      36.607  20.952  24.748  1.00  0.00    -0.458 OA
BRANCH  71  72
ATOM     72  C   UNL A   1      35.596  21.149  25.638  1.00  0.00     0.340 C 
ATOM     73  O   UNL A   1      35.562  21.948  26.551  1.00  0.00    -0.246 OA
BRANCH  72  74
ATOM     74  C   UNL A   1      34.474  20.267  25.260  1.00  0.00     0.084 A 
ATOM     75  C   UNL A   1      34.783  19.094  24.557  1.00  0.00     0.033 A 
ATOM     76  C   UNL A   1      33.140  20.580  25.583  1.00  0.00     0.056 A 
ATOM     77  C   UNL A   1      33.756  18.276  24.105  1.00  0.00     0.018 A 
ATOM     78  C   UNL A   1      32.151  19.881  24.888  1.00  0.00     0.028 A 
ATOM     79  Br  UNL A   1      34.153  16.563  23.427  1.00  0.00    -0.051 Br
ATOM     80  C   UNL A   1      32.443  18.715  24.178  1.00  0.00     0.018 A 
BRANCH  76  81
ATOM     81  N   UNL A   1      32.856  21.551  26.579  1.00  0.00    -0.320 N 
ATOM     82  C   UNL A   1      32.378  22.851  26.530  1.00  0.00     0.265 C 
ATOM     83  H   UNL A   1      33.037  21.234  27.494  1.00  0.00     0.170 HD
ATOM     84  O   UNL A   1      32.233  23.440  27.604  1.00  0.00    -0.268 OA
BRANCH  82  85
ATOM     85  C   UNL A   1      32.029  23.476  25.271  1.00  0.00     0.093 A 
ATOM     86  C   UNL A   1      30.851  23.424  24.545  1.00  0.00     0.027 A 
ATOM     87  S   UNL A   1      33.193  24.475  24.498  1.00  0.00    -0.123 S 
ATOM     88  C   UNL A   1      30.977  24.060  23.270  1.00  0.00     0.028 A 
ATOM     89  C   UNL A   1      32.204  24.659  23.137  1.00  0.00     0.071 A 
ATOM     90  Br  UNL A   1      32.743  25.582  21.599  1.00  0.00    -0.039 Br
ENDBRANCH  82  85
ENDBRANCH  76  81
ENDBRANCH  72  74
ENDBRANCH  71  72
ENDBRANCH  70  71
ENDBRANCH   1  70
TORSDOF 16
ENDMDL
