MODEL 1
REMARK VINA RESULT:     -12.2      0.000      0.000
REMARK SMILES Cc1cc(C)c2c(CCCC(=O)OCCOC(=O)c3ccc(-c4c5nc(c(-c6cc(S(=O)(=O)[O-])ccc6F)c6ccc([nH]6)c(-c6cc(S(=O)(=O)[O-])ccc6F)c6nc(c(-c7cc(S(=O)(=O)[O-])ccc7F)c7ccc4[nH]7)C=C6)C=C5)cc3)c(-c3ccccn3)[nH]c2c1
REMARK SMILES IDX 14 1 13 2 11 3 12 4 10 5 9 6 8 7 7 8 1 9 2 10 3 11 91 12
REMARK SMILES IDX 4 13 90 14 5 15 6 16 89 17 82 18 83 20 84 21 88 22 85 23
REMARK SMILES IDX 87 24 86 25 15 26 16 27 17 28 18 29 19 30 20 31 81 32 21 33
REMARK SMILES IDX 80 34 22 35 23 36 24 37 74 38 25 39 79 40 73 41 75 42 26 43
REMARK SMILES IDX 78 44 72 45 71 46 27 48 59 49 39 50 58 51 40 52 43 53 57 54
REMARK SMILES IDX 76 55 41 56 42 57 56 59 77 60 44 61 28 62 29 63 37 64 30 65
REMARK SMILES IDX 36 66 38 67 35 68 31 69 32 70 33 71 34 72 60 73 61 74 69 75
REMARK SMILES IDX 62 76 68 77 70 78 67 79 63 80 64 81 65 82 66 83 45 84 46 85
REMARK SMILES IDX 54 86 47 87 53 88 55 89 52 90 48 91 49 92 50 93 51 94
REMARK H PARENT 89 19 75 47 43 58
REMARK Flexibility Score: inf
ROOT
ATOM      1  C   UNL A   1      32.462  29.370  27.228  1.00  0.00     0.274 C 
ENDROOT
BRANCH   1   2
ATOM      2  O   UNL A   1      31.546  28.495  26.545  1.00  0.00    -0.462 OA
BRANCH   2   3
ATOM      3  C   UNL A   1      31.763  27.158  26.509  1.00  0.00     0.305 C 
ATOM      4  O   UNL A   1      30.912  26.319  26.789  1.00  0.00    -0.252 OA
BRANCH   3   5
ATOM      5  C   UNL A   1      33.177  26.790  26.082  1.00  0.00     0.123 C 
BRANCH   5   6
ATOM      6  C   UNL A   1      33.714  27.261  24.731  1.00  0.00     0.017 C 
BRANCH   6   7
ATOM      7  C   UNL A   1      33.847  26.266  23.581  1.00  0.00     0.039 C 
BRANCH   7   8
ATOM      8  C   UNL A   1      32.808  25.180  23.469  1.00  0.00    -0.013 A 
ATOM      9  C   UNL A   1      32.759  19.484  24.212  1.00  0.00     0.044 C 
ATOM     10  C   UNL A   1      32.879  20.961  23.990  1.00  0.00    -0.049 A 
ATOM     11  C   UNL A   1      34.116  21.596  24.095  1.00  0.00     0.007 A 
ATOM     12  C   UNL A   1      31.737  21.712  23.711  1.00  0.00     0.030 A 
ATOM     13  C   UNL A   1      34.268  22.990  23.921  1.00  0.00    -0.041 A 
ATOM     14  C   UNL A   1      31.881  23.092  23.548  1.00  0.00     0.047 A 
ATOM     15  C   UNL A   1      35.666  23.545  24.057  1.00  0.00     0.045 C 
ATOM     16  C   UNL A   1      33.098  23.764  23.652  1.00  0.00     0.006 A 
ATOM     17  N   UNL A   1      30.919  24.022  23.268  1.00  0.00    -0.353 N 
ATOM     18  C   UNL A   1      31.422  25.294  23.294  1.00  0.00     0.068 A 
ATOM     19  H   UNL A   1      29.979  23.804  23.072  1.00  0.00     0.167 HD
BRANCH  18  20
ATOM     20  C   UNL A   1      30.483  26.401  23.142  1.00  0.00     0.087 A 
ATOM     21  C   UNL A   1      29.203  26.369  23.683  1.00  0.00     0.030 A 
ATOM     22  N   UNL A   1      30.935  27.431  22.396  1.00  0.00    -0.255 NA
ATOM     23  C   UNL A   1      28.400  27.505  23.561  1.00  0.00     0.004 A 
ATOM     24  C   UNL A   1      30.151  28.534  22.327  1.00  0.00     0.112 A 
ATOM     25  C   UNL A   1      28.894  28.622  22.899  1.00  0.00     0.020 A 
ENDBRANCH  18  20
ENDBRANCH   7   8
ENDBRANCH   6   7
ENDBRANCH   5   6
ENDBRANCH   3   5
ENDBRANCH   2   3
ENDBRANCH   1   2
BRANCH   1  26
ATOM     26  C   UNL A   1      32.022  30.818  27.100  1.00  0.00     0.275 C 
BRANCH  26  27
ATOM     27  O   UNL A   1      33.180  31.635  27.062  1.00  0.00    -0.458 OA
BRANCH  27  28
ATOM     28  C   UNL A   1      33.020  32.837  27.663  1.00  0.00     0.338 C 
ATOM     29  O   UNL A   1      32.070  33.588  27.563  1.00  0.00    -0.246 OA
BRANCH  28  30
ATOM     30  C   UNL A   1      34.213  33.133  28.447  1.00  0.00     0.060 A 
ATOM     31  C   UNL A   1      35.240  33.828  27.802  1.00  0.00     0.016 A 
ATOM     32  C   UNL A   1      34.403  32.412  29.630  1.00  0.00     0.016 A 
ATOM     33  C   UNL A   1      36.528  33.551  28.186  1.00  0.00     0.010 A 
ATOM     34  C   UNL A   1      35.684  32.111  29.987  1.00  0.00     0.010 A 
ATOM     35  C   UNL A   1      36.714  32.595  29.187  1.00  0.00    -0.014 A 
BRANCH  35  36
ATOM     36  C   UNL A   1      38.046  32.121  29.456  1.00  0.00     0.031 A 
ATOM     37  C   UNL A   1      38.182  30.689  29.145  1.00  0.00     0.074 A 
ATOM     38  C   UNL A   1      39.036  32.961  29.807  1.00  0.00     0.049 A 
ATOM     39  N   UNL A   1      38.257  29.713  29.984  1.00  0.00    -0.248 NA
ATOM     40  C   UNL A   1      37.950  30.269  27.753  1.00  0.00     0.031 C 
ATOM     41  C   UNL A   1      39.019  34.424  29.891  1.00  0.00     0.029 A 
ATOM     42  N   UNL A   1      40.328  32.663  30.082  1.00  0.00    -0.354 N 
ATOM     43  C   UNL A   1      38.362  28.576  29.197  1.00  0.00     0.074 A 
ATOM     44  C   UNL A   1      37.884  28.947  27.896  1.00  0.00     0.031 C 
ATOM     45  C   UNL A   1      40.292  34.883  29.973  1.00  0.00     0.029 A 
ATOM     46  C   UNL A   1      41.197  33.749  30.080  1.00  0.00     0.049 A 
ATOM     47  H   UNL A   1      40.630  31.744  30.268  1.00  0.00     0.167 HD
ATOM     48  C   UNL A   1      39.143  27.537  29.592  1.00  0.00     0.034 A 
ATOM     49  C   UNL A   1      42.557  33.686  30.109  1.00  0.00     0.034 A 
ATOM     50  C   UNL A   1      39.401  27.601  31.016  1.00  0.00     0.049 A 
ATOM     51  C   UNL A   1      42.892  32.349  30.674  1.00  0.00     0.074 A 
ATOM     52  C   UNL A   1      38.592  27.622  32.137  1.00  0.00     0.029 A 
ATOM     53  N   UNL A   1      40.619  28.095  31.432  1.00  0.00    -0.354 N 
ATOM     54  N   UNL A   1      42.585  31.999  31.896  1.00  0.00    -0.248 NA
ATOM     55  C   UNL A   1      43.076  31.244  29.743  1.00  0.00     0.031 C 
ATOM     56  C   UNL A   1      39.195  28.574  33.011  1.00  0.00     0.029 A 
ATOM     57  C   UNL A   1      40.380  29.019  32.423  1.00  0.00     0.049 A 
ATOM     58  H   UNL A   1      41.501  27.833  31.083  1.00  0.00     0.167 HD
ATOM     59  C   UNL A   1      42.124  30.693  31.793  1.00  0.00     0.074 A 
ATOM     60  C   UNL A   1      42.531  30.252  30.457  1.00  0.00     0.031 C 
ATOM     61  C   UNL A   1      41.202  30.192  32.669  1.00  0.00     0.034 A 
BRANCH  48  62
ATOM     62  C   UNL A   1      39.988  26.723  28.637  1.00  0.00     0.023 A 
ATOM     63  C   UNL A   1      41.052  27.389  28.008  1.00  0.00     0.031 A 
ATOM     64  C   UNL A   1      39.664  25.448  28.109  1.00  0.00     0.131 A 
ATOM     65  C   UNL A   1      41.668  26.844  26.869  1.00  0.00     0.055 A 
ATOM     66  C   UNL A   1      40.321  24.886  27.015  1.00  0.00     0.041 A 
ATOM     67  F   UNL A   1      38.646  24.704  28.551  1.00  0.00    -0.206 F 
ATOM     68  C   UNL A   1      41.309  25.598  26.365  1.00  0.00     0.022 A 
BRANCH  65  69
ATOM     69  S   UNL A   1      42.852  27.869  25.967  1.00  0.00     0.124 S 
ATOM     70  O   UNL A   1      43.851  26.884  25.568  1.00  0.00    -0.237 OA
ATOM     71  O   UNL A   1      42.021  28.413  24.898  1.00  0.00    -0.237 OA
ATOM     72  O   UNL A   1      43.292  28.838  26.968  1.00  0.00    -0.744 OA
ENDBRANCH  65  69
ENDBRANCH  48  62
BRANCH  49  73
ATOM     73  C   UNL A   1      43.535  34.533  29.360  1.00  0.00     0.023 A 
ATOM     74  C   UNL A   1      44.128  34.124  28.143  1.00  0.00     0.031 A 
ATOM     75  C   UNL A   1      43.709  35.891  29.714  1.00  0.00     0.131 A 
ATOM     76  C   UNL A   1      44.849  35.051  27.347  1.00  0.00     0.055 A 
ATOM     77  C   UNL A   1      44.420  36.800  28.925  1.00  0.00     0.041 A 
ATOM     78  F   UNL A   1      43.115  36.409  30.800  1.00  0.00    -0.206 F 
ATOM     79  C   UNL A   1      44.985  36.385  27.731  1.00  0.00     0.022 A 
BRANCH  76  80
ATOM     80  S   UNL A   1      45.538  34.557  25.731  1.00  0.00     0.124 S 
ATOM     81  O   UNL A   1      44.357  34.570  24.874  1.00  0.00    -0.237 OA
ATOM     82  O   UNL A   1      46.533  35.593  25.480  1.00  0.00    -0.237 OA
ATOM     83  O   UNL A   1      46.094  33.228  25.989  1.00  0.00    -0.744 OA
ENDBRANCH  76  80
ENDBRANCH  49  73
BRANCH  61  84
ATOM     84  C   UNL A   1      40.860  31.010  33.901  1.00  0.00     0.023 A 
ATOM     85  C   UNL A   1      39.760  31.896  34.010  1.00  0.00     0.031 A 
ATOM     86  C   UNL A   1      41.597  30.740  35.068  1.00  0.00     0.131 A 
ATOM     87  C   UNL A   1      39.438  32.471  35.260  1.00  0.00     0.055 A 
ATOM     88  C   UNL A   1      41.262  31.294  36.302  1.00  0.00     0.041 A 
ATOM     89  F   UNL A   1      42.629  29.882  35.033  1.00  0.00    -0.206 F 
ATOM     90  C   UNL A   1      40.181  32.162  36.404  1.00  0.00     0.022 A 
BRANCH  87  91
ATOM     91  S   UNL A   1      38.016  33.603  35.431  1.00  0.00     0.124 S 
ATOM     92  O   UNL A   1      38.338  34.685  34.508  1.00  0.00    -0.237 OA
ATOM     93  O   UNL A   1      36.883  32.758  35.060  1.00  0.00    -0.237 OA
ATOM     94  O   UNL A   1      38.046  33.983  36.846  1.00  0.00    -0.744 OA
ENDBRANCH  87  91
ENDBRANCH  61  84
ENDBRANCH  35  36
ENDBRANCH  28  30
ENDBRANCH  27  28
ENDBRANCH  26  27
ENDBRANCH   1  26
TORSDOF 18
ENDMDL
MODEL 2
REMARK VINA RESULT:     -12.2      4.248      6.056
REMARK SMILES Cc1cc(C)c2c(CCCC(=O)OCCOC(=O)c3ccc(-c4c5nc(c(-c6cc(S(=O)(=O)[O-])ccc6F)c6ccc([nH]6)c(-c6cc(S(=O)(=O)[O-])ccc6F)c6nc(c(-c7cc(S(=O)(=O)[O-])ccc7F)c7ccc4[nH]7)C=C6)C=C5)cc3)c(-c3ccccn3)[nH]c2c1
REMARK SMILES IDX 14 1 13 2 11 3 12 4 10 5 9 6 8 7 7 8 1 9 2 10 3 11 91 12
REMARK SMILES IDX 4 13 90 14 5 15 6 16 89 17 82 18 83 20 84 21 88 22 85 23
REMARK SMILES IDX 87 24 86 25 15 26 16 27 17 28 18 29 19 30 20 31 81 32 21 33
REMARK SMILES IDX 80 34 22 35 23 36 24 37 74 38 25 39 79 40 73 41 75 42 26 43
REMARK SMILES IDX 78 44 72 45 71 46 27 48 59 49 39 50 58 51 40 52 43 53 57 54
REMARK SMILES IDX 76 55 41 56 42 57 56 59 77 60 44 61 28 62 29 63 37 64 30 65
REMARK SMILES IDX 36 66 38 67 35 68 31 69 32 70 33 71 34 72 60 73 61 74 69 75
REMARK SMILES IDX 62 76 68 77 70 78 67 79 63 80 64 81 65 82 66 83 45 84 46 85
REMARK SMILES IDX 54 86 47 87 53 88 55 89 52 90 48 91 49 92 50 93 51 94
REMARK H PARENT 89 19 75 47 43 58
REMARK Flexibility Score: inf
ROOT
ATOM      1  C   UNL A   1      34.159  29.198  26.531  1.00  0.00     0.274 C 
ENDROOT
BRANCH   1   2
ATOM      2  O   UNL A   1      34.336  27.796  26.261  1.00  0.00    -0.462 OA
BRANCH   2   3
ATOM      3  C   UNL A   1      33.266  26.970  26.165  1.00  0.00     0.305 C 
ATOM      4  O   UNL A   1      32.270  27.053  26.877  1.00  0.00    -0.252 OA
BRANCH   3   5
ATOM      5  C   UNL A   1      33.416  25.917  25.075  1.00  0.00     0.123 C 
BRANCH   5   6
ATOM      6  C   UNL A   1      34.783  25.293  24.799  1.00  0.00     0.017 C 
BRANCH   6   7
ATOM      7  C   UNL A   1      35.464  24.455  25.877  1.00  0.00     0.039 C 
BRANCH   7   8
ATOM      8  C   UNL A   1      36.148  23.182  25.451  1.00  0.00    -0.013 A 
ATOM      9  C   UNL A   1      41.206  20.694  26.557  1.00  0.00     0.044 C 
ATOM     10  C   UNL A   1      39.936  21.441  26.286  1.00  0.00    -0.049 A 
ATOM     11  C   UNL A   1      39.734  22.713  26.818  1.00  0.00     0.007 A 
ATOM     12  C   UNL A   1      38.933  20.843  25.521  1.00  0.00     0.030 A 
ATOM     13  C   UNL A   1      38.540  23.440  26.610  1.00  0.00    -0.041 A 
ATOM     14  C   UNL A   1      37.747  21.554  25.322  1.00  0.00     0.047 A 
ATOM     15  C   UNL A   1      38.457  24.810  27.241  1.00  0.00     0.045 C 
ATOM     16  C   UNL A   1      37.505  22.824  25.843  1.00  0.00     0.006 A 
ATOM     17  N   UNL A   1      36.638  21.179  24.614  1.00  0.00    -0.353 N 
ATOM     18  C   UNL A   1      35.628  22.094  24.737  1.00  0.00     0.068 A 
ATOM     19  H   UNL A   1      36.575  20.353  24.082  1.00  0.00     0.167 HD
BRANCH  18  20
ATOM     20  C   UNL A   1      34.337  21.764  24.142  1.00  0.00     0.087 A 
ATOM     21  C   UNL A   1      33.723  22.579  23.199  1.00  0.00     0.030 A 
ATOM     22  N   UNL A   1      33.765  20.636  24.614  1.00  0.00    -0.255 NA
ATOM     23  C   UNL A   1      32.527  22.147  22.621  1.00  0.00     0.004 A 
ATOM     24  C   UNL A   1      32.627  20.220  24.009  1.00  0.00     0.112 A 
ATOM     25  C   UNL A   1      31.985  20.927  23.008  1.00  0.00     0.020 A 
ENDBRANCH  18  20
ENDBRANCH   7   8
ENDBRANCH   6   7
ENDBRANCH   5   6
ENDBRANCH   3   5
ENDBRANCH   2   3
ENDBRANCH   1   2
BRANCH   1  26
ATOM     26  C   UNL A   1      34.744  29.566  27.884  1.00  0.00     0.275 C 
BRANCH  26  27
ATOM     27  O   UNL A   1      35.953  30.274  27.669  1.00  0.00    -0.458 OA
BRANCH  27  28
ATOM     28  C   UNL A   1      36.843  30.152  28.682  1.00  0.00     0.338 C 
ATOM     29  O   UNL A   1      36.874  30.792  29.714  1.00  0.00    -0.246 OA
BRANCH  28  30
ATOM     30  C   UNL A   1      37.823  29.132  28.325  1.00  0.00     0.060 A 
ATOM     31  C   UNL A   1      38.181  28.220  29.321  1.00  0.00     0.016 A 
ATOM     32  C   UNL A   1      38.586  29.346  27.174  1.00  0.00     0.016 A 
ATOM     33  C   UNL A   1      39.466  27.738  29.304  1.00  0.00     0.010 A 
ATOM     34  C   UNL A   1      39.872  28.895  27.176  1.00  0.00     0.010 A 
ATOM     35  C   UNL A   1      40.316  28.197  28.296  1.00  0.00    -0.014 A 
BRANCH  35  36
ATOM     36  C   UNL A   1      41.719  27.888  28.376  1.00  0.00     0.031 A 
ATOM     37  C   UNL A   1      42.042  26.651  27.647  1.00  0.00     0.074 A 
ATOM     38  C   UNL A   1      42.598  28.739  28.936  1.00  0.00     0.049 A 
ATOM     39  N   UNL A   1      42.321  25.498  28.152  1.00  0.00    -0.248 NA
ATOM     40  C   UNL A   1      41.771  26.623  26.199  1.00  0.00     0.031 C 
ATOM     41  C   UNL A   1      42.372  30.091  29.455  1.00  0.00     0.029 A 
ATOM     42  N   UNL A   1      43.936  28.587  29.075  1.00  0.00    -0.354 N 
ATOM     43  C   UNL A   1      42.534  24.674  27.059  1.00  0.00     0.074 A 
ATOM     44  C   UNL A   1      41.912  25.324  25.941  1.00  0.00     0.031 C 
ATOM     45  C   UNL A   1      43.566  30.706  29.636  1.00  0.00     0.029 A 
ATOM     46  C   UNL A   1      44.634  29.752  29.375  1.00  0.00     0.049 A 
ATOM     47  H   UNL A   1      44.383  27.716  28.969  1.00  0.00     0.167 HD
ATOM     48  C   UNL A   1      43.486  23.705  27.104  1.00  0.00     0.034 A 
ATOM     49  C   UNL A   1      45.987  29.906  29.348  1.00  0.00     0.034 A 
ATOM     50  C   UNL A   1      43.835  23.392  28.474  1.00  0.00     0.049 A 
ATOM     51  C   UNL A   1      46.555  28.534  29.478  1.00  0.00     0.074 A 
ATOM     52  C   UNL A   1      43.117  22.954  29.571  1.00  0.00     0.029 A 
ATOM     53  N   UNL A   1      44.994  23.934  28.987  1.00  0.00    -0.354 N 
ATOM     54  N   UNL A   1      46.393  27.798  30.546  1.00  0.00    -0.248 NA
ATOM     55  C   UNL A   1      46.831  27.794  28.254  1.00  0.00     0.031 C 
ATOM     56  C   UNL A   1      43.635  23.695  30.674  1.00  0.00     0.029 A 
ATOM     57  C   UNL A   1      44.696  24.478  30.215  1.00  0.00     0.049 A 
ATOM     58  H   UNL A   1      45.878  23.933  28.552  1.00  0.00     0.167 HD
ATOM     59  C   UNL A   1      46.123  26.523  30.070  1.00  0.00     0.074 A 
ATOM     60  C   UNL A   1      46.491  26.563  28.653  1.00  0.00     0.031 C 
ATOM     61  C   UNL A   1      45.351  25.646  30.779  1.00  0.00     0.034 A 
BRANCH  48  62
ATOM     62  C   UNL A   1      44.369  23.354  25.928  1.00  0.00     0.023 A 
ATOM     63  C   UNL A   1      44.286  22.038  25.444  1.00  0.00     0.031 A 
ATOM     64  C   UNL A   1      45.457  24.120  25.437  1.00  0.00     0.131 A 
ATOM     65  C   UNL A   1      45.285  21.514  24.607  1.00  0.00     0.055 A 
ATOM     66  C   UNL A   1      46.413  23.611  24.558  1.00  0.00     0.041 A 
ATOM     67  F   UNL A   1      45.719  25.368  25.835  1.00  0.00    -0.206 F 
ATOM     68  C   UNL A   1      46.351  22.291  24.163  1.00  0.00     0.022 A 
BRANCH  65  69
ATOM     69  S   UNL A   1      45.244  19.747  24.232  1.00  0.00     0.124 S 
ATOM     70  O   UNL A   1      44.495  19.222  25.368  1.00  0.00    -0.237 OA
ATOM     71  O   UNL A   1      44.557  19.732  22.945  1.00  0.00    -0.237 OA
ATOM     72  O   UNL A   1      46.656  19.378  24.189  1.00  0.00    -0.744 OA
ENDBRANCH  65  69
ENDBRANCH  48  62
BRANCH  49  73
ATOM     73  C   UNL A   1      46.771  31.081  28.862  1.00  0.00     0.023 A 
ATOM     74  C   UNL A   1      46.373  31.862  27.751  1.00  0.00     0.031 A 
ATOM     75  C   UNL A   1      47.813  31.612  29.657  1.00  0.00     0.131 A 
ATOM     76  C   UNL A   1      47.005  33.103  27.481  1.00  0.00     0.055 A 
ATOM     77  C   UNL A   1      48.432  32.836  29.385  1.00  0.00     0.041 A 
ATOM     78  F   UNL A   1      48.210  31.001  30.784  1.00  0.00    -0.206 F 
ATOM     79  C   UNL A   1      48.023  33.592  28.301  1.00  0.00     0.022 A 
BRANCH  76  80
ATOM     80  S   UNL A   1      46.437  34.161  26.107  1.00  0.00     0.124 S 
ATOM     81  O   UNL A   1      45.444  33.313  25.455  1.00  0.00    -0.237 OA
ATOM     82  O   UNL A   1      45.930  35.339  26.801  1.00  0.00    -0.237 OA
ATOM     83  O   UNL A   1      47.654  34.390  25.327  1.00  0.00    -0.744 OA
ENDBRANCH  76  80
ENDBRANCH  49  73
BRANCH  61  84
ATOM     84  C   UNL A   1      44.984  26.002  32.209  1.00  0.00     0.023 A 
ATOM     85  C   UNL A   1      43.799  26.670  32.601  1.00  0.00     0.031 A 
ATOM     86  C   UNL A   1      45.807  25.484  33.224  1.00  0.00     0.131 A 
ATOM     87  C   UNL A   1      43.480  26.794  33.972  1.00  0.00     0.055 A 
ATOM     88  C   UNL A   1      45.476  25.591  34.574  1.00  0.00     0.041 A 
ATOM     89  F   UNL A   1      46.926  24.810  32.911  1.00  0.00    -0.206 F 
ATOM     90  C   UNL A   1      44.312  26.247  34.954  1.00  0.00     0.022 A 
BRANCH  87  91
ATOM     91  S   UNL A   1      41.950  27.637  34.504  1.00  0.00     0.124 S 
ATOM     92  O   UNL A   1      42.419  28.566  35.525  1.00  0.00    -0.237 OA
ATOM     93  O   UNL A   1      41.463  28.236  33.264  1.00  0.00    -0.237 OA
ATOM     94  O   UNL A   1      41.116  26.546  35.014  1.00  0.00    -0.744 OA
ENDBRANCH  87  91
ENDBRANCH  61  84
ENDBRANCH  35  36
ENDBRANCH  28  30
ENDBRANCH  27  28
ENDBRANCH  26  27
ENDBRANCH   1  26
TORSDOF 18
ENDMDL
MODEL 3
REMARK VINA RESULT:     -12.1      4.884      9.511
REMARK SMILES Cc1cc(C)c2c(CCCC(=O)OCCOC(=O)c3ccc(-c4c5nc(c(-c6cc(S(=O)(=O)[O-])ccc6F)c6ccc([nH]6)c(-c6cc(S(=O)(=O)[O-])ccc6F)c6nc(c(-c7cc(S(=O)(=O)[O-])ccc7F)c7ccc4[nH]7)C=C6)C=C5)cc3)c(-c3ccccn3)[nH]c2c1
REMARK SMILES IDX 14 1 13 2 11 3 12 4 10 5 9 6 8 7 7 8 1 9 2 10 3 11 91 12
REMARK SMILES IDX 4 13 90 14 5 15 6 16 89 17 82 18 83 20 84 21 88 22 85 23
REMARK SMILES IDX 87 24 86 25 15 26 16 27 17 28 18 29 19 30 20 31 81 32 21 33
REMARK SMILES IDX 80 34 22 35 23 36 24 37 74 38 25 39 79 40 73 41 75 42 26 43
REMARK SMILES IDX 78 44 72 45 71 46 27 48 59 49 39 50 58 51 40 52 43 53 57 54
REMARK SMILES IDX 76 55 41 56 42 57 56 59 77 60 44 61 28 62 29 63 37 64 30 65
REMARK SMILES IDX 36 66 38 67 35 68 31 69 32 70 33 71 34 72 60 73 61 74 69 75
REMARK SMILES IDX 62 76 68 77 70 78 67 79 63 80 64 81 65 82 66 83 45 84 46 85
REMARK SMILES IDX 54 86 47 87 53 88 55 89 52 90 48 91 49 92 50 93 51 94
REMARK H PARENT 89 19 75 47 43 58
REMARK Flexibility Score: inf
ROOT
ATOM      1  C   UNL A   1      41.589  19.711  26.660  1.00  0.00     0.274 C 
ENDROOT
BRANCH   1   2
ATOM      2  O   UNL A   1      40.452  19.484  25.809  1.00  0.00    -0.462 OA
BRANCH   2   3
ATOM      3  C   UNL A   1      39.451  20.395  25.732  1.00  0.00     0.305 C 
ATOM      4  O   UNL A   1      39.547  21.551  26.133  1.00  0.00    -0.252 OA
BRANCH   3   5
ATOM      5  C   UNL A   1      38.184  19.844  25.093  1.00  0.00     0.123 C 
BRANCH   5   6
ATOM      6  C   UNL A   1      37.055  20.793  24.695  1.00  0.00     0.017 C 
BRANCH   6   7
ATOM      7  C   UNL A   1      35.829  20.930  25.594  1.00  0.00     0.039 C 
BRANCH   7   8
ATOM      8  C   UNL A   1      34.482  21.055  24.932  1.00  0.00    -0.013 A 
ATOM      9  C   UNL A   1      31.540  25.305  22.425  1.00  0.00     0.044 C 
ATOM     10  C   UNL A   1      32.356  24.274  23.142  1.00  0.00    -0.049 A 
ATOM     11  C   UNL A   1      33.566  24.618  23.743  1.00  0.00     0.007 A 
ATOM     12  C   UNL A   1      31.918  22.950  23.179  1.00  0.00     0.030 A 
ATOM     13  C   UNL A   1      34.380  23.671  24.404  1.00  0.00    -0.041 A 
ATOM     14  C   UNL A   1      32.724  22.008  23.823  1.00  0.00     0.047 A 
ATOM     15  C   UNL A   1      35.663  24.183  25.015  1.00  0.00     0.045 C 
ATOM     16  C   UNL A   1      33.943  22.312  24.429  1.00  0.00     0.006 A 
ATOM     17  N   UNL A   1      32.504  20.668  23.988  1.00  0.00    -0.353 N 
ATOM     18  C   UNL A   1      33.573  20.049  24.576  1.00  0.00     0.068 A 
ATOM     19  H   UNL A   1      31.677  20.206  23.718  1.00  0.00     0.167 HD
BRANCH  18  20
ATOM     20  C   UNL A   1      33.534  18.595  24.697  1.00  0.00     0.087 A 
ATOM     21  C   UNL A   1      34.526  17.778  24.168  1.00  0.00     0.030 A 
ATOM     22  N   UNL A   1      32.440  18.106  25.318  1.00  0.00    -0.255 NA
ATOM     23  C   UNL A   1      34.452  16.403  24.402  1.00  0.00     0.004 A 
ATOM     24  C   UNL A   1      32.413  16.774  25.565  1.00  0.00     0.112 A 
ATOM     25  C   UNL A   1      33.394  15.894  25.144  1.00  0.00     0.020 A 
ENDBRANCH  18  20
ENDBRANCH   7   8
ENDBRANCH   6   7
ENDBRANCH   5   6
ENDBRANCH   3   5
ENDBRANCH   2   3
ENDBRANCH   1   2
BRANCH   1  26
ATOM     26  C   UNL A   1      42.884  19.439  25.915  1.00  0.00     0.275 C 
BRANCH  26  27
ATOM     27  O   UNL A   1      43.105  20.500  25.001  1.00  0.00    -0.458 OA
BRANCH  27  28
ATOM     28  C   UNL A   1      44.392  20.614  24.597  1.00  0.00     0.338 C 
ATOM     29  O   UNL A   1      45.092  19.742  24.122  1.00  0.00    -0.246 OA
BRANCH  28  30
ATOM     30  C   UNL A   1      44.849  21.973  24.862  1.00  0.00     0.060 A 
ATOM     31  C   UNL A   1      45.850  22.131  25.824  1.00  0.00     0.016 A 
ATOM     32  C   UNL A   1      44.035  23.023  24.426  1.00  0.00     0.016 A 
ATOM     33  C   UNL A   1      45.834  23.283  26.569  1.00  0.00     0.010 A 
ATOM     34  C   UNL A   1      43.998  24.152  25.189  1.00  0.00     0.010 A 
ATOM     35  C   UNL A   1      44.819  24.207  26.311  1.00  0.00    -0.014 A 
BRANCH  35  36
ATOM     36  C   UNL A   1      44.641  25.313  27.214  1.00  0.00     0.031 A 
ATOM     37  C   UNL A   1      45.787  26.237  27.168  1.00  0.00     0.074 A 
ATOM     38  C   UNL A   1      43.488  25.501  27.880  1.00  0.00     0.049 A 
ATOM     39  N   UNL A   1      46.712  26.375  28.055  1.00  0.00    -0.248 NA
ATOM     40  C   UNL A   1      46.081  26.893  25.883  1.00  0.00     0.031 C 
ATOM     41  C   UNL A   1      42.230  24.756  27.777  1.00  0.00     0.029 A 
ATOM     42  N   UNL A   1      43.176  26.492  28.749  1.00  0.00    -0.354 N 
ATOM     43  C   UNL A   1      47.552  27.351  27.541  1.00  0.00     0.074 A 
ATOM     44  C   UNL A   1      47.284  27.406  26.133  1.00  0.00     0.031 C 
ATOM     45  C   UNL A   1      41.242  25.461  28.379  1.00  0.00     0.029 A 
ATOM     46  C   UNL A   1      41.819  26.632  29.020  1.00  0.00     0.049 A 
ATOM     47  H   UNL A   1      43.860  27.070  29.158  1.00  0.00     0.167 HD
ATOM     48  C   UNL A   1      48.142  28.254  28.367  1.00  0.00     0.034 A 
ATOM     49  C   UNL A   1      41.237  27.674  29.677  1.00  0.00     0.034 A 
ATOM     50  C   UNL A   1      48.151  27.770  29.733  1.00  0.00     0.049 A 
ATOM     51  C   UNL A   1      42.321  28.304  30.483  1.00  0.00     0.074 A 
ATOM     52  C   UNL A   1      48.660  26.641  30.348  1.00  0.00     0.029 A 
ATOM     53  N   UNL A   1      47.202  28.264  30.601  1.00  0.00    -0.354 N 
ATOM     54  N   UNL A   1      42.930  27.684  31.459  1.00  0.00    -0.248 NA
ATOM     55  C   UNL A   1      43.077  29.390  29.874  1.00  0.00     0.031 C 
ATOM     56  C   UNL A   1      47.659  26.246  31.284  1.00  0.00     0.029 A 
ATOM     57  C   UNL A   1      46.636  27.196  31.258  1.00  0.00     0.049 A 
ATOM     58  H   UNL A   1      46.968  29.213  30.728  1.00  0.00     0.167 HD
ATOM     59  C   UNL A   1      44.272  28.002  31.308  1.00  0.00     0.074 A 
ATOM     60  C   UNL A   1      44.291  29.125  30.368  1.00  0.00     0.031 C 
ATOM     61  C   UNL A   1      45.258  27.146  31.715  1.00  0.00     0.034 A 
BRANCH  48  62
ATOM     62  C   UNL A   1      48.331  29.710  28.008  1.00  0.00     0.023 A 
ATOM     63  C   UNL A   1      47.167  30.458  27.762  1.00  0.00     0.031 A 
ATOM     64  C   UNL A   1      49.549  30.331  27.633  1.00  0.00     0.131 A 
ATOM     65  C   UNL A   1      47.233  31.692  27.096  1.00  0.00     0.055 A 
ATOM     66  C   UNL A   1      49.612  31.585  27.026  1.00  0.00     0.041 A 
ATOM     67  F   UNL A   1      50.743  29.740  27.744  1.00  0.00    -0.206 F 
ATOM     68  C   UNL A   1      48.447  32.261  26.722  1.00  0.00     0.022 A 
BRANCH  65  69
ATOM     69  S   UNL A   1      45.684  32.473  26.591  1.00  0.00     0.124 S 
ATOM     70  O   UNL A   1      44.915  31.325  26.122  1.00  0.00    -0.237 OA
ATOM     71  O   UNL A   1      45.236  33.082  27.839  1.00  0.00    -0.237 OA
ATOM     72  O   UNL A   1      46.101  33.413  25.554  1.00  0.00    -0.744 OA
ENDBRANCH  65  69
ENDBRANCH  48  62
BRANCH  49  73
ATOM     73  C   UNL A   1      39.941  28.350  29.367  1.00  0.00     0.023 A 
ATOM     74  C   UNL A   1      39.090  28.872  30.369  1.00  0.00     0.031 A 
ATOM     75  C   UNL A   1      39.638  28.720  28.036  1.00  0.00     0.131 A 
ATOM     76  C   UNL A   1      38.004  29.717  30.022  1.00  0.00     0.055 A 
ATOM     77  C   UNL A   1      38.567  29.554  27.701  1.00  0.00     0.041 A 
ATOM     78  F   UNL A   1      40.430  28.357  27.015  1.00  0.00    -0.206 F 
ATOM     79  C   UNL A   1      37.751  30.064  28.695  1.00  0.00     0.022 A 
BRANCH  76  80
ATOM     80  S   UNL A   1      36.957  30.470  31.314  1.00  0.00     0.124 S 
ATOM     81  O   UNL A   1      35.916  31.121  30.526  1.00  0.00    -0.237 OA
ATOM     82  O   UNL A   1      36.547  29.315  32.104  1.00  0.00    -0.237 OA
ATOM     83  O   UNL A   1      37.869  31.386  32.001  1.00  0.00    -0.744 OA
ENDBRANCH  76  80
ENDBRANCH  49  73
BRANCH  61  84
ATOM     84  C   UNL A   1      44.866  25.940  32.550  1.00  0.00     0.023 A 
ATOM     85  C   UNL A   1      44.529  25.978  33.925  1.00  0.00     0.031 A 
ATOM     86  C   UNL A   1      44.666  24.730  31.864  1.00  0.00     0.131 A 
ATOM     87  C   UNL A   1      44.012  24.825  34.557  1.00  0.00     0.055 A 
ATOM     88  C   UNL A   1      44.136  23.601  32.488  1.00  0.00     0.041 A 
ATOM     89  F   UNL A   1      44.934  24.643  30.550  1.00  0.00    -0.206 F 
ATOM     90  C   UNL A   1      43.808  23.644  33.837  1.00  0.00     0.022 A 
BRANCH  87  91
ATOM     91  S   UNL A   1      43.556  24.852  36.325  1.00  0.00     0.124 S 
ATOM     92  O   UNL A   1      42.151  24.464  36.313  1.00  0.00    -0.237 OA
ATOM     93  O   UNL A   1      44.485  23.890  36.913  1.00  0.00    -0.237 OA
ATOM     94  O   UNL A   1      43.798  26.242  36.721  1.00  0.00    -0.744 OA
ENDBRANCH  87  91
ENDBRANCH  61  84
ENDBRANCH  35  36
ENDBRANCH  28  30
ENDBRANCH  27  28
ENDBRANCH  26  27
ENDBRANCH   1  26
TORSDOF 18
ENDMDL
