MODEL 1
REMARK VINA RESULT:     -11.8      0.000      0.000
REMARK SMILES O=C(OCCOC(=O)[C@@H]1CCCN(C(=O)c2c(F)cc(Br)cc2F)C1)c1ccc(-c2c3nc(c(-c4cc(S(=O)(=O)[O-])ccc4F)c4ccc([nH]4)c(-c4cc(S(=O)(=O)[O-])ccc4F)c4nc(c(-c5cc(S(=O)(=O)[O-])ccc5F)c5ccc2[nH]5)C=C4)C=C3)cc1
REMARK SMILES IDX 4 1 3 2 2 3 1 4 26 5 27 6 88 7 28 8 87 9 29 10 30 11 31 12
REMARK SMILES IDX 81 13 32 14 86 15 80 16 82 17 33 18 85 19 79 20 78 21 34 23
REMARK SMILES IDX 66 24 46 25 65 26 47 27 50 28 64 29 83 30 48 31 49 32 63 34
REMARK SMILES IDX 84 35 51 36 35 37 36 38 44 39 37 40 43 41 45 42 42 43 38 44
REMARK SMILES IDX 39 45 40 46 41 47 67 48 68 49 76 50 69 51 75 52 77 53 74 54
REMARK SMILES IDX 70 55 71 56 72 57 73 58 52 59 53 60 61 61 54 62 60 63 62 64
REMARK SMILES IDX 59 65 55 66 56 67 57 68 58 69 5 70 6 71 7 72 8 73 9 74 10 75
REMARK SMILES IDX 25 76 11 77 13 78 12 79 14 80 15 81 16 82 17 83 23 84 18 85
REMARK SMILES IDX 19 86 22 87 24 88 20 89 21 90
REMARK H PARENT 82 22 50 33
REMARK Flexibility Score: inf
ROOT
ATOM      1  C   UNL A   1      32.277  29.469  27.272  1.00  0.00     0.275 C 
ENDROOT
BRANCH   1   2
ATOM      2  O   UNL A   1      33.303  30.344  26.763  1.00  0.00    -0.458 OA
BRANCH   2   3
ATOM      3  C   UNL A   1      34.279  31.037  27.399  1.00  0.00     0.338 C 
ATOM      4  O   UNL A   1      34.217  32.268  27.359  1.00  0.00    -0.246 OA
BRANCH   3   5
ATOM      5  C   UNL A   1      35.476  30.437  28.084  1.00  0.00     0.060 A 
ATOM      6  C   UNL A   1      35.506  29.858  29.356  1.00  0.00     0.016 A 
ATOM      7  C   UNL A   1      36.691  30.477  27.366  1.00  0.00     0.016 A 
ATOM      8  C   UNL A   1      36.680  29.281  29.869  1.00  0.00     0.010 A 
ATOM      9  C   UNL A   1      37.869  29.914  27.878  1.00  0.00     0.010 A 
ATOM     10  C   UNL A   1      37.869  29.300  29.134  1.00  0.00    -0.014 A 
BRANCH  10  11
ATOM     11  C   UNL A   1      39.126  28.759  29.712  1.00  0.00     0.031 A 
ATOM     12  C   UNL A   1      39.697  29.413  30.926  1.00  0.00     0.074 A 
ATOM     13  C   UNL A   1      39.750  27.701  29.161  1.00  0.00     0.049 A 
ATOM     14  N   UNL A   1      40.756  29.078  31.612  1.00  0.00    -0.248 NA
ATOM     15  C   UNL A   1      38.964  30.571  31.460  1.00  0.00     0.031 C 
ATOM     16  C   UNL A   1      39.219  26.928  28.054  1.00  0.00     0.029 A 
ATOM     17  N   UNL A   1      40.949  27.090  29.425  1.00  0.00    -0.354 N 
ATOM     18  C   UNL A   1      40.795  29.953  32.686  1.00  0.00     0.074 A 
ATOM     19  C   UNL A   1      39.683  30.867  32.532  1.00  0.00     0.031 C 
ATOM     20  C   UNL A   1      40.110  26.009  27.660  1.00  0.00     0.029 A 
ATOM     21  C   UNL A   1      41.274  26.097  28.523  1.00  0.00     0.049 A 
ATOM     22  H   UNL A   1      41.524  27.336  30.186  1.00  0.00     0.167 HD
ATOM     23  C   UNL A   1      41.676  29.969  33.712  1.00  0.00     0.034 A 
ATOM     24  C   UNL A   1      42.378  25.332  28.408  1.00  0.00     0.034 A 
ATOM     25  C   UNL A   1      42.806  29.079  33.803  1.00  0.00     0.049 A 
ATOM     26  C   UNL A   1      43.416  25.469  29.485  1.00  0.00     0.074 A 
ATOM     27  C   UNL A   1      43.769  29.007  34.792  1.00  0.00     0.029 A 
ATOM     28  N   UNL A   1      43.144  28.128  32.846  1.00  0.00    -0.354 N 
ATOM     29  N   UNL A   1      43.394  26.246  30.544  1.00  0.00    -0.248 NA
ATOM     30  C   UNL A   1      44.600  24.611  29.386  1.00  0.00     0.031 C 
ATOM     31  C   UNL A   1      44.730  28.069  34.394  1.00  0.00     0.029 A 
ATOM     32  C   UNL A   1      44.335  27.508  33.190  1.00  0.00     0.049 A 
ATOM     33  H   UNL A   1      42.616  27.925  32.041  1.00  0.00     0.167 HD
ATOM     34  C   UNL A   1      44.546  25.948  31.256  1.00  0.00     0.074 A 
ATOM     35  C   UNL A   1      45.228  24.902  30.516  1.00  0.00     0.031 C 
ATOM     36  C   UNL A   1      45.001  26.487  32.416  1.00  0.00     0.034 A 
BRANCH  23  37
ATOM     37  C   UNL A   1      41.472  31.028  34.759  1.00  0.00     0.023 A 
ATOM     38  C   UNL A   1      40.343  31.027  35.598  1.00  0.00     0.031 A 
ATOM     39  C   UNL A   1      42.383  32.091  34.871  1.00  0.00     0.131 A 
ATOM     40  C   UNL A   1      40.124  32.101  36.472  1.00  0.00     0.055 A 
ATOM     41  C   UNL A   1      42.192  33.126  35.789  1.00  0.00     0.041 A 
ATOM     42  F   UNL A   1      43.458  32.155  34.071  1.00  0.00    -0.206 F 
ATOM     43  C   UNL A   1      41.052  33.140  36.588  1.00  0.00     0.022 A 
BRANCH  40  44
ATOM     44  S   UNL A   1      38.554  32.185  37.377  1.00  0.00     0.124 S 
ATOM     45  O   UNL A   1      39.014  32.353  38.753  1.00  0.00    -0.237 OA
ATOM     46  O   UNL A   1      37.901  33.342  36.777  1.00  0.00    -0.237 OA
ATOM     47  O   UNL A   1      37.924  30.897  37.090  1.00  0.00    -0.744 OA
ENDBRANCH  40  44
ENDBRANCH  23  37
BRANCH  24  48
ATOM     48  C   UNL A   1      42.555  24.394  27.257  1.00  0.00     0.023 A 
ATOM     49  C   UNL A   1      42.031  23.091  27.279  1.00  0.00     0.031 A 
ATOM     50  C   UNL A   1      43.305  24.775  26.127  1.00  0.00     0.131 A 
ATOM     51  C   UNL A   1      42.310  22.201  26.225  1.00  0.00     0.055 A 
ATOM     52  C   UNL A   1      43.540  23.901  25.061  1.00  0.00     0.041 A 
ATOM     53  F   UNL A   1      43.828  26.009  26.042  1.00  0.00    -0.206 F 
ATOM     54  C   UNL A   1      43.055  22.600  25.115  1.00  0.00     0.022 A 
BRANCH  51  55
ATOM     55  S   UNL A   1      41.766  20.476  26.369  1.00  0.00     0.124 S 
ATOM     56  O   UNL A   1      42.146  20.151  27.740  1.00  0.00    -0.237 OA
ATOM     57  O   UNL A   1      40.335  20.595  26.108  1.00  0.00    -0.237 OA
ATOM     58  O   UNL A   1      42.532  19.791  25.330  1.00  0.00    -0.744 OA
ENDBRANCH  51  55
ENDBRANCH  24  48
BRANCH  36  59
ATOM     59  C   UNL A   1      46.305  25.941  32.931  1.00  0.00     0.023 A 
ATOM     60  C   UNL A   1      46.336  24.813  33.768  1.00  0.00     0.031 A 
ATOM     61  C   UNL A   1      47.520  26.565  32.605  1.00  0.00     0.131 A 
ATOM     62  C   UNL A   1      47.555  24.374  34.299  1.00  0.00     0.055 A 
ATOM     63  C   UNL A   1      48.739  26.084  33.085  1.00  0.00     0.041 A 
ATOM     64  F   UNL A   1      47.543  27.650  31.814  1.00  0.00    -0.206 F 
ATOM     65  C   UNL A   1      48.759  24.990  33.948  1.00  0.00     0.022 A 
BRANCH  62  66
ATOM     66  S   UNL A   1      47.532  23.039  35.523  1.00  0.00     0.124 S 
ATOM     67  O   UNL A   1      48.951  22.884  35.827  1.00  0.00    -0.237 OA
ATOM     68  O   UNL A   1      46.711  23.604  36.589  1.00  0.00    -0.237 OA
ATOM     69  O   UNL A   1      46.925  21.923  34.800  1.00  0.00    -0.744 OA
ENDBRANCH  62  66
ENDBRANCH  36  59
ENDBRANCH  10  11
ENDBRANCH   3   5
ENDBRANCH   2   3
ENDBRANCH   1   2
BRANCH   1  70
ATOM     70  C   UNL A   1      32.087  28.194  26.454  1.00  0.00     0.274 C 
BRANCH  70  71
ATOM     71  O   UNL A   1      31.105  28.397  25.438  1.00  0.00    -0.462 OA
BRANCH  71  72
ATOM     72  C   UNL A   1      31.522  28.495  24.148  1.00  0.00     0.310 C 
ATOM     73  O   UNL A   1      32.623  28.889  23.793  1.00  0.00    -0.252 OA
BRANCH  72  74
ATOM     74  C   UNL A   1      30.464  27.932  23.208  1.00  0.00     0.119 C 
ATOM     75  C   UNL A   1      29.433  27.047  23.913  1.00  0.00     0.019 C 
ATOM     76  C   UNL A   1      31.093  27.142  22.073  1.00  0.00     0.135 C 
ATOM     77  C   UNL A   1      30.011  25.688  24.322  1.00  0.00     0.022 C 
ATOM     78  N   UNL A   1      31.691  25.891  22.536  1.00  0.00    -0.338 N 
ATOM     79  C   UNL A   1      30.750  24.982  23.184  1.00  0.00     0.120 C 
BRANCH  78  80
ATOM     80  C   UNL A   1      33.057  25.688  22.324  1.00  0.00     0.259 C 
ATOM     81  O   UNL A   1      33.682  26.281  21.443  1.00  0.00    -0.269 OA
BRANCH  80  82
ATOM     82  C   UNL A   1      33.842  24.770  23.164  1.00  0.00     0.111 A 
ATOM     83  C   UNL A   1      34.389  25.144  24.390  1.00  0.00     0.140 A 
ATOM     84  C   UNL A   1      33.944  23.437  22.765  1.00  0.00     0.140 A 
ATOM     85  F   UNL A   1      34.295  26.406  24.829  1.00  0.00    -0.206 F 
ATOM     86  C   UNL A   1      35.072  24.221  25.184  1.00  0.00     0.056 A 
ATOM     87  C   UNL A   1      34.617  22.501  23.547  1.00  0.00     0.056 A 
ATOM     88  F   UNL A   1      33.426  23.022  21.599  1.00  0.00    -0.206 F 
ATOM     89  C   UNL A   1      35.187  22.902  24.752  1.00  0.00     0.023 A 
ATOM     90  Br  UNL A   1      36.141  21.645  25.791  1.00  0.00    -0.051 Br
ENDBRANCH  80  82
ENDBRANCH  78  80
ENDBRANCH  72  74
ENDBRANCH  71  72
ENDBRANCH  70  71
ENDBRANCH   1  70
TORSDOF 16
ENDMDL
MODEL 2
REMARK VINA RESULT:     -11.7      5.004      9.914
REMARK SMILES O=C(OCCOC(=O)[C@@H]1CCCN(C(=O)c2c(F)cc(Br)cc2F)C1)c1ccc(-c2c3nc(c(-c4cc(S(=O)(=O)[O-])ccc4F)c4ccc([nH]4)c(-c4cc(S(=O)(=O)[O-])ccc4F)c4nc(c(-c5cc(S(=O)(=O)[O-])ccc5F)c5ccc2[nH]5)C=C4)C=C3)cc1
REMARK SMILES IDX 4 1 3 2 2 3 1 4 26 5 27 6 88 7 28 8 87 9 29 10 30 11 31 12
REMARK SMILES IDX 81 13 32 14 86 15 80 16 82 17 33 18 85 19 79 20 78 21 34 23
REMARK SMILES IDX 66 24 46 25 65 26 47 27 50 28 64 29 83 30 48 31 49 32 63 34
REMARK SMILES IDX 84 35 51 36 35 37 36 38 44 39 37 40 43 41 45 42 42 43 38 44
REMARK SMILES IDX 39 45 40 46 41 47 67 48 68 49 76 50 69 51 75 52 77 53 74 54
REMARK SMILES IDX 70 55 71 56 72 57 73 58 52 59 53 60 61 61 54 62 60 63 62 64
REMARK SMILES IDX 59 65 55 66 56 67 57 68 58 69 5 70 6 71 7 72 8 73 9 74 10 75
REMARK SMILES IDX 25 76 11 77 13 78 12 79 14 80 15 81 16 82 17 83 23 84 18 85
REMARK SMILES IDX 19 86 22 87 24 88 20 89 21 90
REMARK H PARENT 82 22 50 33
REMARK Flexibility Score: inf
ROOT
ATOM      1  C   UNL A   1      37.282  21.394  24.688  1.00  0.00     0.275 C 
ENDROOT
BRANCH   1   2
ATOM      2  O   UNL A   1      37.952  21.441  25.964  1.00  0.00    -0.458 OA
BRANCH   2   3
ATOM      3  C   UNL A   1      39.253  21.653  26.280  1.00  0.00     0.338 C 
ATOM      4  O   UNL A   1      40.015  20.684  26.225  1.00  0.00    -0.246 OA
BRANCH   3   5
ATOM      5  C   UNL A   1      39.836  22.950  26.769  1.00  0.00     0.060 A 
ATOM      6  C   UNL A   1      40.690  23.121  27.862  1.00  0.00     0.016 A 
ATOM      7  C   UNL A   1      39.469  24.109  26.051  1.00  0.00     0.016 A 
ATOM      8  C   UNL A   1      41.214  24.384  28.191  1.00  0.00     0.010 A 
ATOM      9  C   UNL A   1      39.977  25.373  26.382  1.00  0.00     0.010 A 
ATOM     10  C   UNL A   1      40.866  25.518  27.452  1.00  0.00    -0.014 A 
BRANCH  10  11
ATOM     11  C   UNL A   1      41.359  26.862  27.850  1.00  0.00     0.031 A 
ATOM     12  C   UNL A   1      42.797  27.193  27.629  1.00  0.00     0.074 A 
ATOM     13  C   UNL A   1      40.536  27.773  28.403  1.00  0.00     0.049 A 
ATOM     14  N   UNL A   1      43.422  28.314  27.864  1.00  0.00    -0.248 NA
ATOM     15  C   UNL A   1      43.634  26.140  27.033  1.00  0.00     0.031 C 
ATOM     16  C   UNL A   1      39.104  27.591  28.554  1.00  0.00     0.029 A 
ATOM     17  N   UNL A   1      40.755  29.013  28.947  1.00  0.00    -0.354 N 
ATOM     18  C   UNL A   1      44.715  28.122  27.404  1.00  0.00     0.074 A 
ATOM     19  C   UNL A   1      44.800  26.758  26.925  1.00  0.00     0.031 C 
ATOM     20  C   UNL A   1      38.575  28.619  29.230  1.00  0.00     0.029 A 
ATOM     21  C   UNL A   1      39.633  29.568  29.528  1.00  0.00     0.049 A 
ATOM     22  H   UNL A   1      41.630  29.465  28.925  1.00  0.00     0.167 HD
ATOM     23  C   UNL A   1      45.727  29.019  27.374  1.00  0.00     0.034 A 
ATOM     24  C   UNL A   1      39.467  30.717  30.212  1.00  0.00     0.034 A 
ATOM     25  C   UNL A   1      45.625  30.351  27.914  1.00  0.00     0.049 A 
ATOM     26  C   UNL A   1      40.651  31.639  30.291  1.00  0.00     0.074 A 
ATOM     27  C   UNL A   1      46.586  31.345  27.945  1.00  0.00     0.029 A 
ATOM     28  N   UNL A   1      44.499  30.863  28.550  1.00  0.00    -0.354 N 
ATOM     29  N   UNL A   1      41.847  31.475  29.774  1.00  0.00    -0.248 NA
ATOM     30  C   UNL A   1      40.465  32.907  31.001  1.00  0.00     0.031 C 
ATOM     31  C   UNL A   1      46.068  32.425  28.669  1.00  0.00     0.029 A 
ATOM     32  C   UNL A   1      44.762  32.135  29.034  1.00  0.00     0.049 A 
ATOM     33  H   UNL A   1      43.641  30.391  28.645  1.00  0.00     0.167 HD
ATOM     34  C   UNL A   1      42.549  32.635  30.067  1.00  0.00     0.074 A 
ATOM     35  C   UNL A   1      41.631  33.499  30.788  1.00  0.00     0.031 C 
ATOM     36  C   UNL A   1      43.832  32.960  29.771  1.00  0.00     0.034 A 
BRANCH  23  37
ATOM     37  C   UNL A   1      47.033  28.542  26.801  1.00  0.00     0.023 A 
ATOM     38  C   UNL A   1      47.211  28.368  25.417  1.00  0.00     0.031 A 
ATOM     39  C   UNL A   1      48.090  28.191  27.657  1.00  0.00     0.131 A 
ATOM     40  C   UNL A   1      48.398  27.800  24.934  1.00  0.00     0.055 A 
ATOM     41  C   UNL A   1      49.294  27.685  27.164  1.00  0.00     0.041 A 
ATOM     42  F   UNL A   1      47.958  28.307  28.987  1.00  0.00    -0.206 F 
ATOM     43  C   UNL A   1      49.449  27.477  25.797  1.00  0.00     0.022 A 
BRANCH  40  44
ATOM     44  S   UNL A   1      48.512  27.381  23.172  1.00  0.00     0.124 S 
ATOM     45  O   UNL A   1      48.383  25.927  23.205  1.00  0.00    -0.237 OA
ATOM     46  O   UNL A   1      47.386  28.109  22.598  1.00  0.00    -0.237 OA
ATOM     47  O   UNL A   1      49.833  27.875  22.787  1.00  0.00    -0.744 OA
ENDBRANCH  40  44
ENDBRANCH  23  37
BRANCH  24  48
ATOM     48  C   UNL A   1      38.163  31.052  30.863  1.00  0.00     0.023 A 
ATOM     49  C   UNL A   1      37.150  31.741  30.175  1.00  0.00     0.031 A 
ATOM     50  C   UNL A   1      37.929  30.729  32.214  1.00  0.00     0.131 A 
ATOM     51  C   UNL A   1      35.981  32.133  30.851  1.00  0.00     0.055 A 
ATOM     52  C   UNL A   1      36.744  31.080  32.868  1.00  0.00     0.041 A 
ATOM     53  F   UNL A   1      38.854  30.064  32.925  1.00  0.00    -0.206 F 
ATOM     54  C   UNL A   1      35.769  31.801  32.190  1.00  0.00     0.022 A 
BRANCH  51  55
ATOM     55  S   UNL A   1      34.774  33.172  29.981  1.00  0.00     0.124 S 
ATOM     56  O   UNL A   1      35.631  34.164  29.342  1.00  0.00    -0.237 OA
ATOM     57  O   UNL A   1      34.136  32.204  29.094  1.00  0.00    -0.237 OA
ATOM     58  O   UNL A   1      33.927  33.681  31.058  1.00  0.00    -0.744 OA
ENDBRANCH  51  55
ENDBRANCH  24  48
BRANCH  36  59
ATOM     59  C   UNL A   1      44.299  34.310  30.242  1.00  0.00     0.023 A 
ATOM     60  C   UNL A   1      44.095  35.458  29.459  1.00  0.00     0.031 A 
ATOM     61  C   UNL A   1      44.971  34.447  31.467  1.00  0.00     0.131 A 
ATOM     62  C   UNL A   1      44.610  36.689  29.882  1.00  0.00     0.055 A 
ATOM     63  C   UNL A   1      45.425  35.688  31.915  1.00  0.00     0.041 A 
ATOM     64  F   UNL A   1      45.195  33.378  32.249  1.00  0.00    -0.206 F 
ATOM     65  C   UNL A   1      45.257  36.816  31.114  1.00  0.00     0.022 A 
BRANCH  62  66
ATOM     66  S   UNL A   1      44.497  38.105  28.758  1.00  0.00     0.124 S 
ATOM     67  O   UNL A   1      45.818  38.104  28.137  1.00  0.00    -0.237 OA
ATOM     68  O   UNL A   1      43.385  37.730  27.891  1.00  0.00    -0.237 OA
ATOM     69  O   UNL A   1      44.232  39.231  29.652  1.00  0.00    -0.744 OA
ENDBRANCH  62  66
ENDBRANCH  36  59
ENDBRANCH  10  11
ENDBRANCH   3   5
ENDBRANCH   2   3
ENDBRANCH   1   2
BRANCH   1  70
ATOM     70  C   UNL A   1      36.302  22.542  24.461  1.00  0.00     0.274 C 
BRANCH  70  71
ATOM     71  O   UNL A   1      35.006  22.032  24.146  1.00  0.00    -0.462 OA
BRANCH  71  72
ATOM     72  C   UNL A   1      34.223  21.589  25.165  1.00  0.00     0.310 C 
ATOM     73  O   UNL A   1      34.486  21.699  26.354  1.00  0.00    -0.252 OA
BRANCH  72  74
ATOM     74  C   UNL A   1      32.912  21.037  24.621  1.00  0.00     0.119 C 
ATOM     75  C   UNL A   1      32.687  21.355  23.140  1.00  0.00     0.019 C 
ATOM     76  C   UNL A   1      31.721  21.547  25.417  1.00  0.00     0.135 C 
ATOM     77  C   UNL A   1      32.342  22.828  22.904  1.00  0.00     0.022 C 
ATOM     78  N   UNL A   1      31.487  22.974  25.206  1.00  0.00    -0.338 N 
ATOM     79  C   UNL A   1      31.225  23.338  23.817  1.00  0.00     0.120 C 
BRANCH  78  80
ATOM     80  C   UNL A   1      31.532  23.826  26.313  1.00  0.00     0.259 C 
ATOM     81  O   UNL A   1      31.272  23.438  27.453  1.00  0.00    -0.269 OA
BRANCH  80  82
ATOM     82  C   UNL A   1      31.923  25.239  26.185  1.00  0.00     0.111 A 
ATOM     83  C   UNL A   1      33.245  25.648  26.023  1.00  0.00     0.140 A 
ATOM     84  C   UNL A   1      30.912  26.198  26.111  1.00  0.00     0.140 A 
ATOM     85  F   UNL A   1      34.250  24.762  26.061  1.00  0.00    -0.206 F 
ATOM     86  C   UNL A   1      33.563  26.995  25.841  1.00  0.00     0.056 A 
ATOM     87  C   UNL A   1      31.211  27.545  25.924  1.00  0.00     0.056 A 
ATOM     88  F   UNL A   1      29.622  25.856  26.250  1.00  0.00    -0.206 F 
ATOM     89  C   UNL A   1      32.541  27.939  25.799  1.00  0.00     0.023 A 
ATOM     90  Br  UNL A   1      32.950  29.772  25.593  1.00  0.00    -0.051 Br
ENDBRANCH  80  82
ENDBRANCH  78  80
ENDBRANCH  72  74
ENDBRANCH  71  72
ENDBRANCH  70  71
ENDBRANCH   1  70
TORSDOF 16
ENDMDL
MODEL 3
REMARK VINA RESULT:     -11.6      2.130      2.903
REMARK SMILES O=C(OCCOC(=O)[C@@H]1CCCN(C(=O)c2c(F)cc(Br)cc2F)C1)c1ccc(-c2c3nc(c(-c4cc(S(=O)(=O)[O-])ccc4F)c4ccc([nH]4)c(-c4cc(S(=O)(=O)[O-])ccc4F)c4nc(c(-c5cc(S(=O)(=O)[O-])ccc5F)c5ccc2[nH]5)C=C4)C=C3)cc1
REMARK SMILES IDX 4 1 3 2 2 3 1 4 26 5 27 6 88 7 28 8 87 9 29 10 30 11 31 12
REMARK SMILES IDX 81 13 32 14 86 15 80 16 82 17 33 18 85 19 79 20 78 21 34 23
REMARK SMILES IDX 66 24 46 25 65 26 47 27 50 28 64 29 83 30 48 31 49 32 63 34
REMARK SMILES IDX 84 35 51 36 35 37 36 38 44 39 37 40 43 41 45 42 42 43 38 44
REMARK SMILES IDX 39 45 40 46 41 47 67 48 68 49 76 50 69 51 75 52 77 53 74 54
REMARK SMILES IDX 70 55 71 56 72 57 73 58 52 59 53 60 61 61 54 62 60 63 62 64
REMARK SMILES IDX 59 65 55 66 56 67 57 68 58 69 5 70 6 71 7 72 8 73 9 74 10 75
REMARK SMILES IDX 25 76 11 77 13 78 12 79 14 80 15 81 16 82 17 83 23 84 18 85
REMARK SMILES IDX 19 86 22 87 24 88 20 89 21 90
REMARK H PARENT 82 22 50 33
REMARK Flexibility Score: inf
ROOT
ATOM      1  C   UNL A   1      31.424  31.656  26.513  1.00  0.00     0.275 C 
ENDROOT
BRANCH   1   2
ATOM      2  O   UNL A   1      32.296  32.803  26.541  1.00  0.00    -0.458 OA
BRANCH   2   3
ATOM      3  C   UNL A   1      32.972  33.383  27.563  1.00  0.00     0.338 C 
ATOM      4  O   UNL A   1      32.560  34.472  27.969  1.00  0.00    -0.246 OA
BRANCH   3   5
ATOM      5  C   UNL A   1      34.230  32.853  28.195  1.00  0.00     0.060 A 
ATOM      6  C   UNL A   1      35.529  33.325  27.989  1.00  0.00     0.016 A 
ATOM      7  C   UNL A   1      34.074  31.760  29.075  1.00  0.00     0.016 A 
ATOM      8  C   UNL A   1      36.624  32.778  28.681  1.00  0.00     0.010 A 
ATOM      9  C   UNL A   1      35.164  31.202  29.758  1.00  0.00     0.010 A 
ATOM     10  C   UNL A   1      36.450  31.716  29.573  1.00  0.00    -0.014 A 
BRANCH  10  11
ATOM     11  C   UNL A   1      37.619  31.090  30.242  1.00  0.00     0.031 A 
ATOM     12  C   UNL A   1      37.999  31.556  31.608  1.00  0.00     0.074 A 
ATOM     13  C   UNL A   1      38.333  30.120  29.639  1.00  0.00     0.049 A 
ATOM     14  N   UNL A   1      38.953  31.119  32.384  1.00  0.00    -0.248 NA
ATOM     15  C   UNL A   1      37.179  32.628  32.192  1.00  0.00     0.031 C 
ATOM     16  C   UNL A   1      37.979  29.520  28.367  1.00  0.00     0.029 A 
ATOM     17  N   UNL A   1      39.491  29.470  29.983  1.00  0.00    -0.354 N 
ATOM     18  C   UNL A   1      38.823  31.828  33.567  1.00  0.00     0.074 A 
ATOM     19  C   UNL A   1      37.731  32.762  33.388  1.00  0.00     0.031 C 
ATOM     20  C   UNL A   1      38.932  28.663  27.977  1.00  0.00     0.029 A 
ATOM     21  C   UNL A   1      39.958  28.618  29.003  1.00  0.00     0.049 A 
ATOM     22  H   UNL A   1      39.947  29.599  30.846  1.00  0.00     0.167 HD
ATOM     23  C   UNL A   1      39.547  31.690  34.702  1.00  0.00     0.034 A 
ATOM     24  C   UNL A   1      41.079  27.872  28.939  1.00  0.00     0.034 A 
ATOM     25  C   UNL A   1      40.666  30.790  34.825  1.00  0.00     0.049 A 
ATOM     26  C   UNL A   1      41.949  27.845  30.164  1.00  0.00     0.074 A 
ATOM     27  C   UNL A   1      41.477  30.569  35.923  1.00  0.00     0.029 A 
ATOM     28  N   UNL A   1      41.153  29.987  33.800  1.00  0.00    -0.354 N 
ATOM     29  N   UNL A   1      41.762  28.459  31.310  1.00  0.00    -0.248 NA
ATOM     30  C   UNL A   1      43.148  27.004  30.114  1.00  0.00     0.031 C 
ATOM     31  C   UNL A   1      42.500  29.694  35.536  1.00  0.00     0.029 A 
ATOM     32  C   UNL A   1      42.292  29.317  34.219  1.00  0.00     0.049 A 
ATOM     33  H   UNL A   1      40.750  29.906  32.906  1.00  0.00     0.167 HD
ATOM     34  C   UNL A   1      42.804  28.054  32.131  1.00  0.00     0.074 A 
ATOM     35  C   UNL A   1      43.602  27.123  31.353  1.00  0.00     0.031 C 
ATOM     36  C   UNL A   1      43.079  28.415  33.410  1.00  0.00     0.034 A 
BRANCH  23  37
ATOM     37  C   UNL A   1      39.177  32.586  35.850  1.00  0.00     0.023 A 
ATOM     38  C   UNL A   1      39.657  33.905  35.941  1.00  0.00     0.031 A 
ATOM     39  C   UNL A   1      38.389  32.092  36.903  1.00  0.00     0.131 A 
ATOM     40  C   UNL A   1      39.394  34.664  37.090  1.00  0.00     0.055 A 
ATOM     41  C   UNL A   1      38.078  32.875  38.016  1.00  0.00     0.041 A 
ATOM     42  F   UNL A   1      37.934  30.830  36.880  1.00  0.00    -0.206 F 
ATOM     43  C   UNL A   1      38.590  34.165  38.118  1.00  0.00     0.022 A 
BRANCH  40  44
ATOM     44  S   UNL A   1      40.210  36.274  37.278  1.00  0.00     0.124 S 
ATOM     45  O   UNL A   1      41.543  35.879  37.726  1.00  0.00    -0.237 OA
ATOM     46  O   UNL A   1      40.128  36.832  35.933  1.00  0.00    -0.237 OA
ATOM     47  O   UNL A   1      39.397  36.955  38.285  1.00  0.00    -0.744 OA
ENDBRANCH  40  44
ENDBRANCH  23  37
BRANCH  24  48
ATOM     48  C   UNL A   1      41.435  27.110  27.702  1.00  0.00     0.023 A 
ATOM     49  C   UNL A   1      41.318  25.713  27.636  1.00  0.00     0.031 A 
ATOM     50  C   UNL A   1      41.954  27.774  26.573  1.00  0.00     0.131 A 
ATOM     51  C   UNL A   1      41.763  25.021  26.496  1.00  0.00     0.055 A 
ATOM     52  C   UNL A   1      42.352  27.086  25.423  1.00  0.00     0.041 A 
ATOM     53  F   UNL A   1      42.085  29.111  26.570  1.00  0.00    -0.206 F 
ATOM     54  C   UNL A   1      42.273  25.699  25.388  1.00  0.00     0.022 A 
BRANCH  51  55
ATOM     55  S   UNL A   1      41.760  23.206  26.515  1.00  0.00     0.124 S 
ATOM     56  O   UNL A   1      42.592  22.888  25.360  1.00  0.00    -0.237 OA
ATOM     57  O   UNL A   1      42.339  22.925  27.825  1.00  0.00    -0.237 OA
ATOM     58  O   UNL A   1      40.345  22.869  26.376  1.00  0.00    -0.744 OA
ENDBRANCH  51  55
ENDBRANCH  24  48
BRANCH  36  59
ATOM     59  C   UNL A   1      44.303  27.794  34.024  1.00  0.00     0.023 A 
ATOM     60  C   UNL A   1      44.221  26.583  34.732  1.00  0.00     0.031 A 
ATOM     61  C   UNL A   1      45.553  28.425  33.923  1.00  0.00     0.131 A 
ATOM     62  C   UNL A   1      45.359  26.067  35.362  1.00  0.00     0.055 A 
ATOM     63  C   UNL A   1      46.698  27.872  34.498  1.00  0.00     0.041 A 
ATOM     64  F   UNL A   1      45.683  29.587  33.262  1.00  0.00    -0.206 F 
ATOM     65  C   UNL A   1      46.601  26.693  35.234  1.00  0.00     0.022 A 
BRANCH  62  66
ATOM     66  S   UNL A   1      45.172  24.610  36.423  1.00  0.00     0.124 S 
ATOM     67  O   UNL A   1      46.516  24.466  36.976  1.00  0.00    -0.237 OA
ATOM     68  O   UNL A   1      44.140  25.035  37.362  1.00  0.00    -0.237 OA
ATOM     69  O   UNL A   1      44.767  23.559  35.492  1.00  0.00    -0.744 OA
ENDBRANCH  62  66
ENDBRANCH  36  59
ENDBRANCH  10  11
ENDBRANCH   3   5
ENDBRANCH   2   3
ENDBRANCH   1   2
BRANCH   1  70
ATOM     70  C   UNL A   1      32.157  30.323  26.395  1.00  0.00     0.274 C 
BRANCH  70  71
ATOM     71  O   UNL A   1      31.454  29.446  25.514  1.00  0.00    -0.462 OA
BRANCH  71  72
ATOM     72  C   UNL A   1      31.982  29.208  24.284  1.00  0.00     0.310 C 
ATOM     73  O   UNL A   1      33.174  29.243  24.012  1.00  0.00    -0.252 OA
BRANCH  72  74
ATOM     74  C   UNL A   1      30.890  28.775  23.316  1.00  0.00     0.119 C 
ATOM     75  C   UNL A   1      29.727  28.048  23.997  1.00  0.00     0.019 C 
ATOM     76  C   UNL A   1      31.444  27.887  22.214  1.00  0.00     0.135 C 
ATOM     77  C   UNL A   1      30.104  26.632  24.444  1.00  0.00     0.022 C 
ATOM     78  N   UNL A   1      31.853  26.576  22.715  1.00  0.00    -0.338 N 
ATOM     79  C   UNL A   1      30.779  25.813  23.342  1.00  0.00     0.120 C 
BRANCH  78  80
ATOM     80  C   UNL A   1      33.186  26.189  22.553  1.00  0.00     0.259 C 
ATOM     81  O   UNL A   1      33.927  26.713  21.721  1.00  0.00    -0.269 OA
BRANCH  80  82
ATOM     82  C   UNL A   1      33.795  25.145  23.392  1.00  0.00     0.111 A 
ATOM     83  C   UNL A   1      34.229  25.377  24.696  1.00  0.00     0.140 A 
ATOM     84  C   UNL A   1      33.835  23.841  22.896  1.00  0.00     0.140 A 
ATOM     85  F   UNL A   1      34.187  26.606  25.227  1.00  0.00    -0.206 F 
ATOM     86  C   UNL A   1      34.742  24.340  25.478  1.00  0.00     0.056 A 
ATOM     87  C   UNL A   1      34.337  22.794  23.664  1.00  0.00     0.056 A 
ATOM     88  F   UNL A   1      33.420  23.561  21.651  1.00  0.00    -0.206 F 
ATOM     89  C   UNL A   1      34.799  23.052  24.952  1.00  0.00     0.023 A 
ATOM     90  Br  UNL A   1      35.525  21.642  25.978  1.00  0.00    -0.051 Br
ENDBRANCH  80  82
ENDBRANCH  78  80
ENDBRANCH  72  74
ENDBRANCH  71  72
ENDBRANCH  70  71
ENDBRANCH   1  70
TORSDOF 16
ENDMDL
