MODEL 1
REMARK VINA RESULT:     -11.0      0.000      0.000
REMARK SMILES Cc1cc(Br)cnc1Sc1nc(CC(=O)OCCOC(=O)c2ccc(-c3c4nc(c(-c5cc(S(=O)(=O)[O-])ccc5F)c5ccc([nH]5)c(-c5cc(S(=O)(=O)[O-])ccc5F)c5nc(c(-c6cc(S(=O)(=O)[O-])ccc6F)c6ccc3[nH]6)C=C5)C=C4)cc2)cs1
REMARK SMILES IDX 17 1 16 2 14 3 15 4 13 5 12 6 10 7 11 8 86 9 85 10 9 11 8 12
REMARK SMILES IDX 1 13 2 14 3 15 4 16 7 17 5 18 6 19 18 20 19 21 20 22 21 23
REMARK SMILES IDX 22 24 23 25 84 26 24 27 83 28 25 29 26 30 27 31 77 32 28 33
REMARK SMILES IDX 82 34 76 35 78 36 29 37 81 38 75 39 74 40 30 42 62 43 42 44
REMARK SMILES IDX 61 45 43 46 46 47 60 48 79 49 44 50 45 51 59 53 80 54 47 55
REMARK SMILES IDX 31 56 32 57 40 58 33 59 39 60 41 61 38 62 34 63 35 64 36 65
REMARK SMILES IDX 37 66 63 67 64 68 72 69 65 70 71 71 73 72 70 73 66 74 67 75
REMARK SMILES IDX 68 76 69 77 48 78 49 79 57 80 50 81 56 82 58 83 55 84 51 85
REMARK SMILES IDX 52 86 53 87 54 88
REMARK H PARENT 78 41 46 52
REMARK Flexibility Score: inf
ROOT
ATOM      1  C   UNL A   1      31.808  30.906  26.626  1.00  0.00     0.274 C 
ENDROOT
BRANCH   1   2
ATOM      2  O   UNL A   1      32.778  30.196  27.419  1.00  0.00    -0.462 OA
BRANCH   2   3
ATOM      3  C   UNL A   1      32.738  28.840  27.330  1.00  0.00     0.312 C 
ATOM      4  O   UNL A   1      31.917  28.134  27.908  1.00  0.00    -0.252 OA
BRANCH   3   5
ATOM      5  C   UNL A   1      33.865  28.251  26.521  1.00  0.00     0.179 C 
BRANCH   5   6
ATOM      6  C   UNL A   1      33.501  27.159  25.568  1.00  0.00     0.064 A 
ATOM      7  C   UNL A   1      32.531  26.448  23.701  1.00  0.00     0.156 A 
ATOM      8  N   UNL A   1      32.628  27.467  24.526  1.00  0.00    -0.234 NA
ATOM      9  S   UNL A   1      33.361  25.025  24.183  1.00  0.00    -0.116 S 
ATOM     10  C   UNL A   1      34.022  25.879  25.508  1.00  0.00     0.092 A 
BRANCH   7  11
ATOM     11  S   UNL A   1      31.615  26.484  22.227  1.00  0.00    -0.039 SA
BRANCH  11  12
ATOM     12  C   UNL A   1      30.362  27.721  22.483  1.00  0.00     0.106 A 
ATOM     13  C   UNL A   1      28.671  26.428  23.955  1.00  0.00     0.047 C 
ATOM     14  C   UNL A   1      29.190  27.651  23.256  1.00  0.00    -0.017 A 
ATOM     15  C   UNL A   1      28.409  28.819  23.387  1.00  0.00     0.023 A 
ATOM     16  C   UNL A   1      28.821  30.011  22.815  1.00  0.00     0.036 A 
ATOM     17  N   UNL A   1      30.752  28.901  21.914  1.00  0.00    -0.248 NA
ATOM     18  Br  UNL A   1      27.823  31.592  23.037  1.00  0.00    -0.049 Br
ATOM     19  C   UNL A   1      29.993  30.005  22.095  1.00  0.00     0.128 A 
ENDBRANCH  11  12
ENDBRANCH   7  11
ENDBRANCH   5   6
ENDBRANCH   3   5
ENDBRANCH   2   3
ENDBRANCH   1   2
BRANCH   1  20
ATOM     20  C   UNL A   1      31.822  32.403  26.930  1.00  0.00     0.275 C 
BRANCH  20  21
ATOM     21  O   UNL A   1      33.154  32.840  27.256  1.00  0.00    -0.458 OA
BRANCH  21  22
ATOM     22  C   UNL A   1      33.225  33.832  28.169  1.00  0.00     0.338 C 
ATOM     23  O   UNL A   1      32.495  34.803  28.269  1.00  0.00    -0.246 OA
BRANCH  22  24
ATOM     24  C   UNL A   1      34.318  33.568  29.114  1.00  0.00     0.060 A 
ATOM     25  C   UNL A   1      35.592  34.078  28.848  1.00  0.00     0.016 A 
ATOM     26  C   UNL A   1      34.110  32.679  30.169  1.00  0.00     0.016 A 
ATOM     27  C   UNL A   1      36.678  33.653  29.610  1.00  0.00     0.010 A 
ATOM     28  C   UNL A   1      35.195  32.282  30.953  1.00  0.00     0.010 A 
ATOM     29  C   UNL A   1      36.493  32.734  30.654  1.00  0.00    -0.014 A 
BRANCH  29  30
ATOM     30  C   UNL A   1      37.667  32.175  31.371  1.00  0.00     0.031 A 
ATOM     31  C   UNL A   1      38.466  31.065  30.745  1.00  0.00     0.074 A 
ATOM     32  C   UNL A   1      38.017  32.661  32.575  1.00  0.00     0.049 A 
ATOM     33  N   UNL A   1      39.488  30.402  31.224  1.00  0.00    -0.248 NA
ATOM     34  C   UNL A   1      38.043  30.636  29.405  1.00  0.00     0.031 C 
ATOM     35  C   UNL A   1      37.323  33.735  33.286  1.00  0.00     0.029 A 
ATOM     36  N   UNL A   1      39.039  32.304  33.418  1.00  0.00    -0.354 N 
ATOM     37  C   UNL A   1      39.819  29.462  30.253  1.00  0.00     0.074 A 
ATOM     38  C   UNL A   1      38.861  29.621  29.178  1.00  0.00     0.031 C 
ATOM     39  C   UNL A   1      37.938  33.945  34.463  1.00  0.00     0.029 A 
ATOM     40  C   UNL A   1      39.045  33.003  34.600  1.00  0.00     0.049 A 
ATOM     41  H   UNL A   1      39.705  31.613  33.195  1.00  0.00     0.167 HD
ATOM     42  C   UNL A   1      40.832  28.557  30.255  1.00  0.00     0.034 A 
ATOM     43  C   UNL A   1      39.839  32.884  35.681  1.00  0.00     0.034 A 
ATOM     44  C   UNL A   1      41.780  28.409  31.335  1.00  0.00     0.049 A 
ATOM     45  C   UNL A   1      40.954  31.874  35.668  1.00  0.00     0.074 A 
ATOM     46  C   UNL A   1      42.852  27.538  31.433  1.00  0.00     0.029 A 
ATOM     47  N   UNL A   1      41.763  29.148  32.512  1.00  0.00    -0.354 N 
ATOM     48  N   UNL A   1      41.264  30.997  34.741  1.00  0.00    -0.248 NA
ATOM     49  C   UNL A   1      41.837  31.853  36.840  1.00  0.00     0.031 C 
ATOM     50  C   UNL A   1      43.450  27.715  32.688  1.00  0.00     0.029 A 
ATOM     51  C   UNL A   1      42.793  28.741  33.348  1.00  0.00     0.049 A 
ATOM     52  H   UNL A   1      41.116  29.859  32.721  1.00  0.00     0.167 HD
ATOM     53  C   UNL A   1      42.387  30.327  35.216  1.00  0.00     0.074 A 
ATOM     54  C   UNL A   1      42.710  30.916  36.500  1.00  0.00     0.031 C 
ATOM     55  C   UNL A   1      43.092  29.318  34.638  1.00  0.00     0.034 A 
BRANCH  42  56
ATOM     56  C   UNL A   1      40.918  27.628  29.066  1.00  0.00     0.023 A 
ATOM     57  C   UNL A   1      41.850  27.835  28.032  1.00  0.00     0.031 A 
ATOM     58  C   UNL A   1      40.008  26.566  28.927  1.00  0.00     0.131 A 
ATOM     59  C   UNL A   1      41.789  27.055  26.868  1.00  0.00     0.055 A 
ATOM     60  C   UNL A   1      40.008  25.739  27.801  1.00  0.00     0.041 A 
ATOM     61  F   UNL A   1      39.082  26.330  29.870  1.00  0.00    -0.206 F 
ATOM     62  C   UNL A   1      40.887  25.994  26.754  1.00  0.00     0.022 A 
BRANCH  59  63
ATOM     63  S   UNL A   1      42.778  27.564  25.435  1.00  0.00     0.124 S 
ATOM     64  O   UNL A   1      42.638  26.409  24.551  1.00  0.00    -0.237 OA
ATOM     65  O   UNL A   1      42.104  28.784  25.005  1.00  0.00    -0.237 OA
ATOM     66  O   UNL A   1      44.117  27.752  25.992  1.00  0.00    -0.744 OA
ENDBRANCH  59  63
ENDBRANCH  42  56
BRANCH  43  67
ATOM     67  C   UNL A   1      39.586  33.728  36.878  1.00  0.00     0.023 A 
ATOM     68  C   UNL A   1      38.986  33.198  38.029  1.00  0.00     0.031 A 
ATOM     69  C   UNL A   1      39.947  35.088  36.880  1.00  0.00     0.131 A 
ATOM     70  C   UNL A   1      38.739  34.032  39.131  1.00  0.00     0.055 A 
ATOM     71  C   UNL A   1      39.731  35.903  37.990  1.00  0.00     0.041 A 
ATOM     72  F   UNL A   1      40.535  35.634  35.803  1.00  0.00    -0.206 F 
ATOM     73  C   UNL A   1      39.117  35.377  39.122  1.00  0.00     0.022 A 
BRANCH  70  74
ATOM     74  S   UNL A   1      37.889  33.337  40.573  1.00  0.00     0.124 S 
ATOM     75  O   UNL A   1      37.964  34.440  41.524  1.00  0.00    -0.237 OA
ATOM     76  O   UNL A   1      36.565  33.044  40.035  1.00  0.00    -0.237 OA
ATOM     77  O   UNL A   1      38.693  32.164  40.910  1.00  0.00    -0.744 OA
ENDBRANCH  70  74
ENDBRANCH  43  67
BRANCH  55  78
ATOM     78  C   UNL A   1      44.300  28.819  35.390  1.00  0.00     0.023 A 
ATOM     79  C   UNL A   1      44.200  27.798  36.354  1.00  0.00     0.031 A 
ATOM     80  C   UNL A   1      45.561  29.396  35.164  1.00  0.00     0.131 A 
ATOM     81  C   UNL A   1      45.332  27.428  37.096  1.00  0.00     0.055 A 
ATOM     82  C   UNL A   1      46.694  28.987  35.871  1.00  0.00     0.041 A 
ATOM     83  F   UNL A   1      45.711  30.376  34.258  1.00  0.00    -0.206 F 
ATOM     84  C   UNL A   1      46.580  28.009  36.853  1.00  0.00     0.022 A 
BRANCH  81  85
ATOM     85  S   UNL A   1      45.131  26.250  38.463  1.00  0.00     0.124 S 
ATOM     86  O   UNL A   1      46.107  26.737  39.432  1.00  0.00    -0.237 OA
ATOM     87  O   UNL A   1      43.729  26.429  38.822  1.00  0.00    -0.237 OA
ATOM     88  O   UNL A   1      45.455  24.961  37.853  1.00  0.00    -0.744 OA
ENDBRANCH  81  85
ENDBRANCH  55  78
ENDBRANCH  29  30
ENDBRANCH  22  24
ENDBRANCH  21  22
ENDBRANCH  20  21
ENDBRANCH   1  20
TORSDOF 17
ENDMDL
MODEL 2
REMARK VINA RESULT:     -10.9      5.364      8.605
REMARK SMILES Cc1cc(Br)cnc1Sc1nc(CC(=O)OCCOC(=O)c2ccc(-c3c4nc(c(-c5cc(S(=O)(=O)[O-])ccc5F)c5ccc([nH]5)c(-c5cc(S(=O)(=O)[O-])ccc5F)c5nc(c(-c6cc(S(=O)(=O)[O-])ccc6F)c6ccc3[nH]6)C=C5)C=C4)cc2)cs1
REMARK SMILES IDX 17 1 16 2 14 3 15 4 13 5 12 6 10 7 11 8 86 9 85 10 9 11 8 12
REMARK SMILES IDX 1 13 2 14 3 15 4 16 7 17 5 18 6 19 18 20 19 21 20 22 21 23
REMARK SMILES IDX 22 24 23 25 84 26 24 27 83 28 25 29 26 30 27 31 77 32 28 33
REMARK SMILES IDX 82 34 76 35 78 36 29 37 81 38 75 39 74 40 30 42 62 43 42 44
REMARK SMILES IDX 61 45 43 46 46 47 60 48 79 49 44 50 45 51 59 53 80 54 47 55
REMARK SMILES IDX 31 56 32 57 40 58 33 59 39 60 41 61 38 62 34 63 35 64 36 65
REMARK SMILES IDX 37 66 63 67 64 68 72 69 65 70 71 71 73 72 70 73 66 74 67 75
REMARK SMILES IDX 68 76 69 77 48 78 49 79 57 80 50 81 56 82 58 83 55 84 51 85
REMARK SMILES IDX 52 86 53 87 54 88
REMARK H PARENT 78 41 46 52
REMARK Flexibility Score: inf
ROOT
ATOM      1  C   UNL A   1      36.016  20.207  24.970  1.00  0.00     0.274 C 
ENDROOT
BRANCH   1   2
ATOM      2  O   UNL A   1      35.663  21.226  25.924  1.00  0.00    -0.462 OA
BRANCH   2   3
ATOM      3  C   UNL A   1      34.343  21.546  25.989  1.00  0.00     0.312 C 
ATOM      4  O   UNL A   1      33.781  21.956  27.001  1.00  0.00    -0.252 OA
BRANCH   3   5
ATOM      5  C   UNL A   1      33.586  21.265  24.717  1.00  0.00     0.179 C 
BRANCH   5   6
ATOM      6  C   UNL A   1      33.111  22.454  23.946  1.00  0.00     0.064 A 
ATOM      7  C   UNL A   1      31.652  24.091  23.598  1.00  0.00     0.156 A 
ATOM      8  N   UNL A   1      31.853  22.970  24.253  1.00  0.00    -0.234 NA
ATOM      9  S   UNL A   1      32.883  24.527  22.484  1.00  0.00    -0.116 S 
ATOM     10  C   UNL A   1      33.821  23.206  23.027  1.00  0.00     0.092 A 
BRANCH   7  11
ATOM     11  S   UNL A   1      30.241  25.084  23.793  1.00  0.00    -0.039 SA
BRANCH  11  12
ATOM     12  C   UNL A   1      30.844  26.640  24.412  1.00  0.00     0.106 A 
ATOM     13  C   UNL A   1      30.098  28.252  22.530  1.00  0.00     0.047 C 
ATOM     14  C   UNL A   1      30.703  27.927  23.864  1.00  0.00    -0.017 A 
ATOM     15  C   UNL A   1      31.182  29.024  24.613  1.00  0.00     0.023 A 
ATOM     16  C   UNL A   1      31.720  28.835  25.875  1.00  0.00     0.036 A 
ATOM     17  N   UNL A   1      31.388  26.466  25.654  1.00  0.00    -0.248 NA
ATOM     18  Br  UNL A   1      32.302  30.296  26.911  1.00  0.00    -0.049 Br
ATOM     19  C   UNL A   1      31.800  27.548  26.352  1.00  0.00     0.128 A 
ENDBRANCH  11  12
ENDBRANCH   7  11
ENDBRANCH   5   6
ENDBRANCH   3   5
ENDBRANCH   2   3
ENDBRANCH   1   2
BRANCH   1  20
ATOM     20  C   UNL A   1      37.527  19.998  24.904  1.00  0.00     0.275 C 
BRANCH  20  21
ATOM     21  O   UNL A   1      38.220  21.216  25.233  1.00  0.00    -0.458 OA
BRANCH  21  22
ATOM     22  C   UNL A   1      39.301  21.066  26.028  1.00  0.00     0.338 C 
ATOM     23  O   UNL A   1      39.943  20.049  26.222  1.00  0.00    -0.246 OA
BRANCH  22  24
ATOM     24  C   UNL A   1      39.665  22.355  26.630  1.00  0.00     0.060 A 
ATOM     25  C   UNL A   1      39.068  23.526  26.157  1.00  0.00     0.016 A 
ATOM     26  C   UNL A   1      40.718  22.409  27.544  1.00  0.00     0.016 A 
ATOM     27  C   UNL A   1      39.564  24.765  26.559  1.00  0.00     0.010 A 
ATOM     28  C   UNL A   1      41.189  23.651  27.973  1.00  0.00     0.010 A 
ATOM     29  C   UNL A   1      40.642  24.838  27.453  1.00  0.00    -0.014 A 
BRANCH  29  30
ATOM     30  C   UNL A   1      41.259  26.152  27.769  1.00  0.00     0.031 A 
ATOM     31  C   UNL A   1      42.674  26.435  27.342  1.00  0.00     0.074 A 
ATOM     32  C   UNL A   1      40.555  27.086  28.433  1.00  0.00     0.049 A 
ATOM     33  N   UNL A   1      43.414  27.491  27.565  1.00  0.00    -0.248 NA
ATOM     34  C   UNL A   1      43.345  25.378  26.576  1.00  0.00     0.031 C 
ATOM     35  C   UNL A   1      39.178  26.931  28.900  1.00  0.00     0.029 A 
ATOM     36  N   UNL A   1      40.909  28.347  28.839  1.00  0.00    -0.354 N 
ATOM     37  C   UNL A   1      44.649  27.218  26.985  1.00  0.00     0.074 A 
ATOM     38  C   UNL A   1      44.562  25.880  26.434  1.00  0.00     0.031 C 
ATOM     39  C   UNL A   1      38.805  28.055  29.536  1.00  0.00     0.029 A 
ATOM     40  C   UNL A   1      39.925  28.992  29.547  1.00  0.00     0.049 A 
ATOM     41  H   UNL A   1      41.786  28.751  28.642  1.00  0.00     0.167 HD
ATOM     42  C   UNL A   1      45.749  28.011  26.909  1.00  0.00     0.034 A 
ATOM     43  C   UNL A   1      39.930  30.194  30.155  1.00  0.00     0.034 A 
ATOM     44  C   UNL A   1      45.822  29.343  27.463  1.00  0.00     0.049 A 
ATOM     45  C   UNL A   1      41.158  31.059  30.065  1.00  0.00     0.074 A 
ATOM     46  C   UNL A   1      46.878  30.238  27.430  1.00  0.00     0.029 A 
ATOM     47  N   UNL A   1      44.796  29.970  28.160  1.00  0.00    -0.354 N 
ATOM     48  N   UNL A   1      42.316  30.794  29.505  1.00  0.00    -0.248 NA
ATOM     49  C   UNL A   1      41.071  32.391  30.674  1.00  0.00     0.031 C 
ATOM     50  C   UNL A   1      46.509  31.383  28.150  1.00  0.00     0.029 A 
ATOM     51  C   UNL A   1      45.201  31.230  28.577  1.00  0.00     0.049 A 
ATOM     52  H   UNL A   1      43.910  29.578  28.332  1.00  0.00     0.167 HD
ATOM     53  C   UNL A   1      43.092  31.935  29.685  1.00  0.00     0.074 A 
ATOM     54  C   UNL A   1      42.263  32.894  30.387  1.00  0.00     0.031 C 
ATOM     55  C   UNL A   1      44.373  32.170  29.299  1.00  0.00     0.034 A 
BRANCH  42  56
ATOM     56  C   UNL A   1      46.971  27.420  26.245  1.00  0.00     0.023 A 
ATOM     57  C   UNL A   1      47.931  26.697  26.976  1.00  0.00     0.031 A 
ATOM     58  C   UNL A   1      47.219  27.646  24.880  1.00  0.00     0.131 A 
ATOM     59  C   UNL A   1      49.132  26.308  26.364  1.00  0.00     0.055 A 
ATOM     60  C   UNL A   1      48.379  27.183  24.256  1.00  0.00     0.041 A 
ATOM     61  F   UNL A   1      46.350  28.347  24.134  1.00  0.00    -0.206 F 
ATOM     62  C   UNL A   1      49.353  26.528  25.002  1.00  0.00     0.022 A 
BRANCH  59  63
ATOM     63  S   UNL A   1      50.472  25.678  27.412  1.00  0.00     0.124 S 
ATOM     64  O   UNL A   1      51.629  25.818  26.531  1.00  0.00    -0.237 OA
ATOM     65  O   UNL A   1      50.426  26.581  28.556  1.00  0.00    -0.237 OA
ATOM     66  O   UNL A   1      50.072  24.299  27.687  1.00  0.00    -0.744 OA
ENDBRANCH  59  63
ENDBRANCH  42  56
BRANCH  43  67
ATOM     67  C   UNL A   1      38.739  30.635  30.928  1.00  0.00     0.023 A 
ATOM     68  C   UNL A   1      37.666  31.286  30.303  1.00  0.00     0.031 A 
ATOM     69  C   UNL A   1      38.665  30.405  32.314  1.00  0.00     0.131 A 
ATOM     70  C   UNL A   1      36.570  31.711  31.070  1.00  0.00     0.055 A 
ATOM     71  C   UNL A   1      37.559  30.799  33.065  1.00  0.00     0.041 A 
ATOM     72  F   UNL A   1      39.665  29.774  32.950  1.00  0.00    -0.206 F 
ATOM     73  C   UNL A   1      36.505  31.462  32.444  1.00  0.00     0.022 A 
BRANCH  70  74
ATOM     74  S   UNL A   1      35.235  32.621  30.248  1.00  0.00     0.124 S 
ATOM     75  O   UNL A   1      34.284  32.805  31.338  1.00  0.00    -0.237 OA
ATOM     76  O   UNL A   1      35.923  33.823  29.788  1.00  0.00    -0.237 OA
ATOM     77  O   UNL A   1      34.805  31.711  29.188  1.00  0.00    -0.744 OA
ENDBRANCH  70  74
ENDBRANCH  43  67
BRANCH  55  78
ATOM     78  C   UNL A   1      44.935  33.536  29.607  1.00  0.00     0.023 A 
ATOM     79  C   UNL A   1      44.826  34.602  28.696  1.00  0.00     0.031 A 
ATOM     80  C   UNL A   1      45.619  33.762  30.813  1.00  0.00     0.131 A 
ATOM     81  C   UNL A   1      45.443  35.829  28.981  1.00  0.00     0.055 A 
ATOM     82  C   UNL A   1      46.188  35.002  31.114  1.00  0.00     0.041 A 
ATOM     83  F   UNL A   1      45.755  32.779  31.716  1.00  0.00    -0.206 F 
ATOM     84  C   UNL A   1      46.114  36.039  30.189  1.00  0.00     0.022 A 
BRANCH  81  85
ATOM     85  S   UNL A   1      45.451  37.120  27.704  1.00  0.00     0.124 S 
ATOM     86  O   UNL A   1      45.981  38.267  28.433  1.00  0.00    -0.237 OA
ATOM     87  O   UNL A   1      46.328  36.546  26.690  1.00  0.00    -0.237 OA
ATOM     88  O   UNL A   1      44.045  37.228  27.319  1.00  0.00    -0.744 OA
ENDBRANCH  81  85
ENDBRANCH  55  78
ENDBRANCH  29  30
ENDBRANCH  22  24
ENDBRANCH  21  22
ENDBRANCH  20  21
ENDBRANCH   1  20
TORSDOF 17
ENDMDL
MODEL 3
REMARK VINA RESULT:     -10.8      5.690     10.849
REMARK SMILES Cc1cc(Br)cnc1Sc1nc(CC(=O)OCCOC(=O)c2ccc(-c3c4nc(c(-c5cc(S(=O)(=O)[O-])ccc5F)c5ccc([nH]5)c(-c5cc(S(=O)(=O)[O-])ccc5F)c5nc(c(-c6cc(S(=O)(=O)[O-])ccc6F)c6ccc3[nH]6)C=C5)C=C4)cc2)cs1
REMARK SMILES IDX 17 1 16 2 14 3 15 4 13 5 12 6 10 7 11 8 86 9 85 10 9 11 8 12
REMARK SMILES IDX 1 13 2 14 3 15 4 16 7 17 5 18 6 19 18 20 19 21 20 22 21 23
REMARK SMILES IDX 22 24 23 25 84 26 24 27 83 28 25 29 26 30 27 31 77 32 28 33
REMARK SMILES IDX 82 34 76 35 78 36 29 37 81 38 75 39 74 40 30 42 62 43 42 44
REMARK SMILES IDX 61 45 43 46 46 47 60 48 79 49 44 50 45 51 59 53 80 54 47 55
REMARK SMILES IDX 31 56 32 57 40 58 33 59 39 60 41 61 38 62 34 63 35 64 36 65
REMARK SMILES IDX 37 66 63 67 64 68 72 69 65 70 71 71 73 72 70 73 66 74 67 75
REMARK SMILES IDX 68 76 69 77 48 78 49 79 57 80 50 81 56 82 58 83 55 84 51 85
REMARK SMILES IDX 52 86 53 87 54 88
REMARK H PARENT 78 41 46 52
REMARK Flexibility Score: inf
ROOT
ATOM      1  C   UNL A   1      35.687  21.241  25.394  1.00  0.00     0.274 C 
ENDROOT
BRANCH   1   2
ATOM      2  O   UNL A   1      34.461  20.493  25.294  1.00  0.00    -0.462 OA
BRANCH   2   3
ATOM      3  C   UNL A   1      33.363  21.076  25.846  1.00  0.00     0.312 C 
ATOM      4  O   UNL A   1      33.273  21.397  27.028  1.00  0.00    -0.252 OA
BRANCH   3   5
ATOM      5  C   UNL A   1      32.205  21.216  24.893  1.00  0.00     0.179 C 
BRANCH   5   6
ATOM      6  C   UNL A   1      32.144  22.480  24.099  1.00  0.00     0.064 A 
ATOM      7  C   UNL A   1      31.390  24.545  23.783  1.00  0.00     0.156 A 
ATOM      8  N   UNL A   1      31.214  23.445  24.481  1.00  0.00    -0.234 NA
ATOM      9  S   UNL A   1      32.576  24.453  22.546  1.00  0.00    -0.116 S 
ATOM     10  C   UNL A   1      32.990  22.883  23.082  1.00  0.00     0.092 A 
BRANCH   7  11
ATOM     11  S   UNL A   1      30.490  26.007  24.040  1.00  0.00    -0.039 SA
BRANCH  11  12
ATOM     12  C   UNL A   1      31.643  27.145  24.776  1.00  0.00     0.106 A 
ATOM     13  C   UNL A   1      30.675  29.416  23.999  1.00  0.00     0.047 C 
ATOM     14  C   UNL A   1      31.632  28.550  24.766  1.00  0.00    -0.017 A 
ATOM     15  C   UNL A   1      32.610  29.228  25.527  1.00  0.00     0.023 A 
ATOM     16  C   UNL A   1      33.513  28.523  26.303  1.00  0.00     0.036 A 
ATOM     17  N   UNL A   1      32.548  26.460  25.538  1.00  0.00    -0.248 NA
ATOM     18  Br  UNL A   1      34.780  29.416  27.373  1.00  0.00    -0.049 Br
ATOM     19  C   UNL A   1      33.444  27.149  26.280  1.00  0.00     0.128 A 
ENDBRANCH  11  12
ENDBRANCH   7  11
ENDBRANCH   5   6
ENDBRANCH   3   5
ENDBRANCH   2   3
ENDBRANCH   1   2
BRANCH   1  20
ATOM     20  C   UNL A   1      36.900  20.379  25.051  1.00  0.00     0.275 C 
BRANCH  20  21
ATOM     21  O   UNL A   1      38.082  21.193  24.938  1.00  0.00    -0.458 OA
BRANCH  21  22
ATOM     22  C   UNL A   1      39.057  20.917  25.829  1.00  0.00     0.338 C 
ATOM     23  O   UNL A   1      39.532  19.826  26.096  1.00  0.00    -0.246 OA
BRANCH  22  24
ATOM     24  C   UNL A   1      39.545  22.159  26.442  1.00  0.00     0.060 A 
ATOM     25  C   UNL A   1      38.982  23.379  26.059  1.00  0.00     0.016 A 
ATOM     26  C   UNL A   1      40.670  22.119  27.268  1.00  0.00     0.016 A 
ATOM     27  C   UNL A   1      39.582  24.572  26.460  1.00  0.00     0.010 A 
ATOM     28  C   UNL A   1      41.246  23.315  27.697  1.00  0.00     0.010 A 
ATOM     29  C   UNL A   1      40.731  24.550  27.264  1.00  0.00    -0.014 A 
BRANCH  29  30
ATOM     30  C   UNL A   1      41.448  25.813  27.572  1.00  0.00     0.031 A 
ATOM     31  C   UNL A   1      40.765  26.881  28.383  1.00  0.00     0.074 A 
ATOM     32  C   UNL A   1      42.704  26.003  27.131  1.00  0.00     0.049 A 
ATOM     33  N   UNL A   1      41.191  28.073  28.717  1.00  0.00    -0.248 NA
ATOM     34  C   UNL A   1      39.415  26.565  28.868  1.00  0.00     0.031 C 
ATOM     35  C   UNL A   1      43.473  25.045  26.336  1.00  0.00     0.029 A 
ATOM     36  N   UNL A   1      43.550  27.072  27.280  1.00  0.00    -0.354 N 
ATOM     37  C   UNL A   1      40.152  28.660  29.434  1.00  0.00     0.074 A 
ATOM     38  C   UNL A   1      39.066  27.701  29.451  1.00  0.00     0.031 C 
ATOM     39  C   UNL A   1      44.677  25.574  26.062  1.00  0.00     0.029 A 
ATOM     40  C   UNL A   1      44.751  26.916  26.633  1.00  0.00     0.049 A 
ATOM     41  H   UNL A   1      43.317  27.875  27.800  1.00  0.00     0.167 HD
ATOM     42  C   UNL A   1      40.112  29.879  30.030  1.00  0.00     0.034 A 
ATOM     43  C   UNL A   1      45.788  27.765  26.499  1.00  0.00     0.034 A 
ATOM     44  C   UNL A   1      41.202  30.826  30.004  1.00  0.00     0.049 A 
ATOM     45  C   UNL A   1      45.726  29.114  27.162  1.00  0.00     0.074 A 
ATOM     46  C   UNL A   1      41.275  32.080  30.587  1.00  0.00     0.029 A 
ATOM     47  N   UNL A   1      42.413  30.625  29.352  1.00  0.00    -0.354 N 
ATOM     48  N   UNL A   1      44.743  29.654  27.845  1.00  0.00    -0.248 NA
ATOM     49  C   UNL A   1      46.920  29.959  27.049  1.00  0.00     0.031 C 
ATOM     50  C   UNL A   1      42.506  32.656  30.244  1.00  0.00     0.029 A 
ATOM     51  C   UNL A   1      43.230  31.737  29.502  1.00  0.00     0.049 A 
ATOM     52  H   UNL A   1      42.657  29.810  28.856  1.00  0.00     0.167 HD
ATOM     53  C   UNL A   1      45.208  30.900  28.255  1.00  0.00     0.074 A 
ATOM     54  C   UNL A   1      46.564  31.020  27.759  1.00  0.00     0.031 C 
ATOM     55  C   UNL A   1      44.572  31.856  28.982  1.00  0.00     0.034 A 
BRANCH  42  56
ATOM     56  C   UNL A   1      38.818  30.263  30.709  1.00  0.00     0.023 A 
ATOM     57  C   UNL A   1      37.855  31.063  30.066  1.00  0.00     0.031 A 
ATOM     58  C   UNL A   1      38.576  29.889  32.042  1.00  0.00     0.131 A 
ATOM     59  C   UNL A   1      36.747  31.538  30.782  1.00  0.00     0.055 A 
ATOM     60  C   UNL A   1      37.427  30.297  32.725  1.00  0.00     0.041 A 
ATOM     61  F   UNL A   1      39.467  29.144  32.716  1.00  0.00    -0.206 F 
ATOM     62  C   UNL A   1      36.515  31.143  32.102  1.00  0.00     0.022 A 
BRANCH  59  63
ATOM     63  S   UNL A   1      35.714  32.822  30.025  1.00  0.00     0.124 S 
ATOM     64  O   UNL A   1      36.217  34.030  30.673  1.00  0.00    -0.237 OA
ATOM     65  O   UNL A   1      36.026  32.679  28.607  1.00  0.00    -0.237 OA
ATOM     66  O   UNL A   1      34.356  32.440  30.407  1.00  0.00    -0.744 OA
ENDBRANCH  59  63
ENDBRANCH  42  56
BRANCH  43  67
ATOM     67  C   UNL A   1      46.961  27.371  25.675  1.00  0.00     0.023 A 
ATOM     68  C   UNL A   1      47.066  27.748  24.329  1.00  0.00     0.031 A 
ATOM     69  C   UNL A   1      48.000  26.606  26.237  1.00  0.00     0.131 A 
ATOM     70  C   UNL A   1      48.176  27.335  23.576  1.00  0.00     0.055 A 
ATOM     71  C   UNL A   1      49.117  26.229  25.493  1.00  0.00     0.041 A 
ATOM     72  F   UNL A   1      47.947  26.234  27.526  1.00  0.00    -0.206 F 
ATOM     73  C   UNL A   1      49.207  26.588  24.152  1.00  0.00     0.022 A 
BRANCH  70  74
ATOM     74  S   UNL A   1      48.243  27.770  21.817  1.00  0.00     0.124 S 
ATOM     75  O   UNL A   1      49.383  28.678  21.778  1.00  0.00    -0.237 OA
ATOM     76  O   UNL A   1      48.439  26.468  21.189  1.00  0.00    -0.237 OA
ATOM     77  O   UNL A   1      46.942  28.387  21.569  1.00  0.00    -0.744 OA
ENDBRANCH  70  74
ENDBRANCH  43  67
BRANCH  55  78
ATOM     78  C   UNL A   1      45.362  33.100  29.303  1.00  0.00     0.023 A 
ATOM     79  C   UNL A   1      45.379  34.209  28.437  1.00  0.00     0.031 A 
ATOM     80  C   UNL A   1      46.136  33.163  30.475  1.00  0.00     0.131 A 
ATOM     81  C   UNL A   1      46.201  35.309  28.728  1.00  0.00     0.055 A 
ATOM     82  C   UNL A   1      46.912  34.282  30.784  1.00  0.00     0.041 A 
ATOM     83  F   UNL A   1      46.158  32.132  31.334  1.00  0.00    -0.206 F 
ATOM     84  C   UNL A   1      46.958  35.356  29.901  1.00  0.00     0.022 A 
BRANCH  81  85
ATOM     85  S   UNL A   1      46.350  36.636  27.498  1.00  0.00     0.124 S 
ATOM     86  O   UNL A   1      47.639  37.227  27.841  1.00  0.00    -0.237 OA
ATOM     87  O   UNL A   1      46.299  35.899  26.240  1.00  0.00    -0.237 OA
ATOM     88  O   UNL A   1      45.190  37.483  27.767  1.00  0.00    -0.744 OA
ENDBRANCH  81  85
ENDBRANCH  55  78
ENDBRANCH  29  30
ENDBRANCH  22  24
ENDBRANCH  21  22
ENDBRANCH  20  21
ENDBRANCH   1  20
TORSDOF 17
ENDMDL
