MODEL 1
REMARK VINA RESULT:     -12.2      0.000      0.000
REMARK SMILES Cc1cc(S(=O)(=O)Nc2ccc(Cl)cc2F)ccc1OCC(=O)OCCOC(=O)c1ccc(-c2c3nc(c(-c4cc(S(=O)(=O)[O-])ccc4F)c4ccc([nH]4)c(-c4cc(S(=O)(=O)[O-])ccc4F)c4nc(c(-c5cc(S(=O)(=O)[O-])ccc5F)c5ccc2[nH]5)C=C4)C=C3)cc1
REMARK SMILES IDX 25 1 24 2 22 3 23 4 21 5 20 6 19 7 1 8 2 9 3 10 4 11 18 12
REMARK SMILES IDX 17 13 5 14 6 15 7 16 8 17 9 19 10 20 15 21 11 22 14 23 16 24
REMARK SMILES IDX 12 25 13 26 26 27 27 28 28 29 29 30 30 31 31 32 92 33 32 34
REMARK SMILES IDX 91 35 33 36 34 37 35 38 85 39 36 40 90 41 84 42 86 43 37 44
REMARK SMILES IDX 89 45 83 46 82 47 38 49 70 50 50 51 69 52 51 53 54 54 68 55
REMARK SMILES IDX 87 56 52 57 53 58 67 60 88 61 55 62 39 63 40 64 48 65 41 66
REMARK SMILES IDX 47 67 49 68 46 69 42 70 43 71 44 72 45 73 71 74 72 75 80 76
REMARK SMILES IDX 73 77 79 78 81 79 78 80 74 81 75 82 76 83 77 84 56 85 57 86
REMARK SMILES IDX 65 87 58 88 64 89 66 90 63 91 59 92 60 93 61 94 62 95
REMARK H PARENT 8 18 86 48 54 59
REMARK Flexibility Score: inf
ROOT
ATOM      1  C   UNL A   1      32.226  30.095  25.444  1.00  0.00     0.274 C 
ENDROOT
BRANCH   1   2
ATOM      2  O   UNL A   1      31.262  29.059  25.232  1.00  0.00    -0.460 OA
BRANCH   2   3
ATOM      3  C   UNL A   1      30.548  29.127  24.081  1.00  0.00     0.344 C 
ATOM      4  O   UNL A   1      29.903  30.109  23.728  1.00  0.00    -0.248 OA
BRANCH   3   5
ATOM      5  C   UNL A   1      30.561  27.805  23.288  1.00  0.00     0.351 C 
BRANCH   5   6
ATOM      6  O   UNL A   1      31.653  27.413  22.469  1.00  0.00    -0.482 OA
BRANCH   6   7
ATOM      7  C   UNL A   1      32.520  26.458  22.927  1.00  0.00     0.123 A 
ATOM      8  C   UNL A   1      32.547  25.497  20.548  1.00  0.00     0.048 C 
ATOM      9  C   UNL A   1      32.959  25.492  21.998  1.00  0.00    -0.008 A 
ATOM     10  C   UNL A   1      33.937  24.557  22.387  1.00  0.00     0.029 A 
ATOM     11  C   UNL A   1      34.475  24.593  23.673  1.00  0.00     0.088 A 
ATOM     12  C   UNL A   1      33.032  26.444  24.229  1.00  0.00     0.048 A 
ATOM     13  C   UNL A   1      34.057  25.571  24.575  1.00  0.00     0.026 A 
BRANCH  11  14
ATOM     14  S   UNL A   1      35.769  23.476  24.130  1.00  0.00     0.262 S 
ATOM     15  O   UNL A   1      36.425  22.978  22.940  1.00  0.00    -0.201 OA
ATOM     16  O   UNL A   1      36.536  24.100  25.190  1.00  0.00    -0.201 OA
BRANCH  14  17
ATOM     17  N   UNL A   1      35.070  22.094  24.865  1.00  0.00    -0.277 N 
ATOM     18  H   UNL A   1      35.552  21.235  24.875  1.00  0.00     0.180 HD
BRANCH  17  19
ATOM     19  C   UNL A   1      33.770  22.208  25.463  1.00  0.00     0.085 A 
ATOM     20  C   UNL A   1      33.631  22.680  26.772  1.00  0.00     0.031 A 
ATOM     21  C   UNL A   1      32.625  21.904  24.716  1.00  0.00     0.148 A 
ATOM     22  C   UNL A   1      32.351  22.840  27.317  1.00  0.00     0.023 A 
ATOM     23  C   UNL A   1      31.351  22.084  25.243  1.00  0.00     0.062 A 
ATOM     24  F   UNL A   1      32.743  21.461  23.456  1.00  0.00    -0.205 F 
ATOM     25  C   UNL A   1      31.220  22.550  26.548  1.00  0.00     0.044 A 
ATOM     26  Cl  UNL A   1      29.653  22.777  27.218  1.00  0.00    -0.084 Cl
ENDBRANCH  17  19
ENDBRANCH  14  17
ENDBRANCH  11  14
ENDBRANCH   6   7
ENDBRANCH   5   6
ENDBRANCH   3   5
ENDBRANCH   2   3
ENDBRANCH   1   2
BRANCH   1  27
ATOM     27  C   UNL A   1      32.926  29.914  26.804  1.00  0.00     0.275 C 
BRANCH  27  28
ATOM     28  O   UNL A   1      34.370  29.968  26.929  1.00  0.00    -0.458 OA
BRANCH  28  29
ATOM     29  C   UNL A   1      34.979  30.965  27.624  1.00  0.00     0.338 C 
ATOM     30  O   UNL A   1      34.550  32.108  27.682  1.00  0.00    -0.246 OA
BRANCH  29  31
ATOM     31  C   UNL A   1      36.196  30.463  28.292  1.00  0.00     0.060 A 
ATOM     32  C   UNL A   1      36.143  29.857  29.560  1.00  0.00     0.016 A 
ATOM     33  C   UNL A   1      37.328  30.363  27.496  1.00  0.00     0.016 A 
ATOM     34  C   UNL A   1      37.186  29.049  29.996  1.00  0.00     0.010 A 
ATOM     35  C   UNL A   1      38.259  29.428  27.833  1.00  0.00     0.010 A 
ATOM     36  C   UNL A   1      38.223  28.827  29.106  1.00  0.00    -0.014 A 
BRANCH  36  37
ATOM     37  C   UNL A   1      39.494  28.217  29.434  1.00  0.00     0.031 A 
ATOM     38  C   UNL A   1      39.839  26.854  29.020  1.00  0.00     0.074 A 
ATOM     39  C   UNL A   1      40.375  29.191  29.746  1.00  0.00     0.049 A 
ATOM     40  N   UNL A   1      40.984  26.315  29.228  1.00  0.00    -0.248 NA
ATOM     41  C   UNL A   1      38.918  25.946  28.343  1.00  0.00     0.031 C 
ATOM     42  C   UNL A   1      41.801  29.306  29.513  1.00  0.00     0.029 A 
ATOM     43  N   UNL A   1      40.068  30.391  30.367  1.00  0.00    -0.354 N 
ATOM     44  C   UNL A   1      41.084  25.212  28.405  1.00  0.00     0.074 A 
ATOM     45  C   UNL A   1      39.732  24.943  27.989  1.00  0.00     0.031 C 
ATOM     46  C   UNL A   1      42.267  30.354  30.227  1.00  0.00     0.029 A 
ATOM     47  C   UNL A   1      41.173  30.824  31.074  1.00  0.00     0.049 A 
ATOM     48  H   UNL A   1      39.204  30.859  30.313  1.00  0.00     0.167 HD
ATOM     49  C   UNL A   1      42.336  24.796  28.053  1.00  0.00     0.034 A 
ATOM     50  C   UNL A   1      41.107  30.674  32.435  1.00  0.00     0.034 A 
ATOM     51  C   UNL A   1      43.332  25.603  28.765  1.00  0.00     0.049 A 
ATOM     52  C   UNL A   1      42.066  29.580  32.860  1.00  0.00     0.074 A 
ATOM     53  C   UNL A   1      44.091  26.696  28.387  1.00  0.00     0.029 A 
ATOM     54  N   UNL A   1      43.359  25.560  30.153  1.00  0.00    -0.354 N 
ATOM     55  N   UNL A   1      42.336  28.504  32.165  1.00  0.00    -0.248 NA
ATOM     56  C   UNL A   1      42.923  29.738  34.026  1.00  0.00     0.031 C 
ATOM     57  C   UNL A   1      44.486  27.374  29.576  1.00  0.00     0.029 A 
ATOM     58  C   UNL A   1      43.972  26.685  30.666  1.00  0.00     0.049 A 
ATOM     59  H   UNL A   1      42.992  24.826  30.698  1.00  0.00     0.167 HD
ATOM     60  C   UNL A   1      43.457  27.907  32.685  1.00  0.00     0.074 A 
ATOM     61  C   UNL A   1      43.762  28.701  33.868  1.00  0.00     0.031 C 
ATOM     62  C   UNL A   1      44.111  26.854  32.102  1.00  0.00     0.034 A 
BRANCH  49  63
ATOM     63  C   UNL A   1      42.712  23.899  26.891  1.00  0.00     0.023 A 
ATOM     64  C   UNL A   1      42.282  22.551  26.925  1.00  0.00     0.031 A 
ATOM     65  C   UNL A   1      43.490  24.246  25.771  1.00  0.00     0.131 A 
ATOM     66  C   UNL A   1      42.666  21.617  25.946  1.00  0.00     0.055 A 
ATOM     67  C   UNL A   1      43.883  23.312  24.796  1.00  0.00     0.041 A 
ATOM     68  F   UNL A   1      43.881  25.503  25.539  1.00  0.00    -0.206 F 
ATOM     69  C   UNL A   1      43.478  21.987  24.883  1.00  0.00     0.022 A 
BRANCH  66  70
ATOM     70  S   UNL A   1      42.089  19.904  26.099  1.00  0.00     0.124 S 
ATOM     71  O   UNL A   1      42.854  19.229  25.055  1.00  0.00    -0.237 OA
ATOM     72  O   UNL A   1      42.444  19.575  27.475  1.00  0.00    -0.237 OA
ATOM     73  O   UNL A   1      40.653  20.004  25.841  1.00  0.00    -0.744 OA
ENDBRANCH  66  70
ENDBRANCH  49  63
BRANCH  50  74
ATOM     74  C   UNL A   1      39.708  30.902  32.965  1.00  0.00     0.023 A 
ATOM     75  C   UNL A   1      39.243  32.242  32.998  1.00  0.00     0.031 A 
ATOM     76  C   UNL A   1      38.735  29.890  32.997  1.00  0.00     0.131 A 
ATOM     77  C   UNL A   1      37.873  32.530  32.878  1.00  0.00     0.055 A 
ATOM     78  C   UNL A   1      37.361  30.189  32.948  1.00  0.00     0.041 A 
ATOM     79  F   UNL A   1      39.088  28.597  32.957  1.00  0.00    -0.206 F 
ATOM     80  C   UNL A   1      36.925  31.510  32.845  1.00  0.00     0.022 A 
BRANCH  77  81
ATOM     81  S   UNL A   1      37.384  34.242  32.492  1.00  0.00     0.124 S 
ATOM     82  O   UNL A   1      37.879  34.400  31.128  1.00  0.00    -0.237 OA
ATOM     83  O   UNL A   1      35.932  34.179  32.642  1.00  0.00    -0.237 OA
ATOM     84  O   UNL A   1      38.075  35.033  33.505  1.00  0.00    -0.744 OA
ENDBRANCH  77  81
ENDBRANCH  50  74
BRANCH  62  85
ATOM     85  C   UNL A   1      45.043  25.923  32.842  1.00  0.00     0.023 A 
ATOM     86  C   UNL A   1      44.573  24.818  33.555  1.00  0.00     0.031 A 
ATOM     87  C   UNL A   1      46.453  26.042  32.762  1.00  0.00     0.131 A 
ATOM     88  C   UNL A   1      45.446  23.978  34.256  1.00  0.00     0.055 A 
ATOM     89  C   UNL A   1      47.327  25.129  33.356  1.00  0.00     0.041 A 
ATOM     90  F   UNL A   1      47.052  27.034  32.088  1.00  0.00    -0.206 F 
ATOM     91  C   UNL A   1      46.825  24.101  34.135  1.00  0.00     0.022 A 
BRANCH  88  92
ATOM     92  S   UNL A   1      44.706  22.805  35.412  1.00  0.00     0.124 S 
ATOM     93  O   UNL A   1      43.329  23.289  35.483  1.00  0.00    -0.237 OA
ATOM     94  O   UNL A   1      44.891  21.529  34.729  1.00  0.00    -0.237 OA
ATOM     95  O   UNL A   1      45.491  22.984  36.630  1.00  0.00    -0.744 OA
ENDBRANCH  88  92
ENDBRANCH  62  85
ENDBRANCH  36  37
ENDBRANCH  29  31
ENDBRANCH  28  29
ENDBRANCH  27  28
ENDBRANCH   1  27
TORSDOF 19
ENDMDL
MODEL 2
REMARK VINA RESULT:     -12.2      1.603      1.901
REMARK SMILES Cc1cc(S(=O)(=O)Nc2ccc(Cl)cc2F)ccc1OCC(=O)OCCOC(=O)c1ccc(-c2c3nc(c(-c4cc(S(=O)(=O)[O-])ccc4F)c4ccc([nH]4)c(-c4cc(S(=O)(=O)[O-])ccc4F)c4nc(c(-c5cc(S(=O)(=O)[O-])ccc5F)c5ccc2[nH]5)C=C4)C=C3)cc1
REMARK SMILES IDX 25 1 24 2 22 3 23 4 21 5 20 6 19 7 1 8 2 9 3 10 4 11 18 12
REMARK SMILES IDX 17 13 5 14 6 15 7 16 8 17 9 19 10 20 15 21 11 22 14 23 16 24
REMARK SMILES IDX 12 25 13 26 26 27 27 28 28 29 29 30 30 31 31 32 92 33 32 34
REMARK SMILES IDX 91 35 33 36 34 37 35 38 85 39 36 40 90 41 84 42 86 43 37 44
REMARK SMILES IDX 89 45 83 46 82 47 38 49 70 50 50 51 69 52 51 53 54 54 68 55
REMARK SMILES IDX 87 56 52 57 53 58 67 60 88 61 55 62 39 63 40 64 48 65 41 66
REMARK SMILES IDX 47 67 49 68 46 69 42 70 43 71 44 72 45 73 71 74 72 75 80 76
REMARK SMILES IDX 73 77 79 78 81 79 78 80 74 81 75 82 76 83 77 84 56 85 57 86
REMARK SMILES IDX 65 87 58 88 64 89 66 90 63 91 59 92 60 93 61 94 62 95
REMARK H PARENT 8 18 86 48 54 59
REMARK Flexibility Score: inf
ROOT
ATOM      1  C   UNL A   1      31.943  30.187  26.064  1.00  0.00     0.274 C 
ENDROOT
BRANCH   1   2
ATOM      2  O   UNL A   1      31.547  29.018  25.340  1.00  0.00    -0.460 OA
BRANCH   2   3
ATOM      3  C   UNL A   1      31.980  28.927  24.058  1.00  0.00     0.344 C 
ATOM      4  O   UNL A   1      33.141  29.108  23.709  1.00  0.00    -0.248 OA
BRANCH   3   5
ATOM      5  C   UNL A   1      30.839  28.649  23.058  1.00  0.00     0.351 C 
BRANCH   5   6
ATOM      6  O   UNL A   1      30.604  27.363  22.502  1.00  0.00    -0.482 OA
BRANCH   6   7
ATOM      7  C   UNL A   1      30.973  26.252  23.211  1.00  0.00     0.123 A 
ATOM      8  C   UNL A   1      33.001  26.062  21.651  1.00  0.00     0.048 C 
ATOM      9  C   UNL A   1      32.143  25.585  22.796  1.00  0.00    -0.008 A 
ATOM     10  C   UNL A   1      32.629  24.506  23.558  1.00  0.00     0.029 A 
ATOM     11  C   UNL A   1      31.966  24.109  24.719  1.00  0.00     0.088 A 
ATOM     12  C   UNL A   1      30.292  25.805  24.348  1.00  0.00     0.048 A 
ATOM     13  C   UNL A   1      30.826  24.794  25.139  1.00  0.00     0.026 A 
BRANCH  11  14
ATOM     14  S   UNL A   1      32.629  22.813  25.725  1.00  0.00     0.262 S 
ATOM     15  O   UNL A   1      33.951  22.460  25.255  1.00  0.00    -0.201 OA
ATOM     16  O   UNL A   1      32.409  23.175  27.111  1.00  0.00    -0.201 OA
BRANCH  14  17
ATOM     17  N   UNL A   1      31.684  21.400  25.498  1.00  0.00    -0.277 N 
ATOM     18  H   UNL A   1      30.737  21.382  25.767  1.00  0.00     0.180 HD
BRANCH  17  19
ATOM     19  C   UNL A   1      32.297  20.243  24.909  1.00  0.00     0.085 A 
ATOM     20  C   UNL A   1      32.837  19.237  25.716  1.00  0.00     0.031 A 
ATOM     21  C   UNL A   1      32.304  20.085  23.517  1.00  0.00     0.148 A 
ATOM     22  C   UNL A   1      33.377  18.090  25.124  1.00  0.00     0.023 A 
ATOM     23  C   UNL A   1      32.818  18.937  22.924  1.00  0.00     0.062 A 
ATOM     24  F   UNL A   1      31.780  21.036  22.730  1.00  0.00    -0.205 F 
ATOM     25  C   UNL A   1      33.357  17.943  23.734  1.00  0.00     0.044 A 
ATOM     26  Cl  UNL A   1      33.999  16.517  23.018  1.00  0.00    -0.084 Cl
ENDBRANCH  17  19
ENDBRANCH  14  17
ENDBRANCH  11  14
ENDBRANCH   6   7
ENDBRANCH   5   6
ENDBRANCH   3   5
ENDBRANCH   2   3
ENDBRANCH   1   2
BRANCH   1  27
ATOM     27  C   UNL A   1      32.960  29.825  27.163  1.00  0.00     0.275 C 
BRANCH  27  28
ATOM     28  O   UNL A   1      34.383  30.038  26.983  1.00  0.00    -0.458 OA
BRANCH  28  29
ATOM     29  C   UNL A   1      35.034  31.032  27.642  1.00  0.00     0.338 C 
ATOM     30  O   UNL A   1      34.642  32.189  27.678  1.00  0.00    -0.246 OA
BRANCH  29  31
ATOM     31  C   UNL A   1      36.246  30.509  28.303  1.00  0.00     0.060 A 
ATOM     32  C   UNL A   1      36.176  29.806  29.519  1.00  0.00     0.016 A 
ATOM     33  C   UNL A   1      37.401  30.497  27.534  1.00  0.00     0.016 A 
ATOM     34  C   UNL A   1      37.228  28.992  29.921  1.00  0.00     0.010 A 
ATOM     35  C   UNL A   1      38.346  29.562  27.823  1.00  0.00     0.010 A 
ATOM     36  C   UNL A   1      38.292  28.863  29.045  1.00  0.00    -0.014 A 
BRANCH  36  37
ATOM     37  C   UNL A   1      39.570  28.260  29.361  1.00  0.00     0.031 A 
ATOM     38  C   UNL A   1      39.915  26.895  28.951  1.00  0.00     0.074 A 
ATOM     39  C   UNL A   1      40.452  29.239  29.655  1.00  0.00     0.049 A 
ATOM     40  N   UNL A   1      41.064  26.362  29.147  1.00  0.00    -0.248 NA
ATOM     41  C   UNL A   1      38.988  25.980  28.292  1.00  0.00     0.031 C 
ATOM     42  C   UNL A   1      41.874  29.358  29.402  1.00  0.00     0.029 A 
ATOM     43  N   UNL A   1      40.148  30.442  30.272  1.00  0.00    -0.354 N 
ATOM     44  C   UNL A   1      41.158  25.253  28.331  1.00  0.00     0.074 A 
ATOM     45  C   UNL A   1      39.801  24.977  27.935  1.00  0.00     0.031 C 
ATOM     46  C   UNL A   1      42.346  30.412  30.102  1.00  0.00     0.029 A 
ATOM     47  C   UNL A   1      41.261  30.884  30.961  1.00  0.00     0.049 A 
ATOM     48  H   UNL A   1      39.282  30.907  30.226  1.00  0.00     0.167 HD
ATOM     49  C   UNL A   1      42.406  24.840  27.965  1.00  0.00     0.034 A 
ATOM     50  C   UNL A   1      41.214  30.743  32.323  1.00  0.00     0.034 A 
ATOM     51  C   UNL A   1      43.408  25.655  28.659  1.00  0.00     0.049 A 
ATOM     52  C   UNL A   1      42.182  29.655  32.743  1.00  0.00     0.074 A 
ATOM     53  C   UNL A   1      44.159  26.749  28.264  1.00  0.00     0.029 A 
ATOM     54  N   UNL A   1      43.454  25.622  30.047  1.00  0.00    -0.354 N 
ATOM     55  N   UNL A   1      42.447  28.576  32.052  1.00  0.00    -0.248 NA
ATOM     56  C   UNL A   1      43.053  29.824  33.897  1.00  0.00     0.031 C 
ATOM     57  C   UNL A   1      44.566  27.435  29.443  1.00  0.00     0.029 A 
ATOM     58  C   UNL A   1      44.069  26.753  30.544  1.00  0.00     0.049 A 
ATOM     59  H   UNL A   1      43.097  24.891  30.602  1.00  0.00     0.167 HD
ATOM     60  C   UNL A   1      43.576  27.986  32.561  1.00  0.00     0.074 A 
ATOM     61  C   UNL A   1      43.894  28.790  33.735  1.00  0.00     0.031 C 
ATOM     62  C   UNL A   1      44.227  26.931  31.977  1.00  0.00     0.034 A 
BRANCH  49  63
ATOM     63  C   UNL A   1      42.770  23.936  26.805  1.00  0.00     0.023 A 
ATOM     64  C   UNL A   1      42.492  22.554  26.925  1.00  0.00     0.031 A 
ATOM     65  C   UNL A   1      43.403  24.312  25.605  1.00  0.00     0.131 A 
ATOM     66  C   UNL A   1      42.883  21.623  25.947  1.00  0.00     0.055 A 
ATOM     67  C   UNL A   1      43.804  23.382  24.630  1.00  0.00     0.041 A 
ATOM     68  F   UNL A   1      43.634  25.592  25.294  1.00  0.00    -0.206 F 
ATOM     69  C   UNL A   1      43.553  22.028  24.800  1.00  0.00     0.022 A 
BRANCH  66  70
ATOM     70  S   UNL A   1      42.510  19.867  26.212  1.00  0.00     0.124 S 
ATOM     71  O   UNL A   1      41.316  19.681  25.394  1.00  0.00    -0.237 OA
ATOM     72  O   UNL A   1      43.725  19.214  25.740  1.00  0.00    -0.237 OA
ATOM     73  O   UNL A   1      42.286  19.782  27.655  1.00  0.00    -0.744 OA
ENDBRANCH  66  70
ENDBRANCH  49  63
BRANCH  50  74
ATOM     74  C   UNL A   1      39.821  30.970  32.870  1.00  0.00     0.023 A 
ATOM     75  C   UNL A   1      39.346  32.306  32.886  1.00  0.00     0.031 A 
ATOM     76  C   UNL A   1      38.857  29.951  32.936  1.00  0.00     0.131 A 
ATOM     77  C   UNL A   1      37.971  32.581  32.781  1.00  0.00     0.055 A 
ATOM     78  C   UNL A   1      37.480  30.237  32.902  1.00  0.00     0.041 A 
ATOM     79  F   UNL A   1      39.220  28.661  32.914  1.00  0.00    -0.206 F 
ATOM     80  C   UNL A   1      37.031  31.553  32.781  1.00  0.00     0.022 A 
BRANCH  77  81
ATOM     81  S   UNL A   1      37.463  34.281  32.370  1.00  0.00     0.124 S 
ATOM     82  O   UNL A   1      38.521  34.705  31.460  1.00  0.00    -0.237 OA
ATOM     83  O   UNL A   1      36.150  34.063  31.767  1.00  0.00    -0.237 OA
ATOM     84  O   UNL A   1      37.442  34.956  33.665  1.00  0.00    -0.744 OA
ENDBRANCH  77  81
ENDBRANCH  50  74
BRANCH  62  85
ATOM     85  C   UNL A   1      45.172  26.009  32.710  1.00  0.00     0.023 A 
ATOM     86  C   UNL A   1      44.713  24.931  33.470  1.00  0.00     0.031 A 
ATOM     87  C   UNL A   1      46.580  26.107  32.579  1.00  0.00     0.131 A 
ATOM     88  C   UNL A   1      45.598  24.099  34.165  1.00  0.00     0.055 A 
ATOM     89  C   UNL A   1      47.462  25.198  33.169  1.00  0.00     0.041 A 
ATOM     90  F   UNL A   1      47.167  27.071  31.857  1.00  0.00    -0.206 F 
ATOM     91  C   UNL A   1      46.973  24.200  33.994  1.00  0.00     0.022 A 
BRANCH  88  92
ATOM     92  S   UNL A   1      44.884  22.970  35.378  1.00  0.00     0.124 S 
ATOM     93  O   UNL A   1      45.706  21.776  35.191  1.00  0.00    -0.237 OA
ATOM     94  O   UNL A   1      45.087  23.685  36.634  1.00  0.00    -0.237 OA
ATOM     95  O   UNL A   1      43.493  22.840  34.950  1.00  0.00    -0.744 OA
ENDBRANCH  88  92
ENDBRANCH  62  85
ENDBRANCH  36  37
ENDBRANCH  29  31
ENDBRANCH  28  29
ENDBRANCH  27  28
ENDBRANCH   1  27
TORSDOF 19
ENDMDL
MODEL 3
REMARK VINA RESULT:     -11.8      3.650      9.692
REMARK SMILES Cc1cc(S(=O)(=O)Nc2ccc(Cl)cc2F)ccc1OCC(=O)OCCOC(=O)c1ccc(-c2c3nc(c(-c4cc(S(=O)(=O)[O-])ccc4F)c4ccc([nH]4)c(-c4cc(S(=O)(=O)[O-])ccc4F)c4nc(c(-c5cc(S(=O)(=O)[O-])ccc5F)c5ccc2[nH]5)C=C4)C=C3)cc1
REMARK SMILES IDX 25 1 24 2 22 3 23 4 21 5 20 6 19 7 1 8 2 9 3 10 4 11 18 12
REMARK SMILES IDX 17 13 5 14 6 15 7 16 8 17 9 19 10 20 15 21 11 22 14 23 16 24
REMARK SMILES IDX 12 25 13 26 26 27 27 28 28 29 29 30 30 31 31 32 92 33 32 34
REMARK SMILES IDX 91 35 33 36 34 37 35 38 85 39 36 40 90 41 84 42 86 43 37 44
REMARK SMILES IDX 89 45 83 46 82 47 38 49 70 50 50 51 69 52 51 53 54 54 68 55
REMARK SMILES IDX 87 56 52 57 53 58 67 60 88 61 55 62 39 63 40 64 48 65 41 66
REMARK SMILES IDX 47 67 49 68 46 69 42 70 43 71 44 72 45 73 71 74 72 75 80 76
REMARK SMILES IDX 73 77 79 78 81 79 78 80 74 81 75 82 76 83 77 84 56 85 57 86
REMARK SMILES IDX 65 87 58 88 64 89 66 90 63 91 59 92 60 93 61 94 62 95
REMARK H PARENT 8 18 86 48 54 59
REMARK Flexibility Score: inf
ROOT
ATOM      1  C   UNL A   1      37.108  23.780  25.092  1.00  0.00     0.274 C 
ENDROOT
BRANCH   1   2
ATOM      2  O   UNL A   1      35.716  23.458  25.029  1.00  0.00    -0.460 OA
BRANCH   2   3
ATOM      3  C   UNL A   1      35.344  22.581  24.063  1.00  0.00     0.344 C 
ATOM      4  O   UNL A   1      35.373  22.826  22.862  1.00  0.00    -0.248 OA
BRANCH   3   5
ATOM      5  C   UNL A   1      34.798  21.257  24.635  1.00  0.00     0.351 C 
BRANCH   5   6
ATOM      6  O   UNL A   1      33.448  21.099  25.048  1.00  0.00    -0.482 OA
BRANCH   6   7
ATOM      7  C   UNL A   1      32.645  22.204  25.138  1.00  0.00     0.123 A 
ATOM      8  C   UNL A   1      33.415  22.431  27.575  1.00  0.00     0.048 C 
ATOM      9  C   UNL A   1      32.601  22.864  26.382  1.00  0.00    -0.008 A 
ATOM     10  C   UNL A   1      31.881  24.069  26.498  1.00  0.00     0.029 A 
ATOM     11  C   UNL A   1      31.229  24.609  25.390  1.00  0.00     0.088 A 
ATOM     12  C   UNL A   1      31.940  22.732  24.052  1.00  0.00     0.048 A 
ATOM     13  C   UNL A   1      31.303  23.964  24.155  1.00  0.00     0.026 A 
BRANCH  11  14
ATOM     14  S   UNL A   1      30.403  26.168  25.514  1.00  0.00     0.262 S 
ATOM     15  O   UNL A   1      29.120  26.094  24.848  1.00  0.00    -0.201 OA
ATOM     16  O   UNL A   1      30.495  26.607  26.893  1.00  0.00    -0.201 OA
BRANCH  14  17
ATOM     17  N   UNL A   1      31.295  27.338  24.633  1.00  0.00    -0.277 N 
ATOM     18  H   UNL A   1      31.283  27.340  23.648  1.00  0.00     0.180 HD
BRANCH  17  19
ATOM     19  C   UNL A   1      32.062  28.313  25.355  1.00  0.00     0.085 A 
ATOM     20  C   UNL A   1      31.548  29.593  25.584  1.00  0.00     0.031 A 
ATOM     21  C   UNL A   1      33.311  27.969  25.890  1.00  0.00     0.148 A 
ATOM     22  C   UNL A   1      32.286  30.511  26.341  1.00  0.00     0.023 A 
ATOM     23  C   UNL A   1      34.038  28.868  26.661  1.00  0.00     0.062 A 
ATOM     24  F   UNL A   1      33.812  26.742  25.688  1.00  0.00    -0.205 F 
ATOM     25  C   UNL A   1      33.521  30.141  26.881  1.00  0.00     0.044 A 
ATOM     26  Cl  UNL A   1      34.408  31.267  27.832  1.00  0.00    -0.084 Cl
ENDBRANCH  17  19
ENDBRANCH  14  17
ENDBRANCH  11  14
ENDBRANCH   6   7
ENDBRANCH   5   6
ENDBRANCH   3   5
ENDBRANCH   2   3
ENDBRANCH   1   2
BRANCH   1  27
ATOM     27  C   UNL A   1      37.902  22.627  25.735  1.00  0.00     0.275 C 
BRANCH  27  28
ATOM     28  O   UNL A   1      38.851  22.862  26.807  1.00  0.00    -0.458 OA
BRANCH  28  29
ATOM     29  C   UNL A   1      40.174  23.034  26.550  1.00  0.00     0.338 C 
ATOM     30  O   UNL A   1      40.883  22.173  26.051  1.00  0.00    -0.246 OA
BRANCH  29  31
ATOM     31  C   UNL A   1      40.606  24.390  26.942  1.00  0.00     0.060 A 
ATOM     32  C   UNL A   1      40.813  25.402  25.986  1.00  0.00     0.016 A 
ATOM     33  C   UNL A   1      40.520  24.689  28.294  1.00  0.00     0.016 A 
ATOM     34  C   UNL A   1      40.825  26.738  26.370  1.00  0.00     0.010 A 
ATOM     35  C   UNL A   1      40.341  25.991  28.646  1.00  0.00     0.010 A 
ATOM     36  C   UNL A   1      40.560  27.011  27.700  1.00  0.00    -0.014 A 
BRANCH  36  37
ATOM     37  C   UNL A   1      40.747  28.294  28.346  1.00  0.00     0.031 A 
ATOM     38  C   UNL A   1      39.691  29.309  28.392  1.00  0.00     0.074 A 
ATOM     39  C   UNL A   1      41.787  28.201  29.203  1.00  0.00     0.049 A 
ATOM     40  N   UNL A   1      39.799  30.421  29.022  1.00  0.00    -0.248 NA
ATOM     41  C   UNL A   1      38.405  29.184  27.712  1.00  0.00     0.031 C 
ATOM     42  C   UNL A   1      42.024  28.815  30.494  1.00  0.00     0.029 A 
ATOM     43  N   UNL A   1      42.910  27.408  29.029  1.00  0.00    -0.354 N 
ATOM     44  C   UNL A   1      38.532  30.947  29.166  1.00  0.00     0.074 A 
ATOM     45  C   UNL A   1      37.726  30.224  28.216  1.00  0.00     0.031 C 
ATOM     46  C   UNL A   1      43.313  28.600  30.839  1.00  0.00     0.029 A 
ATOM     47  C   UNL A   1      43.975  27.992  29.686  1.00  0.00     0.049 A 
ATOM     48  H   UNL A   1      42.943  26.566  28.520  1.00  0.00     0.167 HD
ATOM     49  C   UNL A   1      38.316  31.802  30.207  1.00  0.00     0.034 A 
ATOM     50  C   UNL A   1      44.900  28.614  28.888  1.00  0.00     0.034 A 
ATOM     51  C   UNL A   1      39.585  32.056  30.896  1.00  0.00     0.049 A 
ATOM     52  C   UNL A   1      44.792  30.113  29.079  1.00  0.00     0.074 A 
ATOM     53  C   UNL A   1      40.145  31.531  32.048  1.00  0.00     0.029 A 
ATOM     54  N   UNL A   1      40.619  32.663  30.193  1.00  0.00    -0.354 N 
ATOM     55  N   UNL A   1      43.679  30.765  29.301  1.00  0.00    -0.248 NA
ATOM     56  C   UNL A   1      45.979  30.945  29.214  1.00  0.00     0.031 C 
ATOM     57  C   UNL A   1      41.551  31.737  31.972  1.00  0.00     0.029 A 
ATOM     58  C   UNL A   1      41.837  32.391  30.782  1.00  0.00     0.049 A 
ATOM     59  H   UNL A   1      40.499  33.212  29.384  1.00  0.00     0.167 HD
ATOM     60  C   UNL A   1      43.983  32.031  29.733  1.00  0.00     0.074 A 
ATOM     61  C   UNL A   1      45.435  32.101  29.628  1.00  0.00     0.031 C 
ATOM     62  C   UNL A   1      43.061  32.926  30.212  1.00  0.00     0.034 A 
BRANCH  49  63
ATOM     63  C   UNL A   1      36.983  32.195  30.811  1.00  0.00     0.023 A 
ATOM     64  C   UNL A   1      36.169  33.103  30.093  1.00  0.00     0.031 A 
ATOM     65  C   UNL A   1      36.461  31.783  32.051  1.00  0.00     0.131 A 
ATOM     66  C   UNL A   1      34.964  33.605  30.616  1.00  0.00     0.055 A 
ATOM     67  C   UNL A   1      35.262  32.290  32.581  1.00  0.00     0.041 A 
ATOM     68  F   UNL A   1      37.057  30.848  32.798  1.00  0.00    -0.206 F 
ATOM     69  C   UNL A   1      34.508  33.213  31.867  1.00  0.00     0.022 A 
BRANCH  66  70
ATOM     70  S   UNL A   1      34.009  34.791  29.630  1.00  0.00     0.124 S 
ATOM     71  O   UNL A   1      32.897  33.973  29.157  1.00  0.00    -0.237 OA
ATOM     72  O   UNL A   1      33.683  35.821  30.610  1.00  0.00    -0.237 OA
ATOM     73  O   UNL A   1      34.952  35.206  28.592  1.00  0.00    -0.744 OA
ENDBRANCH  66  70
ENDBRANCH  49  63
BRANCH  50  74
ATOM     74  C   UNL A   1      45.102  27.884  27.578  1.00  0.00     0.023 A 
ATOM     75  C   UNL A   1      45.818  26.661  27.626  1.00  0.00     0.031 A 
ATOM     76  C   UNL A   1      44.284  28.099  26.456  1.00  0.00     0.131 A 
ATOM     77  C   UNL A   1      45.567  25.644  26.688  1.00  0.00     0.055 A 
ATOM     78  C   UNL A   1      44.091  27.101  25.484  1.00  0.00     0.041 A 
ATOM     79  F   UNL A   1      43.563  29.224  26.338  1.00  0.00    -0.206 F 
ATOM     80  C   UNL A   1      44.699  25.852  25.618  1.00  0.00     0.022 A 
BRANCH  77  81
ATOM     81  S   UNL A   1      46.179  23.968  27.052  1.00  0.00     0.124 S 
ATOM     82  O   UNL A   1      45.776  23.229  25.859  1.00  0.00    -0.237 OA
ATOM     83  O   UNL A   1      47.614  24.201  27.206  1.00  0.00    -0.237 OA
ATOM     84  O   UNL A   1      45.478  23.605  28.280  1.00  0.00    -0.744 OA
ENDBRANCH  77  81
ENDBRANCH  50  74
BRANCH  62  85
ATOM     85  C   UNL A   1      43.284  34.419  30.273  1.00  0.00     0.023 A 
ATOM     86  C   UNL A   1      42.996  35.255  29.193  1.00  0.00     0.031 A 
ATOM     87  C   UNL A   1      43.685  35.076  31.463  1.00  0.00     0.131 A 
ATOM     88  C   UNL A   1      43.230  36.633  29.255  1.00  0.00     0.055 A 
ATOM     89  C   UNL A   1      43.796  36.465  31.562  1.00  0.00     0.041 A 
ATOM     90  F   UNL A   1      43.967  34.409  32.591  1.00  0.00    -0.206 F 
ATOM     91  C   UNL A   1      43.595  37.254  30.443  1.00  0.00     0.022 A 
BRANCH  88  92
ATOM     92  S   UNL A   1      43.152  37.551  27.702  1.00  0.00     0.124 S 
ATOM     93  O   UNL A   1      44.341  38.395  27.797  1.00  0.00    -0.237 OA
ATOM     94  O   UNL A   1      43.212  36.488  26.703  1.00  0.00    -0.237 OA
ATOM     95  O   UNL A   1      41.878  38.260  27.786  1.00  0.00    -0.744 OA
ENDBRANCH  88  92
ENDBRANCH  62  85
ENDBRANCH  36  37
ENDBRANCH  29  31
ENDBRANCH  28  29
ENDBRANCH  27  28
ENDBRANCH   1  27
TORSDOF 19
ENDMDL
