MODEL 1
REMARK VINA RESULT:     -11.6      0.000      0.000
REMARK SMILES O=C(OCCOC(=O)[C@H]1C[C@H]2CCCC[C@@H]2[N@@H+]1CC[C@@H]1CCCO1)c1ccc(-c2c3nc(c(-c4cc(S(=O)(=O)[O-])ccc4F)c4ccc([nH]4)c(-c4cc(S(=O)(=O)[O-])ccc4F)c4nc(c(-c5cc(S(=O)(=O)[O-])ccc5F)c5ccc2[nH]5)C=C4)C=C3)cc1
REMARK SMILES IDX 4 1 3 2 2 3 1 4 25 5 26 6 87 7 27 8 86 9 28 10 29 11 30 12
REMARK SMILES IDX 80 13 31 14 85 15 79 16 81 17 32 18 84 19 78 20 77 21 33 23
REMARK SMILES IDX 65 24 45 25 64 26 46 27 49 28 63 29 82 30 47 31 48 32 62 34
REMARK SMILES IDX 83 35 50 36 34 37 35 38 43 39 36 40 42 41 44 42 41 43 37 44
REMARK SMILES IDX 38 45 39 46 40 47 66 48 67 49 75 50 68 51 74 52 76 53 73 54
REMARK SMILES IDX 69 55 70 56 71 57 72 58 51 59 52 60 60 61 53 62 59 63 61 64
REMARK SMILES IDX 58 65 54 66 55 67 56 68 57 69 5 70 6 71 7 72 8 73 9 74 10 75
REMARK SMILES IDX 17 76 11 77 16 78 12 80 15 81 13 82 14 83 18 84 19 85 20 86
REMARK SMILES IDX 21 87 24 88 22 89 23 90
REMARK H PARENT 81 22 49 33 17 79
REMARK Flexibility Score: inf
ROOT
ATOM      1  C   UNL A   1      31.463  31.886  26.834  1.00  0.00     0.275 C 
ENDROOT
BRANCH   1   2
ATOM      2  O   UNL A   1      32.580  32.791  26.808  1.00  0.00    -0.458 OA
BRANCH   2   3
ATOM      3  C   UNL A   1      33.271  33.332  27.843  1.00  0.00     0.338 C 
ATOM      4  O   UNL A   1      32.861  34.385  28.329  1.00  0.00    -0.246 OA
BRANCH   3   5
ATOM      5  C   UNL A   1      34.595  32.809  28.318  1.00  0.00     0.060 A 
ATOM      6  C   UNL A   1      35.835  33.440  28.190  1.00  0.00     0.016 A 
ATOM      7  C   UNL A   1      34.563  31.586  29.010  1.00  0.00     0.016 A 
ATOM      8  C   UNL A   1      36.974  32.944  28.829  1.00  0.00     0.010 A 
ATOM      9  C   UNL A   1      35.699  31.089  29.661  1.00  0.00     0.010 A 
ATOM     10  C   UNL A   1      36.912  31.777  29.585  1.00  0.00    -0.014 A 
BRANCH  10  11
ATOM     11  C   UNL A   1      38.173  31.193  30.097  1.00  0.00     0.031 A 
ATOM     12  C   UNL A   1      38.576  31.547  31.498  1.00  0.00     0.074 A 
ATOM     13  C   UNL A   1      38.864  30.288  29.375  1.00  0.00     0.049 A 
ATOM     14  N   UNL A   1      39.561  31.086  32.218  1.00  0.00    -0.248 NA
ATOM     15  C   UNL A   1      37.749  32.556  32.182  1.00  0.00     0.031 C 
ATOM     16  C   UNL A   1      38.530  29.862  28.014  1.00  0.00     0.029 A 
ATOM     17  N   UNL A   1      39.971  29.541  29.688  1.00  0.00    -0.354 N 
ATOM     18  C   UNL A   1      39.445  31.720  33.449  1.00  0.00     0.074 A 
ATOM     19  C   UNL A   1      38.370  32.678  33.340  1.00  0.00     0.031 C 
ATOM     20  C   UNL A   1      39.406  28.923  27.615  1.00  0.00     0.029 A 
ATOM     21  C   UNL A   1      40.372  28.686  28.684  1.00  0.00     0.049 A 
ATOM     22  H   UNL A   1      40.437  29.611  30.552  1.00  0.00     0.167 HD
ATOM     23  C   UNL A   1      40.134  31.484  34.588  1.00  0.00     0.034 A 
ATOM     24  C   UNL A   1      41.400  27.812  28.645  1.00  0.00     0.034 A 
ATOM     25  C   UNL A   1      41.221  30.547  34.666  1.00  0.00     0.049 A 
ATOM     26  C   UNL A   1      42.238  27.657  29.896  1.00  0.00     0.074 A 
ATOM     27  C   UNL A   1      42.044  30.264  35.737  1.00  0.00     0.029 A 
ATOM     28  N   UNL A   1      41.637  29.741  33.612  1.00  0.00    -0.354 N 
ATOM     29  N   UNL A   1      42.102  28.252  31.062  1.00  0.00    -0.248 NA
ATOM     30  C   UNL A   1      43.347  26.696  29.840  1.00  0.00     0.031 C 
ATOM     31  C   UNL A   1      42.998  29.332  35.313  1.00  0.00     0.029 A 
ATOM     32  C   UNL A   1      42.719  28.973  34.002  1.00  0.00     0.049 A 
ATOM     33  H   UNL A   1      41.223  29.720  32.719  1.00  0.00     0.167 HD
ATOM     34  C   UNL A   1      43.085  27.709  31.885  1.00  0.00     0.074 A 
ATOM     35  C   UNL A   1      43.784  26.720  31.089  1.00  0.00     0.031 C 
ATOM     36  C   UNL A   1      43.389  27.993  33.179  1.00  0.00     0.034 A 
BRANCH  23  37
ATOM     37  C   UNL A   1      39.729  32.288  35.797  1.00  0.00     0.023 A 
ATOM     38  C   UNL A   1      38.939  31.719  36.815  1.00  0.00     0.031 A 
ATOM     39  C   UNL A   1      40.030  33.656  35.881  1.00  0.00     0.131 A 
ATOM     40  C   UNL A   1      38.400  32.534  37.818  1.00  0.00     0.055 A 
ATOM     41  C   UNL A   1      39.564  34.444  36.935  1.00  0.00     0.041 A 
ATOM     42  F   UNL A   1      40.749  34.258  34.921  1.00  0.00    -0.206 F 
ATOM     43  C   UNL A   1      38.727  33.889  37.900  1.00  0.00     0.022 A 
BRANCH  40  44
ATOM     44  S   UNL A   1      37.125  31.838  38.906  1.00  0.00     0.124 S 
ATOM     45  O   UNL A   1      36.962  30.497  38.347  1.00  0.00    -0.237 OA
ATOM     46  O   UNL A   1      37.754  31.908  40.219  1.00  0.00    -0.237 OA
ATOM     47  O   UNL A   1      35.984  32.731  38.711  1.00  0.00    -0.744 OA
ENDBRANCH  40  44
ENDBRANCH  23  37
BRANCH  24  48
ATOM     48  C   UNL A   1      41.726  27.036  27.406  1.00  0.00     0.023 A 
ATOM     49  C   UNL A   1      41.564  25.641  27.339  1.00  0.00     0.031 A 
ATOM     50  C   UNL A   1      42.306  27.675  26.294  1.00  0.00     0.131 A 
ATOM     51  C   UNL A   1      42.042  24.926  26.225  1.00  0.00     0.055 A 
ATOM     52  C   UNL A   1      42.723  26.967  25.163  1.00  0.00     0.041 A 
ATOM     53  F   UNL A   1      42.492  29.003  26.294  1.00  0.00    -0.206 F 
ATOM     54  C   UNL A   1      42.611  25.582  25.133  1.00  0.00     0.022 A 
BRANCH  51  55
ATOM     55  S   UNL A   1      42.031  23.110  26.280  1.00  0.00     0.124 S 
ATOM     56  O   UNL A   1      42.879  22.842  27.436  1.00  0.00    -0.237 OA
ATOM     57  O   UNL A   1      40.610  22.823  26.445  1.00  0.00    -0.237 OA
ATOM     58  O   UNL A   1      42.597  22.727  24.988  1.00  0.00    -0.744 OA
ENDBRANCH  51  55
ENDBRANCH  24  48
BRANCH  36  59
ATOM     59  C   UNL A   1      44.492  27.186  33.815  1.00  0.00     0.023 A 
ATOM     60  C   UNL A   1      44.234  25.970  34.468  1.00  0.00     0.031 A 
ATOM     61  C   UNL A   1      45.820  27.645  33.765  1.00  0.00     0.131 A 
ATOM     62  C   UNL A   1      45.279  25.287  35.106  1.00  0.00     0.055 A 
ATOM     63  C   UNL A   1      46.868  26.922  34.335  1.00  0.00     0.041 A 
ATOM     64  F   UNL A   1      46.123  28.802  33.154  1.00  0.00    -0.206 F 
ATOM     65  C   UNL A   1      46.597  25.743  35.024  1.00  0.00     0.022 A 
BRANCH  62  66
ATOM     66  S   UNL A   1      44.872  23.854  36.137  1.00  0.00     0.124 S 
ATOM     67  O   UNL A   1      46.097  23.066  36.055  1.00  0.00    -0.237 OA
ATOM     68  O   UNL A   1      44.595  24.468  37.431  1.00  0.00    -0.237 OA
ATOM     69  O   UNL A   1      43.712  23.269  35.468  1.00  0.00    -0.744 OA
ENDBRANCH  62  66
ENDBRANCH  36  59
ENDBRANCH  10  11
ENDBRANCH   3   5
ENDBRANCH   2   3
ENDBRANCH   1   2
BRANCH   1  70
ATOM     70  C   UNL A   1      31.775  30.486  26.291  1.00  0.00     0.274 C 
BRANCH  70  71
ATOM     71  O   UNL A   1      32.343  29.612  27.282  1.00  0.00    -0.458 OA
BRANCH  71  72
ATOM     72  C   UNL A   1      31.831  28.345  27.308  1.00  0.00     0.365 C 
ATOM     73  O   UNL A   1      31.349  27.832  28.317  1.00  0.00    -0.245 OA
BRANCH  72  74
ATOM     74  C   UNL A   1      31.967  27.658  25.922  1.00  0.00     0.295 C 
ATOM     75  C   UNL A   1      33.305  26.900  25.844  1.00  0.00     0.087 C 
ATOM     76  N   UNL A   1      30.903  26.625  25.797  1.00  0.00    -0.320 N 
ATOM     77  C   UNL A   1      32.895  25.446  25.632  1.00  0.00     0.054 C 
ATOM     78  C   UNL A   1      31.524  25.400  26.275  1.00  0.00     0.188 C 
ATOM     79  H   UNL A   1      30.095  26.859  26.375  1.00  0.00     0.349 HD
ATOM     80  C   UNL A   1      33.813  24.385  26.212  1.00  0.00     0.010 C 
ATOM     81  C   UNL A   1      30.821  24.073  26.094  1.00  0.00     0.065 C 
ATOM     82  C   UNL A   1      33.165  22.995  26.178  1.00  0.00     0.001 C 
ATOM     83  C   UNL A   1      31.701  22.948  26.641  1.00  0.00     0.006 C 
BRANCH  76  84
ATOM     84  C   UNL A   1      30.095  26.591  24.577  1.00  0.00     0.265 C 
BRANCH  84  85
ATOM     85  C   UNL A   1      30.140  27.678  23.477  1.00  0.00     0.093 C 
BRANCH  85  86
ATOM     86  C   UNL A   1      31.191  27.645  22.351  1.00  0.00     0.123 C 
ATOM     87  C   UNL A   1      31.924  26.344  22.071  1.00  0.00     0.034 C 
ATOM     88  O   UNL A   1      32.152  28.681  22.525  1.00  0.00    -0.378 OA
ATOM     89  C   UNL A   1      33.392  26.688  22.095  1.00  0.00     0.031 C 
ATOM     90  C   UNL A   1      33.466  28.153  22.443  1.00  0.00     0.160 C 
ENDBRANCH  85  86
ENDBRANCH  84  85
ENDBRANCH  76  84
ENDBRANCH  72  74
ENDBRANCH  71  72
ENDBRANCH  70  71
ENDBRANCH   1  70
TORSDOF 17
ENDMDL
MODEL 2
REMARK VINA RESULT:     -11.6      1.657      2.205
REMARK SMILES O=C(OCCOC(=O)[C@H]1C[C@H]2CCCC[C@@H]2[N@@H+]1CC[C@@H]1CCCO1)c1ccc(-c2c3nc(c(-c4cc(S(=O)(=O)[O-])ccc4F)c4ccc([nH]4)c(-c4cc(S(=O)(=O)[O-])ccc4F)c4nc(c(-c5cc(S(=O)(=O)[O-])ccc5F)c5ccc2[nH]5)C=C4)C=C3)cc1
REMARK SMILES IDX 4 1 3 2 2 3 1 4 25 5 26 6 87 7 27 8 86 9 28 10 29 11 30 12
REMARK SMILES IDX 80 13 31 14 85 15 79 16 81 17 32 18 84 19 78 20 77 21 33 23
REMARK SMILES IDX 65 24 45 25 64 26 46 27 49 28 63 29 82 30 47 31 48 32 62 34
REMARK SMILES IDX 83 35 50 36 34 37 35 38 43 39 36 40 42 41 44 42 41 43 37 44
REMARK SMILES IDX 38 45 39 46 40 47 66 48 67 49 75 50 68 51 74 52 76 53 73 54
REMARK SMILES IDX 69 55 70 56 71 57 72 58 51 59 52 60 60 61 53 62 59 63 61 64
REMARK SMILES IDX 58 65 54 66 55 67 56 68 57 69 5 70 6 71 7 72 8 73 9 74 10 75
REMARK SMILES IDX 17 76 11 77 16 78 12 80 15 81 13 82 14 83 18 84 19 85 20 86
REMARK SMILES IDX 21 87 24 88 22 89 23 90
REMARK H PARENT 81 22 49 33 17 79
REMARK Flexibility Score: inf
ROOT
ATOM      1  C   UNL A   1      31.531  32.242  26.857  1.00  0.00     0.275 C 
ENDROOT
BRANCH   1   2
ATOM      2  O   UNL A   1      32.520  33.282  26.950  1.00  0.00    -0.458 OA
BRANCH   2   3
ATOM      3  C   UNL A   1      33.158  33.763  28.047  1.00  0.00     0.338 C 
ATOM      4  O   UNL A   1      32.815  34.861  28.485  1.00  0.00    -0.246 OA
BRANCH   3   5
ATOM      5  C   UNL A   1      34.367  33.113  28.654  1.00  0.00     0.060 A 
ATOM      6  C   UNL A   1      34.391  31.937  29.408  1.00  0.00     0.016 A 
ATOM      7  C   UNL A   1      35.601  33.729  28.383  1.00  0.00     0.016 A 
ATOM      8  C   UNL A   1      35.595  31.328  29.770  1.00  0.00     0.010 A 
ATOM      9  C   UNL A   1      36.811  33.118  28.734  1.00  0.00     0.010 A 
ATOM     10  C   UNL A   1      36.814  31.903  29.421  1.00  0.00    -0.014 A 
BRANCH  10  11
ATOM     11  C   UNL A   1      38.059  31.321  29.973  1.00  0.00     0.031 A 
ATOM     12  C   UNL A   1      38.420  31.681  31.384  1.00  0.00     0.074 A 
ATOM     13  C   UNL A   1      38.770  30.412  29.276  1.00  0.00     0.049 A 
ATOM     14  N   UNL A   1      39.383  31.223  32.135  1.00  0.00    -0.248 NA
ATOM     15  C   UNL A   1      37.573  32.693  32.039  1.00  0.00     0.031 C 
ATOM     16  C   UNL A   1      38.477  29.981  27.907  1.00  0.00     0.029 A 
ATOM     17  N   UNL A   1      39.867  29.667  29.625  1.00  0.00    -0.354 N 
ATOM     18  C   UNL A   1      39.230  31.863  33.359  1.00  0.00     0.074 A 
ATOM     19  C   UNL A   1      38.159  32.820  33.214  1.00  0.00     0.031 C 
ATOM     20  C   UNL A   1      39.364  29.039  27.539  1.00  0.00     0.029 A 
ATOM     21  C   UNL A   1      40.298  28.807  28.637  1.00  0.00     0.049 A 
ATOM     22  H   UNL A   1      40.307  29.740  30.503  1.00  0.00     0.167 HD
ATOM     23  C   UNL A   1      39.885  31.631  34.519  1.00  0.00     0.034 A 
ATOM     24  C   UNL A   1      41.326  27.933  28.633  1.00  0.00     0.034 A 
ATOM     25  C   UNL A   1      40.968  30.694  34.633  1.00  0.00     0.049 A 
ATOM     26  C   UNL A   1      42.126  27.783  29.909  1.00  0.00     0.074 A 
ATOM     27  C   UNL A   1      41.759  30.416  35.730  1.00  0.00     0.029 A 
ATOM     28  N   UNL A   1      41.416  29.883  33.596  1.00  0.00    -0.354 N 
ATOM     29  N   UNL A   1      41.956  28.383  31.067  1.00  0.00    -0.248 NA
ATOM     30  C   UNL A   1      43.235  26.821  29.890  1.00  0.00     0.031 C 
ATOM     31  C   UNL A   1      42.725  29.481  35.339  1.00  0.00     0.029 A 
ATOM     32  C   UNL A   1      42.485  29.116  34.021  1.00  0.00     0.049 A 
ATOM     33  H   UNL A   1      41.028  29.858  32.691  1.00  0.00     0.167 HD
ATOM     34  C   UNL A   1      42.913  27.843  31.922  1.00  0.00     0.074 A 
ATOM     35  C   UNL A   1      43.635  26.850  31.152  1.00  0.00     0.031 C 
ATOM     36  C   UNL A   1      43.178  28.133  33.223  1.00  0.00     0.034 A 
BRANCH  23  37
ATOM     37  C   UNL A   1      39.444  32.441  35.711  1.00  0.00     0.023 A 
ATOM     38  C   UNL A   1      40.060  33.668  36.022  1.00  0.00     0.031 A 
ATOM     39  C   UNL A   1      38.488  31.935  36.606  1.00  0.00     0.131 A 
ATOM     40  C   UNL A   1      39.784  34.299  37.243  1.00  0.00     0.055 A 
ATOM     41  C   UNL A   1      38.151  32.616  37.778  1.00  0.00     0.041 A 
ATOM     42  F   UNL A   1      37.895  30.754  36.378  1.00  0.00    -0.206 F 
ATOM     43  C   UNL A   1      38.814  33.795  38.112  1.00  0.00     0.022 A 
BRANCH  40  44
ATOM     44  S   UNL A   1      40.836  35.685  37.757  1.00  0.00     0.124 S 
ATOM     45  O   UNL A   1      39.983  36.831  37.453  1.00  0.00    -0.237 OA
ATOM     46  O   UNL A   1      41.054  35.410  39.173  1.00  0.00    -0.237 OA
ATOM     47  O   UNL A   1      42.018  35.552  36.907  1.00  0.00    -0.744 OA
ENDBRANCH  40  44
ENDBRANCH  23  37
BRANCH  24  48
ATOM     48  C   UNL A   1      41.688  27.151  27.407  1.00  0.00     0.023 A 
ATOM     49  C   UNL A   1      41.497  25.760  27.331  1.00  0.00     0.031 A 
ATOM     50  C   UNL A   1      42.331  27.778  26.323  1.00  0.00     0.131 A 
ATOM     51  C   UNL A   1      42.008  25.036  26.237  1.00  0.00     0.055 A 
ATOM     52  C   UNL A   1      42.780  27.062  25.210  1.00  0.00     0.041 A 
ATOM     53  F   UNL A   1      42.547  29.102  26.335  1.00  0.00    -0.206 F 
ATOM     54  C   UNL A   1      42.638  25.680  25.172  1.00  0.00     0.022 A 
BRANCH  51  55
ATOM     55  S   UNL A   1      41.953  23.220  26.287  1.00  0.00     0.124 S 
ATOM     56  O   UNL A   1      42.604  22.868  25.031  1.00  0.00    -0.237 OA
ATOM     57  O   UNL A   1      42.704  22.930  27.504  1.00  0.00    -0.237 OA
ATOM     58  O   UNL A   1      40.523  22.925  26.354  1.00  0.00    -0.744 OA
ENDBRANCH  51  55
ENDBRANCH  24  48
BRANCH  36  59
ATOM     59  C   UNL A   1      44.261  27.327  33.895  1.00  0.00     0.023 A 
ATOM     60  C   UNL A   1      43.988  26.104  34.527  1.00  0.00     0.031 A 
ATOM     61  C   UNL A   1      45.587  27.797  33.903  1.00  0.00     0.131 A 
ATOM     62  C   UNL A   1      45.011  25.423  35.200  1.00  0.00     0.055 A 
ATOM     63  C   UNL A   1      46.617  27.077  34.508  1.00  0.00     0.041 A 
ATOM     64  F   UNL A   1      45.905  28.962  33.314  1.00  0.00    -0.206 F 
ATOM     65  C   UNL A   1      46.328  25.890  35.175  1.00  0.00     0.022 A 
BRANCH  62  66
ATOM     66  S   UNL A   1      44.575  23.978  36.201  1.00  0.00     0.124 S 
ATOM     67  O   UNL A   1      44.230  24.589  37.480  1.00  0.00    -0.237 OA
ATOM     68  O   UNL A   1      43.465  23.401  35.451  1.00  0.00    -0.237 OA
ATOM     69  O   UNL A   1      45.801  23.181  36.204  1.00  0.00    -0.744 OA
ENDBRANCH  62  66
ENDBRANCH  36  59
ENDBRANCH  10  11
ENDBRANCH   3   5
ENDBRANCH   2   3
ENDBRANCH   1   2
BRANCH   1  70
ATOM     70  C   UNL A   1      32.103  30.821  26.923  1.00  0.00     0.274 C 
BRANCH  70  71
ATOM     71  O   UNL A   1      32.189  30.189  25.634  1.00  0.00    -0.458 OA
BRANCH  71  72
ATOM     72  C   UNL A   1      33.137  29.211  25.523  1.00  0.00     0.365 C 
ATOM     73  O   UNL A   1      34.170  29.194  26.191  1.00  0.00    -0.245 OA
BRANCH  72  74
ATOM     74  C   UNL A   1      32.742  28.168  24.443  1.00  0.00     0.295 C 
ATOM     75  C   UNL A   1      33.822  27.073  24.357  1.00  0.00     0.087 C 
ATOM     76  N   UNL A   1      31.496  27.482  24.880  1.00  0.00    -0.320 N 
ATOM     77  C   UNL A   1      33.079  25.792  24.722  1.00  0.00     0.054 C 
ATOM     78  C   UNL A   1      31.958  26.308  25.601  1.00  0.00     0.188 C 
ATOM     79  H   UNL A   1      30.944  28.080  25.495  1.00  0.00     0.349 HD
ATOM     80  C   UNL A   1      33.882  24.712  25.426  1.00  0.00     0.010 C 
ATOM     81  C   UNL A   1      30.975  25.233  26.011  1.00  0.00     0.065 C 
ATOM     82  C   UNL A   1      32.977  23.605  25.982  1.00  0.00     0.001 C 
ATOM     83  C   UNL A   1      31.719  24.097  26.713  1.00  0.00     0.006 C 
BRANCH  76  84
ATOM     84  C   UNL A   1      30.395  27.349  23.923  1.00  0.00     0.265 C 
BRANCH  84  85
ATOM     85  C   UNL A   1      30.367  28.027  22.533  1.00  0.00     0.093 C 
BRANCH  85  86
ATOM     86  C   UNL A   1      30.003  29.515  22.368  1.00  0.00     0.123 C 
ATOM     87  C   UNL A   1      29.425  30.264  23.557  1.00  0.00     0.034 C 
ATOM     88  O   UNL A   1      29.144  29.704  21.248  1.00  0.00    -0.378 OA
ATOM     89  C   UNL A   1      28.157  30.909  23.057  1.00  0.00     0.031 C 
ATOM     90  C   UNL A   1      28.010  30.470  21.622  1.00  0.00     0.160 C 
ENDBRANCH  85  86
ENDBRANCH  84  85
ENDBRANCH  76  84
ENDBRANCH  72  74
ENDBRANCH  71  72
ENDBRANCH  70  71
ENDBRANCH   1  70
TORSDOF 17
ENDMDL
MODEL 3
REMARK VINA RESULT:     -11.6      5.108     10.533
REMARK SMILES O=C(OCCOC(=O)[C@H]1C[C@H]2CCCC[C@@H]2[N@@H+]1CC[C@@H]1CCCO1)c1ccc(-c2c3nc(c(-c4cc(S(=O)(=O)[O-])ccc4F)c4ccc([nH]4)c(-c4cc(S(=O)(=O)[O-])ccc4F)c4nc(c(-c5cc(S(=O)(=O)[O-])ccc5F)c5ccc2[nH]5)C=C4)C=C3)cc1
REMARK SMILES IDX 4 1 3 2 2 3 1 4 25 5 26 6 87 7 27 8 86 9 28 10 29 11 30 12
REMARK SMILES IDX 80 13 31 14 85 15 79 16 81 17 32 18 84 19 78 20 77 21 33 23
REMARK SMILES IDX 65 24 45 25 64 26 46 27 49 28 63 29 82 30 47 31 48 32 62 34
REMARK SMILES IDX 83 35 50 36 34 37 35 38 43 39 36 40 42 41 44 42 41 43 37 44
REMARK SMILES IDX 38 45 39 46 40 47 66 48 67 49 75 50 68 51 74 52 76 53 73 54
REMARK SMILES IDX 69 55 70 56 71 57 72 58 51 59 52 60 60 61 53 62 59 63 61 64
REMARK SMILES IDX 58 65 54 66 55 67 56 68 57 69 5 70 6 71 7 72 8 73 9 74 10 75
REMARK SMILES IDX 17 76 11 77 16 78 12 80 15 81 13 82 14 83 18 84 19 85 20 86
REMARK SMILES IDX 21 87 24 88 22 89 23 90
REMARK H PARENT 81 22 49 33 17 79
REMARK Flexibility Score: inf
ROOT
ATOM      1  C   UNL A   1      37.863  20.882  25.042  1.00  0.00     0.275 C 
ENDROOT
BRANCH   1   2
ATOM      2  O   UNL A   1      38.299  21.649  26.178  1.00  0.00    -0.458 OA
BRANCH   2   3
ATOM      3  C   UNL A   1      39.554  22.028  26.526  1.00  0.00     0.338 C 
ATOM      4  O   UNL A   1      40.409  21.153  26.663  1.00  0.00    -0.246 OA
BRANCH   3   5
ATOM      5  C   UNL A   1      39.918  23.431  26.917  1.00  0.00     0.060 A 
ATOM      6  C   UNL A   1      39.353  24.608  26.419  1.00  0.00     0.016 A 
ATOM      7  C   UNL A   1      40.887  23.559  27.927  1.00  0.00     0.016 A 
ATOM      8  C   UNL A   1      39.643  25.851  26.985  1.00  0.00     0.010 A 
ATOM      9  C   UNL A   1      41.174  24.801  28.506  1.00  0.00     0.010 A 
ATOM     10  C   UNL A   1      40.541  25.957  28.045  1.00  0.00    -0.014 A 
BRANCH  10  11
ATOM     11  C   UNL A   1      40.952  27.306  28.497  1.00  0.00     0.031 A 
ATOM     12  C   UNL A   1      42.381  27.702  28.272  1.00  0.00     0.074 A 
ATOM     13  C   UNL A   1      40.047  28.181  28.981  1.00  0.00     0.049 A 
ATOM     14  N   UNL A   1      42.962  28.853  28.468  1.00  0.00    -0.248 NA
ATOM     15  C   UNL A   1      43.276  26.655  27.749  1.00  0.00     0.031 C 
ATOM     16  C   UNL A   1      38.630  27.892  29.207  1.00  0.00     0.029 A 
ATOM     17  N   UNL A   1      40.174  29.498  29.343  1.00  0.00    -0.354 N 
ATOM     18  C   UNL A   1      44.276  28.676  28.054  1.00  0.00     0.074 A 
ATOM     19  C   UNL A   1      44.435  27.284  27.708  1.00  0.00     0.031 C 
ATOM     20  C   UNL A   1      38.017  29.001  29.658  1.00  0.00     0.029 A 
ATOM     21  C   UNL A   1      38.996  30.078  29.767  1.00  0.00     0.049 A 
ATOM     22  H   UNL A   1      41.029  29.985  29.305  1.00  0.00     0.167 HD
ATOM     23  C   UNL A   1      45.250  29.604  27.918  1.00  0.00     0.034 A 
ATOM     24  C   UNL A   1      38.749  31.337  30.186  1.00  0.00     0.034 A 
ATOM     25  C   UNL A   1      45.079  30.980  28.298  1.00  0.00     0.049 A 
ATOM     26  C   UNL A   1      39.892  32.329  30.143  1.00  0.00     0.074 A 
ATOM     27  C   UNL A   1      46.004  32.004  28.277  1.00  0.00     0.029 A 
ATOM     28  N   UNL A   1      43.890  31.518  28.779  1.00  0.00    -0.354 N 
ATOM     29  N   UNL A   1      41.128  32.150  29.730  1.00  0.00    -0.248 NA
ATOM     30  C   UNL A   1      39.603  33.696  30.594  1.00  0.00     0.031 C 
ATOM     31  C   UNL A   1      45.392  33.148  28.802  1.00  0.00     0.029 A 
ATOM     32  C   UNL A   1      44.063  32.858  29.075  1.00  0.00     0.049 A 
ATOM     33  H   UNL A   1      43.049  31.019  28.891  1.00  0.00     0.167 HD
ATOM     34  C   UNL A   1      41.751  33.391  29.837  1.00  0.00     0.074 A 
ATOM     35  C   UNL A   1      40.744  34.312  30.327  1.00  0.00     0.031 C 
ATOM     36  C   UNL A   1      43.032  33.746  29.559  1.00  0.00     0.034 A 
BRANCH  23  37
ATOM     37  C   UNL A   1      46.567  29.120  27.370  1.00  0.00     0.023 A 
ATOM     38  C   UNL A   1      46.724  28.842  25.998  1.00  0.00     0.031 A 
ATOM     39  C   UNL A   1      47.635  28.822  28.230  1.00  0.00     0.131 A 
ATOM     40  C   UNL A   1      47.881  28.197  25.544  1.00  0.00     0.055 A 
ATOM     41  C   UNL A   1      48.823  28.262  27.755  1.00  0.00     0.041 A 
ATOM     42  F   UNL A   1      47.529  29.033  29.551  1.00  0.00    -0.206 F 
ATOM     43  C   UNL A   1      48.944  27.928  26.409  1.00  0.00     0.022 A 
BRANCH  40  44
ATOM     44  S   UNL A   1      47.904  27.556  23.846  1.00  0.00     0.124 S 
ATOM     45  O   UNL A   1      49.281  27.832  23.445  1.00  0.00    -0.237 OA
ATOM     46  O   UNL A   1      47.564  26.150  24.033  1.00  0.00    -0.237 OA
ATOM     47  O   UNL A   1      46.890  28.357  23.164  1.00  0.00    -0.744 OA
ENDBRANCH  40  44
ENDBRANCH  23  37
BRANCH  24  48
ATOM     48  C   UNL A   1      37.403  31.743  30.701  1.00  0.00     0.023 A 
ATOM     49  C   UNL A   1      36.466  32.407  29.888  1.00  0.00     0.031 A 
ATOM     50  C   UNL A   1      37.071  31.562  32.057  1.00  0.00     0.131 A 
ATOM     51  C   UNL A   1      35.285  32.927  30.451  1.00  0.00     0.055 A 
ATOM     52  C   UNL A   1      35.868  32.026  32.597  1.00  0.00     0.041 A 
ATOM     53  F   UNL A   1      37.921  30.941  32.887  1.00  0.00    -0.206 F 
ATOM     54  C   UNL A   1      34.976  32.732  31.797  1.00  0.00     0.022 A 
BRANCH  51  55
ATOM     55  S   UNL A   1      34.218  33.980  29.425  1.00  0.00     0.124 S 
ATOM     56  O   UNL A   1      33.323  34.557  30.420  1.00  0.00    -0.237 OA
ATOM     57  O   UNL A   1      35.184  34.893  28.823  1.00  0.00    -0.237 OA
ATOM     58  O   UNL A   1      33.596  33.035  28.499  1.00  0.00    -0.744 OA
ENDBRANCH  51  55
ENDBRANCH  24  48
BRANCH  36  59
ATOM     59  C   UNL A   1      43.391  35.200  29.735  1.00  0.00     0.023 A 
ATOM     60  C   UNL A   1      43.193  36.139  28.709  1.00  0.00     0.031 A 
ATOM     61  C   UNL A   1      43.942  35.649  30.949  1.00  0.00     0.131 A 
ATOM     62  C   UNL A   1      43.606  37.465  28.891  1.00  0.00     0.055 A 
ATOM     63  C   UNL A   1      44.279  36.986  31.151  1.00  0.00     0.041 A 
ATOM     64  F   UNL A   1      44.153  34.793  31.963  1.00  0.00    -0.206 F 
ATOM     65  C   UNL A   1      44.127  37.900  30.112  1.00  0.00     0.022 A 
BRANCH  62  66
ATOM     66  S   UNL A   1      43.556  38.588  27.469  1.00  0.00     0.124 S 
ATOM     67  O   UNL A   1      43.174  39.850  28.095  1.00  0.00    -0.237 OA
ATOM     68  O   UNL A   1      44.923  38.515  26.965  1.00  0.00    -0.237 OA
ATOM     69  O   UNL A   1      42.542  37.994  26.600  1.00  0.00    -0.744 OA
ENDBRANCH  62  66
ENDBRANCH  36  59
ENDBRANCH  10  11
ENDBRANCH   3   5
ENDBRANCH   2   3
ENDBRANCH   1   2
BRANCH   1  70
ATOM     70  C   UNL A   1      36.340  20.815  24.875  1.00  0.00     0.274 C 
BRANCH  70  71
ATOM     71  O   UNL A   1      35.808  21.923  24.128  1.00  0.00    -0.458 OA
BRANCH  71  72
ATOM     72  C   UNL A   1      35.298  22.945  24.880  1.00  0.00     0.365 C 
ATOM     73  O   UNL A   1      35.826  24.053  24.958  1.00  0.00    -0.245 OA
BRANCH  72  74
ATOM     74  C   UNL A   1      34.004  22.506  25.616  1.00  0.00     0.295 C 
ATOM     75  C   UNL A   1      33.514  23.643  26.532  1.00  0.00     0.087 C 
ATOM     76  N   UNL A   1      32.929  22.300  24.607  1.00  0.00    -0.320 N 
ATOM     77  C   UNL A   1      32.132  23.987  25.987  1.00  0.00     0.054 C 
ATOM     78  C   UNL A   1      32.248  23.583  24.532  1.00  0.00     0.188 C 
ATOM     79  H   UNL A   1      33.322  22.055  23.698  1.00  0.00     0.349 HD
ATOM     80  C   UNL A   1      31.682  25.431  26.125  1.00  0.00     0.010 C 
ATOM     81  C   UNL A   1      30.947  23.707  23.769  1.00  0.00     0.065 C 
ATOM     82  C   UNL A   1      30.416  25.712  25.306  1.00  0.00     0.001 C 
ATOM     83  C   UNL A   1      30.422  25.139  23.881  1.00  0.00     0.006 C 
BRANCH  76  84
ATOM     84  C   UNL A   1      32.137  21.070  24.664  1.00  0.00     0.265 C 
BRANCH  84  85
ATOM     85  C   UNL A   1      32.541  19.747  23.971  1.00  0.00     0.093 C 
BRANCH  85  86
ATOM     86  C   UNL A   1      33.290  18.634  24.728  1.00  0.00     0.123 C 
ATOM     87  C   UNL A   1      34.102  17.626  23.932  1.00  0.00     0.034 C 
ATOM     88  O   UNL A   1      32.408  17.928  25.594  1.00  0.00    -0.378 OA
ATOM     89  C   UNL A   1      33.631  16.268  24.391  1.00  0.00     0.031 C 
ATOM     90  C   UNL A   1      32.530  16.531  25.388  1.00  0.00     0.160 C 
ENDBRANCH  85  86
ENDBRANCH  84  85
ENDBRANCH  76  84
ENDBRANCH  72  74
ENDBRANCH  71  72
ENDBRANCH  70  71
ENDBRANCH   1  70
TORSDOF 17
ENDMDL
