MODEL 1
REMARK VINA RESULT:     -12.0      0.000      0.000
REMARK SMILES Cc1ccc(S(=O)(=O)N2C[C@@H](CC(=O)OCCOC(=O)c3ccc(-c4c5nc(c(-c6cc(S(=O)(=O)[O-])ccc6F)c6ccc([nH]6)c(-c6cc(S(=O)(=O)[O-])ccc6F)c6nc(c(-c7cc(S(=O)(=O)[O-])ccc7F)c7ccc4[nH]7)C=C6)C=C5)cc3)c3ccccc32)c(C)c1
REMARK SMILES IDX 16 1 15 2 13 3 14 4 12 5 11 6 9 7 10 8 89 9 84 10 88 11
REMARK SMILES IDX 85 12 87 13 86 14 6 15 7 16 8 17 5 18 1 19 2 20 3 21 92 22
REMARK SMILES IDX 4 23 90 24 91 25 17 26 18 27 19 28 20 29 21 30 22 31 83 32
REMARK SMILES IDX 23 33 82 34 24 35 25 36 26 37 76 38 27 39 81 40 75 41 77 42
REMARK SMILES IDX 28 43 80 44 74 45 73 46 29 48 61 49 41 50 60 51 42 52 45 53
REMARK SMILES IDX 59 54 78 55 43 56 44 57 58 59 79 60 46 61 30 62 31 63 39 64
REMARK SMILES IDX 32 65 38 66 40 67 37 68 33 69 34 70 35 71 36 72 62 73 63 74
REMARK SMILES IDX 71 75 64 76 70 77 72 78 69 79 65 80 66 81 67 82 68 83 47 84
REMARK SMILES IDX 48 85 56 86 49 87 55 88 57 89 54 90 50 91 51 92 52 93 53 94
REMARK H PARENT 77 47 45 58
REMARK Flexibility Score: inf
ROOT
ATOM      1  C   UNL A   1      31.393  29.430  25.372  1.00  0.00     0.274 C 
ENDROOT
BRANCH   1   2
ATOM      2  O   UNL A   1      32.304  28.378  25.747  1.00  0.00    -0.462 OA
BRANCH   2   3
ATOM      3  C   UNL A   1      31.839  27.422  26.587  1.00  0.00     0.306 C 
ATOM      4  O   UNL A   1      31.147  27.639  27.571  1.00  0.00    -0.252 OA
BRANCH   3   5
ATOM      5  C   UNL A   1      32.317  26.040  26.202  1.00  0.00     0.133 C 
BRANCH   5   6
ATOM      6  C   UNL A   1      31.365  25.283  25.264  1.00  0.00     0.053 C 
ATOM      7  N   UNL A   1      32.358  23.204  24.537  1.00  0.00    -0.265 N 
ATOM      8  C   UNL A   1      31.401  23.756  25.537  1.00  0.00     0.144 C 
ATOM      9  C   UNL A   1      32.366  24.108  23.430  1.00  0.00     0.055 A 
ATOM     10  C   UNL A   1      31.800  25.323  23.818  1.00  0.00    -0.018 A 
ATOM     11  C   UNL A   1      32.935  23.955  22.176  1.00  0.00     0.027 A 
ATOM     12  C   UNL A   1      31.714  26.377  22.920  1.00  0.00     0.006 A 
ATOM     13  C   UNL A   1      32.895  25.031  21.285  1.00  0.00     0.002 A 
ATOM     14  C   UNL A   1      32.282  26.233  21.654  1.00  0.00     0.000 A 
BRANCH   7  15
ATOM     15  S   UNL A   1      32.326  21.530  24.296  1.00  0.00     0.264 S 
ATOM     16  O   UNL A   1      32.009  21.273  22.906  1.00  0.00    -0.201 OA
ATOM     17  O   UNL A   1      31.563  20.936  25.376  1.00  0.00    -0.201 OA
BRANCH  15  18
ATOM     18  C   UNL A   1      34.018  21.010  24.568  1.00  0.00     0.090 A 
ATOM     19  C   UNL A   1      38.149  19.893  25.044  1.00  0.00     0.044 C 
ATOM     20  C   UNL A   1      36.713  20.290  24.879  1.00  0.00    -0.051 A 
ATOM     21  C   UNL A   1      36.347  21.635  24.865  1.00  0.00     0.005 A 
ATOM     22  C   UNL A   1      35.716  19.309  24.782  1.00  0.00     0.008 A 
ATOM     23  C   UNL A   1      35.009  21.993  24.723  1.00  0.00     0.023 A 
ATOM     24  C   UNL A   1      34.357  19.647  24.626  1.00  0.00    -0.030 A 
ATOM     25  C   UNL A   1      33.364  18.517  24.598  1.00  0.00     0.046 C 
ENDBRANCH  15  18
ENDBRANCH   7  15
ENDBRANCH   5   6
ENDBRANCH   3   5
ENDBRANCH   2   3
ENDBRANCH   1   2
BRANCH   1  26
ATOM     26  C   UNL A   1      31.763  30.749  26.055  1.00  0.00     0.275 C 
BRANCH  26  27
ATOM     27  O   UNL A   1      33.151  30.752  26.430  1.00  0.00    -0.458 OA
BRANCH  27  28
ATOM     28  C   UNL A   1      33.538  31.768  27.235  1.00  0.00     0.338 C 
ATOM     29  O   UNL A   1      32.933  32.800  27.461  1.00  0.00    -0.246 OA
BRANCH  28  30
ATOM     30  C   UNL A   1      34.788  31.384  27.906  1.00  0.00     0.060 A 
ATOM     31  C   UNL A   1      34.921  30.084  28.403  1.00  0.00     0.016 A 
ATOM     32  C   UNL A   1      35.811  32.318  28.068  1.00  0.00     0.016 A 
ATOM     33  C   UNL A   1      36.092  29.708  29.058  1.00  0.00     0.010 A 
ATOM     34  C   UNL A   1      36.986  31.937  28.720  1.00  0.00     0.010 A 
ATOM     35  C   UNL A   1      37.133  30.631  29.221  1.00  0.00    -0.014 A 
BRANCH  35  36
ATOM     36  C   UNL A   1      38.367  30.248  29.948  1.00  0.00     0.031 A 
ATOM     37  C   UNL A   1      39.316  29.263  29.329  1.00  0.00     0.074 A 
ATOM     38  C   UNL A   1      38.623  30.772  31.160  1.00  0.00     0.049 A 
ATOM     39  N   UNL A   1      40.388  28.713  29.834  1.00  0.00    -0.248 NA
ATOM     40  C   UNL A   1      39.007  28.837  27.956  1.00  0.00     0.031 C 
ATOM     41  C   UNL A   1      37.793  31.769  31.839  1.00  0.00     0.029 A 
ATOM     42  N   UNL A   1      39.647  30.535  32.041  1.00  0.00    -0.354 N 
ATOM     43  C   UNL A   1      40.881  27.867  28.848  1.00  0.00     0.074 A 
ATOM     44  C   UNL A   1      39.965  27.952  27.729  1.00  0.00     0.031 C 
ATOM     45  C   UNL A   1      38.340  32.054  33.031  1.00  0.00     0.029 A 
ATOM     46  C   UNL A   1      39.528  31.226  33.223  1.00  0.00     0.049 A 
ATOM     47  H   UNL A   1      40.397  29.927  31.844  1.00  0.00     0.167 HD
ATOM     48  C   UNL A   1      41.997  27.095  28.874  1.00  0.00     0.034 A 
ATOM     49  C   UNL A   1      40.272  31.171  34.346  1.00  0.00     0.034 A 
ATOM     50  C   UNL A   1      42.888  27.016  30.008  1.00  0.00     0.049 A 
ATOM     51  C   UNL A   1      41.456  30.237  34.388  1.00  0.00     0.074 A 
ATOM     52  C   UNL A   1      44.048  26.273  30.146  1.00  0.00     0.029 A 
ATOM     53  N   UNL A   1      42.712  27.697  31.208  1.00  0.00    -0.354 N 
ATOM     54  N   UNL A   1      41.906  29.430  33.454  1.00  0.00    -0.248 NA
ATOM     55  C   UNL A   1      42.231  30.207  35.635  1.00  0.00     0.031 C 
ATOM     56  C   UNL A   1      44.534  26.450  31.446  1.00  0.00     0.029 A 
ATOM     57  C   UNL A   1      43.723  27.365  32.099  1.00  0.00     0.049 A 
ATOM     58  H   UNL A   1      41.977  28.324  31.397  1.00  0.00     0.167 HD
ATOM     59  C   UNL A   1      43.035  28.819  33.993  1.00  0.00     0.074 A 
ATOM     60  C   UNL A   1      43.201  29.358  35.328  1.00  0.00     0.031 C 
ATOM     61  C   UNL A   1      43.864  27.901  33.433  1.00  0.00     0.034 A 
BRANCH  48  62
ATOM     62  C   UNL A   1      42.273  26.239  27.661  1.00  0.00     0.023 A 
ATOM     63  C   UNL A   1      41.782  24.925  27.555  1.00  0.00     0.031 A 
ATOM     64  C   UNL A   1      43.077  26.725  26.617  1.00  0.00     0.131 A 
ATOM     65  C   UNL A   1      42.166  24.120  26.472  1.00  0.00     0.055 A 
ATOM     66  C   UNL A   1      43.389  25.946  25.501  1.00  0.00     0.041 A 
ATOM     67  F   UNL A   1      43.594  27.964  26.672  1.00  0.00    -0.206 F 
ATOM     68  C   UNL A   1      42.947  24.629  25.432  1.00  0.00     0.022 A 
BRANCH  65  69
ATOM     69  S   UNL A   1      41.765  22.351  26.522  1.00  0.00     0.124 S 
ATOM     70  O   UNL A   1      42.300  21.963  27.825  1.00  0.00    -0.237 OA
ATOM     71  O   UNL A   1      40.311  22.355  26.402  1.00  0.00    -0.237 OA
ATOM     72  O   UNL A   1      42.484  21.803  25.374  1.00  0.00    -0.744 OA
ENDBRANCH  65  69
ENDBRANCH  48  62
BRANCH  49  73
ATOM     73  C   UNL A   1      39.901  31.986  35.537  1.00  0.00     0.023 A 
ATOM     74  C   UNL A   1      38.978  31.511  36.482  1.00  0.00     0.031 A 
ATOM     75  C   UNL A   1      40.439  33.272  35.727  1.00  0.00     0.131 A 
ATOM     76  C   UNL A   1      38.590  32.332  37.554  1.00  0.00     0.055 A 
ATOM     77  C   UNL A   1      40.089  34.063  36.822  1.00  0.00     0.041 A 
ATOM     78  F   UNL A   1      41.324  33.775  34.853  1.00  0.00    -0.206 F 
ATOM     79  C   UNL A   1      39.150  33.598  37.738  1.00  0.00     0.022 A 
BRANCH  76  80
ATOM     80  S   UNL A   1      37.284  31.747  38.668  1.00  0.00     0.124 S 
ATOM     81  O   UNL A   1      37.030  30.408  38.149  1.00  0.00    -0.237 OA
ATOM     82  O   UNL A   1      37.941  31.817  39.969  1.00  0.00    -0.237 OA
ATOM     83  O   UNL A   1      36.206  32.711  38.464  1.00  0.00    -0.744 OA
ENDBRANCH  76  80
ENDBRANCH  49  73
BRANCH  61  84
ATOM     84  C   UNL A   1      45.051  27.460  34.257  1.00  0.00     0.023 A 
ATOM     85  C   UNL A   1      44.967  26.394  35.169  1.00  0.00     0.031 A 
ATOM     86  C   UNL A   1      46.281  28.132  34.133  1.00  0.00     0.131 A 
ATOM     87  C   UNL A   1      46.078  26.063  35.959  1.00  0.00     0.055 A 
ATOM     88  C   UNL A   1      47.399  27.760  34.881  1.00  0.00     0.041 A 
ATOM     89  F   UNL A   1      46.416  29.159  33.280  1.00  0.00    -0.206 F 
ATOM     90  C   UNL A   1      47.298  26.728  35.809  1.00  0.00     0.022 A 
BRANCH  87  91
ATOM     91  S   UNL A   1      45.886  24.804  37.252  1.00  0.00     0.124 S 
ATOM     92  O   UNL A   1      44.769  25.332  38.028  1.00  0.00    -0.237 OA
ATOM     93  O   UNL A   1      45.609  23.599  36.476  1.00  0.00    -0.237 OA
ATOM     94  O   UNL A   1      47.177  24.815  37.937  1.00  0.00    -0.744 OA
ENDBRANCH  87  91
ENDBRANCH  61  84
ENDBRANCH  35  36
ENDBRANCH  28  30
ENDBRANCH  27  28
ENDBRANCH  26  27
ENDBRANCH   1  26
TORSDOF 17
ENDMDL
MODEL 2
REMARK VINA RESULT:     -11.9      1.745      2.297
REMARK SMILES Cc1ccc(S(=O)(=O)N2C[C@@H](CC(=O)OCCOC(=O)c3ccc(-c4c5nc(c(-c6cc(S(=O)(=O)[O-])ccc6F)c6ccc([nH]6)c(-c6cc(S(=O)(=O)[O-])ccc6F)c6nc(c(-c7cc(S(=O)(=O)[O-])ccc7F)c7ccc4[nH]7)C=C6)C=C5)cc3)c3ccccc32)c(C)c1
REMARK SMILES IDX 16 1 15 2 13 3 14 4 12 5 11 6 9 7 10 8 89 9 84 10 88 11
REMARK SMILES IDX 85 12 87 13 86 14 6 15 7 16 8 17 5 18 1 19 2 20 3 21 92 22
REMARK SMILES IDX 4 23 90 24 91 25 17 26 18 27 19 28 20 29 21 30 22 31 83 32
REMARK SMILES IDX 23 33 82 34 24 35 25 36 26 37 76 38 27 39 81 40 75 41 77 42
REMARK SMILES IDX 28 43 80 44 74 45 73 46 29 48 61 49 41 50 60 51 42 52 45 53
REMARK SMILES IDX 59 54 78 55 43 56 44 57 58 59 79 60 46 61 30 62 31 63 39 64
REMARK SMILES IDX 32 65 38 66 40 67 37 68 33 69 34 70 35 71 36 72 62 73 63 74
REMARK SMILES IDX 71 75 64 76 70 77 72 78 69 79 65 80 66 81 67 82 68 83 47 84
REMARK SMILES IDX 48 85 56 86 49 87 55 88 57 89 54 90 50 91 51 92 52 93 53 94
REMARK H PARENT 77 47 45 58
REMARK Flexibility Score: inf
ROOT
ATOM      1  C   UNL A   1      31.031  30.039  24.301  1.00  0.00     0.274 C 
ENDROOT
BRANCH   1   2
ATOM      2  O   UNL A   1      29.845  29.281  23.996  1.00  0.00    -0.462 OA
BRANCH   2   3
ATOM      3  C   UNL A   1      29.934  28.352  23.015  1.00  0.00     0.306 C 
ATOM      4  O   UNL A   1      30.236  28.594  21.854  1.00  0.00    -0.252 OA
BRANCH   3   5
ATOM      5  C   UNL A   1      29.564  26.968  23.501  1.00  0.00     0.133 C 
BRANCH   5   6
ATOM      6  C   UNL A   1      30.657  25.911  23.282  1.00  0.00     0.053 C 
ATOM      7  N   UNL A   1      31.109  24.715  25.331  1.00  0.00    -0.265 N 
ATOM      8  C   UNL A   1      30.342  24.606  24.059  1.00  0.00     0.144 C 
ATOM      9  C   UNL A   1      32.215  25.583  25.075  1.00  0.00     0.055 A 
ATOM     10  C   UNL A   1      31.983  26.293  23.896  1.00  0.00    -0.018 A 
ATOM     11  C   UNL A   1      33.320  25.854  25.865  1.00  0.00     0.027 A 
ATOM     12  C   UNL A   1      32.908  27.224  23.443  1.00  0.00     0.006 A 
ATOM     13  C   UNL A   1      34.228  26.826  25.438  1.00  0.00     0.002 A 
ATOM     14  C   UNL A   1      34.026  27.502  24.229  1.00  0.00     0.000 A 
BRANCH   7  15
ATOM     15  S   UNL A   1      31.307  23.293  26.225  1.00  0.00     0.264 S 
ATOM     16  O   UNL A   1      30.349  22.316  25.750  1.00  0.00    -0.201 OA
ATOM     17  O   UNL A   1      31.402  23.652  27.626  1.00  0.00    -0.201 OA
BRANCH  15  18
ATOM     18  C   UNL A   1      32.939  22.710  25.773  1.00  0.00     0.090 A 
ATOM     19  C   UNL A   1      36.948  21.509  24.760  1.00  0.00     0.044 C 
ATOM     20  C   UNL A   1      35.554  21.928  25.121  1.00  0.00    -0.051 A 
ATOM     21  C   UNL A   1      35.259  22.370  26.410  1.00  0.00     0.005 A 
ATOM     22  C   UNL A   1      34.524  21.838  24.175  1.00  0.00     0.008 A 
ATOM     23  C   UNL A   1      33.959  22.746  26.737  1.00  0.00     0.023 A 
ATOM     24  C   UNL A   1      33.203  22.224  24.480  1.00  0.00    -0.030 A 
ATOM     25  C   UNL A   1      32.162  22.024  23.412  1.00  0.00     0.046 C 
ENDBRANCH  15  18
ENDBRANCH   7  15
ENDBRANCH   5   6
ENDBRANCH   3   5
ENDBRANCH   2   3
ENDBRANCH   1   2
BRANCH   1  26
ATOM     26  C   UNL A   1      31.535  29.730  25.713  1.00  0.00     0.275 C 
BRANCH  26  27
ATOM     27  O   UNL A   1      32.874  30.223  25.891  1.00  0.00    -0.458 OA
BRANCH  27  28
ATOM     28  C   UNL A   1      33.024  31.191  26.823  1.00  0.00     0.338 C 
ATOM     29  O   UNL A   1      32.262  32.111  27.058  1.00  0.00    -0.246 OA
BRANCH  28  30
ATOM     30  C   UNL A   1      34.229  30.900  27.613  1.00  0.00     0.060 A 
ATOM     31  C   UNL A   1      35.094  31.948  27.943  1.00  0.00     0.016 A 
ATOM     32  C   UNL A   1      34.514  29.590  27.999  1.00  0.00     0.016 A 
ATOM     33  C   UNL A   1      36.250  31.688  28.677  1.00  0.00     0.010 A 
ATOM     34  C   UNL A   1      35.671  29.334  28.738  1.00  0.00     0.010 A 
ATOM     35  C   UNL A   1      36.546  30.379  29.080  1.00  0.00    -0.014 A 
BRANCH  35  36
ATOM     36  C   UNL A   1      37.793  30.090  29.830  1.00  0.00     0.031 A 
ATOM     37  C   UNL A   1      38.809  29.153  29.244  1.00  0.00     0.074 A 
ATOM     38  C   UNL A   1      37.999  30.656  31.033  1.00  0.00     0.049 A 
ATOM     39  N   UNL A   1      39.906  28.682  29.775  1.00  0.00    -0.248 NA
ATOM     40  C   UNL A   1      38.544  28.679  27.878  1.00  0.00     0.031 C 
ATOM     41  C   UNL A   1      37.100  31.613  31.679  1.00  0.00     0.029 A 
ATOM     42  N   UNL A   1      39.025  30.502  31.930  1.00  0.00    -0.354 N 
ATOM     43  C   UNL A   1      40.463  27.846  28.813  1.00  0.00     0.074 A 
ATOM     44  C   UNL A   1      39.558  27.849  27.682  1.00  0.00     0.031 C 
ATOM     45  C   UNL A   1      37.614  31.959  32.870  1.00  0.00     0.029 A 
ATOM     46  C   UNL A   1      38.848  31.210  33.095  1.00  0.00     0.049 A 
ATOM     47  H   UNL A   1      39.813  29.938  31.756  1.00  0.00     0.167 HD
ATOM     48  C   UNL A   1      41.625  27.146  28.871  1.00  0.00     0.034 A 
ATOM     49  C   UNL A   1      39.579  31.227  34.227  1.00  0.00     0.034 A 
ATOM     50  C   UNL A   1      42.504  27.148  30.016  1.00  0.00     0.049 A 
ATOM     51  C   UNL A   1      40.818  30.370  34.304  1.00  0.00     0.074 A 
ATOM     52  C   UNL A   1      43.706  26.482  30.184  1.00  0.00     0.029 A 
ATOM     53  N   UNL A   1      42.270  27.842  31.198  1.00  0.00    -0.354 N 
ATOM     54  N   UNL A   1      41.329  29.572  33.395  1.00  0.00    -0.248 NA
ATOM     55  C   UNL A   1      41.577  30.415  35.561  1.00  0.00     0.031 C 
ATOM     56  C   UNL A   1      44.162  26.717  31.486  1.00  0.00     0.029 A 
ATOM     57  C   UNL A   1      43.288  27.594  32.109  1.00  0.00     0.049 A 
ATOM     58  H   UNL A   1      41.496  28.426  31.365  1.00  0.00     0.167 HD
ATOM     59  C   UNL A   1      42.487  29.043  33.960  1.00  0.00     0.074 A 
ATOM     60  C   UNL A   1      42.601  29.621  35.284  1.00  0.00     0.031 C 
ATOM     61  C   UNL A   1      43.378  28.167  33.432  1.00  0.00     0.034 A 
BRANCH  48  62
ATOM     62  C   UNL A   1      41.968  26.282  27.681  1.00  0.00     0.023 A 
ATOM     63  C   UNL A   1      41.542  24.945  27.588  1.00  0.00     0.031 A 
ATOM     64  C   UNL A   1      42.774  26.787  26.646  1.00  0.00     0.131 A 
ATOM     65  C   UNL A   1      41.989  24.139  26.530  1.00  0.00     0.055 A 
ATOM     66  C   UNL A   1      43.148  26.003  25.552  1.00  0.00     0.041 A 
ATOM     67  F   UNL A   1      43.231  28.049  26.689  1.00  0.00    -0.206 F 
ATOM     68  C   UNL A   1      42.770  24.666  25.499  1.00  0.00     0.022 A 
BRANCH  65  69
ATOM     69  S   UNL A   1      41.669  22.355  26.604  1.00  0.00     0.124 S 
ATOM     70  O   UNL A   1      40.208  22.319  26.640  1.00  0.00    -0.237 OA
ATOM     71  O   UNL A   1      42.291  21.873  25.377  1.00  0.00    -0.237 OA
ATOM     72  O   UNL A   1      42.325  21.940  27.842  1.00  0.00    -0.744 OA
ENDBRANCH  65  69
ENDBRANCH  48  62
BRANCH  49  73
ATOM     73  C   UNL A   1      39.143  32.043  35.395  1.00  0.00     0.023 A 
ATOM     74  C   UNL A   1      39.624  33.349  35.587  1.00  0.00     0.031 A 
ATOM     75  C   UNL A   1      38.265  31.515  36.359  1.00  0.00     0.131 A 
ATOM     76  C   UNL A   1      39.256  34.067  36.735  1.00  0.00     0.055 A 
ATOM     77  C   UNL A   1      37.862  32.252  37.472  1.00  0.00     0.041 A 
ATOM     78  F   UNL A   1      37.777  30.272  36.224  1.00  0.00    -0.206 F 
ATOM     79  C   UNL A   1      38.367  33.534  37.671  1.00  0.00     0.022 A 
BRANCH  76  80
ATOM     80  S   UNL A   1      40.015  35.689  37.027  1.00  0.00     0.124 S 
ATOM     81  O   UNL A   1      39.358  36.106  38.261  1.00  0.00    -0.237 OA
ATOM     82  O   UNL A   1      41.429  35.346  37.138  1.00  0.00    -0.237 OA
ATOM     83  O   UNL A   1      39.652  36.453  35.837  1.00  0.00    -0.744 OA
ENDBRANCH  76  80
ENDBRANCH  49  73
BRANCH  61  84
ATOM     84  C   UNL A   1      44.579  27.819  34.279  1.00  0.00     0.023 A 
ATOM     85  C   UNL A   1      44.575  26.723  35.159  1.00  0.00     0.031 A 
ATOM     86  C   UNL A   1      45.741  28.610  34.211  1.00  0.00     0.131 A 
ATOM     87  C   UNL A   1      45.691  26.478  35.974  1.00  0.00     0.055 A 
ATOM     88  C   UNL A   1      46.869  28.326  34.982  1.00  0.00     0.041 A 
ATOM     89  F   UNL A   1      45.798  29.671  33.390  1.00  0.00    -0.206 F 
ATOM     90  C   UNL A   1      46.844  27.263  35.879  1.00  0.00     0.022 A 
BRANCH  87  91
ATOM     91  S   UNL A   1      45.587  25.168  37.225  1.00  0.00     0.124 S 
ATOM     92  O   UNL A   1      44.166  24.838  37.202  1.00  0.00    -0.237 OA
ATOM     93  O   UNL A   1      46.487  24.152  36.689  1.00  0.00    -0.237 OA
ATOM     94  O   UNL A   1      46.052  25.823  38.447  1.00  0.00    -0.744 OA
ENDBRANCH  87  91
ENDBRANCH  61  84
ENDBRANCH  35  36
ENDBRANCH  28  30
ENDBRANCH  27  28
ENDBRANCH  26  27
ENDBRANCH   1  26
TORSDOF 17
ENDMDL
MODEL 3
REMARK VINA RESULT:     -11.9      1.808      2.375
REMARK SMILES Cc1ccc(S(=O)(=O)N2C[C@@H](CC(=O)OCCOC(=O)c3ccc(-c4c5nc(c(-c6cc(S(=O)(=O)[O-])ccc6F)c6ccc([nH]6)c(-c6cc(S(=O)(=O)[O-])ccc6F)c6nc(c(-c7cc(S(=O)(=O)[O-])ccc7F)c7ccc4[nH]7)C=C6)C=C5)cc3)c3ccccc32)c(C)c1
REMARK SMILES IDX 16 1 15 2 13 3 14 4 12 5 11 6 9 7 10 8 89 9 84 10 88 11
REMARK SMILES IDX 85 12 87 13 86 14 6 15 7 16 8 17 5 18 1 19 2 20 3 21 92 22
REMARK SMILES IDX 4 23 90 24 91 25 17 26 18 27 19 28 20 29 21 30 22 31 83 32
REMARK SMILES IDX 23 33 82 34 24 35 25 36 26 37 76 38 27 39 81 40 75 41 77 42
REMARK SMILES IDX 28 43 80 44 74 45 73 46 29 48 61 49 41 50 60 51 42 52 45 53
REMARK SMILES IDX 59 54 78 55 43 56 44 57 58 59 79 60 46 61 30 62 31 63 39 64
REMARK SMILES IDX 32 65 38 66 40 67 37 68 33 69 34 70 35 71 36 72 62 73 63 74
REMARK SMILES IDX 71 75 64 76 70 77 72 78 69 79 65 80 66 81 67 82 68 83 47 84
REMARK SMILES IDX 48 85 56 86 49 87 55 88 57 89 54 90 50 91 51 92 52 93 53 94
REMARK H PARENT 77 47 45 58
REMARK Flexibility Score: inf
ROOT
ATOM      1  C   UNL A   1      31.045  29.758  24.252  1.00  0.00     0.274 C 
ENDROOT
BRANCH   1   2
ATOM      2  O   UNL A   1      29.870  28.952  24.037  1.00  0.00    -0.462 OA
BRANCH   2   3
ATOM      3  C   UNL A   1      29.917  28.034  23.043  1.00  0.00     0.306 C 
ATOM      4  O   UNL A   1      30.150  28.291  21.870  1.00  0.00    -0.252 OA
BRANCH   3   5
ATOM      5  C   UNL A   1      29.596  26.640  23.534  1.00  0.00     0.133 C 
BRANCH   5   6
ATOM      6  C   UNL A   1      30.728  25.623  23.328  1.00  0.00     0.053 C 
ATOM      7  N   UNL A   1      31.142  24.385  25.361  1.00  0.00    -0.265 N 
ATOM      8  C   UNL A   1      30.426  24.287  24.058  1.00  0.00     0.144 C 
ATOM      9  C   UNL A   1      32.230  25.292  25.167  1.00  0.00     0.055 A 
ATOM     10  C   UNL A   1      32.019  26.027  24.000  1.00  0.00    -0.018 A 
ATOM     11  C   UNL A   1      33.297  25.574  26.004  1.00  0.00     0.027 A 
ATOM     12  C   UNL A   1      32.929  26.997  23.606  1.00  0.00     0.006 A 
ATOM     13  C   UNL A   1      34.190  26.585  25.636  1.00  0.00     0.002 A 
ATOM     14  C   UNL A   1      34.009  27.287  24.439  1.00  0.00     0.000 A 
BRANCH   7  15
ATOM     15  S   UNL A   1      31.352  22.945  26.223  1.00  0.00     0.264 S 
ATOM     16  O   UNL A   1      30.439  21.954  25.691  1.00  0.00    -0.201 OA
ATOM     17  O   UNL A   1      31.390  23.269  27.635  1.00  0.00    -0.201 OA
BRANCH  15  18
ATOM     18  C   UNL A   1      33.015  22.421  25.812  1.00  0.00     0.090 A 
ATOM     19  C   UNL A   1      37.089  21.362  24.907  1.00  0.00     0.044 C 
ATOM     20  C   UNL A   1      35.673  21.732  25.230  1.00  0.00    -0.051 A 
ATOM     21  C   UNL A   1      35.320  22.127  26.520  1.00  0.00     0.005 A 
ATOM     22  C   UNL A   1      34.678  21.642  24.246  1.00  0.00     0.008 A 
ATOM     23  C   UNL A   1      34.000  22.457  26.812  1.00  0.00     0.023 A 
ATOM     24  C   UNL A   1      33.337  21.981  24.516  1.00  0.00    -0.030 A 
ATOM     25  C   UNL A   1      32.339  21.784  23.407  1.00  0.00     0.046 C 
ENDBRANCH  15  18
ENDBRANCH   7  15
ENDBRANCH   5   6
ENDBRANCH   3   5
ENDBRANCH   2   3
ENDBRANCH   1   2
BRANCH   1  26
ATOM     26  C   UNL A   1      31.465  29.739  25.724  1.00  0.00     0.275 C 
BRANCH  26  27
ATOM     27  O   UNL A   1      32.784  30.289  25.881  1.00  0.00    -0.458 OA
BRANCH  27  28
ATOM     28  C   UNL A   1      32.912  31.244  26.829  1.00  0.00     0.338 C 
ATOM     29  O   UNL A   1      32.137  32.152  27.068  1.00  0.00    -0.246 OA
BRANCH  28  30
ATOM     30  C   UNL A   1      34.110  30.953  27.630  1.00  0.00     0.060 A 
ATOM     31  C   UNL A   1      34.951  32.007  28.001  1.00  0.00     0.016 A 
ATOM     32  C   UNL A   1      34.412  29.639  27.985  1.00  0.00     0.016 A 
ATOM     33  C   UNL A   1      36.100  31.747  28.745  1.00  0.00     0.010 A 
ATOM     34  C   UNL A   1      35.561  29.383  28.736  1.00  0.00     0.010 A 
ATOM     35  C   UNL A   1      36.413  30.434  29.119  1.00  0.00    -0.014 A 
BRANCH  35  36
ATOM     36  C   UNL A   1      37.653  30.147  29.880  1.00  0.00     0.031 A 
ATOM     37  C   UNL A   1      38.706  29.264  29.275  1.00  0.00     0.074 A 
ATOM     38  C   UNL A   1      37.821  30.665  31.110  1.00  0.00     0.049 A 
ATOM     39  N   UNL A   1      39.806  28.800  29.807  1.00  0.00    -0.248 NA
ATOM     40  C   UNL A   1      38.480  28.842  27.885  1.00  0.00     0.031 C 
ATOM     41  C   UNL A   1      36.884  31.569  31.779  1.00  0.00     0.029 A 
ATOM     42  N   UNL A   1      38.833  30.501  32.020  1.00  0.00    -0.354 N 
ATOM     43  C   UNL A   1      40.404  28.023  28.822  1.00  0.00     0.074 A 
ATOM     44  C   UNL A   1      39.521  28.050  27.674  1.00  0.00     0.031 C 
ATOM     45  C   UNL A   1      37.365  31.876  32.994  1.00  0.00     0.029 A 
ATOM     46  C   UNL A   1      38.615  31.152  33.211  1.00  0.00     0.049 A 
ATOM     47  H   UNL A   1      39.641  29.966  31.838  1.00  0.00     0.167 HD
ATOM     48  C   UNL A   1      41.583  27.353  28.872  1.00  0.00     0.034 A 
ATOM     49  C   UNL A   1      39.324  31.140  34.357  1.00  0.00     0.034 A 
ATOM     50  C   UNL A   1      42.440  27.329  30.034  1.00  0.00     0.049 A 
ATOM     51  C   UNL A   1      40.585  30.314  34.422  1.00  0.00     0.074 A 
ATOM     52  C   UNL A   1      43.657  26.689  30.197  1.00  0.00     0.029 A 
ATOM     53  N   UNL A   1      42.166  27.965  31.240  1.00  0.00    -0.354 N 
ATOM     54  N   UNL A   1      41.136  29.571  33.489  1.00  0.00    -0.248 NA
ATOM     55  C   UNL A   1      41.318  30.326  35.694  1.00  0.00     0.031 C 
ATOM     56  C   UNL A   1      44.083  26.880  31.517  1.00  0.00     0.029 A 
ATOM     57  C   UNL A   1      43.173  27.705  32.159  1.00  0.00     0.049 A 
ATOM     58  H   UNL A   1      41.372  28.520  31.416  1.00  0.00     0.167 HD
ATOM     59  C   UNL A   1      42.297  29.050  34.054  1.00  0.00     0.074 A 
ATOM     60  C   UNL A   1      42.370  29.573  35.404  1.00  0.00     0.031 C 
ATOM     61  C   UNL A   1      43.222  28.222  33.507  1.00  0.00     0.034 A 
BRANCH  48  62
ATOM     62  C   UNL A   1      41.973  26.551  27.654  1.00  0.00     0.023 A 
ATOM     63  C   UNL A   1      41.650  25.188  27.529  1.00  0.00     0.031 A 
ATOM     64  C   UNL A   1      42.721  27.145  26.622  1.00  0.00     0.131 A 
ATOM     65  C   UNL A   1      42.141  24.448  26.442  1.00  0.00     0.055 A 
ATOM     66  C   UNL A   1      43.136  26.423  25.502  1.00  0.00     0.041 A 
ATOM     67  F   UNL A   1      43.080  28.437  26.695  1.00  0.00    -0.206 F 
ATOM     68  C   UNL A   1      42.862  25.062  25.415  1.00  0.00     0.022 A 
BRANCH  65  69
ATOM     69  S   UNL A   1      41.961  22.643  26.470  1.00  0.00     0.124 S 
ATOM     70  O   UNL A   1      40.508  22.492  26.467  1.00  0.00    -0.237 OA
ATOM     71  O   UNL A   1      42.649  22.240  25.249  1.00  0.00    -0.237 OA
ATOM     72  O   UNL A   1      42.618  22.252  27.715  1.00  0.00    -0.744 OA
ENDBRANCH  65  69
ENDBRANCH  48  62
BRANCH  49  73
ATOM     73  C   UNL A   1      38.843  31.893  35.550  1.00  0.00     0.023 A 
ATOM     74  C   UNL A   1      38.251  31.229  36.636  1.00  0.00     0.031 A 
ATOM     75  C   UNL A   1      38.937  33.295  35.604  1.00  0.00     0.131 A 
ATOM     76  C   UNL A   1      37.739  31.971  37.713  1.00  0.00     0.055 A 
ATOM     77  C   UNL A   1      38.473  34.024  36.700  1.00  0.00     0.041 A 
ATOM     78  F   UNL A   1      39.493  33.979  34.592  1.00  0.00    -0.206 F 
ATOM     79  C   UNL A   1      37.859  33.362  37.758  1.00  0.00     0.022 A 
BRANCH  76  80
ATOM     80  S   UNL A   1      36.844  31.094  39.025  1.00  0.00     0.124 S 
ATOM     81  O   UNL A   1      37.769  31.217  40.146  1.00  0.00    -0.237 OA
ATOM     82  O   UNL A   1      35.611  31.868  39.122  1.00  0.00    -0.237 OA
ATOM     83  O   UNL A   1      36.690  29.745  38.488  1.00  0.00    -0.744 OA
ENDBRANCH  76  80
ENDBRANCH  49  73
BRANCH  61  84
ATOM     84  C   UNL A   1      44.416  27.871  34.362  1.00  0.00     0.023 A 
ATOM     85  C   UNL A   1      45.583  28.655  34.366  1.00  0.00     0.031 A 
ATOM     86  C   UNL A   1      44.386  26.724  35.176  1.00  0.00     0.131 A 
ATOM     87  C   UNL A   1      46.691  28.253  35.127  1.00  0.00     0.055 A 
ATOM     88  C   UNL A   1      45.470  26.362  35.976  1.00  0.00     0.041 A 
ATOM     89  F   UNL A   1      43.298  25.938  35.209  1.00  0.00    -0.206 F 
ATOM     90  C   UNL A   1      46.636  27.121  35.945  1.00  0.00     0.022 A 
BRANCH  87  91
ATOM     91  S   UNL A   1      48.241  29.184  34.971  1.00  0.00     0.124 S 
ATOM     92  O   UNL A   1      48.884  28.921  36.254  1.00  0.00    -0.237 OA
ATOM     93  O   UNL A   1      48.864  28.560  33.807  1.00  0.00    -0.237 OA
ATOM     94  O   UNL A   1      47.796  30.562  34.771  1.00  0.00    -0.744 OA
ENDBRANCH  87  91
ENDBRANCH  61  84
ENDBRANCH  35  36
ENDBRANCH  28  30
ENDBRANCH  27  28
ENDBRANCH  26  27
ENDBRANCH   1  26
TORSDOF 17
ENDMDL
