MODEL 1
REMARK VINA RESULT:     -11.1      0.000      0.000
REMARK SMILES Cc1ccsc1/C=C/C(=O)NC[C@H](CC(C)C)C(=O)OCCOC(=O)c1ccc(-c2c3nc(c(-c4cc(S(=O)(=O)[O-])ccc4F)c4ccc([nH]4)c(-c4cc(S(=O)(=O)[O-])ccc4F)c4nc(c(-c5cc(S(=O)(=O)[O-])ccc5F)c5ccc2[nH]5)C=C4)C=C3)cc1
REMARK SMILES IDX 21 1 20 2 18 3 19 4 13 5 12 6 11 7 9 8 10 9 8 11 7 12 6 13
REMARK SMILES IDX 1 14 2 15 3 16 4 17 5 18 14 19 15 20 16 21 17 22 22 23 23 24
REMARK SMILES IDX 24 25 25 26 26 27 27 28 88 29 28 30 87 31 29 32 30 33 31 34
REMARK SMILES IDX 81 35 32 36 86 37 80 38 82 39 33 40 85 41 79 42 78 43 34 45
REMARK SMILES IDX 66 46 46 47 65 48 47 49 50 50 64 51 83 52 48 53 49 54 63 56
REMARK SMILES IDX 84 57 51 58 35 59 36 60 44 61 37 62 43 63 45 64 42 65 38 66
REMARK SMILES IDX 39 67 40 68 41 69 67 70 68 71 76 72 69 73 75 74 77 75 74 76
REMARK SMILES IDX 70 77 71 78 72 79 73 80 52 81 53 82 61 83 54 84 60 85 62 86
REMARK SMILES IDX 59 87 55 88 56 89 57 90 58 91
REMARK H PARENT 11 10 82 44 50 55
REMARK Flexibility Score: inf
ROOT
ATOM      1  C   UNL A   1      35.611  21.745  24.399  1.00  0.00     0.274 C 
ENDROOT
BRANCH   1   2
ATOM      2  O   UNL A   1      34.825  22.317  25.463  1.00  0.00    -0.462 OA
BRANCH   2   3
ATOM      3  C   UNL A   1      34.023  21.468  26.147  1.00  0.00     0.310 C 
ATOM      4  O   UNL A   1      34.012  21.354  27.368  1.00  0.00    -0.252 OA
BRANCH   3   5
ATOM      5  C   UNL A   1      33.129  20.624  25.256  1.00  0.00     0.118 C 
BRANCH   5   6
ATOM      6  C   UNL A   1      31.863  21.398  24.907  1.00  0.00     0.131 C 
BRANCH   6   7
ATOM      7  N   UNL A   1      31.080  21.819  26.055  1.00  0.00    -0.352 N 
ATOM      8  C   UNL A   1      30.759  23.075  26.473  1.00  0.00     0.244 C 
ATOM      9  O   UNL A   1      30.048  23.224  27.464  1.00  0.00    -0.270 OA
ATOM     10  H   UNL A   1      30.729  21.089  26.614  1.00  0.00     0.163 HD
BRANCH   8  11
ATOM     11  C   UNL A   1      31.299  24.280  25.794  1.00  0.00     0.072 C 
ATOM     12  C   UNL A   1      32.236  25.104  26.283  1.00  0.00     0.025 C 
BRANCH  12  13
ATOM     13  C   UNL A   1      32.726  26.234  25.563  1.00  0.00     0.030 A 
ATOM     14  C   UNL A   1      32.415  28.059  27.341  1.00  0.00     0.046 C 
ATOM     15  C   UNL A   1      32.859  27.547  26.009  1.00  0.00    -0.033 A 
ATOM     16  C   UNL A   1      33.492  28.379  25.027  1.00  0.00     0.016 A 
ATOM     17  C   UNL A   1      33.805  27.696  23.878  1.00  0.00     0.066 A 
ATOM     18  S   UNL A   1      33.346  26.058  23.964  1.00  0.00    -0.144 S 
ENDBRANCH  12  13
ENDBRANCH   8  11
ENDBRANCH   6   7
ENDBRANCH   5   6
BRANCH   5  19
ATOM     19  C   UNL A   1      32.876  19.169  25.712  1.00  0.00     0.020 C 
BRANCH  19  20
ATOM     20  C   UNL A   1      33.201  17.966  24.794  1.00  0.00    -0.017 C 
ATOM     21  C   UNL A   1      32.618  16.632  25.239  1.00  0.00     0.007 C 
ATOM     22  C   UNL A   1      32.707  18.278  23.374  1.00  0.00     0.007 C 
ENDBRANCH  19  20
ENDBRANCH   5  19
ENDBRANCH   3   5
ENDBRANCH   2   3
ENDBRANCH   1   2
BRANCH   1  23
ATOM     23  C   UNL A   1      36.789  20.953  24.965  1.00  0.00     0.275 C 
BRANCH  23  24
ATOM     24  O   UNL A   1      37.462  21.703  25.993  1.00  0.00    -0.458 OA
BRANCH  24  25
ATOM     25  C   UNL A   1      38.794  21.493  26.084  1.00  0.00     0.338 C 
ATOM     26  O   UNL A   1      39.417  20.511  25.709  1.00  0.00    -0.246 OA
BRANCH  25  27
ATOM     27  C   UNL A   1      39.442  22.693  26.627  1.00  0.00     0.060 A 
ATOM     28  C   UNL A   1      39.047  23.938  26.137  1.00  0.00     0.016 A 
ATOM     29  C   UNL A   1      40.499  22.593  27.529  1.00  0.00     0.016 A 
ATOM     30  C   UNL A   1      39.728  25.091  26.512  1.00  0.00     0.010 A 
ATOM     31  C   UNL A   1      41.157  23.759  27.941  1.00  0.00     0.010 A 
ATOM     32  C   UNL A   1      40.790  25.015  27.421  1.00  0.00    -0.014 A 
BRANCH  32  33
ATOM     33  C   UNL A   1      41.550  26.242  27.776  1.00  0.00     0.031 A 
ATOM     34  C   UNL A   1      40.896  27.300  28.621  1.00  0.00     0.074 A 
ATOM     35  C   UNL A   1      42.826  26.391  27.371  1.00  0.00     0.049 A 
ATOM     36  N   UNL A   1      41.314  28.505  28.912  1.00  0.00    -0.248 NA
ATOM     37  C   UNL A   1      39.594  26.954  29.210  1.00  0.00     0.031 C 
ATOM     38  C   UNL A   1      43.595  25.400  26.615  1.00  0.00     0.029 A 
ATOM     39  N   UNL A   1      43.704  27.432  27.541  1.00  0.00    -0.354 N 
ATOM     40  C   UNL A   1      40.314  29.076  29.692  1.00  0.00     0.074 A 
ATOM     41  C   UNL A   1      39.261  28.088  29.812  1.00  0.00     0.031 C 
ATOM     42  C   UNL A   1      44.832  25.874  26.401  1.00  0.00     0.029 A 
ATOM     43  C   UNL A   1      44.921  27.230  26.932  1.00  0.00     0.049 A 
ATOM     44  H   UNL A   1      43.484  28.245  28.051  1.00  0.00     0.167 HD
ATOM     45  C   UNL A   1      40.279  30.310  30.253  1.00  0.00     0.034 A 
ATOM     46  C   UNL A   1      45.972  28.060  26.781  1.00  0.00     0.034 A 
ATOM     47  C   UNL A   1      41.347  31.275  30.133  1.00  0.00     0.049 A 
ATOM     48  C   UNL A   1      45.878  29.456  27.344  1.00  0.00     0.074 A 
ATOM     49  C   UNL A   1      41.409  32.563  30.634  1.00  0.00     0.029 A 
ATOM     50  N   UNL A   1      42.546  31.051  29.468  1.00  0.00    -0.354 N 
ATOM     51  N   UNL A   1      44.895  30.013  28.012  1.00  0.00    -0.248 NA
ATOM     52  C   UNL A   1      47.033  30.336  27.124  1.00  0.00     0.031 C 
ATOM     53  C   UNL A   1      42.623  33.135  30.230  1.00  0.00     0.029 A 
ATOM     54  C   UNL A   1      43.346  32.182  29.531  1.00  0.00     0.049 A 
ATOM     55  H   UNL A   1      42.793  30.211  29.016  1.00  0.00     0.167 HD
ATOM     56  C   UNL A   1      45.321  31.303  28.309  1.00  0.00     0.074 A 
ATOM     57  C   UNL A   1      46.658  31.434  27.764  1.00  0.00     0.031 C 
ATOM     58  C   UNL A   1      44.672  32.294  28.972  1.00  0.00     0.034 A 
BRANCH  45  59
ATOM     59  C   UNL A   1      39.020  30.700  30.987  1.00  0.00     0.023 A 
ATOM     60  C   UNL A   1      37.905  31.235  30.320  1.00  0.00     0.031 A 
ATOM     61  C   UNL A   1      38.951  30.568  32.386  1.00  0.00     0.131 A 
ATOM     62  C   UNL A   1      36.796  31.681  31.058  1.00  0.00     0.055 A 
ATOM     63  C   UNL A   1      37.816  30.944  33.106  1.00  0.00     0.041 A 
ATOM     64  F   UNL A   1      39.994  30.085  33.079  1.00  0.00    -0.206 F 
ATOM     65  C   UNL A   1      36.734  31.518  32.444  1.00  0.00     0.022 A 
BRANCH  62  66
ATOM     66  S   UNL A   1      35.490  32.599  30.195  1.00  0.00     0.124 S 
ATOM     67  O   UNL A   1      36.084  33.931  30.092  1.00  0.00    -0.237 OA
ATOM     68  O   UNL A   1      35.356  31.861  28.946  1.00  0.00    -0.237 OA
ATOM     69  O   UNL A   1      34.348  32.504  31.103  1.00  0.00    -0.744 OA
ENDBRANCH  62  66
ENDBRANCH  45  59
BRANCH  46  70
ATOM     70  C   UNL A   1      47.174  27.632  26.008  1.00  0.00     0.023 A 
ATOM     71  C   UNL A   1      47.288  27.901  24.636  1.00  0.00     0.031 A 
ATOM     72  C   UNL A   1      48.203  26.894  26.622  1.00  0.00     0.131 A 
ATOM     73  C   UNL A   1      48.382  27.399  23.912  1.00  0.00     0.055 A 
ATOM     74  C   UNL A   1      49.317  26.446  25.911  1.00  0.00     0.041 A 
ATOM     75  F   UNL A   1      48.141  26.602  27.932  1.00  0.00    -0.206 F 
ATOM     76  C   UNL A   1      49.405  26.687  24.544  1.00  0.00     0.022 A 
BRANCH  73  77
ATOM     77  S   UNL A   1      48.401  27.605  22.110  1.00  0.00     0.124 S 
ATOM     78  O   UNL A   1      49.559  28.474  21.923  1.00  0.00    -0.237 OA
ATOM     79  O   UNL A   1      48.550  26.230  21.649  1.00  0.00    -0.237 OA
ATOM     80  O   UNL A   1      47.107  28.221  21.824  1.00  0.00    -0.744 OA
ENDBRANCH  73  77
ENDBRANCH  46  70
BRANCH  58  81
ATOM     81  C   UNL A   1      45.430  33.580  29.177  1.00  0.00     0.023 A 
ATOM     82  C   UNL A   1      45.338  34.644  28.263  1.00  0.00     0.031 A 
ATOM     83  C   UNL A   1      46.275  33.729  30.290  1.00  0.00     0.131 A 
ATOM     84  C   UNL A   1      46.124  35.791  28.450  1.00  0.00     0.055 A 
ATOM     85  C   UNL A   1      47.016  34.893  30.497  1.00  0.00     0.041 A 
ATOM     86  F   UNL A   1      46.399  32.742  31.192  1.00  0.00    -0.206 F 
ATOM     87  C   UNL A   1      46.952  35.927  29.566  1.00  0.00     0.022 A 
BRANCH  84  88
ATOM     88  S   UNL A   1      46.113  37.072  27.165  1.00  0.00     0.124 S 
ATOM     89  O   UNL A   1      44.686  37.332  27.006  1.00  0.00    -0.237 OA
ATOM     90  O   UNL A   1      46.891  38.141  27.783  1.00  0.00    -0.237 OA
ATOM     91  O   UNL A   1      46.755  36.420  26.025  1.00  0.00    -0.744 OA
ENDBRANCH  84  88
ENDBRANCH  58  81
ENDBRANCH  32  33
ENDBRANCH  25  27
ENDBRANCH  24  25
ENDBRANCH  23  24
ENDBRANCH   1  23
TORSDOF 20
ENDMDL
MODEL 2
REMARK VINA RESULT:     -10.6      1.827      2.673
REMARK SMILES Cc1ccsc1/C=C/C(=O)NC[C@H](CC(C)C)C(=O)OCCOC(=O)c1ccc(-c2c3nc(c(-c4cc(S(=O)(=O)[O-])ccc4F)c4ccc([nH]4)c(-c4cc(S(=O)(=O)[O-])ccc4F)c4nc(c(-c5cc(S(=O)(=O)[O-])ccc5F)c5ccc2[nH]5)C=C4)C=C3)cc1
REMARK SMILES IDX 21 1 20 2 18 3 19 4 13 5 12 6 11 7 9 8 10 9 8 11 7 12 6 13
REMARK SMILES IDX 1 14 2 15 3 16 4 17 5 18 14 19 15 20 16 21 17 22 22 23 23 24
REMARK SMILES IDX 24 25 25 26 26 27 27 28 88 29 28 30 87 31 29 32 30 33 31 34
REMARK SMILES IDX 81 35 32 36 86 37 80 38 82 39 33 40 85 41 79 42 78 43 34 45
REMARK SMILES IDX 66 46 46 47 65 48 47 49 50 50 64 51 83 52 48 53 49 54 63 56
REMARK SMILES IDX 84 57 51 58 35 59 36 60 44 61 37 62 43 63 45 64 42 65 38 66
REMARK SMILES IDX 39 67 40 68 41 69 67 70 68 71 76 72 69 73 75 74 77 75 74 76
REMARK SMILES IDX 70 77 71 78 72 79 73 80 52 81 53 82 61 83 54 84 60 85 62 86
REMARK SMILES IDX 59 87 55 88 56 89 57 90 58 91
REMARK H PARENT 11 10 82 44 50 55
REMARK Flexibility Score: inf
ROOT
ATOM      1  C   UNL A   1      34.710  21.639  24.783  1.00  0.00     0.274 C 
ENDROOT
BRANCH   1   2
ATOM      2  O   UNL A   1      34.559  22.781  25.646  1.00  0.00    -0.462 OA
BRANCH   2   3
ATOM      3  C   UNL A   1      33.297  23.226  25.847  1.00  0.00     0.310 C 
ATOM      4  O   UNL A   1      32.457  22.652  26.532  1.00  0.00    -0.252 OA
BRANCH   3   5
ATOM      5  C   UNL A   1      32.983  24.520  25.116  1.00  0.00     0.118 C 
BRANCH   5   6
ATOM      6  C   UNL A   1      32.579  25.597  26.116  1.00  0.00     0.131 C 
BRANCH   6   7
ATOM      7  N   UNL A   1      33.354  26.822  26.027  1.00  0.00    -0.352 N 
ATOM      8  C   UNL A   1      32.963  28.072  25.657  1.00  0.00     0.244 C 
ATOM      9  O   UNL A   1      33.772  28.996  25.680  1.00  0.00    -0.270 OA
ATOM     10  H   UNL A   1      34.304  26.735  26.271  1.00  0.00     0.163 HD
BRANCH   8  11
ATOM     11  C   UNL A   1      31.588  28.340  25.164  1.00  0.00     0.072 C 
ATOM     12  C   UNL A   1      31.217  28.430  23.879  1.00  0.00     0.025 C 
BRANCH  12  13
ATOM     13  C   UNL A   1      29.869  28.667  23.477  1.00  0.00     0.030 A 
ATOM     14  C   UNL A   1      28.875  26.334  23.873  1.00  0.00     0.046 C 
ATOM     15  C   UNL A   1      28.796  27.779  23.498  1.00  0.00    -0.033 A 
ATOM     16  C   UNL A   1      27.571  28.418  23.116  1.00  0.00     0.016 A 
ATOM     17  C   UNL A   1      27.741  29.745  22.806  1.00  0.00     0.066 A 
ATOM     18  S   UNL A   1      29.364  30.235  22.971  1.00  0.00    -0.144 S 
ENDBRANCH  12  13
ENDBRANCH   8  11
ENDBRANCH   6   7
ENDBRANCH   5   6
BRANCH   5  19
ATOM     19  C   UNL A   1      32.049  24.410  23.890  1.00  0.00     0.020 C 
BRANCH  19  20
ATOM     20  C   UNL A   1      32.557  24.704  22.458  1.00  0.00    -0.017 C 
ATOM     21  C   UNL A   1      33.483  25.906  22.330  1.00  0.00     0.007 C 
ATOM     22  C   UNL A   1      33.278  23.459  21.921  1.00  0.00     0.007 C 
ENDBRANCH  19  20
ENDBRANCH   5  19
ENDBRANCH   3   5
ENDBRANCH   2   3
ENDBRANCH   1   2
BRANCH   1  23
ATOM     23  C   UNL A   1      36.178  21.225  24.689  1.00  0.00     0.275 C 
BRANCH  23  24
ATOM     24  O   UNL A   1      36.917  21.703  25.828  1.00  0.00    -0.458 OA
BRANCH  24  25
ATOM     25  C   UNL A   1      38.246  21.455  25.802  1.00  0.00     0.338 C 
ATOM     26  O   UNL A   1      38.809  20.483  25.319  1.00  0.00    -0.246 OA
BRANCH  25  27
ATOM     27  C   UNL A   1      38.968  22.601  26.366  1.00  0.00     0.060 A 
ATOM     28  C   UNL A   1      38.488  23.883  26.100  1.00  0.00     0.016 A 
ATOM     29  C   UNL A   1      40.165  22.426  27.058  1.00  0.00     0.016 A 
ATOM     30  C   UNL A   1      39.215  25.003  26.489  1.00  0.00     0.010 A 
ATOM     31  C   UNL A   1      40.876  23.553  27.488  1.00  0.00     0.010 A 
ATOM     32  C   UNL A   1      40.416  24.851  27.190  1.00  0.00    -0.014 A 
BRANCH  32  33
ATOM     33  C   UNL A   1      41.217  26.048  27.554  1.00  0.00     0.031 A 
ATOM     34  C   UNL A   1      40.614  27.102  28.441  1.00  0.00     0.074 A 
ATOM     35  C   UNL A   1      42.486  26.174  27.119  1.00  0.00     0.049 A 
ATOM     36  N   UNL A   1      41.071  28.288  28.751  1.00  0.00    -0.248 NA
ATOM     37  C   UNL A   1      39.319  26.776  29.056  1.00  0.00     0.031 C 
ATOM     38  C   UNL A   1      43.209  25.183  26.321  1.00  0.00     0.029 A 
ATOM     39  N   UNL A   1      43.395  27.188  27.292  1.00  0.00    -0.354 N 
ATOM     40  C   UNL A   1      40.106  28.865  29.570  1.00  0.00     0.074 A 
ATOM     41  C   UNL A   1      39.031  27.902  29.693  1.00  0.00     0.031 C 
ATOM     42  C   UNL A   1      44.453  25.630  26.085  1.00  0.00     0.029 A 
ATOM     43  C   UNL A   1      44.591  26.969  26.647  1.00  0.00     0.049 A 
ATOM     44  H   UNL A   1      43.210  27.993  27.827  1.00  0.00     0.167 HD
ATOM     45  C   UNL A   1      40.119  30.086  30.161  1.00  0.00     0.034 A 
ATOM     46  C   UNL A   1      45.660  27.776  26.488  1.00  0.00     0.034 A 
ATOM     47  C   UNL A   1      41.208  31.025  30.037  1.00  0.00     0.049 A 
ATOM     48  C   UNL A   1      45.617  29.159  27.087  1.00  0.00     0.074 A 
ATOM     49  C   UNL A   1      41.318  32.299  30.566  1.00  0.00     0.029 A 
ATOM     50  N   UNL A   1      42.384  30.787  29.335  1.00  0.00    -0.354 N 
ATOM     51  N   UNL A   1      44.666  29.725  27.793  1.00  0.00    -0.248 NA
ATOM     52  C   UNL A   1      46.789  30.014  26.858  1.00  0.00     0.031 C 
ATOM     53  C   UNL A   1      42.535  32.849  30.145  1.00  0.00     0.029 A 
ATOM     54  C   UNL A   1      43.215  31.895  29.404  1.00  0.00     0.049 A 
ATOM     55  H   UNL A   1      42.597  29.953  28.857  1.00  0.00     0.167 HD
ATOM     56  C   UNL A   1      45.134  30.996  28.111  1.00  0.00     0.074 A 
ATOM     57  C   UNL A   1      46.460  31.105  27.534  1.00  0.00     0.031 C 
ATOM     58  C   UNL A   1      44.528  31.986  28.814  1.00  0.00     0.034 A 
BRANCH  45  59
ATOM     59  C   UNL A   1      38.890  30.490  30.937  1.00  0.00     0.023 A 
ATOM     60  C   UNL A   1      37.897  31.316  30.382  1.00  0.00     0.031 A 
ATOM     61  C   UNL A   1      38.729  30.071  32.271  1.00  0.00     0.131 A 
ATOM     62  C   UNL A   1      36.824  31.751  31.177  1.00  0.00     0.055 A 
ATOM     63  C   UNL A   1      37.621  30.446  33.033  1.00  0.00     0.041 A 
ATOM     64  F   UNL A   1      39.657  29.301  32.861  1.00  0.00    -0.206 F 
ATOM     65  C   UNL A   1      36.667  31.303  32.491  1.00  0.00     0.022 A 
BRANCH  62  66
ATOM     66  S   UNL A   1      35.706  33.016  30.512  1.00  0.00     0.124 S 
ATOM     67  O   UNL A   1      36.080  33.026  29.099  1.00  0.00    -0.237 OA
ATOM     68  O   UNL A   1      34.391  32.471  30.822  1.00  0.00    -0.237 OA
ATOM     69  O   UNL A   1      36.073  34.222  31.253  1.00  0.00    -0.744 OA
ENDBRANCH  62  66
ENDBRANCH  45  59
BRANCH  46  70
ATOM     70  C   UNL A   1      46.830  27.335  25.674  1.00  0.00     0.023 A 
ATOM     71  C   UNL A   1      47.030  27.819  24.372  1.00  0.00     0.031 A 
ATOM     72  C   UNL A   1      47.734  26.378  26.168  1.00  0.00     0.131 A 
ATOM     73  C   UNL A   1      48.083  27.312  23.592  1.00  0.00     0.055 A 
ATOM     74  C   UNL A   1      48.812  25.919  25.409  1.00  0.00     0.041 A 
ATOM     75  F   UNL A   1      47.585  25.876  27.404  1.00  0.00    -0.206 F 
ATOM     76  C   UNL A   1      48.984  26.378  24.108  1.00  0.00     0.022 A 
BRANCH  73  77
ATOM     77  S   UNL A   1      48.200  27.821  21.854  1.00  0.00     0.124 S 
ATOM     78  O   UNL A   1      46.960  28.570  21.680  1.00  0.00    -0.237 OA
ATOM     79  O   UNL A   1      49.429  28.604  21.850  1.00  0.00    -0.237 OA
ATOM     80  O   UNL A   1      48.268  26.552  21.133  1.00  0.00    -0.744 OA
ENDBRANCH  73  77
ENDBRANCH  46  70
BRANCH  58  81
ATOM     81  C   UNL A   1      45.325  33.247  29.030  1.00  0.00     0.023 A 
ATOM     82  C   UNL A   1      45.388  34.256  28.054  1.00  0.00     0.031 A 
ATOM     83  C   UNL A   1      46.052  33.425  30.220  1.00  0.00     0.131 A 
ATOM     84  C   UNL A   1      46.207  35.376  28.262  1.00  0.00     0.055 A 
ATOM     85  C   UNL A   1      46.825  34.564  30.443  1.00  0.00     0.041 A 
ATOM     86  F   UNL A   1      46.026  32.489  31.183  1.00  0.00    -0.206 F 
ATOM     87  C   UNL A   1      46.916  35.542  29.455  1.00  0.00     0.022 A 
BRANCH  84  88
ATOM     88  S   UNL A   1      46.401  36.576  26.915  1.00  0.00     0.124 S 
ATOM     89  O   UNL A   1      45.085  37.204  26.875  1.00  0.00    -0.237 OA
ATOM     90  O   UNL A   1      47.493  37.414  27.399  1.00  0.00    -0.237 OA
ATOM     91  O   UNL A   1      46.726  35.743  25.759  1.00  0.00    -0.744 OA
ENDBRANCH  84  88
ENDBRANCH  58  81
ENDBRANCH  32  33
ENDBRANCH  25  27
ENDBRANCH  24  25
ENDBRANCH  23  24
ENDBRANCH   1  23
TORSDOF 20
ENDMDL
MODEL 3
REMARK VINA RESULT:     -10.5      2.277      2.962
REMARK SMILES Cc1ccsc1/C=C/C(=O)NC[C@H](CC(C)C)C(=O)OCCOC(=O)c1ccc(-c2c3nc(c(-c4cc(S(=O)(=O)[O-])ccc4F)c4ccc([nH]4)c(-c4cc(S(=O)(=O)[O-])ccc4F)c4nc(c(-c5cc(S(=O)(=O)[O-])ccc5F)c5ccc2[nH]5)C=C4)C=C3)cc1
REMARK SMILES IDX 21 1 20 2 18 3 19 4 13 5 12 6 11 7 9 8 10 9 8 11 7 12 6 13
REMARK SMILES IDX 1 14 2 15 3 16 4 17 5 18 14 19 15 20 16 21 17 22 22 23 23 24
REMARK SMILES IDX 24 25 25 26 26 27 27 28 88 29 28 30 87 31 29 32 30 33 31 34
REMARK SMILES IDX 81 35 32 36 86 37 80 38 82 39 33 40 85 41 79 42 78 43 34 45
REMARK SMILES IDX 66 46 46 47 65 48 47 49 50 50 64 51 83 52 48 53 49 54 63 56
REMARK SMILES IDX 84 57 51 58 35 59 36 60 44 61 37 62 43 63 45 64 42 65 38 66
REMARK SMILES IDX 39 67 40 68 41 69 67 70 68 71 76 72 69 73 75 74 77 75 74 76
REMARK SMILES IDX 70 77 71 78 72 79 73 80 52 81 53 82 61 83 54 84 60 85 62 86
REMARK SMILES IDX 59 87 55 88 56 89 57 90 58 91
REMARK H PARENT 11 10 82 44 50 55
REMARK Flexibility Score: inf
ROOT
ATOM      1  C   UNL A   1      35.654  22.087  24.105  1.00  0.00     0.274 C 
ENDROOT
BRANCH   1   2
ATOM      2  O   UNL A   1      35.605  23.474  23.722  1.00  0.00    -0.462 OA
BRANCH   2   3
ATOM      3  C   UNL A   1      34.635  24.226  24.291  1.00  0.00     0.310 C 
ATOM      4  O   UNL A   1      34.839  25.200  25.008  1.00  0.00    -0.252 OA
BRANCH   3   5
ATOM      5  C   UNL A   1      33.229  23.740  23.986  1.00  0.00     0.118 C 
BRANCH   5   6
ATOM      6  C   UNL A   1      32.648  24.530  22.818  1.00  0.00     0.131 C 
BRANCH   6   7
ATOM      7  N   UNL A   1      33.487  25.620  22.353  1.00  0.00    -0.352 N 
ATOM      8  C   UNL A   1      33.149  26.899  22.029  1.00  0.00     0.244 C 
ATOM      9  O   UNL A   1      34.022  27.691  21.684  1.00  0.00    -0.270 OA
ATOM     10  H   UNL A   1      34.442  25.402  22.258  1.00  0.00     0.163 HD
BRANCH   8  11
ATOM     11  C   UNL A   1      31.734  27.349  22.023  1.00  0.00     0.072 C 
ATOM     12  C   UNL A   1      31.192  28.246  22.858  1.00  0.00     0.025 C 
BRANCH  12  13
ATOM     13  C   UNL A   1      29.826  28.650  22.780  1.00  0.00     0.030 A 
ATOM     14  C   UNL A   1      28.702  26.626  23.889  1.00  0.00     0.046 C 
ATOM     15  C   UNL A   1      28.701  27.982  23.259  1.00  0.00    -0.033 A 
ATOM     16  C   UNL A   1      27.509  28.758  23.085  1.00  0.00     0.016 A 
ATOM     17  C   UNL A   1      27.748  29.966  22.477  1.00  0.00     0.066 A 
ATOM     18  S   UNL A   1      29.397  30.180  22.111  1.00  0.00    -0.144 S 
ENDBRANCH  12  13
ENDBRANCH   8  11
ENDBRANCH   6   7
ENDBRANCH   5   6
BRANCH   5  19
ATOM     19  C   UNL A   1      32.272  23.593  25.190  1.00  0.00     0.020 C 
BRANCH  19  20
ATOM     20  C   UNL A   1      31.289  22.402  25.301  1.00  0.00    -0.017 C 
ATOM     21  C   UNL A   1      31.938  21.027  25.363  1.00  0.00     0.007 C 
ATOM     22  C   UNL A   1      30.412  22.598  26.546  1.00  0.00     0.007 C 
ENDBRANCH  19  20
ENDBRANCH   5  19
ENDBRANCH   3   5
ENDBRANCH   2   3
ENDBRANCH   1   2
BRANCH   1  23
ATOM     23  C   UNL A   1      37.097  21.645  24.348  1.00  0.00     0.275 C 
BRANCH  23  24
ATOM     24  O   UNL A   1      37.410  21.674  25.753  1.00  0.00    -0.458 OA
BRANCH  24  25
ATOM     25  C   UNL A   1      38.693  21.385  26.066  1.00  0.00     0.338 C 
ATOM     26  O   UNL A   1      39.279  20.327  25.888  1.00  0.00    -0.246 OA
BRANCH  25  27
ATOM     27  C   UNL A   1      39.354  22.590  26.581  1.00  0.00     0.060 A 
ATOM     28  C   UNL A   1      38.903  23.833  26.138  1.00  0.00     0.016 A 
ATOM     29  C   UNL A   1      40.473  22.498  27.406  1.00  0.00     0.016 A 
ATOM     30  C   UNL A   1      39.586  24.994  26.483  1.00  0.00     0.010 A 
ATOM     31  C   UNL A   1      41.136  23.670  27.789  1.00  0.00     0.010 A 
ATOM     32  C   UNL A   1      40.710  24.926  27.316  1.00  0.00    -0.014 A 
BRANCH  32  33
ATOM     33  C   UNL A   1      41.469  26.163  27.637  1.00  0.00     0.031 A 
ATOM     34  C   UNL A   1      40.833  27.222  28.495  1.00  0.00     0.074 A 
ATOM     35  C   UNL A   1      42.729  26.321  27.188  1.00  0.00     0.049 A 
ATOM     36  N   UNL A   1      41.249  28.432  28.763  1.00  0.00    -0.248 NA
ATOM     37  C   UNL A   1      39.555  26.868  29.130  1.00  0.00     0.031 C 
ATOM     38  C   UNL A   1      43.482  25.332  26.415  1.00  0.00     0.029 A 
ATOM     39  N   UNL A   1      43.602  27.371  27.322  1.00  0.00    -0.354 N 
ATOM     40  C   UNL A   1      40.269  29.000  29.572  1.00  0.00     0.074 A 
ATOM     41  C   UNL A   1      39.230  28.002  29.733  1.00  0.00     0.031 C 
ATOM     42  C   UNL A   1      44.707  25.816  26.156  1.00  0.00     0.029 A 
ATOM     43  C   UNL A   1      44.800  27.176  26.674  1.00  0.00     0.049 A 
ATOM     44  H   UNL A   1      43.391  28.186  27.833  1.00  0.00     0.167 HD
ATOM     45  C   UNL A   1      40.241  30.238  30.125  1.00  0.00     0.034 A 
ATOM     46  C   UNL A   1      45.838  28.015  26.482  1.00  0.00     0.034 A 
ATOM     47  C   UNL A   1      41.295  31.211  29.963  1.00  0.00     0.049 A 
ATOM     48  C   UNL A   1      45.749  29.414  27.038  1.00  0.00     0.074 A 
ATOM     49  C   UNL A   1      41.361  32.504  30.452  1.00  0.00     0.029 A 
ATOM     50  N   UNL A   1      42.474  30.994  29.259  1.00  0.00    -0.354 N 
ATOM     51  N   UNL A   1      44.783  29.967  27.734  1.00  0.00    -0.248 NA
ATOM     52  C   UNL A   1      46.887  30.304  26.774  1.00  0.00     0.031 C 
ATOM     53  C   UNL A   1      42.555  33.085  30.004  1.00  0.00     0.029 A 
ATOM     54  C   UNL A   1      43.264  32.133  29.288  1.00  0.00     0.049 A 
ATOM     55  H   UNL A   1      42.714  30.153  28.806  1.00  0.00     0.167 HD
ATOM     56  C   UNL A   1      45.207  31.264  28.008  1.00  0.00     0.074 A 
ATOM     57  C   UNL A   1      46.523  31.403  27.418  1.00  0.00     0.031 C 
ATOM     58  C   UNL A   1      44.570  32.253  28.685  1.00  0.00     0.034 A 
BRANCH  45  59
ATOM     59  C   UNL A   1      39.004  30.621  30.897  1.00  0.00     0.023 A 
ATOM     60  C   UNL A   1      37.878  31.180  30.269  1.00  0.00     0.031 A 
ATOM     61  C   UNL A   1      38.966  30.459  32.294  1.00  0.00     0.131 A 
ATOM     62  C   UNL A   1      36.790  31.619  31.043  1.00  0.00     0.055 A 
ATOM     63  C   UNL A   1      37.852  30.828  33.050  1.00  0.00     0.041 A 
ATOM     64  F   UNL A   1      40.022  29.952  32.952  1.00  0.00    -0.206 F 
ATOM     65  C   UNL A   1      36.760  31.425  32.426  1.00  0.00     0.022 A 
BRANCH  62  66
ATOM     66  S   UNL A   1      35.472  32.566  30.233  1.00  0.00     0.124 S 
ATOM     67  O   UNL A   1      35.264  31.794  29.009  1.00  0.00    -0.237 OA
ATOM     68  O   UNL A   1      34.395  32.513  31.213  1.00  0.00    -0.237 OA
ATOM     69  O   UNL A   1      36.071  33.885  30.033  1.00  0.00    -0.744 OA
ENDBRANCH  62  66
ENDBRANCH  45  59
BRANCH  46  70
ATOM     70  C   UNL A   1      47.018  27.592  25.673  1.00  0.00     0.023 A 
ATOM     71  C   UNL A   1      47.134  27.947  24.321  1.00  0.00     0.031 A 
ATOM     72  C   UNL A   1      48.021  26.777  26.230  1.00  0.00     0.131 A 
ATOM     73  C   UNL A   1      48.204  27.451  23.557  1.00  0.00     0.055 A 
ATOM     74  C   UNL A   1      49.112  26.334  25.481  1.00  0.00     0.041 A 
ATOM     75  F   UNL A   1      47.955  26.402  27.517  1.00  0.00    -0.206 F 
ATOM     76  C   UNL A   1      49.201  26.661  24.133  1.00  0.00     0.022 A 
BRANCH  73  77
ATOM     77  S   UNL A   1      48.221  27.774  21.772  1.00  0.00     0.124 S 
ATOM     78  O   UNL A   1      46.936  28.438  21.578  1.00  0.00    -0.237 OA
ATOM     79  O   UNL A   1      49.405  28.613  21.627  1.00  0.00    -0.237 OA
ATOM     80  O   UNL A   1      48.328  26.440  21.186  1.00  0.00    -0.744 OA
ENDBRANCH  73  77
ENDBRANCH  46  70
BRANCH  58  81
ATOM     81  C   UNL A   1      45.321  33.548  28.855  1.00  0.00     0.023 A 
ATOM     82  C   UNL A   1      46.160  33.774  29.960  1.00  0.00     0.031 A 
ATOM     83  C   UNL A   1      45.172  34.578  27.911  1.00  0.00     0.131 A 
ATOM     84  C   UNL A   1      46.776  35.024  30.122  1.00  0.00     0.055 A 
ATOM     85  C   UNL A   1      45.827  35.802  28.051  1.00  0.00     0.041 A 
ATOM     86  F   UNL A   1      44.381  34.413  26.838  1.00  0.00    -0.206 F 
ATOM     87  C   UNL A   1      46.625  36.034  29.169  1.00  0.00     0.022 A 
BRANCH  84  88
ATOM     88  S   UNL A   1      47.713  35.343  31.643  1.00  0.00     0.124 S 
ATOM     89  O   UNL A   1      48.033  33.992  32.092  1.00  0.00    -0.237 OA
ATOM     90  O   UNL A   1      48.837  36.135  31.157  1.00  0.00    -0.237 OA
ATOM     91  O   UNL A   1      46.763  36.068  32.485  1.00  0.00    -0.744 OA
ENDBRANCH  84  88
ENDBRANCH  58  81
ENDBRANCH  32  33
ENDBRANCH  25  27
ENDBRANCH  24  25
ENDBRANCH  23  24
ENDBRANCH   1  23
TORSDOF 20
ENDMDL
