MODEL 1
REMARK VINA RESULT:     -11.7      0.000      0.000
REMARK SMILES CC[C@@](C)(NC(=O)N1CCC[C@H]1C1CCCC1)C(=O)OCCOC(=O)c1ccc(-c2c3nc(c(-c4cc(S(=O)(=O)[O-])ccc4F)c4ccc([nH]4)c(-c4cc(S(=O)(=O)[O-])ccc4F)c4nc(c(-c5cc(S(=O)(=O)[O-])ccc5F)c5ccc2[nH]5)C=C4)C=C3)cc1
REMARK SMILES IDX 21 1 20 2 18 3 19 4 3 5 4 6 2 7 1 8 5 9 6 10 7 12 8 13 9 14
REMARK SMILES IDX 12 15 10 16 11 17 13 18 14 19 17 20 15 21 16 22 22 23 23 24
REMARK SMILES IDX 24 25 25 26 26 27 27 28 88 29 28 30 87 31 29 32 30 33 31 34
REMARK SMILES IDX 81 35 32 36 86 37 80 38 82 39 33 40 85 41 79 42 78 43 34 45
REMARK SMILES IDX 66 46 46 47 65 48 47 49 50 50 64 51 83 52 48 53 49 54 63 56
REMARK SMILES IDX 84 57 51 58 35 59 36 60 44 61 37 62 43 63 45 64 42 65 38 66
REMARK SMILES IDX 39 67 40 68 41 69 67 70 68 71 76 72 69 73 75 74 77 75 74 76
REMARK SMILES IDX 70 77 71 78 72 79 73 80 52 81 53 82 61 83 54 84 60 85 62 86
REMARK SMILES IDX 59 87 55 88 56 89 57 90 58 91
REMARK H PARENT 5 11 82 44 50 55
REMARK Flexibility Score: inf
ROOT
ATOM      1  C   UNL A   1      35.997  20.507  25.001  1.00  0.00     0.274 C 
ENDROOT
BRANCH   1   2
ATOM      2  O   UNL A   1      35.352  21.707  24.492  1.00  0.00    -0.460 OA
BRANCH   2   3
ATOM      3  C   UNL A   1      34.010  21.819  24.639  1.00  0.00     0.331 C 
ATOM      4  O   UNL A   1      33.328  20.811  24.811  1.00  0.00    -0.249 OA
BRANCH   3   5
ATOM      5  C   UNL A   1      33.360  23.278  24.424  1.00  0.00     0.136 C 
ATOM      6  C   UNL A   1      32.372  22.978  23.259  1.00  0.00     0.047 C 
BRANCH   5   7
ATOM      7  C   UNL A   1      32.527  23.654  25.700  1.00  0.00     0.037 C 
ATOM      8  C   UNL A   1      31.027  23.932  25.524  1.00  0.00     0.007 C 
ENDBRANCH   5   7
BRANCH   5   9
ATOM      9  N   UNL A   1      34.030  24.586  23.921  1.00  0.00    -0.322 N 
ATOM     10  C   UNL A   1      33.634  25.616  23.102  1.00  0.00     0.318 C 
ATOM     11  H   UNL A   1      34.944  24.703  24.267  1.00  0.00     0.166 HD
ATOM     12  O   UNL A   1      34.023  25.633  21.936  1.00  0.00    -0.249 OA
BRANCH  10  13
ATOM     13  N   UNL A   1      32.999  26.696  23.696  1.00  0.00    -0.322 N 
ATOM     14  C   UNL A   1      31.836  27.241  23.080  1.00  0.00     0.122 C 
ATOM     15  C   UNL A   1      33.758  27.804  24.314  1.00  0.00     0.090 C 
ATOM     16  C   UNL A   1      32.507  28.367  22.329  1.00  0.00     0.024 C 
ATOM     17  C   UNL A   1      33.472  28.967  23.336  1.00  0.00     0.027 C 
BRANCH  15  18
ATOM     18  C   UNL A   1      33.308  28.284  25.721  1.00  0.00     0.012 C 
ATOM     19  C   UNL A   1      32.560  29.617  25.817  1.00  0.00     0.006 C 
ATOM     20  C   UNL A   1      32.388  27.339  26.478  1.00  0.00     0.006 C 
ATOM     21  C   UNL A   1      32.074  29.655  27.252  1.00  0.00     0.000 C 
ATOM     22  C   UNL A   1      31.778  28.198  27.597  1.00  0.00     0.000 C 
ENDBRANCH  15  18
ENDBRANCH  10  13
ENDBRANCH   5   9
ENDBRANCH   3   5
ENDBRANCH   2   3
ENDBRANCH   1   2
BRANCH   1  23
ATOM     23  C   UNL A   1      37.528  20.462  24.807  1.00  0.00     0.275 C 
BRANCH  23  24
ATOM     24  O   UNL A   1      38.158  21.589  25.434  1.00  0.00    -0.458 OA
BRANCH  24  25
ATOM     25  C   UNL A   1      39.354  21.397  26.056  1.00  0.00     0.338 C 
ATOM     26  O   UNL A   1      40.024  20.384  26.041  1.00  0.00    -0.246 OA
BRANCH  25  27
ATOM     27  C   UNL A   1      39.730  22.649  26.775  1.00  0.00     0.060 A 
ATOM     28  C   UNL A   1      40.735  22.633  27.741  1.00  0.00     0.016 A 
ATOM     29  C   UNL A   1      39.100  23.858  26.478  1.00  0.00     0.016 A 
ATOM     30  C   UNL A   1      41.149  23.804  28.376  1.00  0.00     0.010 A 
ATOM     31  C   UNL A   1      39.578  25.051  27.048  1.00  0.00     0.010 A 
ATOM     32  C   UNL A   1      40.641  25.040  27.967  1.00  0.00    -0.014 A 
BRANCH  32  33
ATOM     33  C   UNL A   1      41.312  26.305  28.391  1.00  0.00     0.031 A 
ATOM     34  C   UNL A   1      40.540  27.406  29.061  1.00  0.00     0.074 A 
ATOM     35  C   UNL A   1      42.623  26.484  28.111  1.00  0.00     0.049 A 
ATOM     36  N   UNL A   1      40.885  28.651  29.272  1.00  0.00    -0.248 NA
ATOM     37  C   UNL A   1      39.198  27.060  29.549  1.00  0.00     0.031 C 
ATOM     38  C   UNL A   1      43.505  25.481  27.504  1.00  0.00     0.029 A 
ATOM     39  N   UNL A   1      43.443  27.575  28.276  1.00  0.00    -0.354 N 
ATOM     40  C   UNL A   1      39.795  29.250  29.896  1.00  0.00     0.074 A 
ATOM     41  C   UNL A   1      38.769  28.232  30.003  1.00  0.00     0.031 C 
ATOM     42  C   UNL A   1      44.732  25.998  27.356  1.00  0.00     0.029 A 
ATOM     43  C   UNL A   1      44.706  27.397  27.755  1.00  0.00     0.049 A 
ATOM     44  H   UNL A   1      43.154  28.404  28.723  1.00  0.00     0.167 HD
ATOM     45  C   UNL A   1      39.670  30.529  30.335  1.00  0.00     0.034 A 
ATOM     46  C   UNL A   1      45.715  28.270  27.555  1.00  0.00     0.034 A 
ATOM     47  C   UNL A   1      40.707  31.530  30.211  1.00  0.00     0.049 A 
ATOM     48  C   UNL A   1      45.515  29.707  27.958  1.00  0.00     0.074 A 
ATOM     49  C   UNL A   1      40.678  32.859  30.601  1.00  0.00     0.029 A 
ATOM     50  N   UNL A   1      41.963  31.314  29.655  1.00  0.00    -0.354 N 
ATOM     51  N   UNL A   1      44.460  30.275  28.498  1.00  0.00    -0.248 NA
ATOM     52  C   UNL A   1      46.639  30.621  27.724  1.00  0.00     0.031 C 
ATOM     53  C   UNL A   1      41.884  33.460  30.220  1.00  0.00     0.029 A 
ATOM     54  C   UNL A   1      42.705  32.488  29.673  1.00  0.00     0.049 A 
ATOM     55  H   UNL A   1      42.282  30.452  29.301  1.00  0.00     0.167 HD
ATOM     56  C   UNL A   1      44.810  31.606  28.699  1.00  0.00     0.074 A 
ATOM     57  C   UNL A   1      46.177  31.748  28.244  1.00  0.00     0.031 C 
ATOM     58  C   UNL A   1      44.068  32.621  29.212  1.00  0.00     0.034 A 
BRANCH  45  59
ATOM     59  C   UNL A   1      38.343  30.933  30.941  1.00  0.00     0.023 A 
ATOM     60  C   UNL A   1      37.319  31.504  30.166  1.00  0.00     0.031 A 
ATOM     61  C   UNL A   1      38.105  30.761  32.317  1.00  0.00     0.131 A 
ATOM     62  C   UNL A   1      36.138  31.948  30.783  1.00  0.00     0.055 A 
ATOM     63  C   UNL A   1      36.894  31.126  32.909  1.00  0.00     0.041 A 
ATOM     64  F   UNL A   1      39.050  30.238  33.115  1.00  0.00    -0.206 F 
ATOM     65  C   UNL A   1      35.907  31.738  32.144  1.00  0.00     0.022 A 
BRANCH  62  66
ATOM     66  S   UNL A   1      34.970  32.935  29.808  1.00  0.00     0.124 S 
ATOM     67  O   UNL A   1      35.852  33.947  29.230  1.00  0.00    -0.237 OA
ATOM     68  O   UNL A   1      34.425  31.953  28.877  1.00  0.00    -0.237 OA
ATOM     69  O   UNL A   1      34.028  33.438  30.806  1.00  0.00    -0.744 OA
ENDBRANCH  62  66
ENDBRANCH  45  59
BRANCH  46  70
ATOM     70  C   UNL A   1      46.974  27.837  26.876  1.00  0.00     0.023 A 
ATOM     71  C   UNL A   1      47.138  27.981  25.490  1.00  0.00     0.031 A 
ATOM     72  C   UNL A   1      48.011  27.213  27.596  1.00  0.00     0.131 A 
ATOM     73  C   UNL A   1      48.278  27.458  24.859  1.00  0.00     0.055 A 
ATOM     74  C   UNL A   1      49.177  26.760  26.975  1.00  0.00     0.041 A 
ATOM     75  F   UNL A   1      47.910  27.040  28.924  1.00  0.00    -0.206 F 
ATOM     76  C   UNL A   1      49.307  26.865  25.595  1.00  0.00     0.022 A 
BRANCH  73  77
ATOM     77  S   UNL A   1      48.340  27.452  23.047  1.00  0.00     0.124 S 
ATOM     78  O   UNL A   1      49.615  28.113  22.792  1.00  0.00    -0.237 OA
ATOM     79  O   UNL A   1      48.284  26.025  22.747  1.00  0.00    -0.237 OA
ATOM     80  O   UNL A   1      47.153  28.214  22.664  1.00  0.00    -0.744 OA
ENDBRANCH  73  77
ENDBRANCH  46  70
BRANCH  58  81
ATOM     81  C   UNL A   1      44.756  33.958  29.362  1.00  0.00     0.023 A 
ATOM     82  C   UNL A   1      44.747  34.919  28.334  1.00  0.00     0.031 A 
ATOM     83  C   UNL A   1      45.470  34.255  30.536  1.00  0.00     0.131 A 
ATOM     84  C   UNL A   1      45.500  36.094  28.471  1.00  0.00     0.055 A 
ATOM     85  C   UNL A   1      46.155  35.460  30.696  1.00  0.00     0.041 A 
ATOM     86  F   UNL A   1      45.520  33.374  31.548  1.00  0.00    -0.206 F 
ATOM     87  C   UNL A   1      46.189  36.379  29.652  1.00  0.00     0.022 A 
BRANCH  84  88
ATOM     88  S   UNL A   1      45.675  37.186  27.032  1.00  0.00     0.124 S 
ATOM     89  O   UNL A   1      46.108  36.254  25.996  1.00  0.00    -0.237 OA
ATOM     90  O   UNL A   1      44.326  37.723  26.883  1.00  0.00    -0.237 OA
ATOM     91  O   UNL A   1      46.683  38.155  27.458  1.00  0.00    -0.744 OA
ENDBRANCH  84  88
ENDBRANCH  58  81
ENDBRANCH  32  33
ENDBRANCH  25  27
ENDBRANCH  24  25
ENDBRANCH  23  24
ENDBRANCH   1  23
TORSDOF 18
ENDMDL
MODEL 2
REMARK VINA RESULT:     -11.5      4.906     10.061
REMARK SMILES CC[C@@](C)(NC(=O)N1CCC[C@H]1C1CCCC1)C(=O)OCCOC(=O)c1ccc(-c2c3nc(c(-c4cc(S(=O)(=O)[O-])ccc4F)c4ccc([nH]4)c(-c4cc(S(=O)(=O)[O-])ccc4F)c4nc(c(-c5cc(S(=O)(=O)[O-])ccc5F)c5ccc2[nH]5)C=C4)C=C3)cc1
REMARK SMILES IDX 21 1 20 2 18 3 19 4 3 5 4 6 2 7 1 8 5 9 6 10 7 12 8 13 9 14
REMARK SMILES IDX 12 15 10 16 11 17 13 18 14 19 17 20 15 21 16 22 22 23 23 24
REMARK SMILES IDX 24 25 25 26 26 27 27 28 88 29 28 30 87 31 29 32 30 33 31 34
REMARK SMILES IDX 81 35 32 36 86 37 80 38 82 39 33 40 85 41 79 42 78 43 34 45
REMARK SMILES IDX 66 46 46 47 65 48 47 49 50 50 64 51 83 52 48 53 49 54 63 56
REMARK SMILES IDX 84 57 51 58 35 59 36 60 44 61 37 62 43 63 45 64 42 65 38 66
REMARK SMILES IDX 39 67 40 68 41 69 67 70 68 71 76 72 69 73 75 74 77 75 74 76
REMARK SMILES IDX 70 77 71 78 72 79 73 80 52 81 53 82 61 83 54 84 60 85 62 86
REMARK SMILES IDX 59 87 55 88 56 89 57 90 58 91
REMARK H PARENT 5 11 82 44 50 55
REMARK Flexibility Score: inf
ROOT
ATOM      1  C   UNL A   1      31.357  30.458  25.502  1.00  0.00     0.274 C 
ENDROOT
BRANCH   1   2
ATOM      2  O   UNL A   1      31.179  29.175  24.841  1.00  0.00    -0.460 OA
BRANCH   2   3
ATOM      3  C   UNL A   1      32.252  28.623  24.225  1.00  0.00     0.331 C 
ATOM      4  O   UNL A   1      33.015  29.333  23.573  1.00  0.00    -0.249 OA
BRANCH   3   5
ATOM      5  C   UNL A   1      32.381  27.016  24.260  1.00  0.00     0.136 C 
ATOM      6  C   UNL A   1      33.891  26.861  24.607  1.00  0.00     0.047 C 
BRANCH   5   7
ATOM      7  C   UNL A   1      31.535  26.466  25.462  1.00  0.00     0.037 C 
ATOM      8  C   UNL A   1      30.209  25.759  25.146  1.00  0.00     0.007 C 
ENDBRANCH   5   7
BRANCH   5   9
ATOM      9  N   UNL A   1      32.232  25.995  23.099  1.00  0.00    -0.322 N 
ATOM     10  C   UNL A   1      33.118  25.282  22.327  1.00  0.00     0.318 C 
ATOM     11  H   UNL A   1      31.292  25.820  22.864  1.00  0.00     0.166 HD
ATOM     12  O   UNL A   1      33.375  25.681  21.194  1.00  0.00    -0.249 OA
BRANCH  10  13
ATOM     13  N   UNL A   1      33.500  24.031  22.786  1.00  0.00    -0.322 N 
ATOM     14  C   UNL A   1      32.944  22.869  22.178  1.00  0.00     0.122 C 
ATOM     15  C   UNL A   1      33.693  23.752  24.225  1.00  0.00     0.090 C 
ATOM     16  C   UNL A   1      31.838  22.622  23.176  1.00  0.00     0.024 C 
ATOM     17  C   UNL A   1      32.502  22.814  24.527  1.00  0.00     0.027 C 
BRANCH  15  18
ATOM     18  C   UNL A   1      34.979  22.989  24.641  1.00  0.00     0.012 C 
ATOM     19  C   UNL A   1      36.100  22.857  23.606  1.00  0.00     0.006 C 
ATOM     20  C   UNL A   1      35.717  23.543  25.850  1.00  0.00     0.006 C 
ATOM     21  C   UNL A   1      37.260  22.289  24.398  1.00  0.00     0.000 C 
ATOM     22  C   UNL A   1      37.110  22.899  25.789  1.00  0.00     0.000 C 
ENDBRANCH  15  18
ENDBRANCH  10  13
ENDBRANCH   5   9
ENDBRANCH   3   5
ENDBRANCH   2   3
ENDBRANCH   1   2
BRANCH   1  23
ATOM     23  C   UNL A   1      32.091  30.392  26.859  1.00  0.00     0.275 C 
BRANCH  23  24
ATOM     24  O   UNL A   1      33.457  30.812  26.723  1.00  0.00    -0.458 OA
BRANCH  24  25
ATOM     25  C   UNL A   1      33.987  31.608  27.694  1.00  0.00     0.338 C 
ATOM     26  O   UNL A   1      33.442  32.545  28.240  1.00  0.00    -0.246 OA
BRANCH  25  27
ATOM     27  C   UNL A   1      35.373  31.143  27.993  1.00  0.00     0.060 A 
ATOM     28  C   UNL A   1      36.396  32.066  28.207  1.00  0.00     0.016 A 
ATOM     29  C   UNL A   1      35.664  29.782  28.087  1.00  0.00     0.016 A 
ATOM     30  C   UNL A   1      37.682  31.655  28.556  1.00  0.00     0.010 A 
ATOM     31  C   UNL A   1      36.934  29.369  28.529  1.00  0.00     0.010 A 
ATOM     32  C   UNL A   1      37.941  30.307  28.814  1.00  0.00    -0.014 A 
BRANCH  32  33
ATOM     33  C   UNL A   1      39.201  29.904  29.508  1.00  0.00     0.031 A 
ATOM     34  C   UNL A   1      40.092  28.836  28.939  1.00  0.00     0.074 A 
ATOM     35  C   UNL A   1      39.510  30.467  30.698  1.00  0.00     0.049 A 
ATOM     36  N   UNL A   1      41.076  28.187  29.508  1.00  0.00    -0.248 NA
ATOM     37  C   UNL A   1      39.834  28.442  27.547  1.00  0.00     0.031 C 
ATOM     38  C   UNL A   1      38.758  31.546  31.345  1.00  0.00     0.029 A 
ATOM     39  N   UNL A   1      40.522  30.200  31.589  1.00  0.00    -0.354 N 
ATOM     40  C   UNL A   1      41.543  27.287  28.556  1.00  0.00     0.074 A 
ATOM     41  C   UNL A   1      40.712  27.461  27.381  1.00  0.00     0.031 C 
ATOM     42  C   UNL A   1      39.333  31.851  32.516  1.00  0.00     0.029 A 
ATOM     43  C   UNL A   1      40.430  30.924  32.758  1.00  0.00     0.049 A 
ATOM     44  H   UNL A   1      41.243  29.554  31.409  1.00  0.00     0.167 HD
ATOM     45  C   UNL A   1      42.568  26.402  28.659  1.00  0.00     0.034 A 
ATOM     46  C   UNL A   1      41.101  30.819  33.923  1.00  0.00     0.034 A 
ATOM     47  C   UNL A   1      43.379  26.243  29.846  1.00  0.00     0.049 A 
ATOM     48  C   UNL A   1      42.166  29.761  34.048  1.00  0.00     0.074 A 
ATOM     49  C   UNL A   1      44.428  25.364  30.066  1.00  0.00     0.029 A 
ATOM     50  N   UNL A   1      43.237  26.980  31.016  1.00  0.00    -0.354 N 
ATOM     51  N   UNL A   1      42.563  28.880  33.159  1.00  0.00    -0.248 NA
ATOM     52  C   UNL A   1      42.872  29.684  35.332  1.00  0.00     0.031 C 
ATOM     53  C   UNL A   1      44.869  25.521  31.385  1.00  0.00     0.029 A 
ATOM     54  C   UNL A   1      44.160  26.560  31.964  1.00  0.00     0.049 A 
ATOM     55  H   UNL A   1      42.576  27.698  31.153  1.00  0.00     0.167 HD
ATOM     56  C   UNL A   1      43.590  28.167  33.768  1.00  0.00     0.074 A 
ATOM     57  C   UNL A   1      43.764  28.736  35.088  1.00  0.00     0.031 C 
ATOM     58  C   UNL A   1      44.323  27.132  33.281  1.00  0.00     0.034 A 
BRANCH  45  59
ATOM     59  C   UNL A   1      42.835  25.500  27.474  1.00  0.00     0.023 A 
ATOM     60  C   UNL A   1      42.227  24.238  27.353  1.00  0.00     0.031 A 
ATOM     61  C   UNL A   1      43.723  25.899  26.458  1.00  0.00     0.131 A 
ATOM     62  C   UNL A   1      42.570  23.394  26.284  1.00  0.00     0.055 A 
ATOM     63  C   UNL A   1      43.994  25.088  25.353  1.00  0.00     0.041 A 
ATOM     64  F   UNL A   1      44.350  27.084  26.524  1.00  0.00    -0.206 F 
ATOM     65  C   UNL A   1      43.428  23.821  25.269  1.00  0.00     0.022 A 
BRANCH  62  66
ATOM     66  S   UNL A   1      41.992  21.675  26.319  1.00  0.00     0.124 S 
ATOM     67  O   UNL A   1      42.243  21.308  27.711  1.00  0.00    -0.237 OA
ATOM     68  O   UNL A   1      40.591  21.804  25.934  1.00  0.00    -0.237 OA
ATOM     69  O   UNL A   1      42.848  21.005  25.341  1.00  0.00    -0.744 OA
ENDBRANCH  62  66
ENDBRANCH  45  59
BRANCH  46  70
ATOM     70  C   UNL A   1      40.742  31.680  35.091  1.00  0.00     0.023 A 
ATOM     71  C   UNL A   1      39.670  31.350  35.934  1.00  0.00     0.031 A 
ATOM     72  C   UNL A   1      41.427  32.884  35.345  1.00  0.00     0.131 A 
ATOM     73  C   UNL A   1      39.276  32.236  36.949  1.00  0.00     0.055 A 
ATOM     74  C   UNL A   1      41.079  33.726  36.403  1.00  0.00     0.041 A 
ATOM     75  F   UNL A   1      42.457  33.259  34.569  1.00  0.00    -0.206 F 
ATOM     76  C   UNL A   1      39.986  33.412  37.201  1.00  0.00     0.022 A 
BRANCH  73  77
ATOM     77  S   UNL A   1      37.746  31.887  37.859  1.00  0.00     0.124 S 
ATOM     78  O   UNL A   1      36.838  32.885  37.303  1.00  0.00    -0.237 OA
ATOM     79  O   UNL A   1      37.483  30.502  37.487  1.00  0.00    -0.237 OA
ATOM     80  O   UNL A   1      38.126  32.096  39.255  1.00  0.00    -0.744 OA
ENDBRANCH  73  77
ENDBRANCH  46  70
BRANCH  58  81
ATOM     81  C   UNL A   1      45.423  26.600  34.171  1.00  0.00     0.023 A 
ATOM     82  C   UNL A   1      45.233  25.480  35.000  1.00  0.00     0.031 A 
ATOM     83  C   UNL A   1      46.665  27.256  34.223  1.00  0.00     0.131 A 
ATOM     84  C   UNL A   1      46.240  25.096  35.897  1.00  0.00     0.055 A 
ATOM     85  C   UNL A   1      47.691  26.823  35.064  1.00  0.00     0.041 A 
ATOM     86  F   UNL A   1      46.903  28.335  33.461  1.00  0.00    -0.206 F 
ATOM     87  C   UNL A   1      47.476  25.749  35.921  1.00  0.00     0.022 A 
BRANCH  84  88
ATOM     88  S   UNL A   1      45.867  23.814  37.127  1.00  0.00     0.124 S 
ATOM     89  O   UNL A   1      47.202  23.358  37.503  1.00  0.00    -0.237 OA
ATOM     90  O   UNL A   1      45.138  24.562  38.145  1.00  0.00    -0.237 OA
ATOM     91  O   UNL A   1      45.067  22.845  36.379  1.00  0.00    -0.744 OA
ENDBRANCH  84  88
ENDBRANCH  58  81
ENDBRANCH  32  33
ENDBRANCH  25  27
ENDBRANCH  24  25
ENDBRANCH  23  24
ENDBRANCH   1  23
TORSDOF 18
ENDMDL
MODEL 3
REMARK VINA RESULT:     -11.5      1.774      2.275
REMARK SMILES CC[C@@](C)(NC(=O)N1CCC[C@H]1C1CCCC1)C(=O)OCCOC(=O)c1ccc(-c2c3nc(c(-c4cc(S(=O)(=O)[O-])ccc4F)c4ccc([nH]4)c(-c4cc(S(=O)(=O)[O-])ccc4F)c4nc(c(-c5cc(S(=O)(=O)[O-])ccc5F)c5ccc2[nH]5)C=C4)C=C3)cc1
REMARK SMILES IDX 21 1 20 2 18 3 19 4 3 5 4 6 2 7 1 8 5 9 6 10 7 12 8 13 9 14
REMARK SMILES IDX 12 15 10 16 11 17 13 18 14 19 17 20 15 21 16 22 22 23 23 24
REMARK SMILES IDX 24 25 25 26 26 27 27 28 88 29 28 30 87 31 29 32 30 33 31 34
REMARK SMILES IDX 81 35 32 36 86 37 80 38 82 39 33 40 85 41 79 42 78 43 34 45
REMARK SMILES IDX 66 46 46 47 65 48 47 49 50 50 64 51 83 52 48 53 49 54 63 56
REMARK SMILES IDX 84 57 51 58 35 59 36 60 44 61 37 62 43 63 45 64 42 65 38 66
REMARK SMILES IDX 39 67 40 68 41 69 67 70 68 71 76 72 69 73 75 74 77 75 74 76
REMARK SMILES IDX 70 77 71 78 72 79 73 80 52 81 53 82 61 83 54 84 60 85 62 86
REMARK SMILES IDX 59 87 55 88 56 89 57 90 58 91
REMARK H PARENT 5 11 82 44 50 55
REMARK Flexibility Score: inf
ROOT
ATOM      1  C   UNL A   1      35.728  19.990  24.984  1.00  0.00     0.274 C 
ENDROOT
BRANCH   1   2
ATOM      2  O   UNL A   1      35.208  21.181  25.637  1.00  0.00    -0.460 OA
BRANCH   2   3
ATOM      3  C   UNL A   1      33.865  21.292  25.780  1.00  0.00     0.331 C 
ATOM      4  O   UNL A   1      33.191  20.293  26.023  1.00  0.00    -0.249 OA
BRANCH   3   5
ATOM      5  C   UNL A   1      33.204  22.729  25.465  1.00  0.00     0.136 C 
ATOM      6  C   UNL A   1      33.800  23.575  26.629  1.00  0.00     0.047 C 
BRANCH   5   7
ATOM      7  C   UNL A   1      33.783  23.267  24.110  1.00  0.00     0.037 C 
ATOM      8  C   UNL A   1      33.261  22.648  22.806  1.00  0.00     0.007 C 
ENDBRANCH   5   7
BRANCH   5   9
ATOM      9  N   UNL A   1      31.711  23.153  25.518  1.00  0.00    -0.322 N 
ATOM     10  C   UNL A   1      30.970  23.965  26.344  1.00  0.00     0.318 C 
ATOM     11  H   UNL A   1      31.174  22.750  24.798  1.00  0.00     0.166 HD
ATOM     12  O   UNL A   1      30.273  23.451  27.216  1.00  0.00    -0.249 OA
BRANCH  10  13
ATOM     13  N   UNL A   1      30.879  25.307  26.006  1.00  0.00    -0.322 N 
ATOM     14  C   UNL A   1      29.626  25.831  25.581  1.00  0.00     0.122 C 
ATOM     15  C   UNL A   1      31.949  25.996  25.253  1.00  0.00     0.090 C 
ATOM     16  C   UNL A   1      29.852  25.727  24.091  1.00  0.00     0.024 C 
ATOM     17  C   UNL A   1      31.264  26.244  23.889  1.00  0.00     0.027 C 
BRANCH  15  18
ATOM     18  C   UNL A   1      32.415  27.382  25.777  1.00  0.00     0.012 C 
ATOM     19  C   UNL A   1      31.712  27.953  27.012  1.00  0.00     0.006 C 
ATOM     20  C   UNL A   1      33.882  27.484  26.161  1.00  0.00     0.006 C 
ATOM     21  C   UNL A   1      32.552  29.159  27.380  1.00  0.00     0.000 C 
ATOM     22  C   UNL A   1      33.978  28.763  27.008  1.00  0.00     0.000 C 
ENDBRANCH  15  18
ENDBRANCH  10  13
ENDBRANCH   5   9
ENDBRANCH   3   5
ENDBRANCH   2   3
ENDBRANCH   1   2
BRANCH   1  23
ATOM     23  C   UNL A   1      37.254  19.995  24.749  1.00  0.00     0.275 C 
BRANCH  23  24
ATOM     24  O   UNL A   1      37.876  21.091  25.436  1.00  0.00    -0.458 OA
BRANCH  24  25
ATOM     25  C   UNL A   1      39.144  20.923  25.904  1.00  0.00     0.338 C 
ATOM     26  O   UNL A   1      39.829  19.926  25.799  1.00  0.00    -0.246 OA
BRANCH  25  27
ATOM     27  C   UNL A   1      39.577  22.180  26.581  1.00  0.00     0.060 A 
ATOM     28  C   UNL A   1      40.511  22.139  27.616  1.00  0.00     0.016 A 
ATOM     29  C   UNL A   1      39.073  23.417  26.177  1.00  0.00     0.016 A 
ATOM     30  C   UNL A   1      40.980  23.307  28.215  1.00  0.00     0.010 A 
ATOM     31  C   UNL A   1      39.613  24.599  26.716  1.00  0.00     0.010 A 
ATOM     32  C   UNL A   1      40.609  24.554  27.708  1.00  0.00    -0.014 A 
BRANCH  32  33
ATOM     33  C   UNL A   1      41.356  25.783  28.111  1.00  0.00     0.031 A 
ATOM     34  C   UNL A   1      40.668  26.907  28.834  1.00  0.00     0.074 A 
ATOM     35  C   UNL A   1      42.656  25.909  27.764  1.00  0.00     0.049 A 
ATOM     36  N   UNL A   1      41.079  28.132  29.042  1.00  0.00    -0.248 NA
ATOM     37  C   UNL A   1      39.340  26.613  29.388  1.00  0.00     0.031 C 
ATOM     38  C   UNL A   1      43.461  24.878  27.100  1.00  0.00     0.029 A 
ATOM     39  N   UNL A   1      43.531  26.961  27.899  1.00  0.00    -0.354 N 
ATOM     40  C   UNL A   1      40.050  28.769  29.729  1.00  0.00     0.074 A 
ATOM     41  C   UNL A   1      38.987  27.795  29.877  1.00  0.00     0.031 C 
ATOM     42  C   UNL A   1      44.700  25.343  26.893  1.00  0.00     0.029 A 
ATOM     43  C   UNL A   1      44.757  26.736  27.310  1.00  0.00     0.049 A 
ATOM     44  H   UNL A   1      43.303  27.795  28.371  1.00  0.00     0.167 HD
ATOM     45  C   UNL A   1      40.004  30.046  30.189  1.00  0.00     0.034 A 
ATOM     46  C   UNL A   1      45.791  27.567  27.068  1.00  0.00     0.034 A 
ATOM     47  C   UNL A   1      41.076  31.002  30.023  1.00  0.00     0.049 A 
ATOM     48  C   UNL A   1      45.675  29.006  27.498  1.00  0.00     0.074 A 
ATOM     49  C   UNL A   1      41.127  32.326  30.430  1.00  0.00     0.029 A 
ATOM     50  N   UNL A   1      42.292  30.740  29.399  1.00  0.00    -0.354 N 
ATOM     51  N   UNL A   1      44.676  29.610  28.099  1.00  0.00    -0.248 NA
ATOM     52  C   UNL A   1      46.825  29.873  27.216  1.00  0.00     0.031 C 
ATOM     53  C   UNL A   1      42.336  32.879  29.993  1.00  0.00     0.029 A 
ATOM     54  C   UNL A   1      43.084  31.880  29.392  1.00  0.00     0.049 A 
ATOM     55  H   UNL A   1      42.553  29.871  29.018  1.00  0.00     0.167 HD
ATOM     56  C   UNL A   1      45.095  30.922  28.298  1.00  0.00     0.074 A 
ATOM     57  C   UNL A   1      46.441  31.012  27.773  1.00  0.00     0.031 C 
ATOM     58  C   UNL A   1      44.425  31.961  28.861  1.00  0.00     0.034 A 
BRANCH  45  59
ATOM     59  C   UNL A   1      38.730  30.498  30.869  1.00  0.00     0.023 A 
ATOM     60  C   UNL A   1      37.694  31.126  30.157  1.00  0.00     0.031 A 
ATOM     61  C   UNL A   1      38.556  30.315  32.253  1.00  0.00     0.131 A 
ATOM     62  C   UNL A   1      36.567  31.611  30.840  1.00  0.00     0.055 A 
ATOM     63  C   UNL A   1      37.394  30.725  32.913  1.00  0.00     0.041 A 
ATOM     64  F   UNL A   1      39.517  29.740  32.994  1.00  0.00    -0.206 F 
ATOM     65  C   UNL A   1      36.398  31.391  32.208  1.00  0.00     0.022 A 
BRANCH  62  66
ATOM     66  S   UNL A   1      35.395  32.663  29.940  1.00  0.00     0.124 S 
ATOM     67  O   UNL A   1      34.600  33.219  31.033  1.00  0.00    -0.237 OA
ATOM     68  O   UNL A   1      36.276  33.598  29.249  1.00  0.00    -0.237 OA
ATOM     69  O   UNL A   1      34.682  31.723  29.077  1.00  0.00    -0.744 OA
ENDBRANCH  62  66
ENDBRANCH  45  59
BRANCH  46  70
ATOM     70  C   UNL A   1      46.993  27.090  26.318  1.00  0.00     0.023 A 
ATOM     71  C   UNL A   1      48.026  26.398  26.969  1.00  0.00     0.031 A 
ATOM     72  C   UNL A   1      47.157  27.374  24.949  1.00  0.00     0.131 A 
ATOM     73  C   UNL A   1      49.198  26.067  26.269  1.00  0.00     0.055 A 
ATOM     74  C   UNL A   1      48.292  26.978  24.240  1.00  0.00     0.041 A 
ATOM     75  F   UNL A   1      46.206  28.040  24.273  1.00  0.00    -0.206 F 
ATOM     76  C   UNL A   1      49.329  26.336  24.905  1.00  0.00     0.022 A 
BRANCH  73  77
ATOM     77  S   UNL A   1      50.600  25.390  27.200  1.00  0.00     0.124 S 
ATOM     78  O   UNL A   1      51.498  24.981  26.126  1.00  0.00    -0.237 OA
ATOM     79  O   UNL A   1      51.024  26.542  27.988  1.00  0.00    -0.237 OA
ATOM     80  O   UNL A   1      50.004  24.297  27.966  1.00  0.00    -0.744 OA
ENDBRANCH  73  77
ENDBRANCH  46  70
BRANCH  58  81
ATOM     81  C   UNL A   1      45.178  33.265  28.991  1.00  0.00     0.023 A 
ATOM     82  C   UNL A   1      45.270  34.180  27.927  1.00  0.00     0.031 A 
ATOM     83  C   UNL A   1      45.853  33.572  30.185  1.00  0.00     0.131 A 
ATOM     84  C   UNL A   1      46.079  35.319  28.053  1.00  0.00     0.055 A 
ATOM     85  C   UNL A   1      46.597  34.745  30.330  1.00  0.00     0.041 A 
ATOM     86  F   UNL A   1      45.809  32.734  31.232  1.00  0.00    -0.206 F 
ATOM     87  C   UNL A   1      46.728  35.617  29.254  1.00  0.00     0.022 A 
BRANCH  84  88
ATOM     88  S   UNL A   1      46.380  36.338  26.581  1.00  0.00     0.124 S 
ATOM     89  O   UNL A   1      45.405  37.411  26.753  1.00  0.00    -0.237 OA
ATOM     90  O   UNL A   1      47.779  36.717  26.746  1.00  0.00    -0.237 OA
ATOM     91  O   UNL A   1      46.111  35.426  25.472  1.00  0.00    -0.744 OA
ENDBRANCH  84  88
ENDBRANCH  58  81
ENDBRANCH  32  33
ENDBRANCH  25  27
ENDBRANCH  24  25
ENDBRANCH  23  24
ENDBRANCH   1  23
TORSDOF 18
ENDMDL
