MODEL 1
REMARK VINA RESULT:      -9.2      0.000      0.000
REMARK SMILES Nc1c(Nc2ccc(I)cc2)ncnc1Nc1ccc(C(=O)OCCOC(=O)c2ccc(-c3c4nc(c(-c5cc(S(=O)(=O)[O-])ccc5F)c5ccc([nH]5)c(-c5cc(S(=O)(=O)[O-])ccc5F)c5nc(c(-c6cc(S(=O)(=O)[O-])ccc6F)c6ccc3[nH]6)C=C5)C=C4)cc2)cc1
REMARK SMILES IDX 24 1 23 2 21 3 22 4 20 5 17 6 18 7 93 8 19 9 92 10 16 11
REMARK SMILES IDX 15 13 2 14 3 15 12 16 14 17 13 18 1 19 4 22 5 24 6 25 11 26
REMARK SMILES IDX 7 27 10 28 8 29 9 30 25 31 26 32 27 33 28 34 29 35 30 36
REMARK SMILES IDX 91 37 31 38 90 39 32 40 33 41 34 42 84 43 35 44 89 45 83 46
REMARK SMILES IDX 85 47 36 48 88 49 82 50 81 51 37 53 69 54 49 55 68 56 50 57
REMARK SMILES IDX 53 58 67 59 86 60 51 61 52 62 66 64 87 65 54 66 38 67 39 68
REMARK SMILES IDX 47 69 40 70 46 71 48 72 45 73 41 74 42 75 43 76 44 77 70 78
REMARK SMILES IDX 71 79 79 80 72 81 78 82 80 83 77 84 73 85 74 86 75 87 76 88
REMARK SMILES IDX 55 89 56 90 64 91 57 92 63 93 65 94 62 95 58 96 59 97 60 98
REMARK SMILES IDX 61 99
REMARK H PARENT 16 12 1 20 1 21 4 23 85 52 53 63
REMARK Flexibility Score: inf
ROOT
ATOM      1  C   UNL A   1      32.842  35.979  31.418  1.00  0.00     0.275 C 
ENDROOT
BRANCH   1   2
ATOM      2  O   UNL A   1      33.357  34.958  32.295  1.00  0.00    -0.458 OA
BRANCH   2   3
ATOM      3  C   UNL A   1      34.338  35.374  33.132  1.00  0.00     0.338 C 
ATOM      4  O   UNL A   1      34.413  36.463  33.681  1.00  0.00    -0.246 OA
BRANCH   3   5
ATOM      5  C   UNL A   1      35.310  34.289  33.380  1.00  0.00     0.060 A 
ATOM      6  C   UNL A   1      36.893  32.059  33.980  1.00  0.00     0.040 A 
ATOM      7  C   UNL A   1      35.983  32.009  32.922  1.00  0.00     0.027 A 
ATOM      8  C   UNL A   1      37.036  33.252  34.706  1.00  0.00     0.027 A 
ATOM      9  C   UNL A   1      35.176  33.106  32.646  1.00  0.00     0.018 A 
ATOM     10  C   UNL A   1      36.264  34.377  34.394  1.00  0.00     0.018 A 
BRANCH   6  11
ATOM     11  N   UNL A   1      37.436  30.843  34.453  1.00  0.00    -0.338 N 
ATOM     12  H   UNL A   1      37.330  30.607  35.402  1.00  0.00     0.168 HD
BRANCH  11  13
ATOM     13  C   UNL A   1      38.134  29.951  33.590  1.00  0.00     0.159 A 
ATOM     14  C   UNL A   1      39.533  29.948  33.594  1.00  0.00     0.118 A 
ATOM     15  C   UNL A   1      40.124  29.020  32.722  1.00  0.00     0.159 A 
ATOM     16  N   UNL A   1      39.410  28.257  31.872  1.00  0.00    -0.217 NA
ATOM     17  N   UNL A   1      37.412  29.152  32.779  1.00  0.00    -0.217 NA
ATOM     18  C   UNL A   1      38.086  28.369  31.941  1.00  0.00     0.226 A 
BRANCH  14  19
ATOM     19  N   UNL A   1      40.304  30.737  34.463  1.00  0.00    -0.393 N 
ATOM     20  H   UNL A   1      40.688  30.340  35.278  1.00  0.00     0.156 HD
ATOM     21  H   UNL A   1      40.461  31.687  34.257  1.00  0.00     0.156 HD
ENDBRANCH  14  19
BRANCH  15  22
ATOM     22  N   UNL A   1      41.533  28.864  32.770  1.00  0.00    -0.338 N 
ATOM     23  H   UNL A   1      42.068  29.497  32.238  1.00  0.00     0.168 HD
BRANCH  22  24
ATOM     24  C   UNL A   1      42.242  27.896  33.500  1.00  0.00     0.040 A 
ATOM     25  C   UNL A   1      41.570  27.136  34.465  1.00  0.00     0.027 A 
ATOM     26  C   UNL A   1      43.575  27.579  33.209  1.00  0.00     0.027 A 
ATOM     27  C   UNL A   1      42.205  26.068  35.106  1.00  0.00     0.017 A 
ATOM     28  C   UNL A   1      44.222  26.522  33.855  1.00  0.00     0.017 A 
ATOM     29  C   UNL A   1      43.529  25.762  34.793  1.00  0.00     0.013 A 
ATOM     30  I   UNL A   1      44.458  24.144  35.707  1.00  0.00    -0.044 I 
ENDBRANCH  22  24
ENDBRANCH  15  22
ENDBRANCH  11  13
ENDBRANCH   6  11
ENDBRANCH   3   5
ENDBRANCH   2   3
ENDBRANCH   1   2
BRANCH   1  31
ATOM     31  C   UNL A   1      33.083  35.601  29.957  1.00  0.00     0.275 C 
BRANCH  31  32
ATOM     32  O   UNL A   1      33.229  34.174  29.843  1.00  0.00    -0.458 OA
BRANCH  32  33
ATOM     33  C   UNL A   1      33.695  33.716  28.659  1.00  0.00     0.338 C 
ATOM     34  O   UNL A   1      33.108  33.744  27.586  1.00  0.00    -0.246 OA
BRANCH  33  35
ATOM     35  C   UNL A   1      35.049  33.143  28.823  1.00  0.00     0.060 A 
ATOM     36  C   UNL A   1      35.224  31.816  29.210  1.00  0.00     0.016 A 
ATOM     37  C   UNL A   1      36.166  33.968  28.682  1.00  0.00     0.016 A 
ATOM     38  C   UNL A   1      36.489  31.345  29.570  1.00  0.00     0.010 A 
ATOM     39  C   UNL A   1      37.447  33.458  28.930  1.00  0.00     0.010 A 
ATOM     40  C   UNL A   1      37.626  32.153  29.422  1.00  0.00    -0.014 A 
BRANCH  40  41
ATOM     41  C   UNL A   1      38.982  31.666  29.823  1.00  0.00     0.031 A 
ATOM     42  C   UNL A   1      39.751  32.380  30.911  1.00  0.00     0.074 A 
ATOM     43  C   UNL A   1      39.537  30.579  29.245  1.00  0.00     0.049 A 
ATOM     44  N   UNL A   1      41.012  32.265  31.251  1.00  0.00    -0.248 NA
ATOM     45  C   UNL A   1      39.008  33.365  31.711  1.00  0.00     0.031 C 
ATOM     46  C   UNL A   1      38.904  29.741  28.224  1.00  0.00     0.029 A 
ATOM     47  N   UNL A   1      40.759  29.980  29.445  1.00  0.00    -0.354 N 
ATOM     48  C   UNL A   1      41.226  33.205  32.253  1.00  0.00     0.074 A 
ATOM     49  C   UNL A   1      39.966  33.884  32.466  1.00  0.00     0.031 C 
ATOM     50  C   UNL A   1      39.709  28.705  27.941  1.00  0.00     0.029 A 
ATOM     51  C   UNL A   1      40.961  28.859  28.673  1.00  0.00     0.049 A 
ATOM     52  H   UNL A   1      41.427  30.322  30.082  1.00  0.00     0.167 HD
ATOM     53  C   UNL A   1      42.369  33.481  32.931  1.00  0.00     0.034 A 
ATOM     54  C   UNL A   1      42.042  28.066  28.528  1.00  0.00     0.034 A 
ATOM     55  C   UNL A   1      43.606  32.760  32.760  1.00  0.00     0.049 A 
ATOM     56  C   UNL A   1      43.311  28.413  29.255  1.00  0.00     0.074 A 
ATOM     57  C   UNL A   1      44.820  32.965  33.394  1.00  0.00     0.029 A 
ATOM     58  N   UNL A   1      43.782  31.675  31.911  1.00  0.00    -0.354 N 
ATOM     59  N   UNL A   1      43.537  29.395  30.095  1.00  0.00    -0.248 NA
ATOM     60  C   UNL A   1      44.482  27.566  28.986  1.00  0.00     0.031 C 
ATOM     61  C   UNL A   1      45.739  32.033  32.901  1.00  0.00     0.029 A 
ATOM     62  C   UNL A   1      45.085  31.211  31.999  1.00  0.00     0.049 A 
ATOM     63  H   UNL A   1      43.084  31.293  31.332  1.00  0.00     0.167 HD
ATOM     64  C   UNL A   1      44.878  29.289  30.448  1.00  0.00     0.074 A 
ATOM     65  C   UNL A   1      45.405  28.135  29.749  1.00  0.00     0.031 C 
ATOM     66  C   UNL A   1      45.606  30.078  31.276  1.00  0.00     0.034 A 
BRANCH  53  67
ATOM     67  C   UNL A   1      42.350  34.648  33.884  1.00  0.00     0.023 A 
ATOM     68  C   UNL A   1      41.962  34.507  35.226  1.00  0.00     0.031 A 
ATOM     69  C   UNL A   1      42.730  35.925  33.434  1.00  0.00     0.131 A 
ATOM     70  C   UNL A   1      41.916  35.635  36.060  1.00  0.00     0.055 A 
ATOM     71  C   UNL A   1      42.744  37.032  34.285  1.00  0.00     0.041 A 
ATOM     72  F   UNL A   1      43.094  36.118  32.156  1.00  0.00    -0.206 F 
ATOM     73  C   UNL A   1      42.327  36.892  35.604  1.00  0.00     0.022 A 
BRANCH  70  74
ATOM     74  S   UNL A   1      41.229  35.458  37.729  1.00  0.00     0.124 S 
ATOM     75  O   UNL A   1      40.199  34.446  37.516  1.00  0.00    -0.237 OA
ATOM     76  O   UNL A   1      42.388  35.034  38.506  1.00  0.00    -0.237 OA
ATOM     77  O   UNL A   1      40.728  36.796  38.038  1.00  0.00    -0.744 OA
ENDBRANCH  70  74
ENDBRANCH  53  67
BRANCH  54  78
ATOM     78  C   UNL A   1      41.993  26.907  27.596  1.00  0.00     0.023 A 
ATOM     79  C   UNL A   1      41.866  25.596  28.080  1.00  0.00     0.031 A 
ATOM     80  C   UNL A   1      42.069  27.096  26.204  1.00  0.00     0.131 A 
ATOM     81  C   UNL A   1      41.829  24.521  27.179  1.00  0.00     0.055 A 
ATOM     82  C   UNL A   1      41.991  26.027  25.310  1.00  0.00     0.041 A 
ATOM     83  F   UNL A   1      42.190  28.332  25.693  1.00  0.00    -0.206 F 
ATOM     84  C   UNL A   1      41.874  24.729  25.797  1.00  0.00     0.022 A 
BRANCH  81  85
ATOM     85  S   UNL A   1      41.738  22.832  27.834  1.00  0.00     0.124 S 
ATOM     86  O   UNL A   1      42.637  22.117  26.936  1.00  0.00    -0.237 OA
ATOM     87  O   UNL A   1      42.207  23.009  29.205  1.00  0.00    -0.237 OA
ATOM     88  O   UNL A   1      40.323  22.493  27.704  1.00  0.00    -0.744 OA
ENDBRANCH  81  85
ENDBRANCH  54  78
BRANCH  66  89
ATOM     89  C   UNL A   1      47.050  29.710  31.478  1.00  0.00     0.023 A 
ATOM     90  C   UNL A   1      47.455  28.913  32.562  1.00  0.00     0.031 A 
ATOM     91  C   UNL A   1      48.027  30.146  30.567  1.00  0.00     0.131 A 
ATOM     92  C   UNL A   1      48.813  28.601  32.727  1.00  0.00     0.055 A 
ATOM     93  C   UNL A   1      49.370  29.801  30.715  1.00  0.00     0.041 A 
ATOM     94  F   UNL A   1      47.686  30.909  29.516  1.00  0.00    -0.206 F 
ATOM     95  C   UNL A   1      49.770  29.029  31.803  1.00  0.00     0.022 A 
BRANCH  92  96
ATOM     96  S   UNL A   1      49.322  27.653  34.186  1.00  0.00     0.124 S 
ATOM     97  O   UNL A   1      48.181  26.764  34.382  1.00  0.00    -0.237 OA
ATOM     98  O   UNL A   1      50.556  27.017  33.736  1.00  0.00    -0.237 OA
ATOM     99  O   UNL A   1      49.495  28.675  35.217  1.00  0.00    -0.744 OA
ENDBRANCH  92  96
ENDBRANCH  66  89
ENDBRANCH  40  41
ENDBRANCH  33  35
ENDBRANCH  32  33
ENDBRANCH  31  32
ENDBRANCH   1  31
TORSDOF 19
ENDMDL
MODEL 2
REMARK VINA RESULT:      -9.0      1.831      2.161
REMARK SMILES Nc1c(Nc2ccc(I)cc2)ncnc1Nc1ccc(C(=O)OCCOC(=O)c2ccc(-c3c4nc(c(-c5cc(S(=O)(=O)[O-])ccc5F)c5ccc([nH]5)c(-c5cc(S(=O)(=O)[O-])ccc5F)c5nc(c(-c6cc(S(=O)(=O)[O-])ccc6F)c6ccc3[nH]6)C=C5)C=C4)cc2)cc1
REMARK SMILES IDX 24 1 23 2 21 3 22 4 20 5 17 6 18 7 93 8 19 9 92 10 16 11
REMARK SMILES IDX 15 13 2 14 3 15 12 16 14 17 13 18 1 19 4 22 5 24 6 25 11 26
REMARK SMILES IDX 7 27 10 28 8 29 9 30 25 31 26 32 27 33 28 34 29 35 30 36
REMARK SMILES IDX 91 37 31 38 90 39 32 40 33 41 34 42 84 43 35 44 89 45 83 46
REMARK SMILES IDX 85 47 36 48 88 49 82 50 81 51 37 53 69 54 49 55 68 56 50 57
REMARK SMILES IDX 53 58 67 59 86 60 51 61 52 62 66 64 87 65 54 66 38 67 39 68
REMARK SMILES IDX 47 69 40 70 46 71 48 72 45 73 41 74 42 75 43 76 44 77 70 78
REMARK SMILES IDX 71 79 79 80 72 81 78 82 80 83 77 84 73 85 74 86 75 87 76 88
REMARK SMILES IDX 55 89 56 90 64 91 57 92 63 93 65 94 62 95 58 96 59 97 60 98
REMARK SMILES IDX 61 99
REMARK H PARENT 16 12 1 20 1 21 4 23 85 52 53 63
REMARK Flexibility Score: inf
ROOT
ATOM      1  C   UNL A   1      32.729  35.883  31.577  1.00  0.00     0.275 C 
ENDROOT
BRANCH   1   2
ATOM      2  O   UNL A   1      33.332  34.909  32.451  1.00  0.00    -0.458 OA
BRANCH   2   3
ATOM      3  C   UNL A   1      34.400  35.362  33.152  1.00  0.00     0.338 C 
ATOM      4  O   UNL A   1      34.552  36.489  33.599  1.00  0.00    -0.246 OA
BRANCH   3   5
ATOM      5  C   UNL A   1      35.368  34.273  33.396  1.00  0.00     0.060 A 
ATOM      6  C   UNL A   1      36.944  32.037  33.993  1.00  0.00     0.040 A 
ATOM      7  C   UNL A   1      36.017  31.983  32.949  1.00  0.00     0.027 A 
ATOM      8  C   UNL A   1      37.106  33.235  34.705  1.00  0.00     0.027 A 
ATOM      9  C   UNL A   1      35.214  33.084  32.675  1.00  0.00     0.018 A 
ATOM     10  C   UNL A   1      36.338  34.363  34.395  1.00  0.00     0.018 A 
BRANCH   6  11
ATOM     11  N   UNL A   1      37.486  30.821  34.468  1.00  0.00    -0.338 N 
ATOM     12  H   UNL A   1      37.363  30.579  35.414  1.00  0.00     0.168 HD
BRANCH  11  13
ATOM     13  C   UNL A   1      38.206  29.939  33.614  1.00  0.00     0.159 A 
ATOM     14  C   UNL A   1      39.604  29.931  33.658  1.00  0.00     0.118 A 
ATOM     15  C   UNL A   1      40.217  29.014  32.791  1.00  0.00     0.159 A 
ATOM     16  N   UNL A   1      39.526  28.264  31.910  1.00  0.00    -0.217 NA
ATOM     17  N   UNL A   1      37.505  29.153  32.771  1.00  0.00    -0.217 NA
ATOM     18  C   UNL A   1      38.201  28.380  31.942  1.00  0.00     0.226 A 
BRANCH  14  19
ATOM     19  N   UNL A   1      40.352  30.706  34.560  1.00  0.00    -0.393 N 
ATOM     20  H   UNL A   1      40.165  30.654  35.525  1.00  0.00     0.156 HD
ATOM     21  H   UNL A   1      41.062  31.300  34.228  1.00  0.00     0.156 HD
ENDBRANCH  14  19
BRANCH  15  22
ATOM     22  N   UNL A   1      41.624  28.852  32.878  1.00  0.00    -0.338 N 
ATOM     23  H   UNL A   1      42.177  29.605  32.567  1.00  0.00     0.168 HD
BRANCH  22  24
ATOM     24  C   UNL A   1      42.307  27.725  33.362  1.00  0.00     0.040 A 
ATOM     25  C   UNL A   1      43.272  27.109  32.558  1.00  0.00     0.027 A 
ATOM     26  C   UNL A   1      42.142  27.268  34.677  1.00  0.00     0.027 A 
ATOM     27  C   UNL A   1      44.073  26.079  33.059  1.00  0.00     0.017 A 
ATOM     28  C   UNL A   1      42.929  26.229  35.182  1.00  0.00     0.017 A 
ATOM     29  C   UNL A   1      43.901  25.647  34.374  1.00  0.00     0.013 A 
ATOM     30  I   UNL A   1      45.124  24.151  35.137  1.00  0.00    -0.044 I 
ENDBRANCH  22  24
ENDBRANCH  15  22
ENDBRANCH  11  13
ENDBRANCH   6  11
ENDBRANCH   3   5
ENDBRANCH   2   3
ENDBRANCH   1   2
BRANCH   1  31
ATOM     31  C   UNL A   1      33.067  35.575  30.119  1.00  0.00     0.275 C 
BRANCH  31  32
ATOM     32  O   UNL A   1      33.283  34.162  29.959  1.00  0.00    -0.458 OA
BRANCH  32  33
ATOM     33  C   UNL A   1      33.765  33.766  28.759  1.00  0.00     0.338 C 
ATOM     34  O   UNL A   1      33.187  33.839  27.682  1.00  0.00    -0.246 OA
BRANCH  33  35
ATOM     35  C   UNL A   1      35.123  33.198  28.908  1.00  0.00     0.060 A 
ATOM     36  C   UNL A   1      35.307  31.864  29.268  1.00  0.00     0.016 A 
ATOM     37  C   UNL A   1      36.233  34.032  28.781  1.00  0.00     0.016 A 
ATOM     38  C   UNL A   1      36.576  31.395  29.616  1.00  0.00     0.010 A 
ATOM     39  C   UNL A   1      37.519  33.526  29.016  1.00  0.00     0.010 A 
ATOM     40  C   UNL A   1      37.707  32.213  29.482  1.00  0.00    -0.014 A 
BRANCH  40  41
ATOM     41  C   UNL A   1      39.068  31.727  29.869  1.00  0.00     0.031 A 
ATOM     42  C   UNL A   1      39.849  32.444  30.947  1.00  0.00     0.074 A 
ATOM     43  C   UNL A   1      39.615  30.638  29.288  1.00  0.00     0.049 A 
ATOM     44  N   UNL A   1      41.112  32.329  31.273  1.00  0.00    -0.248 NA
ATOM     45  C   UNL A   1      39.114  33.432  31.751  1.00  0.00     0.031 C 
ATOM     46  C   UNL A   1      38.972  29.797  28.277  1.00  0.00     0.029 A 
ATOM     47  N   UNL A   1      40.839  30.039  29.477  1.00  0.00    -0.354 N 
ATOM     48  C   UNL A   1      41.338  33.273  32.270  1.00  0.00     0.074 A 
ATOM     49  C   UNL A   1      40.080  33.953  32.495  1.00  0.00     0.031 C 
ATOM     50  C   UNL A   1      39.773  28.760  27.989  1.00  0.00     0.029 A 
ATOM     51  C   UNL A   1      41.033  28.916  28.707  1.00  0.00     0.049 A 
ATOM     52  H   UNL A   1      41.515  30.383  30.106  1.00  0.00     0.167 HD
ATOM     53  C   UNL A   1      42.488  33.550  32.935  1.00  0.00     0.034 A 
ATOM     54  C   UNL A   1      42.112  28.123  28.553  1.00  0.00     0.034 A 
ATOM     55  C   UNL A   1      43.723  32.828  32.754  1.00  0.00     0.049 A 
ATOM     56  C   UNL A   1      43.389  28.471  29.265  1.00  0.00     0.074 A 
ATOM     57  C   UNL A   1      44.943  33.036  33.374  1.00  0.00     0.029 A 
ATOM     58  N   UNL A   1      43.889  31.741  31.906  1.00  0.00    -0.354 N 
ATOM     59  N   UNL A   1      43.624  29.456  30.099  1.00  0.00    -0.248 NA
ATOM     60  C   UNL A   1      44.557  27.623  28.986  1.00  0.00     0.031 C 
ATOM     61  C   UNL A   1      45.857  32.102  32.874  1.00  0.00     0.029 A 
ATOM     62  C   UNL A   1      45.193  31.277  31.981  1.00  0.00     0.049 A 
ATOM     63  H   UNL A   1      43.185  31.358  31.335  1.00  0.00     0.167 HD
ATOM     64  C   UNL A   1      44.969  29.350  30.438  1.00  0.00     0.074 A 
ATOM     65  C   UNL A   1      45.489  28.195  29.737  1.00  0.00     0.031 C 
ATOM     66  C   UNL A   1      45.707  30.142  31.256  1.00  0.00     0.034 A 
BRANCH  53  67
ATOM     67  C   UNL A   1      42.479  34.720  33.885  1.00  0.00     0.023 A 
ATOM     68  C   UNL A   1      42.971  35.982  33.517  1.00  0.00     0.031 A 
ATOM     69  C   UNL A   1      41.965  34.561  35.185  1.00  0.00     0.131 A 
ATOM     70  C   UNL A   1      42.983  37.026  34.456  1.00  0.00     0.055 A 
ATOM     71  C   UNL A   1      41.921  35.620  36.093  1.00  0.00     0.041 A 
ATOM     72  F   UNL A   1      41.497  33.371  35.594  1.00  0.00    -0.206 F 
ATOM     73  C   UNL A   1      42.440  36.860  35.734  1.00  0.00     0.022 A 
BRANCH  70  74
ATOM     74  S   UNL A   1      43.798  38.585  34.015  1.00  0.00     0.124 S 
ATOM     75  O   UNL A   1      44.167  39.105  35.329  1.00  0.00    -0.237 OA
ATOM     76  O   UNL A   1      44.903  38.140  33.173  1.00  0.00    -0.237 OA
ATOM     77  O   UNL A   1      42.752  39.336  33.324  1.00  0.00    -0.744 OA
ENDBRANCH  70  74
ENDBRANCH  53  67
BRANCH  54  78
ATOM     78  C   UNL A   1      42.054  26.960  27.624  1.00  0.00     0.023 A 
ATOM     79  C   UNL A   1      41.928  25.651  28.114  1.00  0.00     0.031 A 
ATOM     80  C   UNL A   1      42.118  27.145  26.231  1.00  0.00     0.131 A 
ATOM     81  C   UNL A   1      41.881  24.574  27.216  1.00  0.00     0.055 A 
ATOM     82  C   UNL A   1      42.030  26.074  25.341  1.00  0.00     0.041 A 
ATOM     83  F   UNL A   1      42.237  28.379  25.716  1.00  0.00    -0.206 F 
ATOM     84  C   UNL A   1      41.915  24.778  25.833  1.00  0.00     0.022 A 
BRANCH  81  85
ATOM     85  S   UNL A   1      41.793  22.887  27.877  1.00  0.00     0.124 S 
ATOM     86  O   UNL A   1      42.316  23.070  29.226  1.00  0.00    -0.237 OA
ATOM     87  O   UNL A   1      40.367  22.591  27.776  1.00  0.00    -0.237 OA
ATOM     88  O   UNL A   1      42.648  22.121  26.972  1.00  0.00    -0.744 OA
ENDBRANCH  81  85
ENDBRANCH  54  78
BRANCH  66  89
ATOM     89  C   UNL A   1      47.152  29.774  31.444  1.00  0.00     0.023 A 
ATOM     90  C   UNL A   1      48.156  30.315  30.624  1.00  0.00     0.031 A 
ATOM     91  C   UNL A   1      47.529  28.886  32.466  1.00  0.00     0.131 A 
ATOM     92  C   UNL A   1      49.493  29.937  30.820  1.00  0.00     0.055 A 
ATOM     93  C   UNL A   1      48.864  28.543  32.681  1.00  0.00     0.041 A 
ATOM     94  F   UNL A   1      46.604  28.345  33.274  1.00  0.00    -0.206 F 
ATOM     95  C   UNL A   1      49.854  29.066  31.852  1.00  0.00     0.022 A 
BRANCH  92  96
ATOM     96  S   UNL A   1      50.758  30.575  29.688  1.00  0.00     0.124 S 
ATOM     97  O   UNL A   1      51.224  29.354  29.038  1.00  0.00    -0.237 OA
ATOM     98  O   UNL A   1      49.996  31.494  28.848  1.00  0.00    -0.237 OA
ATOM     99  O   UNL A   1      51.726  31.212  30.578  1.00  0.00    -0.744 OA
ENDBRANCH  92  96
ENDBRANCH  66  89
ENDBRANCH  40  41
ENDBRANCH  33  35
ENDBRANCH  32  33
ENDBRANCH  31  32
ENDBRANCH   1  31
TORSDOF 19
ENDMDL
MODEL 3
REMARK VINA RESULT:      -8.8      4.900      9.923
REMARK SMILES Nc1c(Nc2ccc(I)cc2)ncnc1Nc1ccc(C(=O)OCCOC(=O)c2ccc(-c3c4nc(c(-c5cc(S(=O)(=O)[O-])ccc5F)c5ccc([nH]5)c(-c5cc(S(=O)(=O)[O-])ccc5F)c5nc(c(-c6cc(S(=O)(=O)[O-])ccc6F)c6ccc3[nH]6)C=C5)C=C4)cc2)cc1
REMARK SMILES IDX 24 1 23 2 21 3 22 4 20 5 17 6 18 7 93 8 19 9 92 10 16 11
REMARK SMILES IDX 15 13 2 14 3 15 12 16 14 17 13 18 1 19 4 22 5 24 6 25 11 26
REMARK SMILES IDX 7 27 10 28 8 29 9 30 25 31 26 32 27 33 28 34 29 35 30 36
REMARK SMILES IDX 91 37 31 38 90 39 32 40 33 41 34 42 84 43 35 44 89 45 83 46
REMARK SMILES IDX 85 47 36 48 88 49 82 50 81 51 37 53 69 54 49 55 68 56 50 57
REMARK SMILES IDX 53 58 67 59 86 60 51 61 52 62 66 64 87 65 54 66 38 67 39 68
REMARK SMILES IDX 47 69 40 70 46 71 48 72 45 73 41 74 42 75 43 76 44 77 70 78
REMARK SMILES IDX 71 79 79 80 72 81 78 82 80 83 77 84 73 85 74 86 75 87 76 88
REMARK SMILES IDX 55 89 56 90 64 91 57 92 63 93 65 94 62 95 58 96 59 97 60 98
REMARK SMILES IDX 61 99
REMARK H PARENT 16 12 1 20 1 21 4 23 85 52 53 63
REMARK Flexibility Score: inf
ROOT
ATOM      1  C   UNL A   1      31.296  32.022  26.373  1.00  0.00     0.275 C 
ENDROOT
BRANCH   1   2
ATOM      2  O   UNL A   1      31.838  30.949  27.168  1.00  0.00    -0.458 OA
BRANCH   2   3
ATOM      3  C   UNL A   1      32.662  30.108  26.497  1.00  0.00     0.338 C 
ATOM      4  O   UNL A   1      33.876  30.205  26.395  1.00  0.00    -0.246 OA
BRANCH   3   5
ATOM      5  C   UNL A   1      31.906  28.966  25.943  1.00  0.00     0.060 A 
ATOM      6  C   UNL A   1      30.763  26.625  24.917  1.00  0.00     0.040 A 
ATOM      7  C   UNL A   1      31.076  26.715  26.275  1.00  0.00     0.027 A 
ATOM      8  C   UNL A   1      30.985  27.734  24.086  1.00  0.00     0.027 A 
ATOM      9  C   UNL A   1      31.673  27.866  26.775  1.00  0.00     0.018 A 
ATOM     10  C   UNL A   1      31.534  28.914  24.599  1.00  0.00     0.018 A 
BRANCH   6  11
ATOM     11  N   UNL A   1      30.490  25.347  24.378  1.00  0.00    -0.338 N 
ATOM     12  H   UNL A   1      29.722  25.236  23.773  1.00  0.00     0.168 HD
BRANCH  11  13
ATOM     13  C   UNL A   1      31.297  24.217  24.689  1.00  0.00     0.159 A 
ATOM     14  C   UNL A   1      32.505  24.029  24.009  1.00  0.00     0.118 A 
ATOM     15  C   UNL A   1      33.235  22.897  24.402  1.00  0.00     0.159 A 
ATOM     16  N   UNL A   1      32.772  22.001  25.295  1.00  0.00    -0.217 NA
ATOM     17  N   UNL A   1      30.851  23.351  25.623  1.00  0.00    -0.217 NA
ATOM     18  C   UNL A   1      31.596  22.273  25.855  1.00  0.00     0.226 A 
BRANCH  14  19
ATOM     19  N   UNL A   1      33.011  24.942  23.068  1.00  0.00    -0.393 N 
ATOM     20  H   UNL A   1      33.136  25.886  23.318  1.00  0.00     0.156 HD
ATOM     21  H   UNL A   1      33.239  24.638  22.161  1.00  0.00     0.156 HD
ENDBRANCH  14  19
BRANCH  15  22
ATOM     22  N   UNL A   1      34.531  22.716  23.855  1.00  0.00    -0.338 N 
ATOM     23  H   UNL A   1      34.604  22.736  22.873  1.00  0.00     0.168 HD
BRANCH  22  24
ATOM     24  C   UNL A   1      35.720  22.510  24.572  1.00  0.00     0.040 A 
ATOM     25  C   UNL A   1      36.362  21.269  24.496  1.00  0.00     0.027 A 
ATOM     26  C   UNL A   1      36.354  23.549  25.267  1.00  0.00     0.027 A 
ATOM     27  C   UNL A   1      37.619  21.074  25.076  1.00  0.00     0.017 A 
ATOM     28  C   UNL A   1      37.605  23.359  25.863  1.00  0.00     0.017 A 
ATOM     29  C   UNL A   1      38.238  22.124  25.753  1.00  0.00     0.013 A 
ATOM     30  I   UNL A   1      40.128  21.852  26.573  1.00  0.00    -0.044 I 
ENDBRANCH  22  24
ENDBRANCH  15  22
ENDBRANCH  11  13
ENDBRANCH   6  11
ENDBRANCH   3   5
ENDBRANCH   2   3
ENDBRANCH   1   2
BRANCH   1  31
ATOM     31  C   UNL A   1      31.798  33.372  26.884  1.00  0.00     0.275 C 
BRANCH  31  32
ATOM     32  O   UNL A   1      32.979  33.181  27.683  1.00  0.00    -0.458 OA
BRANCH  32  33
ATOM     33  C   UNL A   1      33.288  34.182  28.538  1.00  0.00     0.338 C 
ATOM     34  O   UNL A   1      32.676  35.232  28.680  1.00  0.00    -0.246 OA
BRANCH  33  35
ATOM     35  C   UNL A   1      34.509  33.850  29.303  1.00  0.00     0.060 A 
ATOM     36  C   UNL A   1      35.755  34.334  28.910  1.00  0.00     0.016 A 
ATOM     37  C   UNL A   1      34.427  32.964  30.378  1.00  0.00     0.016 A 
ATOM     38  C   UNL A   1      36.923  33.846  29.503  1.00  0.00     0.010 A 
ATOM     39  C   UNL A   1      35.592  32.568  31.049  1.00  0.00     0.010 A 
ATOM     40  C   UNL A   1      36.862  32.966  30.593  1.00  0.00    -0.014 A 
BRANCH  40  41
ATOM     41  C   UNL A   1      38.105  32.423  31.224  1.00  0.00     0.031 A 
ATOM     42  C   UNL A   1      38.847  31.279  30.570  1.00  0.00     0.074 A 
ATOM     43  C   UNL A   1      38.599  32.947  32.366  1.00  0.00     0.049 A 
ATOM     44  N   UNL A   1      39.800  30.522  31.055  1.00  0.00    -0.248 NA
ATOM     45  C   UNL A   1      38.452  30.933  29.197  1.00  0.00     0.031 C 
ATOM     46  C   UNL A   1      38.040  34.091  33.090  1.00  0.00     0.029 A 
ATOM     47  N   UNL A   1      39.698  32.595  33.113  1.00  0.00    -0.354 N 
ATOM     48  C   UNL A   1      40.070  29.572  30.075  1.00  0.00     0.074 A 
ATOM     49  C   UNL A   1      39.180  29.848  28.969  1.00  0.00     0.031 C 
ATOM     50  C   UNL A   1      38.834  34.386  34.131  1.00  0.00     0.029 A 
ATOM     51  C   UNL A   1      39.897  33.391  34.218  1.00  0.00     0.049 A 
ATOM     52  H   UNL A   1      40.289  31.843  32.880  1.00  0.00     0.167 HD
ATOM     53  C   UNL A   1      40.975  28.561  30.097  1.00  0.00     0.034 A 
ATOM     54  C   UNL A   1      40.798  33.311  35.218  1.00  0.00     0.034 A 
ATOM     55  C   UNL A   1      41.904  28.329  31.175  1.00  0.00     0.049 A 
ATOM     56  C   UNL A   1      41.764  32.159  35.246  1.00  0.00     0.074 A 
ATOM     57  C   UNL A   1      42.854  27.329  31.296  1.00  0.00     0.029 A 
ATOM     58  N   UNL A   1      42.018  29.121  32.310  1.00  0.00    -0.354 N 
ATOM     59  N   UNL A   1      41.911  31.187  34.379  1.00  0.00    -0.248 NA
ATOM     60  C   UNL A   1      42.660  32.074  36.408  1.00  0.00     0.031 C 
ATOM     61  C   UNL A   1      43.516  27.492  32.518  1.00  0.00     0.029 A 
ATOM     62  C   UNL A   1      43.015  28.626  33.136  1.00  0.00     0.049 A 
ATOM     63  H   UNL A   1      41.471  29.917  32.499  1.00  0.00     0.167 HD
ATOM     64  C   UNL A   1      42.911  30.369  34.895  1.00  0.00     0.074 A 
ATOM     65  C   UNL A   1      43.347  30.973  36.137  1.00  0.00     0.031 C 
ATOM     66  C   UNL A   1      43.420  29.220  34.385  1.00  0.00     0.034 A 
BRANCH  53  67
ATOM     67  C   UNL A   1      40.969  27.595  28.941  1.00  0.00     0.023 A 
ATOM     68  C   UNL A   1      41.909  27.672  27.901  1.00  0.00     0.031 A 
ATOM     69  C   UNL A   1      39.999  26.577  28.886  1.00  0.00     0.131 A 
ATOM     70  C   UNL A   1      41.829  26.776  26.822  1.00  0.00     0.055 A 
ATOM     71  C   UNL A   1      39.965  25.649  27.843  1.00  0.00     0.041 A 
ATOM     72  F   UNL A   1      39.067  26.469  29.846  1.00  0.00    -0.206 F 
ATOM     73  C   UNL A   1      40.878  25.752  26.799  1.00  0.00     0.022 A 
BRANCH  70  74
ATOM     74  S   UNL A   1      42.933  27.020  25.404  1.00  0.00     0.124 S 
ATOM     75  O   UNL A   1      42.305  28.156  24.736  1.00  0.00    -0.237 OA
ATOM     76  O   UNL A   1      44.217  27.287  26.043  1.00  0.00    -0.237 OA
ATOM     77  O   UNL A   1      42.848  25.752  24.681  1.00  0.00    -0.744 OA
ENDBRANCH  70  74
ENDBRANCH  53  67
BRANCH  54  78
ATOM     78  C   UNL A   1      40.778  34.313  36.319  1.00  0.00     0.023 A 
ATOM     79  C   UNL A   1      41.839  35.215  36.492  1.00  0.00     0.031 A 
ATOM     80  C   UNL A   1      39.693  34.384  37.210  1.00  0.00     0.131 A 
ATOM     81  C   UNL A   1      41.797  36.145  37.542  1.00  0.00     0.055 A 
ATOM     82  C   UNL A   1      39.637  35.338  38.228  1.00  0.00     0.041 A 
ATOM     83  F   UNL A   1      38.654  33.543  37.083  1.00  0.00    -0.206 F 
ATOM     84  C   UNL A   1      40.696  36.223  38.400  1.00  0.00     0.022 A 
BRANCH  81  85
ATOM     85  S   UNL A   1      43.214  37.250  37.789  1.00  0.00     0.124 S 
ATOM     86  O   UNL A   1      43.408  37.788  36.448  1.00  0.00    -0.237 OA
ATOM     87  O   UNL A   1      42.704  38.185  38.788  1.00  0.00    -0.237 OA
ATOM     88  O   UNL A   1      44.267  36.353  38.263  1.00  0.00    -0.744 OA
ENDBRANCH  81  85
ENDBRANCH  54  78
BRANCH  66  89
ATOM     89  C   UNL A   1      44.516  28.550  35.167  1.00  0.00     0.023 A 
ATOM     90  C   UNL A   1      44.227  27.598  36.159  1.00  0.00     0.031 A 
ATOM     91  C   UNL A   1      45.862  28.856  34.905  1.00  0.00     0.131 A 
ATOM     92  C   UNL A   1      45.275  27.004  36.879  1.00  0.00     0.055 A 
ATOM     93  C   UNL A   1      46.901  28.234  35.597  1.00  0.00     0.041 A 
ATOM     94  F   UNL A   1      46.185  29.760  33.966  1.00  0.00    -0.206 F 
ATOM     95  C   UNL A   1      46.610  27.307  36.594  1.00  0.00     0.022 A 
BRANCH  92  96
ATOM     96  S   UNL A   1      44.873  25.850  38.218  1.00  0.00     0.124 S 
ATOM     97  O   UNL A   1      43.947  24.934  37.560  1.00  0.00    -0.237 OA
ATOM     98  O   UNL A   1      46.179  25.297  38.563  1.00  0.00    -0.237 OA
ATOM     99  O   UNL A   1      44.276  26.706  39.242  1.00  0.00    -0.744 OA
ENDBRANCH  92  96
ENDBRANCH  66  89
ENDBRANCH  40  41
ENDBRANCH  33  35
ENDBRANCH  32  33
ENDBRANCH  31  32
ENDBRANCH   1  31
TORSDOF 19
ENDMDL
