MODEL 1
REMARK VINA RESULT:     -10.0      0.000      0.000
REMARK SMILES Cc1ccc(/C=C2/C[N@@H+](C)Cc3c2nc2ccccc2c3C(=O)OCCOC(=O)c2ccc(-c3c4nc(c(-c5cc(S(=O)(=O)[O-])ccc5F)c5ccc([nH]5)c(-c5cc(S(=O)(=O)[O-])ccc5F)c5nc(c(-c6cc(S(=O)(=O)[O-])ccc6F)c6ccc3[nH]6)C=C5)C=C4)cc2)cc1
REMARK SMILES IDX 26 1 25 2 24 3 22 4 23 5 21 6 6 7 7 8 8 9 13 10 9 11 12 12
REMARK SMILES IDX 14 13 10 14 11 15 15 17 20 18 16 19 19 20 17 21 18 22 5 23
REMARK SMILES IDX 1 24 2 25 3 26 94 27 4 28 93 29 27 30 28 31 29 32 30 33
REMARK SMILES IDX 31 34 92 35 32 36 91 37 33 38 34 39 35 40 85 41 36 42 90 43
REMARK SMILES IDX 84 44 86 45 37 46 89 47 83 48 82 49 38 51 70 52 50 53 69 54
REMARK SMILES IDX 51 55 54 56 68 57 87 58 52 59 53 60 67 62 88 63 55 64 39 65
REMARK SMILES IDX 40 66 48 67 41 68 47 69 49 70 46 71 42 72 43 73 44 74 45 75
REMARK SMILES IDX 71 76 72 77 80 78 73 79 79 80 81 81 78 82 74 83 75 84 76 85
REMARK SMILES IDX 77 86 56 87 57 88 65 89 58 90 64 91 66 92 63 93 59 94 60 95
REMARK SMILES IDX 61 96 62 97
REMARK H PARENT 9 16 86 50 54 61
REMARK Flexibility Score: inf
ROOT
ATOM      1  C   UNL A   1      45.727  31.985  37.971  1.00  0.00     0.275 C 
ENDROOT
BRANCH   1   2
ATOM      2  C   UNL A   1      45.302  30.513  38.047  1.00  0.00     0.275 C 
BRANCH   2   3
ATOM      3  O   UNL A   1      45.202  30.004  36.699  1.00  0.00    -0.458 OA
BRANCH   3   4
ATOM      4  C   UNL A   1      45.985  28.748  36.383  1.00  0.00     0.339 C 
ATOM      5  O   UNL A   1      46.509  28.572  37.520  1.00  0.00    -0.246 OA
BRANCH   4   6
ATOM      6  C   UNL A   1      46.062  27.665  34.505  1.00  0.00     0.080 A 
ATOM      7  C   UNL A   1      44.307  24.497  30.819  1.00  0.00     0.020 C 
ATOM      8  C   UNL A   1      44.709  24.614  32.113  1.00  0.00     0.033 C 
ATOM      9  C   UNL A   1      44.303  23.583  33.109  1.00  0.00     0.301 C 
ATOM     10  C   UNL A   1      45.520  25.715  32.717  1.00  0.00     0.082 A 
ATOM     11  N   UNL A   1      43.604  24.297  34.160  1.00  0.00    -0.330 N 
ATOM     12  C   UNL A   1      45.358  26.252  34.033  1.00  0.00     0.048 A 
ATOM     13  N   UNL A   1      46.452  26.113  31.870  1.00  0.00    -0.247 NA
ATOM     14  C   UNL A   1      42.946  23.371  35.082  1.00  0.00     0.333 C 
ATOM     15  C   UNL A   1      44.586  25.136  34.880  1.00  0.00     0.302 C 
ATOM     16  H   UNL A   1      42.875  24.880  33.749  1.00  0.00     0.348 HD
ATOM     17  C   UNL A   1      47.025  27.274  31.986  1.00  0.00     0.072 A 
ATOM     18  C   UNL A   1      46.885  28.167  33.085  1.00  0.00     0.015 A 
ATOM     19  C   UNL A   1      47.719  27.511  30.794  1.00  0.00     0.029 A 
ATOM     20  C   UNL A   1      47.590  29.415  32.598  1.00  0.00     0.011 A 
ATOM     21  C   UNL A   1      48.321  28.708  30.462  1.00  0.00     0.002 A 
ATOM     22  C   UNL A   1      48.248  29.696  31.388  1.00  0.00     0.001 A 
BRANCH   7  23
ATOM     23  C   UNL A   1      44.532  25.380  29.654  1.00  0.00    -0.025 A 
ATOM     24  C   UNL A   1      45.839  28.026  26.505  1.00  0.00     0.044 C 
ATOM     25  C   UNL A   1      45.263  27.078  27.514  1.00  0.00    -0.051 A 
ATOM     26  C   UNL A   1      44.539  27.572  28.601  1.00  0.00     0.004 A 
ATOM     27  C   UNL A   1      45.525  25.707  27.450  1.00  0.00     0.004 A 
ATOM     28  C   UNL A   1      44.136  26.719  29.634  1.00  0.00     0.008 A 
ATOM     29  C   UNL A   1      45.160  24.865  28.511  1.00  0.00     0.008 A 
ENDBRANCH   7  23
ENDBRANCH   4   6
ENDBRANCH   3   4
ENDBRANCH   2   3
ENDBRANCH   1   2
BRANCH   1  30
ATOM     30  O   UNL A   1      44.987  32.800  37.025  1.00  0.00    -0.458 OA
BRANCH  30  31
ATOM     31  C   UNL A   1      45.639  33.758  36.314  1.00  0.00     0.338 C 
ATOM     32  O   UNL A   1      46.292  34.679  36.771  1.00  0.00    -0.246 OA
BRANCH  31  33
ATOM     33  C   UNL A   1      45.336  33.643  34.877  1.00  0.00     0.060 A 
ATOM     34  C   UNL A   1      43.917  34.580  34.305  1.00  0.00     0.016 A 
ATOM     35  C   UNL A   1      45.670  32.032  34.175  1.00  0.00     0.016 A 
ATOM     36  C   UNL A   1      42.800  33.881  32.993  1.00  0.00     0.010 A 
ATOM     37  C   UNL A   1      44.499  31.314  32.940  1.00  0.00     0.010 A 
ATOM     38  C   UNL A   1      43.092  32.248  32.345  1.00  0.00    -0.014 A 
BRANCH  38  39
ATOM     39  C   UNL A   1      42.028  31.343  31.941  1.00  0.00     0.031 A 
ATOM     40  C   UNL A   1      42.053  30.872  30.545  1.00  0.00     0.074 A 
ATOM     41  C   UNL A   1      41.293  30.761  32.921  1.00  0.00     0.049 A 
ATOM     42  N   UNL A   1      41.177  30.077  30.064  1.00  0.00    -0.248 NA
ATOM     43  C   UNL A   1      43.052  31.258  29.543  1.00  0.00     0.031 C 
ATOM     44  C   UNL A   1      40.501  29.535  32.887  1.00  0.00     0.029 A 
ATOM     45  N   UNL A   1      41.014  31.274  34.182  1.00  0.00    -0.354 N 
ATOM     46  C   UNL A   1      41.571  29.682  28.809  1.00  0.00     0.074 A 
ATOM     47  C   UNL A   1      42.739  30.462  28.513  1.00  0.00     0.031 C 
ATOM     48  C   UNL A   1      39.657  29.519  33.938  1.00  0.00     0.029 A 
ATOM     49  C   UNL A   1      39.790  30.785  34.643  1.00  0.00     0.049 A 
ATOM     50  H   UNL A   1      41.596  31.893  34.679  1.00  0.00     0.167 HD
ATOM     51  C   UNL A   1      40.861  28.677  28.238  1.00  0.00     0.034 A 
ATOM     52  C   UNL A   1      38.769  31.675  34.830  1.00  0.00     0.034 A 
ATOM     53  C   UNL A   1      39.614  28.500  28.986  1.00  0.00     0.049 A 
ATOM     54  C   UNL A   1      37.805  31.637  33.646  1.00  0.00     0.074 A 
ATOM     55  C   UNL A   1      39.221  27.629  29.983  1.00  0.00     0.029 A 
ATOM     56  N   UNL A   1      38.741  29.581  29.037  1.00  0.00    -0.354 N 
ATOM     57  N   UNL A   1      38.058  31.038  32.509  1.00  0.00    -0.248 NA
ATOM     58  C   UNL A   1      36.459  32.203  33.676  1.00  0.00     0.031 C 
ATOM     59  C   UNL A   1      38.188  28.279  30.727  1.00  0.00     0.029 A 
ATOM     60  C   UNL A   1      37.917  29.507  30.142  1.00  0.00     0.049 A 
ATOM     61  H   UNL A   1      38.713  30.304  28.370  1.00  0.00     0.167 HD
ATOM     62  C   UNL A   1      36.975  31.114  31.677  1.00  0.00     0.074 A 
ATOM     63  C   UNL A   1      35.993  31.842  32.467  1.00  0.00     0.031 C 
ATOM     64  C   UNL A   1      36.959  30.576  30.414  1.00  0.00     0.034 A 
BRANCH  51  65
ATOM     65  C   UNL A   1      41.293  27.761  27.126  1.00  0.00     0.023 A 
ATOM     66  C   UNL A   1      41.226  26.375  27.375  1.00  0.00     0.031 A 
ATOM     67  C   UNL A   1      41.896  28.130  25.906  1.00  0.00     0.131 A 
ATOM     68  C   UNL A   1      41.759  25.437  26.476  1.00  0.00     0.055 A 
ATOM     69  C   UNL A   1      42.394  27.190  24.990  1.00  0.00     0.041 A 
ATOM     70  F   UNL A   1      42.079  29.406  25.552  1.00  0.00    -0.206 F 
ATOM     71  C   UNL A   1      42.338  25.835  25.276  1.00  0.00     0.022 A 
BRANCH  68  72
ATOM     72  S   UNL A   1      41.734  23.687  26.943  1.00  0.00     0.124 S 
ATOM     73  O   UNL A   1      42.929  23.176  26.279  1.00  0.00    -0.237 OA
ATOM     74  O   UNL A   1      41.779  23.755  28.399  1.00  0.00    -0.237 OA
ATOM     75  O   UNL A   1      40.469  23.207  26.386  1.00  0.00    -0.744 OA
ENDBRANCH  68  72
ENDBRANCH  51  65
BRANCH  52  76
ATOM     76  C   UNL A   1      39.221  32.878  35.611  1.00  0.00     0.023 A 
ATOM     77  C   UNL A   1      39.604  32.663  36.961  1.00  0.00     0.031 A 
ATOM     78  C   UNL A   1      39.666  34.055  35.000  1.00  0.00     0.131 A 
ATOM     79  C   UNL A   1      40.568  33.481  37.573  1.00  0.00     0.055 A 
ATOM     80  C   UNL A   1      40.579  34.908  35.644  1.00  0.00     0.041 A 
ATOM     81  F   UNL A   1      39.366  34.322  33.722  1.00  0.00    -0.206 F 
ATOM     82  C   UNL A   1      41.094  34.581  36.899  1.00  0.00     0.022 A 
BRANCH  79  83
ATOM     83  S   UNL A   1      41.286  32.993  39.175  1.00  0.00     0.124 S 
ATOM     84  O   UNL A   1      40.089  32.671  39.948  1.00  0.00    -0.237 OA
ATOM     85  O   UNL A   1      42.138  31.858  38.832  1.00  0.00    -0.237 OA
ATOM     86  O   UNL A   1      41.998  34.195  39.604  1.00  0.00    -0.744 OA
ENDBRANCH  79  83
ENDBRANCH  52  76
BRANCH  64  87
ATOM     87  C   UNL A   1      35.956  30.962  29.343  1.00  0.00     0.023 A 
ATOM     88  C   UNL A   1      35.499  32.273  29.197  1.00  0.00     0.031 A 
ATOM     89  C   UNL A   1      35.459  30.042  28.385  1.00  0.00     0.131 A 
ATOM     90  C   UNL A   1      34.472  32.591  28.299  1.00  0.00     0.055 A 
ATOM     91  C   UNL A   1      34.548  30.396  27.385  1.00  0.00     0.041 A 
ATOM     92  F   UNL A   1      35.833  28.755  28.361  1.00  0.00    -0.206 F 
ATOM     93  C   UNL A   1      34.010  31.671  27.367  1.00  0.00     0.022 A 
BRANCH  90  94
ATOM     94  S   UNL A   1      33.652  34.186  28.520  1.00  0.00     0.124 S 
ATOM     95  O   UNL A   1      33.546  34.262  29.976  1.00  0.00    -0.237 OA
ATOM     96  O   UNL A   1      34.596  35.115  27.908  1.00  0.00    -0.237 OA
ATOM     97  O   UNL A   1      32.386  34.022  27.812  1.00  0.00    -0.744 OA
ENDBRANCH  90  94
ENDBRANCH  64  87
ENDBRANCH  38  39
ENDBRANCH  31  33
ENDBRANCH  30  31
ENDBRANCH   1  30
TORSDOF 15
ENDMDL
MODEL 2
REMARK VINA RESULT:      -9.9      3.510      8.374
REMARK SMILES Cc1ccc(/C=C2/C[N@@H+](C)Cc3c2nc2ccccc2c3C(=O)OCCOC(=O)c2ccc(-c3c4nc(c(-c5cc(S(=O)(=O)[O-])ccc5F)c5ccc([nH]5)c(-c5cc(S(=O)(=O)[O-])ccc5F)c5nc(c(-c6cc(S(=O)(=O)[O-])ccc6F)c6ccc3[nH]6)C=C5)C=C4)cc2)cc1
REMARK SMILES IDX 26 1 25 2 24 3 22 4 23 5 21 6 6 7 7 8 8 9 13 10 9 11 12 12
REMARK SMILES IDX 14 13 10 14 11 15 15 17 20 18 16 19 19 20 17 21 18 22 5 23
REMARK SMILES IDX 1 24 2 25 3 26 94 27 4 28 93 29 27 30 28 31 29 32 30 33
REMARK SMILES IDX 31 34 92 35 32 36 91 37 33 38 34 39 35 40 85 41 36 42 90 43
REMARK SMILES IDX 84 44 86 45 37 46 89 47 83 48 82 49 38 51 70 52 50 53 69 54
REMARK SMILES IDX 51 55 54 56 68 57 87 58 52 59 53 60 67 62 88 63 55 64 39 65
REMARK SMILES IDX 40 66 48 67 41 68 47 69 49 70 46 71 42 72 43 73 44 74 45 75
REMARK SMILES IDX 71 76 72 77 80 78 73 79 79 80 81 81 78 82 74 83 75 84 76 85
REMARK SMILES IDX 77 86 56 87 57 88 65 89 58 90 64 91 66 92 63 93 59 94 60 95
REMARK SMILES IDX 61 96 62 97
REMARK H PARENT 9 16 86 50 54 61
REMARK Flexibility Score: inf
ROOT
ATOM      1  C   UNL A   1      49.211  26.273  28.110  1.00  0.00     0.275 C 
ENDROOT
BRANCH   1   2
ATOM      2  C   UNL A   1      49.018  25.114  27.124  1.00  0.00     0.275 C 
BRANCH   2   3
ATOM      3  O   UNL A   1      49.380  25.580  25.806  1.00  0.00    -0.458 OA
BRANCH   3   4
ATOM      4  C   UNL A   1      48.281  25.611  24.766  1.00  0.00     0.339 C 
ATOM      5  O   UNL A   1      48.949  26.105  23.813  1.00  0.00    -0.246 OA
BRANCH   4   6
ATOM      6  C   UNL A   1      46.227  24.944  24.980  1.00  0.00     0.080 A 
ATOM      7  C   UNL A   1      42.447  21.715  26.386  1.00  0.00     0.020 C 
ATOM      8  C   UNL A   1      43.531  21.909  25.588  1.00  0.00     0.033 C 
ATOM      9  C   UNL A   1      44.233  20.734  24.999  1.00  0.00     0.301 C 
ATOM     10  C   UNL A   1      44.174  23.208  25.227  1.00  0.00     0.082 A 
ATOM     11  N   UNL A   1      45.612  20.831  25.439  1.00  0.00    -0.330 N 
ATOM     12  C   UNL A   1      45.576  23.433  25.056  1.00  0.00     0.048 A 
ATOM     13  N   UNL A   1      43.252  24.138  25.047  1.00  0.00    -0.247 NA
ATOM     14  C   UNL A   1      46.356  19.611  25.126  1.00  0.00     0.333 C 
ATOM     15  C   UNL A   1      46.227  22.000  24.773  1.00  0.00     0.302 C 
ATOM     16  H   UNL A   1      45.638  20.948  26.452  1.00  0.00     0.348 HD
ATOM     17  C   UNL A   1      43.545  25.404  25.103  1.00  0.00     0.072 A 
ATOM     18  C   UNL A   1      44.854  25.955  25.173  1.00  0.00     0.015 A 
ATOM     19  C   UNL A   1      42.333  26.102  25.175  1.00  0.00     0.029 A 
ATOM     20  C   UNL A   1      44.589  27.425  25.420  1.00  0.00     0.011 A 
ATOM     21  C   UNL A   1      42.223  27.457  25.413  1.00  0.00     0.002 A 
ATOM     22  C   UNL A   1      43.386  28.142  25.549  1.00  0.00     0.001 A 
BRANCH   7  23
ATOM     23  C   UNL A   1      41.599  22.683  27.117  1.00  0.00    -0.025 A 
ATOM     24  C   UNL A   1      39.278  25.947  28.722  1.00  0.00     0.044 C 
ATOM     25  C   UNL A   1      40.016  24.725  28.266  1.00  0.00    -0.051 A 
ATOM     26  C   UNL A   1      41.306  24.473  28.736  1.00  0.00     0.004 A 
ATOM     27  C   UNL A   1      39.480  23.877  27.292  1.00  0.00     0.004 A 
ATOM     28  C   UNL A   1      42.068  23.430  28.199  1.00  0.00     0.008 A 
ATOM     29  C   UNL A   1      40.265  22.864  26.724  1.00  0.00     0.008 A 
ENDBRANCH   7  23
ENDBRANCH   4   6
ENDBRANCH   3   4
ENDBRANCH   2   3
ENDBRANCH   1   2
BRANCH   1  30
ATOM     30  O   UNL A   1      48.824  27.582  27.618  1.00  0.00    -0.458 OA
BRANCH  30  31
ATOM     31  C   UNL A   1      47.552  28.021  27.814  1.00  0.00     0.338 C 
ATOM     32  O   UNL A   1      46.985  28.898  27.188  1.00  0.00    -0.246 OA
BRANCH  31  33
ATOM     33  C   UNL A   1      46.959  27.398  29.011  1.00  0.00     0.060 A 
ATOM     34  C   UNL A   1      45.507  26.385  28.719  1.00  0.00     0.016 A 
ATOM     35  C   UNL A   1      47.056  28.394  30.492  1.00  0.00     0.016 A 
ATOM     36  C   UNL A   1      44.112  26.374  29.949  1.00  0.00     0.010 A 
ATOM     37  C   UNL A   1      45.623  28.442  31.656  1.00  0.00     0.010 A 
ATOM     38  C   UNL A   1      44.178  27.420  31.388  1.00  0.00    -0.014 A 
BRANCH  38  39
ATOM     39  C   UNL A   1      43.006  28.048  31.977  1.00  0.00     0.031 A 
ATOM     40  C   UNL A   1      42.180  28.880  31.084  1.00  0.00     0.074 A 
ATOM     41  C   UNL A   1      42.586  27.588  33.181  1.00  0.00     0.049 A 
ATOM     42  N   UNL A   1      41.127  29.486  31.476  1.00  0.00    -0.248 NA
ATOM     43  C   UNL A   1      42.461  29.129  29.666  1.00  0.00     0.031 C 
ATOM     44  C   UNL A   1      41.268  27.675  33.804  1.00  0.00     0.029 A 
ATOM     45  N   UNL A   1      43.363  27.021  34.184  1.00  0.00    -0.354 N 
ATOM     46  C   UNL A   1      40.484  30.019  30.385  1.00  0.00     0.074 A 
ATOM     47  C   UNL A   1      41.365  29.792  29.275  1.00  0.00     0.031 C 
ATOM     48  C   UNL A   1      41.379  27.421  35.123  1.00  0.00     0.029 A 
ATOM     49  C   UNL A   1      42.791  27.261  35.435  1.00  0.00     0.049 A 
ATOM     50  H   UNL A   1      44.198  26.521  34.034  1.00  0.00     0.167 HD
ATOM     51  C   UNL A   1      39.241  30.520  30.597  1.00  0.00     0.034 A 
ATOM     52  C   UNL A   1      43.480  28.045  36.319  1.00  0.00     0.034 A 
ATOM     53  C   UNL A   1      39.038  30.673  32.039  1.00  0.00     0.049 A 
ATOM     54  C   UNL A   1      42.926  29.469  36.313  1.00  0.00     0.074 A 
ATOM     55  C   UNL A   1      38.418  29.895  32.999  1.00  0.00     0.029 A 
ATOM     56  N   UNL A   1      39.896  31.530  32.718  1.00  0.00    -0.354 N 
ATOM     57  N   UNL A   1      42.096  29.933  35.411  1.00  0.00    -0.248 NA
ATOM     58  C   UNL A   1      43.202  30.451  37.357  1.00  0.00     0.031 C 
ATOM     59  C   UNL A   1      39.032  30.204  34.251  1.00  0.00     0.029 A 
ATOM     60  C   UNL A   1      39.972  31.206  34.058  1.00  0.00     0.049 A 
ATOM     61  H   UNL A   1      40.386  32.274  32.298  1.00  0.00     0.167 HD
ATOM     62  C   UNL A   1      41.724  31.212  35.718  1.00  0.00     0.074 A 
ATOM     63  C   UNL A   1      42.435  31.483  36.959  1.00  0.00     0.031 C 
ATOM     64  C   UNL A   1      40.865  31.951  34.943  1.00  0.00     0.034 A 
BRANCH  51  65
ATOM     65  C   UNL A   1      38.155  30.749  29.582  1.00  0.00     0.023 A 
ATOM     66  C   UNL A   1      37.214  31.759  29.867  1.00  0.00     0.031 A 
ATOM     67  C   UNL A   1      37.883  29.972  28.438  1.00  0.00     0.131 A 
ATOM     68  C   UNL A   1      36.068  31.945  29.076  1.00  0.00     0.055 A 
ATOM     69  C   UNL A   1      36.758  30.183  27.626  1.00  0.00     0.041 A 
ATOM     70  F   UNL A   1      38.655  28.944  28.067  1.00  0.00    -0.206 F 
ATOM     71  C   UNL A   1      35.836  31.167  27.948  1.00  0.00     0.022 A 
BRANCH  68  72
ATOM     72  S   UNL A   1      34.857  33.188  29.595  1.00  0.00     0.124 S 
ATOM     73  O   UNL A   1      34.403  32.657  30.876  1.00  0.00    -0.237 OA
ATOM     74  O   UNL A   1      35.663  34.402  29.644  1.00  0.00    -0.237 OA
ATOM     75  O   UNL A   1      33.859  33.153  28.526  1.00  0.00    -0.744 OA
ENDBRANCH  68  72
ENDBRANCH  51  65
BRANCH  52  76
ATOM     76  C   UNL A   1      44.916  27.618  36.434  1.00  0.00     0.023 A 
ATOM     77  C   UNL A   1      45.168  26.371  37.065  1.00  0.00     0.031 A 
ATOM     78  C   UNL A   1      45.931  28.141  35.626  1.00  0.00     0.131 A 
ATOM     79  C   UNL A   1      46.288  25.600  36.711  1.00  0.00     0.055 A 
ATOM     80  C   UNL A   1      47.083  27.393  35.328  1.00  0.00     0.041 A 
ATOM     81  F   UNL A   1      45.763  29.302  34.977  1.00  0.00    -0.206 F 
ATOM     82  C   UNL A   1      47.226  26.089  35.805  1.00  0.00     0.022 A 
BRANCH  79  83
ATOM     83  S   UNL A   1      46.415  23.873  37.279  1.00  0.00     0.124 S 
ATOM     84  O   UNL A   1      45.463  23.857  38.386  1.00  0.00    -0.237 OA
ATOM     85  O   UNL A   1      46.028  23.101  36.102  1.00  0.00    -0.237 OA
ATOM     86  O   UNL A   1      47.820  23.750  37.667  1.00  0.00    -0.744 OA
ENDBRANCH  79  83
ENDBRANCH  52  76
BRANCH  64  87
ATOM     87  C   UNL A   1      40.732  33.460  35.027  1.00  0.00     0.023 A 
ATOM     88  C   UNL A   1      41.700  34.316  34.499  1.00  0.00     0.031 A 
ATOM     89  C   UNL A   1      39.602  34.105  35.590  1.00  0.00     0.131 A 
ATOM     90  C   UNL A   1      41.639  35.701  34.704  1.00  0.00     0.055 A 
ATOM     91  C   UNL A   1      39.468  35.495  35.655  1.00  0.00     0.041 A 
ATOM     92  F   UNL A   1      38.566  33.426  36.100  1.00  0.00    -0.206 F 
ATOM     93  C   UNL A   1      40.515  36.305  35.252  1.00  0.00     0.022 A 
BRANCH  90  94
ATOM     94  S   UNL A   1      43.147  36.646  34.393  1.00  0.00     0.124 S 
ATOM     95  O   UNL A   1      43.804  36.590  35.697  1.00  0.00    -0.237 OA
ATOM     96  O   UNL A   1      43.789  35.876  33.331  1.00  0.00    -0.237 OA
ATOM     97  O   UNL A   1      42.653  37.962  34.001  1.00  0.00    -0.744 OA
ENDBRANCH  90  94
ENDBRANCH  64  87
ENDBRANCH  38  39
ENDBRANCH  31  33
ENDBRANCH  30  31
ENDBRANCH   1  30
TORSDOF 15
ENDMDL
MODEL 3
REMARK VINA RESULT:      -9.9      4.667     11.262
REMARK SMILES Cc1ccc(/C=C2/C[N@@H+](C)Cc3c2nc2ccccc2c3C(=O)OCCOC(=O)c2ccc(-c3c4nc(c(-c5cc(S(=O)(=O)[O-])ccc5F)c5ccc([nH]5)c(-c5cc(S(=O)(=O)[O-])ccc5F)c5nc(c(-c6cc(S(=O)(=O)[O-])ccc6F)c6ccc3[nH]6)C=C5)C=C4)cc2)cc1
REMARK SMILES IDX 26 1 25 2 24 3 22 4 23 5 21 6 6 7 7 8 8 9 13 10 9 11 12 12
REMARK SMILES IDX 14 13 10 14 11 15 15 17 20 18 16 19 19 20 17 21 18 22 5 23
REMARK SMILES IDX 1 24 2 25 3 26 94 27 4 28 93 29 27 30 28 31 29 32 30 33
REMARK SMILES IDX 31 34 92 35 32 36 91 37 33 38 34 39 35 40 85 41 36 42 90 43
REMARK SMILES IDX 84 44 86 45 37 46 89 47 83 48 82 49 38 51 70 52 50 53 69 54
REMARK SMILES IDX 51 55 54 56 68 57 87 58 52 59 53 60 67 62 88 63 55 64 39 65
REMARK SMILES IDX 40 66 48 67 41 68 47 69 49 70 46 71 42 72 43 73 44 74 45 75
REMARK SMILES IDX 71 76 72 77 80 78 73 79 79 80 81 81 78 82 74 83 75 84 76 85
REMARK SMILES IDX 77 86 56 87 57 88 65 89 58 90 64 91 66 92 63 93 59 94 60 95
REMARK SMILES IDX 61 96 62 97
REMARK H PARENT 9 16 86 50 54 61
REMARK Flexibility Score: inf
ROOT
ATOM      1  C   UNL A   1      49.461  28.877  26.606  1.00  0.00     0.275 C 
ENDROOT
BRANCH   1   2
ATOM      2  C   UNL A   1      50.022  28.144  25.381  1.00  0.00     0.275 C 
BRANCH   2   3
ATOM      3  O   UNL A   1      48.910  27.658  24.599  1.00  0.00    -0.458 OA
BRANCH   3   4
ATOM      4  C   UNL A   1      48.413  26.263  24.910  1.00  0.00     0.339 C 
ATOM      5  O   UNL A   1      49.536  25.703  25.064  1.00  0.00    -0.246 OA
BRANCH   4   6
ATOM      6  C   UNL A   1      46.358  25.581  25.048  1.00  0.00     0.080 A 
ATOM      7  C   UNL A   1      42.569  22.230  26.102  1.00  0.00     0.020 C 
ATOM      8  C   UNL A   1      43.656  22.504  25.331  1.00  0.00     0.033 C 
ATOM      9  C   UNL A   1      44.358  21.395  24.625  1.00  0.00     0.301 C 
ATOM     10  C   UNL A   1      44.301  23.832  25.108  1.00  0.00     0.082 A 
ATOM     11  N   UNL A   1      45.735  21.444  25.076  1.00  0.00    -0.330 N 
ATOM     12  C   UNL A   1      45.704  24.072  24.965  1.00  0.00     0.048 A 
ATOM     13  N   UNL A   1      43.382  24.778  25.024  1.00  0.00    -0.247 NA
ATOM     14  C   UNL A   1      46.478  20.261  24.640  1.00  0.00     0.333 C 
ATOM     15  C   UNL A   1      46.354  22.674  24.536  1.00  0.00     0.302 C 
ATOM     16  H   UNL A   1      45.759  21.454  26.095  1.00  0.00     0.348 HD
ATOM     17  C   UNL A   1      43.676  26.030  25.212  1.00  0.00     0.072 A 
ATOM     18  C   UNL A   1      44.986  26.569  25.342  1.00  0.00     0.015 A 
ATOM     19  C   UNL A   1      42.465  26.719  25.353  1.00  0.00     0.029 A 
ATOM     20  C   UNL A   1      44.722  28.006  25.740  1.00  0.00     0.011 A 
ATOM     21  C   UNL A   1      42.357  28.043  25.730  1.00  0.00     0.002 A 
ATOM     22  C   UNL A   1      43.520  28.707  25.939  1.00  0.00     0.001 A 
BRANCH   7  23
ATOM     23  C   UNL A   1      41.722  23.119  26.927  1.00  0.00    -0.025 A 
ATOM     24  C   UNL A   1      39.330  26.175  28.815  1.00  0.00     0.044 C 
ATOM     25  C   UNL A   1      40.106  25.017  28.262  1.00  0.00    -0.051 A 
ATOM     26  C   UNL A   1      41.442  24.837  28.625  1.00  0.00     0.004 A 
ATOM     27  C   UNL A   1      39.551  24.166  27.303  1.00  0.00     0.004 A 
ATOM     28  C   UNL A   1      42.225  23.863  27.996  1.00  0.00     0.008 A 
ATOM     29  C   UNL A   1      40.352  23.223  26.643  1.00  0.00     0.008 A 
ENDBRANCH   7  23
ENDBRANCH   4   6
ENDBRANCH   3   4
ENDBRANCH   2   3
ENDBRANCH   1   2
BRANCH   1  30
ATOM     30  O   UNL A   1      49.097  28.030  27.727  1.00  0.00    -0.458 OA
BRANCH  30  31
ATOM     31  C   UNL A   1      47.848  28.121  28.256  1.00  0.00     0.338 C 
ATOM     32  O   UNL A   1      47.145  29.115  28.285  1.00  0.00    -0.246 OA
BRANCH  31  33
ATOM     33  C   UNL A   1      47.479  26.874  28.950  1.00  0.00     0.060 A 
ATOM     34  C   UNL A   1      45.790  26.320  28.705  1.00  0.00     0.016 A 
ATOM     35  C   UNL A   1      48.256  26.655  30.546  1.00  0.00     0.016 A 
ATOM     36  C   UNL A   1      44.854  25.525  30.102  1.00  0.00     0.010 A 
ATOM     37  C   UNL A   1      47.282  25.948  31.947  1.00  0.00     0.010 A 
ATOM     38  C   UNL A   1      45.604  25.372  31.709  1.00  0.00    -0.014 A 
BRANCH  38  39
ATOM     39  C   UNL A   1      44.859  25.476  32.954  1.00  0.00     0.031 A 
ATOM     40  C   UNL A   1      44.244  26.782  33.251  1.00  0.00     0.074 A 
ATOM     41  C   UNL A   1      44.521  24.323  33.582  1.00  0.00     0.049 A 
ATOM     42  N   UNL A   1      43.566  27.006  34.310  1.00  0.00    -0.248 NA
ATOM     43  C   UNL A   1      44.341  27.972  32.400  1.00  0.00     0.031 C 
ATOM     44  C   UNL A   1      43.455  24.064  34.545  1.00  0.00     0.029 A 
ATOM     45  N   UNL A   1      45.207  23.114  33.550  1.00  0.00    -0.354 N 
ATOM     46  C   UNL A   1      42.976  28.243  34.211  1.00  0.00     0.074 A 
ATOM     47  C   UNL A   1      43.506  28.823  33.009  1.00  0.00     0.031 C 
ATOM     48  C   UNL A   1      43.698  22.901  35.180  1.00  0.00     0.029 A 
ATOM     49  C   UNL A   1      44.990  22.403  34.732  1.00  0.00     0.049 A 
ATOM     50  H   UNL A   1      45.766  22.804  32.801  1.00  0.00     0.167 HD
ATOM     51  C   UNL A   1      42.054  28.553  35.156  1.00  0.00     0.034 A 
ATOM     52  C   UNL A   1      46.058  22.179  35.555  1.00  0.00     0.034 A 
ATOM     53  C   UNL A   1      42.177  27.600  36.261  1.00  0.00     0.049 A 
ATOM     54  C   UNL A   1      46.061  23.179  36.710  1.00  0.00     0.074 A 
ATOM     55  C   UNL A   1      41.499  26.444  36.598  1.00  0.00     0.029 A 
ATOM     56  N   UNL A   1      43.391  27.557  36.937  1.00  0.00    -0.354 N 
ATOM     57  N   UNL A   1      45.309  24.250  36.758  1.00  0.00    -0.248 NA
ATOM     58  C   UNL A   1      46.851  23.012  37.926  1.00  0.00     0.031 C 
ATOM     59  C   UNL A   1      42.394  25.641  37.370  1.00  0.00     0.029 A 
ATOM     60  C   UNL A   1      43.581  26.336  37.551  1.00  0.00     0.049 A 
ATOM     61  H   UNL A   1      44.033  28.303  36.973  1.00  0.00     0.167 HD
ATOM     62  C   UNL A   1      45.481  24.902  37.948  1.00  0.00     0.074 A 
ATOM     63  C   UNL A   1      46.449  24.072  38.651  1.00  0.00     0.031 C 
ATOM     64  C   UNL A   1      44.822  26.062  38.271  1.00  0.00     0.034 A 
BRANCH  51  65
ATOM     65  C   UNL A   1      40.963  29.585  35.075  1.00  0.00     0.023 A 
ATOM     66  C   UNL A   1      39.892  29.318  34.198  1.00  0.00     0.031 A 
ATOM     67  C   UNL A   1      40.955  30.863  35.670  1.00  0.00     0.131 A 
ATOM     68  C   UNL A   1      38.909  30.281  33.917  1.00  0.00     0.055 A 
ATOM     69  C   UNL A   1      39.952  31.812  35.420  1.00  0.00     0.041 A 
ATOM     70  F   UNL A   1      41.931  31.283  36.483  1.00  0.00    -0.206 F 
ATOM     71  C   UNL A   1      38.926  31.529  34.531  1.00  0.00     0.022 A 
BRANCH  68  72
ATOM     72  S   UNL A   1      37.643  29.885  32.685  1.00  0.00     0.124 S 
ATOM     73  O   UNL A   1      38.372  30.058  31.431  1.00  0.00    -0.237 OA
ATOM     74  O   UNL A   1      37.280  28.519  33.042  1.00  0.00    -0.237 OA
ATOM     75  O   UNL A   1      36.605  30.885  32.934  1.00  0.00    -0.744 OA
ENDBRANCH  68  72
ENDBRANCH  51  65
BRANCH  52  76
ATOM     76  C   UNL A   1      47.241  21.650  34.793  1.00  0.00     0.023 A 
ATOM     77  C   UNL A   1      48.388  22.483  34.725  1.00  0.00     0.031 A 
ATOM     78  C   UNL A   1      47.423  20.289  34.525  1.00  0.00     0.131 A 
ATOM     79  C   UNL A   1      49.674  21.928  34.617  1.00  0.00     0.055 A 
ATOM     80  C   UNL A   1      48.708  19.747  34.349  1.00  0.00     0.041 A 
ATOM     81  F   UNL A   1      46.395  19.432  34.590  1.00  0.00    -0.206 F 
ATOM     82  C   UNL A   1      49.841  20.552  34.475  1.00  0.00     0.022 A 
BRANCH  79  83
ATOM     83  S   UNL A   1      51.140  22.981  34.864  1.00  0.00     0.124 S 
ATOM     84  O   UNL A   1      50.785  23.697  36.086  1.00  0.00    -0.237 OA
ATOM     85  O   UNL A   1      52.230  22.018  34.993  1.00  0.00    -0.237 OA
ATOM     86  O   UNL A   1      51.175  23.798  33.653  1.00  0.00    -0.744 OA
ENDBRANCH  79  83
ENDBRANCH  52  76
BRANCH  64  87
ATOM     87  C   UNL A   1      45.258  27.003  39.379  1.00  0.00     0.023 A 
ATOM     88  C   UNL A   1      45.989  28.164  39.116  1.00  0.00     0.031 A 
ATOM     89  C   UNL A   1      44.909  26.808  40.739  1.00  0.00     0.131 A 
ATOM     90  C   UNL A   1      46.505  28.950  40.154  1.00  0.00     0.055 A 
ATOM     91  C   UNL A   1      45.295  27.680  41.761  1.00  0.00     0.041 A 
ATOM     92  F   UNL A   1      44.173  25.766  41.150  1.00  0.00    -0.206 F 
ATOM     93  C   UNL A   1      46.140  28.738  41.477  1.00  0.00     0.022 A 
BRANCH  90  94
ATOM     94  S   UNL A   1      47.800  30.134  39.722  1.00  0.00     0.124 S 
ATOM     95  O   UNL A   1      47.094  31.406  39.860  1.00  0.00    -0.237 OA
ATOM     96  O   UNL A   1      48.821  29.867  40.730  1.00  0.00    -0.237 OA
ATOM     97  O   UNL A   1      48.159  29.767  38.355  1.00  0.00    -0.744 OA
ENDBRANCH  90  94
ENDBRANCH  64  87
ENDBRANCH  38  39
ENDBRANCH  31  33
ENDBRANCH  30  31
ENDBRANCH   1  30
TORSDOF 15
ENDMDL
