MODEL 1
REMARK VINA RESULT:     -10.2      0.000      0.000
REMARK SMILES C[NH2+]CCCC(=O)NC[C@@H]1CC[C@H](C(=O)OCCOC(=O)c2ccc(-c3c4nc(c(-c5cc(S(=O)(=O)[O-])ccc5F)c5ccc([nH]5)c(-c5cc(S(=O)(=O)[O-])ccc5F)c5nc(c(-c6cc(S(=O)(=O)[O-])ccc6F)c6ccc3[nH]6)C=C5)C=C4)cc2)O1
REMARK SMILES IDX 16 1 14 2 15 3 13 4 10 5 11 6 85 7 12 8 9 9 8 10 6 11 7 12
REMARK SMILES IDX 5 14 4 15 3 16 2 17 1 18 17 21 18 22 19 23 20 24 21 25 22 26
REMARK SMILES IDX 23 27 84 28 24 29 83 30 25 31 26 32 27 33 77 34 28 35 82 36
REMARK SMILES IDX 76 37 78 38 29 39 81 40 75 41 74 42 30 44 62 45 42 46 61 47
REMARK SMILES IDX 43 48 46 49 60 50 79 51 44 52 45 53 59 55 80 56 47 57 31 58
REMARK SMILES IDX 32 59 40 60 33 61 39 62 41 63 38 64 34 65 35 66 36 67 37 68
REMARK SMILES IDX 63 69 64 70 72 71 65 72 71 73 73 74 70 75 66 76 67 77 68 78
REMARK SMILES IDX 69 79 48 80 49 81 57 82 50 83 56 84 58 85 55 86 51 87 52 88
REMARK SMILES IDX 53 89 54 90
REMARK H PARENT 8 13 2 19 2 20 78 43 46 54
REMARK Flexibility Score: inf
ROOT
ATOM      1  O   UNL A   1      34.231  22.701  23.585  1.00  0.00    -0.460 OA
ENDROOT
BRANCH   1   2
ATOM      2  C   UNL A   1      33.625  23.580  22.739  1.00  0.00     0.335 C 
ATOM      3  O   UNL A   1      33.634  23.482  21.518  1.00  0.00    -0.249 OA
BRANCH   2   4
ATOM      4  C   UNL A   1      32.920  24.725  23.500  1.00  0.00     0.228 C 
ATOM      5  C   UNL A   1      31.190  23.955  24.846  1.00  0.00     0.138 C 
ATOM      6  C   UNL A   1      30.644  24.205  23.443  1.00  0.00     0.037 C 
ATOM      7  O   UNL A   1      32.580  24.328  24.833  1.00  0.00    -0.361 OA
ATOM      8  C   UNL A   1      31.622  25.205  22.882  1.00  0.00     0.047 C 
BRANCH   5   9
ATOM      9  C   UNL A   1      31.105  22.500  25.330  1.00  0.00     0.147 C 
BRANCH   9  10
ATOM     10  N   UNL A   1      32.335  22.129  26.017  1.00  0.00    -0.353 N 
ATOM     11  C   UNL A   1      32.984  20.935  26.060  1.00  0.00     0.220 C 
ATOM     12  O   UNL A   1      33.912  20.787  26.855  1.00  0.00    -0.275 OA
ATOM     13  H   UNL A   1      32.762  22.854  26.528  1.00  0.00     0.163 HD
BRANCH  11  14
ATOM     14  C   UNL A   1      32.585  19.817  25.119  1.00  0.00     0.106 C 
BRANCH  14  15
ATOM     15  C   UNL A   1      33.771  19.117  24.451  1.00  0.00     0.071 C 
BRANCH  15  16
ATOM     16  C   UNL A   1      33.861  17.603  24.664  1.00  0.00     0.260 C 
BRANCH  16  17
ATOM     17  N   UNL A   1      33.349  17.148  25.959  1.00  0.00    -0.349 N 
ATOM     18  C   UNL A   1      32.612  15.898  25.869  1.00  0.00     0.330 C 
ATOM     19  H   UNL A   1      34.138  17.016  26.591  1.00  0.00     0.346 HD
ATOM     20  H   UNL A   1      32.703  17.860  26.299  1.00  0.00     0.346 HD
ENDBRANCH  16  17
ENDBRANCH  15  16
ENDBRANCH  14  15
ENDBRANCH  11  14
ENDBRANCH   9  10
ENDBRANCH   5   9
ENDBRANCH   2   4
ENDBRANCH   1   2
BRANCH   1  21
ATOM     21  C   UNL A   1      35.565  23.015  24.025  1.00  0.00     0.274 C 
BRANCH  21  22
ATOM     22  C   UNL A   1      36.309  21.717  24.324  1.00  0.00     0.275 C 
BRANCH  22  23
ATOM     23  O   UNL A   1      36.860  21.780  25.652  1.00  0.00    -0.458 OA
BRANCH  23  24
ATOM     24  C   UNL A   1      38.145  21.372  25.778  1.00  0.00     0.338 C 
ATOM     25  O   UNL A   1      38.626  20.308  25.433  1.00  0.00    -0.246 OA
BRANCH  24  26
ATOM     26  C   UNL A   1      38.934  22.480  26.333  1.00  0.00     0.060 A 
ATOM     27  C   UNL A   1      38.614  23.780  25.951  1.00  0.00     0.016 A 
ATOM     28  C   UNL A   1      40.022  22.239  27.165  1.00  0.00     0.016 A 
ATOM     29  C   UNL A   1      39.394  24.853  26.365  1.00  0.00     0.010 A 
ATOM     30  C   UNL A   1      40.763  23.326  27.646  1.00  0.00     0.010 A 
ATOM     31  C   UNL A   1      40.459  24.642  27.246  1.00  0.00    -0.014 A 
BRANCH  31  32
ATOM     32  C   UNL A   1      41.244  25.795  27.762  1.00  0.00     0.031 A 
ATOM     33  C   UNL A   1      40.569  26.845  28.598  1.00  0.00     0.074 A 
ATOM     34  C   UNL A   1      42.552  25.906  27.454  1.00  0.00     0.049 A 
ATOM     35  N   UNL A   1      41.008  28.022  28.957  1.00  0.00    -0.248 NA
ATOM     36  C   UNL A   1      39.215  26.534  29.083  1.00  0.00     0.031 C 
ATOM     37  C   UNL A   1      43.331  24.920  26.698  1.00  0.00     0.029 A 
ATOM     38  N   UNL A   1      43.458  26.902  27.723  1.00  0.00    -0.354 N 
ATOM     39  C   UNL A   1      39.968  28.617  29.663  1.00  0.00     0.074 A 
ATOM     40  C   UNL A   1      38.877  27.665  29.687  1.00  0.00     0.031 C 
ATOM     41  C   UNL A   1      44.591  25.362  26.565  1.00  0.00     0.029 A 
ATOM     42  C   UNL A   1      44.689  26.697  27.139  1.00  0.00     0.049 A 
ATOM     43  H   UNL A   1      43.248  27.688  28.278  1.00  0.00     0.167 HD
ATOM     44  C   UNL A   1      39.931  29.850  30.224  1.00  0.00     0.034 A 
ATOM     45  C   UNL A   1      45.752  27.516  27.017  1.00  0.00     0.034 A 
ATOM     46  C   UNL A   1      41.048  30.762  30.224  1.00  0.00     0.049 A 
ATOM     47  C   UNL A   1      45.659  28.905  27.594  1.00  0.00     0.074 A 
ATOM     48  C   UNL A   1      41.144  32.006  30.824  1.00  0.00     0.029 A 
ATOM     49  N   UNL A   1      42.260  30.533  29.587  1.00  0.00    -0.354 N 
ATOM     50  N   UNL A   1      44.664  29.461  28.247  1.00  0.00    -0.248 NA
ATOM     51  C   UNL A   1      46.819  29.783  27.401  1.00  0.00     0.031 C 
ATOM     52  C   UNL A   1      42.387  32.556  30.493  1.00  0.00     0.029 A 
ATOM     53  C   UNL A   1      43.093  31.631  29.739  1.00  0.00     0.049 A 
ATOM     54  H   UNL A   1      42.494  29.712  29.097  1.00  0.00     0.167 HD
ATOM     55  C   UNL A   1      45.085  30.752  28.547  1.00  0.00     0.074 A 
ATOM     56  C   UNL A   1      46.431  30.883  28.028  1.00  0.00     0.031 C 
ATOM     57  C   UNL A   1      44.421  31.745  29.192  1.00  0.00     0.034 A 
BRANCH  44  58
ATOM     58  C   UNL A   1      38.628  30.313  30.822  1.00  0.00     0.023 A 
ATOM     59  C   UNL A   1      37.666  31.017  30.079  1.00  0.00     0.031 A 
ATOM     60  C   UNL A   1      38.347  30.031  32.172  1.00  0.00     0.131 A 
ATOM     61  C   UNL A   1      36.485  31.452  30.703  1.00  0.00     0.055 A 
ATOM     62  C   UNL A   1      37.146  30.414  32.771  1.00  0.00     0.041 A 
ATOM     63  F   UNL A   1      39.241  29.381  32.934  1.00  0.00    -0.206 F 
ATOM     64  C   UNL A   1      36.210  31.136  32.037  1.00  0.00     0.022 A 
BRANCH  61  65
ATOM     65  S   UNL A   1      35.349  32.518  29.775  1.00  0.00     0.124 S 
ATOM     66  O   UNL A   1      34.370  32.871  30.800  1.00  0.00    -0.237 OA
ATOM     67  O   UNL A   1      36.223  33.597  29.327  1.00  0.00    -0.237 OA
ATOM     68  O   UNL A   1      34.846  31.645  28.716  1.00  0.00    -0.744 OA
ENDBRANCH  61  65
ENDBRANCH  44  58
BRANCH  45  69
ATOM     69  C   UNL A   1      46.949  27.096  26.232  1.00  0.00     0.023 A 
ATOM     70  C   UNL A   1      48.065  26.518  26.857  1.00  0.00     0.031 A 
ATOM     71  C   UNL A   1      47.018  27.323  24.844  1.00  0.00     0.131 A 
ATOM     72  C   UNL A   1      49.215  26.226  26.105  1.00  0.00     0.055 A 
ATOM     73  C   UNL A   1      48.140  26.977  24.091  1.00  0.00     0.041 A 
ATOM     74  F   UNL A   1      45.983  27.882  24.195  1.00  0.00    -0.206 F 
ATOM     75  C   UNL A   1      49.254  26.438  24.725  1.00  0.00     0.022 A 
BRANCH  72  76
ATOM     76  S   UNL A   1      50.703  25.667  26.978  1.00  0.00     0.124 S 
ATOM     77  O   UNL A   1      50.272  24.379  27.510  1.00  0.00    -0.237 OA
ATOM     78  O   UNL A   1      51.686  25.621  25.900  1.00  0.00    -0.237 OA
ATOM     79  O   UNL A   1      50.924  26.711  27.977  1.00  0.00    -0.744 OA
ENDBRANCH  72  76
ENDBRANCH  45  69
BRANCH  57  80
ATOM     80  C   UNL A   1      45.162  33.041  29.378  1.00  0.00     0.023 A 
ATOM     81  C   UNL A   1      45.137  34.044  28.394  1.00  0.00     0.031 A 
ATOM     82  C   UNL A   1      45.914  33.269  30.543  1.00  0.00     0.131 A 
ATOM     83  C   UNL A   1      45.891  35.213  28.572  1.00  0.00     0.055 A 
ATOM     84  C   UNL A   1      46.620  34.456  30.738  1.00  0.00     0.041 A 
ATOM     85  F   UNL A   1      45.971  32.340  31.512  1.00  0.00    -0.206 F 
ATOM     86  C   UNL A   1      46.619  35.432  29.745  1.00  0.00     0.022 A 
BRANCH  83  87
ATOM     87  S   UNL A   1      45.958  36.421  27.221  1.00  0.00     0.124 S 
ATOM     88  O   UNL A   1      47.187  37.147  27.526  1.00  0.00    -0.237 OA
ATOM     89  O   UNL A   1      46.000  35.567  26.037  1.00  0.00    -0.237 OA
ATOM     90  O   UNL A   1      44.726  37.188  27.385  1.00  0.00    -0.744 OA
ENDBRANCH  83  87
ENDBRANCH  57  80
ENDBRANCH  31  32
ENDBRANCH  24  26
ENDBRANCH  23  24
ENDBRANCH  22  23
ENDBRANCH  21  22
ENDBRANCH   1  21
TORSDOF 20
ENDMDL
MODEL 2
REMARK VINA RESULT:     -10.0      2.036      3.422
REMARK SMILES C[NH2+]CCCC(=O)NC[C@@H]1CC[C@H](C(=O)OCCOC(=O)c2ccc(-c3c4nc(c(-c5cc(S(=O)(=O)[O-])ccc5F)c5ccc([nH]5)c(-c5cc(S(=O)(=O)[O-])ccc5F)c5nc(c(-c6cc(S(=O)(=O)[O-])ccc6F)c6ccc3[nH]6)C=C5)C=C4)cc2)O1
REMARK SMILES IDX 16 1 14 2 15 3 13 4 10 5 11 6 85 7 12 8 9 9 8 10 6 11 7 12
REMARK SMILES IDX 5 14 4 15 3 16 2 17 1 18 17 21 18 22 19 23 20 24 21 25 22 26
REMARK SMILES IDX 23 27 84 28 24 29 83 30 25 31 26 32 27 33 77 34 28 35 82 36
REMARK SMILES IDX 76 37 78 38 29 39 81 40 75 41 74 42 30 44 62 45 42 46 61 47
REMARK SMILES IDX 43 48 46 49 60 50 79 51 44 52 45 53 59 55 80 56 47 57 31 58
REMARK SMILES IDX 32 59 40 60 33 61 39 62 41 63 38 64 34 65 35 66 36 67 37 68
REMARK SMILES IDX 63 69 64 70 72 71 65 72 71 73 73 74 70 75 66 76 67 77 68 78
REMARK SMILES IDX 69 79 48 80 49 81 57 82 50 83 56 84 58 85 55 86 51 87 52 88
REMARK SMILES IDX 53 89 54 90
REMARK H PARENT 8 13 2 19 2 20 78 43 46 54
REMARK Flexibility Score: inf
ROOT
ATOM      1  O   UNL A   1      33.900  21.351  26.511  1.00  0.00    -0.460 OA
ENDROOT
BRANCH   1   2
ATOM      2  C   UNL A   1      32.892  22.086  27.058  1.00  0.00     0.335 C 
ATOM      3  O   UNL A   1      32.914  22.553  28.190  1.00  0.00    -0.249 OA
BRANCH   2   4
ATOM      4  C   UNL A   1      31.709  22.266  26.080  1.00  0.00     0.228 C 
ATOM      5  C   UNL A   1      32.077  23.982  24.558  1.00  0.00     0.138 C 
ATOM      6  C   UNL A   1      31.457  24.574  25.821  1.00  0.00     0.037 C 
ATOM      7  O   UNL A   1      32.171  22.560  24.758  1.00  0.00    -0.361 OA
ATOM      8  C   UNL A   1      30.751  23.388  26.428  1.00  0.00     0.047 C 
BRANCH   5   9
ATOM      9  C   UNL A   1      33.483  24.497  24.217  1.00  0.00     0.147 C 
BRANCH   9  10
ATOM     10  N   UNL A   1      33.612  24.683  22.778  1.00  0.00    -0.353 N 
ATOM     11  C   UNL A   1      33.092  25.648  21.973  1.00  0.00     0.220 C 
ATOM     12  O   UNL A   1      33.170  25.514  20.752  1.00  0.00    -0.275 OA
ATOM     13  H   UNL A   1      34.159  24.007  22.318  1.00  0.00     0.163 HD
BRANCH  11  14
ATOM     14  C   UNL A   1      32.456  26.882  22.577  1.00  0.00     0.106 C 
BRANCH  14  15
ATOM     15  C   UNL A   1      33.414  28.067  22.720  1.00  0.00     0.071 C 
BRANCH  15  16
ATOM     16  C   UNL A   1      33.771  28.471  24.154  1.00  0.00     0.260 C 
BRANCH  16  17
ATOM     17  N   UNL A   1      32.906  27.878  25.177  1.00  0.00    -0.349 N 
ATOM     18  C   UNL A   1      33.520  27.855  26.494  1.00  0.00     0.330 C 
ATOM     19  H   UNL A   1      32.045  28.422  25.228  1.00  0.00     0.346 HD
ATOM     20  H   UNL A   1      32.729  26.911  24.904  1.00  0.00     0.346 HD
ENDBRANCH  16  17
ENDBRANCH  15  16
ENDBRANCH  14  15
ENDBRANCH  11  14
ENDBRANCH   9  10
ENDBRANCH   5   9
ENDBRANCH   2   4
ENDBRANCH   1   2
BRANCH   1  21
ATOM     21  C   UNL A   1      35.180  21.992  26.357  1.00  0.00     0.274 C 
BRANCH  21  22
ATOM     22  C   UNL A   1      36.067  21.125  25.467  1.00  0.00     0.275 C 
BRANCH  22  23
ATOM     23  O   UNL A   1      37.284  21.834  25.175  1.00  0.00    -0.458 OA
BRANCH  23  24
ATOM     24  C   UNL A   1      38.399  21.369  25.789  1.00  0.00     0.338 C 
ATOM     25  O   UNL A   1      38.803  20.222  25.830  1.00  0.00    -0.246 OA
BRANCH  24  26
ATOM     26  C   UNL A   1      39.134  22.511  26.349  1.00  0.00     0.060 A 
ATOM     27  C   UNL A   1      38.747  23.797  25.978  1.00  0.00     0.016 A 
ATOM     28  C   UNL A   1      40.238  22.320  27.173  1.00  0.00     0.016 A 
ATOM     29  C   UNL A   1      39.474  24.905  26.396  1.00  0.00     0.010 A 
ATOM     30  C   UNL A   1      40.925  23.439  27.658  1.00  0.00     0.010 A 
ATOM     31  C   UNL A   1      40.552  24.741  27.270  1.00  0.00    -0.014 A 
BRANCH  31  32
ATOM     32  C   UNL A   1      41.281  25.928  27.791  1.00  0.00     0.031 A 
ATOM     33  C   UNL A   1      40.542  26.975  28.575  1.00  0.00     0.074 A 
ATOM     34  C   UNL A   1      42.597  26.073  27.533  1.00  0.00     0.049 A 
ATOM     35  N   UNL A   1      40.930  28.172  28.925  1.00  0.00    -0.248 NA
ATOM     36  C   UNL A   1      39.179  26.632  29.013  1.00  0.00     0.031 C 
ATOM     37  C   UNL A   1      43.435  25.096  26.830  1.00  0.00     0.029 A 
ATOM     38  N   UNL A   1      43.461  27.103  27.814  1.00  0.00    -0.354 N 
ATOM     39  C   UNL A   1      39.845  28.750  29.575  1.00  0.00     0.074 A 
ATOM     40  C   UNL A   1      38.784  27.765  29.577  1.00  0.00     0.031 C 
ATOM     41  C   UNL A   1      44.686  25.574  26.737  1.00  0.00     0.029 A 
ATOM     42  C   UNL A   1      44.720  26.923  27.285  1.00  0.00     0.049 A 
ATOM     43  H   UNL A   1      43.205  27.893  28.343  1.00  0.00     0.167 HD
ATOM     44  C   UNL A   1      39.749  29.992  30.107  1.00  0.00     0.034 A 
ATOM     45  C   UNL A   1      45.762  27.772  27.186  1.00  0.00     0.034 A 
ATOM     46  C   UNL A   1      40.837  30.938  30.131  1.00  0.00     0.049 A 
ATOM     47  C   UNL A   1      45.604  29.169  27.728  1.00  0.00     0.074 A 
ATOM     48  C   UNL A   1      40.872  32.197  30.706  1.00  0.00     0.029 A 
ATOM     49  N   UNL A   1      42.080  30.734  29.547  1.00  0.00    -0.354 N 
ATOM     50  N   UNL A   1      44.567  29.708  28.329  1.00  0.00    -0.248 NA
ATOM     51  C   UNL A   1      46.744  30.078  27.561  1.00  0.00     0.031 C 
ATOM     52  C   UNL A   1      42.110  32.778  30.413  1.00  0.00     0.029 A 
ATOM     53  C   UNL A   1      42.872  31.860  29.708  1.00  0.00     0.049 A 
ATOM     54  H   UNL A   1      42.359  29.910  29.086  1.00  0.00     0.167 HD
ATOM     55  C   UNL A   1      44.937  31.017  28.616  1.00  0.00     0.074 A 
ATOM     56  C   UNL A   1      46.298  31.179  28.148  1.00  0.00     0.031 C 
ATOM     57  C   UNL A   1      44.218  32.003  29.212  1.00  0.00     0.034 A 
BRANCH  44  58
ATOM     58  C   UNL A   1      38.409  30.427  30.643  1.00  0.00     0.023 A 
ATOM     59  C   UNL A   1      37.455  31.081  29.845  1.00  0.00     0.031 A 
ATOM     60  C   UNL A   1      38.084  30.170  31.987  1.00  0.00     0.131 A 
ATOM     61  C   UNL A   1      36.238  31.493  30.412  1.00  0.00     0.055 A 
ATOM     62  C   UNL A   1      36.850  30.529  32.529  1.00  0.00     0.041 A 
ATOM     63  F   UNL A   1      38.968  29.569  32.800  1.00  0.00    -0.206 F 
ATOM     64  C   UNL A   1      35.920  31.201  31.742  1.00  0.00     0.022 A 
BRANCH  61  65
ATOM     65  S   UNL A   1      35.106  32.498  29.413  1.00  0.00     0.124 S 
ATOM     66  O   UNL A   1      34.296  33.144  30.443  1.00  0.00    -0.237 OA
ATOM     67  O   UNL A   1      36.019  33.367  28.679  1.00  0.00    -0.237 OA
ATOM     68  O   UNL A   1      34.397  31.512  28.600  1.00  0.00    -0.744 OA
ENDBRANCH  61  65
ENDBRANCH  44  58
BRANCH  45  69
ATOM     69  C   UNL A   1      47.002  27.372  26.460  1.00  0.00     0.023 A 
ATOM     70  C   UNL A   1      47.198  27.708  25.111  1.00  0.00     0.031 A 
ATOM     71  C   UNL A   1      47.989  26.591  27.092  1.00  0.00     0.131 A 
ATOM     72  C   UNL A   1      48.328  27.231  24.428  1.00  0.00     0.055 A 
ATOM     73  C   UNL A   1      49.139  26.169  26.426  1.00  0.00     0.041 A 
ATOM     74  F   UNL A   1      47.849  26.232  28.379  1.00  0.00    -0.206 F 
ATOM     75  C   UNL A   1      49.306  26.477  25.080  1.00  0.00     0.022 A 
BRANCH  72  76
ATOM     76  S   UNL A   1      48.447  27.517  22.641  1.00  0.00     0.124 S 
ATOM     77  O   UNL A   1      47.195  28.213  22.365  1.00  0.00    -0.237 OA
ATOM     78  O   UNL A   1      49.662  28.319  22.544  1.00  0.00    -0.237 OA
ATOM     79  O   UNL A   1      48.545  26.168  22.086  1.00  0.00    -0.744 OA
ENDBRANCH  72  76
ENDBRANCH  45  69
BRANCH  57  80
ATOM     80  C   UNL A   1      44.912  33.325  29.398  1.00  0.00     0.023 A 
ATOM     81  C   UNL A   1      44.761  34.366  28.466  1.00  0.00     0.031 A 
ATOM     82  C   UNL A   1      45.745  33.540  30.508  1.00  0.00     0.131 A 
ATOM     83  C   UNL A   1      45.472  35.562  28.637  1.00  0.00     0.055 A 
ATOM     84  C   UNL A   1      46.409  34.751  30.701  1.00  0.00     0.041 A 
ATOM     85  F   UNL A   1      45.923  32.575  31.426  1.00  0.00    -0.206 F 
ATOM     86  C   UNL A   1      46.283  35.767  29.757  1.00  0.00     0.022 A 
BRANCH  83  87
ATOM     87  S   UNL A   1      45.374  36.828  27.342  1.00  0.00     0.124 S 
ATOM     88  O   UNL A   1      44.005  36.665  26.863  1.00  0.00    -0.237 OA
ATOM     89  O   UNL A   1      45.650  38.056  28.081  1.00  0.00    -0.237 OA
ATOM     90  O   UNL A   1      46.414  36.430  26.396  1.00  0.00    -0.744 OA
ENDBRANCH  83  87
ENDBRANCH  57  80
ENDBRANCH  31  32
ENDBRANCH  24  26
ENDBRANCH  23  24
ENDBRANCH  22  23
ENDBRANCH  21  22
ENDBRANCH   1  21
TORSDOF 20
ENDMDL
MODEL 3
REMARK VINA RESULT:      -9.6      2.429      3.882
REMARK SMILES C[NH2+]CCCC(=O)NC[C@@H]1CC[C@H](C(=O)OCCOC(=O)c2ccc(-c3c4nc(c(-c5cc(S(=O)(=O)[O-])ccc5F)c5ccc([nH]5)c(-c5cc(S(=O)(=O)[O-])ccc5F)c5nc(c(-c6cc(S(=O)(=O)[O-])ccc6F)c6ccc3[nH]6)C=C5)C=C4)cc2)O1
REMARK SMILES IDX 16 1 14 2 15 3 13 4 10 5 11 6 85 7 12 8 9 9 8 10 6 11 7 12
REMARK SMILES IDX 5 14 4 15 3 16 2 17 1 18 17 21 18 22 19 23 20 24 21 25 22 26
REMARK SMILES IDX 23 27 84 28 24 29 83 30 25 31 26 32 27 33 77 34 28 35 82 36
REMARK SMILES IDX 76 37 78 38 29 39 81 40 75 41 74 42 30 44 62 45 42 46 61 47
REMARK SMILES IDX 43 48 46 49 60 50 79 51 44 52 45 53 59 55 80 56 47 57 31 58
REMARK SMILES IDX 32 59 40 60 33 61 39 62 41 63 38 64 34 65 35 66 36 67 37 68
REMARK SMILES IDX 63 69 64 70 72 71 65 72 71 73 73 74 70 75 66 76 67 77 68 78
REMARK SMILES IDX 69 79 48 80 49 81 57 82 50 83 56 84 58 85 55 86 51 87 52 88
REMARK SMILES IDX 53 89 54 90
REMARK H PARENT 8 13 2 19 2 20 78 43 46 54
REMARK Flexibility Score: inf
ROOT
ATOM      1  O   UNL A   1      34.342  21.137  25.394  1.00  0.00    -0.460 OA
ENDROOT
BRANCH   1   2
ATOM      2  C   UNL A   1      33.283  21.649  26.081  1.00  0.00     0.335 C 
ATOM      3  O   UNL A   1      33.373  22.221  27.160  1.00  0.00    -0.249 OA
BRANCH   2   4
ATOM      4  C   UNL A   1      31.947  21.425  25.339  1.00  0.00     0.228 C 
ATOM      5  C   UNL A   1      31.626  22.953  23.619  1.00  0.00     0.138 C 
ATOM      6  C   UNL A   1      31.100  23.560  24.915  1.00  0.00     0.037 C 
ATOM      7  O   UNL A   1      32.096  21.628  23.931  1.00  0.00    -0.361 OA
ATOM      8  C   UNL A   1      30.816  22.343  25.759  1.00  0.00     0.047 C 
BRANCH   5   9
ATOM      9  C   UNL A   1      32.787  23.714  22.963  1.00  0.00     0.147 C 
BRANCH   9  10
ATOM     10  N   UNL A   1      32.286  24.564  21.891  1.00  0.00    -0.353 N 
ATOM     11  C   UNL A   1      31.974  25.887  21.900  1.00  0.00     0.220 C 
ATOM     12  O   UNL A   1      31.388  26.370  20.932  1.00  0.00    -0.275 OA
ATOM     13  H   UNL A   1      32.154  24.111  21.028  1.00  0.00     0.163 HD
BRANCH  11  14
ATOM     14  C   UNL A   1      32.373  26.755  23.076  1.00  0.00     0.106 C 
BRANCH  14  15
ATOM     15  C   UNL A   1      31.230  27.036  24.056  1.00  0.00     0.071 C 
BRANCH  15  16
ATOM     16  C   UNL A   1      30.492  28.363  23.861  1.00  0.00     0.260 C 
BRANCH  16  17
ATOM     17  N   UNL A   1      29.786  28.475  22.582  1.00  0.00    -0.349 N 
ATOM     18  C   UNL A   1      29.979  29.764  21.940  1.00  0.00     0.330 C 
ATOM     19  H   UNL A   1      30.129  27.745  21.958  1.00  0.00     0.346 HD
ATOM     20  H   UNL A   1      28.790  28.374  22.774  1.00  0.00     0.346 HD
ENDBRANCH  16  17
ENDBRANCH  15  16
ENDBRANCH  14  15
ENDBRANCH  11  14
ENDBRANCH   9  10
ENDBRANCH   5   9
ENDBRANCH   2   4
ENDBRANCH   1   2
BRANCH   1  21
ATOM     21  C   UNL A   1      35.591  21.847  25.473  1.00  0.00     0.274 C 
BRANCH  21  22
ATOM     22  C   UNL A   1      36.734  20.878  25.183  1.00  0.00     0.275 C 
BRANCH  22  23
ATOM     23  O   UNL A   1      37.970  21.611  25.107  1.00  0.00    -0.458 OA
BRANCH  23  24
ATOM     24  C   UNL A   1      38.906  21.286  26.030  1.00  0.00     0.338 C 
ATOM     25  O   UNL A   1      39.226  20.174  26.408  1.00  0.00    -0.246 OA
BRANCH  24  26
ATOM     26  C   UNL A   1      39.576  22.518  26.468  1.00  0.00     0.060 A 
ATOM     27  C   UNL A   1      40.653  22.412  27.344  1.00  0.00     0.016 A 
ATOM     28  C   UNL A   1      39.107  23.768  26.080  1.00  0.00     0.016 A 
ATOM     29  C   UNL A   1      41.255  23.549  27.870  1.00  0.00     0.010 A 
ATOM     30  C   UNL A   1      39.761  24.914  26.547  1.00  0.00     0.010 A 
ATOM     31  C   UNL A   1      40.837  24.815  27.451  1.00  0.00    -0.014 A 
BRANCH  31  32
ATOM     32  C   UNL A   1      41.533  26.034  27.942  1.00  0.00     0.031 A 
ATOM     33  C   UNL A   1      40.770  27.068  28.721  1.00  0.00     0.074 A 
ATOM     34  C   UNL A   1      42.839  26.218  27.663  1.00  0.00     0.049 A 
ATOM     35  N   UNL A   1      41.123  28.283  29.046  1.00  0.00    -0.248 NA
ATOM     36  C   UNL A   1      39.426  26.688  29.184  1.00  0.00     0.031 C 
ATOM     37  C   UNL A   1      43.700  25.259  26.964  1.00  0.00     0.029 A 
ATOM     38  N   UNL A   1      43.673  27.280  27.916  1.00  0.00    -0.354 N 
ATOM     39  C   UNL A   1      40.029  28.834  29.704  1.00  0.00     0.074 A 
ATOM     40  C   UNL A   1      39.001  27.815  29.736  1.00  0.00     0.031 C 
ATOM     41  C   UNL A   1      44.932  25.776  26.845  1.00  0.00     0.029 A 
ATOM     42  C   UNL A   1      44.929  27.135  27.371  1.00  0.00     0.049 A 
ATOM     43  H   UNL A   1      43.398  28.070  28.436  1.00  0.00     0.167 HD
ATOM     44  C   UNL A   1      39.899  30.081  30.218  1.00  0.00     0.034 A 
ATOM     45  C   UNL A   1      45.941  28.016  27.244  1.00  0.00     0.034 A 
ATOM     46  C   UNL A   1      40.955  31.063  30.211  1.00  0.00     0.049 A 
ATOM     47  C   UNL A   1      45.744  29.415  27.766  1.00  0.00     0.074 A 
ATOM     48  C   UNL A   1      40.955  32.332  30.766  1.00  0.00     0.029 A 
ATOM     49  N   UNL A   1      42.195  30.891  29.613  1.00  0.00    -0.354 N 
ATOM     50  N   UNL A   1      44.698  29.929  28.374  1.00  0.00    -0.248 NA
ATOM     51  C   UNL A   1      46.851  30.359  27.569  1.00  0.00     0.031 C 
ATOM     52  C   UNL A   1      42.170  32.948  30.445  1.00  0.00     0.029 A 
ATOM     53  C   UNL A   1      42.952  32.045  29.744  1.00  0.00     0.049 A 
ATOM     54  H   UNL A   1      42.495  30.069  29.160  1.00  0.00     0.167 HD
ATOM     55  C   UNL A   1      45.028  31.254  28.635  1.00  0.00     0.074 A 
ATOM     56  C   UNL A   1      46.376  31.453  28.145  1.00  0.00     0.031 C 
ATOM     57  C   UNL A   1      44.285  32.224  29.226  1.00  0.00     0.034 A 
BRANCH  44  58
ATOM     58  C   UNL A   1      38.553  30.480  30.766  1.00  0.00     0.023 A 
ATOM     59  C   UNL A   1      37.592  31.149  29.990  1.00  0.00     0.031 A 
ATOM     60  C   UNL A   1      38.230  30.172  32.100  1.00  0.00     0.131 A 
ATOM     61  C   UNL A   1      36.369  31.525  30.568  1.00  0.00     0.055 A 
ATOM     62  C   UNL A   1      36.990  30.496  32.652  1.00  0.00     0.041 A 
ATOM     63  F   UNL A   1      39.120  29.554  32.893  1.00  0.00    -0.206 F 
ATOM     64  C   UNL A   1      36.053  31.184  31.887  1.00  0.00     0.022 A 
BRANCH  61  65
ATOM     65  S   UNL A   1      35.225  32.550  29.604  1.00  0.00     0.124 S 
ATOM     66  O   UNL A   1      34.176  32.826  30.583  1.00  0.00    -0.237 OA
ATOM     67  O   UNL A   1      36.060  33.684  29.224  1.00  0.00    -0.237 OA
ATOM     68  O   UNL A   1      34.825  31.676  28.503  1.00  0.00    -0.744 OA
ENDBRANCH  61  65
ENDBRANCH  44  58
BRANCH  45  69
ATOM     69  C   UNL A   1      47.183  27.646  26.506  1.00  0.00     0.023 A 
ATOM     70  C   UNL A   1      47.310  27.880  25.128  1.00  0.00     0.031 A 
ATOM     71  C   UNL A   1      48.245  26.993  27.161  1.00  0.00     0.131 A 
ATOM     72  C   UNL A   1      48.450  27.429  24.443  1.00  0.00     0.055 A 
ATOM     73  C   UNL A   1      49.402  26.600  26.488  1.00  0.00     0.041 A 
ATOM     74  F   UNL A   1      48.174  26.734  28.478  1.00  0.00    -0.206 F 
ATOM     75  C   UNL A   1      49.502  26.804  25.117  1.00  0.00     0.022 A 
BRANCH  72  76
ATOM     76  S   UNL A   1      48.490  27.572  22.636  1.00  0.00     0.124 S 
ATOM     77  O   UNL A   1      48.490  26.172  22.225  1.00  0.00    -0.237 OA
ATOM     78  O   UNL A   1      47.268  28.321  22.365  1.00  0.00    -0.237 OA
ATOM     79  O   UNL A   1      49.734  28.296  22.380  1.00  0.00    -0.744 OA
ENDBRANCH  72  76
ENDBRANCH  45  69
BRANCH  57  80
ATOM     80  C   UNL A   1      44.937  33.572  29.381  1.00  0.00     0.023 A 
ATOM     81  C   UNL A   1      45.714  33.881  30.511  1.00  0.00     0.031 A 
ATOM     82  C   UNL A   1      44.764  34.561  28.399  1.00  0.00     0.131 A 
ATOM     83  C   UNL A   1      46.254  35.168  30.653  1.00  0.00     0.055 A 
ATOM     84  C   UNL A   1      45.347  35.823  28.521  1.00  0.00     0.041 A 
ATOM     85  F   UNL A   1      44.028  34.315  27.303  1.00  0.00    -0.206 F 
ATOM     86  C   UNL A   1      46.088  36.135  29.658  1.00  0.00     0.022 A 
BRANCH  83  87
ATOM     87  S   UNL A   1      47.124  35.582  32.189  1.00  0.00     0.124 S 
ATOM     88  O   UNL A   1      48.367  36.159  31.685  1.00  0.00    -0.237 OA
ATOM     89  O   UNL A   1      46.203  36.515  32.831  1.00  0.00    -0.237 OA
ATOM     90  O   UNL A   1      47.266  34.293  32.861  1.00  0.00    -0.744 OA
ENDBRANCH  83  87
ENDBRANCH  57  80
ENDBRANCH  31  32
ENDBRANCH  24  26
ENDBRANCH  23  24
ENDBRANCH  22  23
ENDBRANCH  21  22
ENDBRANCH   1  21
TORSDOF 20
ENDMDL
