MODEL 1
REMARK VINA RESULT:     -12.6      0.000      0.000
REMARK SMILES Cc1nc(-c2ccc(C(F)(F)F)cc2)nc(SCC(=O)OCCOC(=O)c2ccc(-c3c4nc(c(-c5cc(S(=O)(=O)[O-])ccc5F)c5ccc([nH]5)c(-c5cc(S(=O)(=O)[O-])ccc5F)c5nc(c(-c6cc(S(=O)(=O)[O-])ccc6F)c6ccc3[nH]6)C=C5)C=C4)cc2)c1C
REMARK SMILES IDX 22 1 21 2 19 3 20 4 18 5 17 6 16 7 1 8 2 9 3 10 90 11 4 12
REMARK SMILES IDX 91 13 15 14 5 15 6 16 14 17 7 18 13 19 8 20 9 21 10 22 11 23
REMARK SMILES IDX 12 24 23 25 24 26 25 27 26 28 27 29 28 30 89 31 29 32 88 33
REMARK SMILES IDX 30 34 31 35 32 36 82 37 33 38 87 39 81 40 83 41 34 42 86 43
REMARK SMILES IDX 80 44 79 45 35 47 67 48 47 49 66 50 48 51 51 52 65 53 84 54
REMARK SMILES IDX 49 55 50 56 64 58 85 59 52 60 36 61 37 62 45 63 38 64 44 65
REMARK SMILES IDX 46 66 43 67 39 68 40 69 41 70 42 71 68 72 69 73 77 74 70 75
REMARK SMILES IDX 76 76 78 77 75 78 71 79 72 80 73 81 74 82 53 83 54 84 62 85
REMARK SMILES IDX 55 86 61 87 63 88 60 89 56 90 57 91 58 92 59 93
REMARK H PARENT 83 46 51 57
REMARK Flexibility Score: inf
ROOT
ATOM      1  C   UNL A   1      35.448  21.514  26.066  1.00  0.00     0.274 C 
ENDROOT
BRANCH   1   2
ATOM      2  O   UNL A   1      34.055  21.138  26.029  1.00  0.00    -0.461 OA
BRANCH   2   3
ATOM      3  C   UNL A   1      33.236  21.886  26.811  1.00  0.00     0.316 C 
ATOM      4  O   UNL A   1      33.319  21.927  28.038  1.00  0.00    -0.251 OA
BRANCH   3   5
ATOM      5  C   UNL A   1      32.116  22.604  26.101  1.00  0.00     0.199 C 
BRANCH   5   6
ATOM      6  S   UNL A   1      31.950  24.395  26.283  1.00  0.00    -0.094 SA
BRANCH   6   7
ATOM      7  C   UNL A   1      31.898  25.177  24.679  1.00  0.00     0.104 A 
ATOM      8  C   UNL A   1      32.861  25.328  21.031  1.00  0.00     0.067 C 
ATOM      9  C   UNL A   1      32.274  25.587  22.385  1.00  0.00     0.045 A 
ATOM     10  N   UNL A   1      31.204  26.396  22.341  1.00  0.00    -0.233 NA
ATOM     11  C   UNL A   1      32.741  25.033  23.580  1.00  0.00     0.003 A 
ATOM     12  C   UNL A   1      30.629  26.693  23.504  1.00  0.00     0.160 A 
ATOM     13  C   UNL A   1      34.100  24.436  23.678  1.00  0.00     0.049 C 
ATOM     14  N   UNL A   1      30.879  26.064  24.656  1.00  0.00    -0.221 NA
BRANCH  12  15
ATOM     15  C   UNL A   1      29.903  27.960  23.539  1.00  0.00     0.019 A 
ATOM     16  C   UNL A   1      28.605  28.075  23.022  1.00  0.00     0.012 A 
ATOM     17  C   UNL A   1      30.561  29.130  23.957  1.00  0.00     0.012 A 
ATOM     18  C   UNL A   1      27.987  29.325  22.916  1.00  0.00     0.014 A 
ATOM     19  C   UNL A   1      29.955  30.382  23.836  1.00  0.00     0.014 A 
ATOM     20  C   UNL A   1      28.663  30.493  23.305  1.00  0.00     0.056 A 
BRANCH  20  21
ATOM     21  C   UNL A   1      28.004  31.837  23.139  1.00  0.00     0.416 C 
ATOM     22  F   UNL A   1      27.606  32.077  21.858  1.00  0.00    -0.166 F 
ATOM     23  F   UNL A   1      26.876  31.953  23.898  1.00  0.00    -0.166 F 
ATOM     24  F   UNL A   1      28.791  32.891  23.491  1.00  0.00    -0.166 F 
ENDBRANCH  20  21
ENDBRANCH  12  15
ENDBRANCH   6   7
ENDBRANCH   5   6
ENDBRANCH   3   5
ENDBRANCH   2   3
ENDBRANCH   1   2
BRANCH   1  25
ATOM     25  C   UNL A   1      36.278  20.803  25.000  1.00  0.00     0.275 C 
BRANCH  25  26
ATOM     26  O   UNL A   1      37.504  21.513  24.752  1.00  0.00    -0.458 OA
BRANCH  26  27
ATOM     27  C   UNL A   1      38.528  21.201  25.581  1.00  0.00     0.338 C 
ATOM     28  O   UNL A   1      38.998  20.087  25.750  1.00  0.00    -0.246 OA
BRANCH  27  29
ATOM     29  C   UNL A   1      39.079  22.401  26.262  1.00  0.00     0.060 A 
ATOM     30  C   UNL A   1      38.599  23.692  26.023  1.00  0.00     0.016 A 
ATOM     31  C   UNL A   1      40.220  22.228  27.056  1.00  0.00     0.016 A 
ATOM     32  C   UNL A   1      39.330  24.800  26.470  1.00  0.00     0.010 A 
ATOM     33  C   UNL A   1      40.903  23.336  27.563  1.00  0.00     0.010 A 
ATOM     34  C   UNL A   1      40.492  24.637  27.244  1.00  0.00    -0.014 A 
BRANCH  34  35
ATOM     35  C   UNL A   1      41.284  25.799  27.739  1.00  0.00     0.031 A 
ATOM     36  C   UNL A   1      40.639  26.875  28.578  1.00  0.00     0.074 A 
ATOM     37  C   UNL A   1      42.583  25.919  27.412  1.00  0.00     0.049 A 
ATOM     38  N   UNL A   1      41.054  28.085  28.850  1.00  0.00    -0.248 NA
ATOM     39  C   UNL A   1      39.345  26.542  29.187  1.00  0.00     0.031 C 
ATOM     40  C   UNL A   1      43.366  24.936  26.661  1.00  0.00     0.029 A 
ATOM     41  N   UNL A   1      43.472  26.932  27.666  1.00  0.00    -0.354 N 
ATOM     42  C   UNL A   1      40.053  28.673  29.620  1.00  0.00     0.074 A 
ATOM     43  C   UNL A   1      39.007  27.682  29.772  1.00  0.00     0.031 C 
ATOM     44  C   UNL A   1      44.623  25.383  26.536  1.00  0.00     0.029 A 
ATOM     45  C   UNL A   1      44.710  26.721  27.111  1.00  0.00     0.049 A 
ATOM     46  H   UNL A   1      43.245  27.731  28.194  1.00  0.00     0.167 HD
ATOM     47  C   UNL A   1      40.010  29.921  30.148  1.00  0.00     0.034 A 
ATOM     48  C   UNL A   1      45.779  27.532  27.014  1.00  0.00     0.034 A 
ATOM     49  C   UNL A   1      41.078  30.882  30.033  1.00  0.00     0.049 A 
ATOM     50  C   UNL A   1      45.691  28.934  27.539  1.00  0.00     0.074 A 
ATOM     51  C   UNL A   1      41.135  32.176  30.523  1.00  0.00     0.029 A 
ATOM     52  N   UNL A   1      42.289  30.646  29.398  1.00  0.00    -0.354 N 
ATOM     53  N   UNL A   1      44.683  29.531  28.129  1.00  0.00    -0.248 NA
ATOM     54  C   UNL A   1      46.877  29.780  27.355  1.00  0.00     0.031 C 
ATOM     55  C   UNL A   1      42.365  32.733  30.152  1.00  0.00     0.029 A 
ATOM     56  C   UNL A   1      43.094  31.770  29.475  1.00  0.00     0.049 A 
ATOM     57  H   UNL A   1      42.539  29.801  28.958  1.00  0.00     0.167 HD
ATOM     58  C   UNL A   1      45.108  30.832  28.373  1.00  0.00     0.074 A 
ATOM     59  C   UNL A   1      46.471  30.923  27.889  1.00  0.00     0.031 C 
ATOM     60  C   UNL A   1      44.430  31.860  28.943  1.00  0.00     0.034 A 
BRANCH  47  61
ATOM     61  C   UNL A   1      38.749  30.342  30.859  1.00  0.00     0.023 A 
ATOM     62  C   UNL A   1      37.715  31.027  30.200  1.00  0.00     0.031 A 
ATOM     63  C   UNL A   1      38.572  30.021  32.218  1.00  0.00     0.131 A 
ATOM     64  C   UNL A   1      36.563  31.397  30.910  1.00  0.00     0.055 A 
ATOM     65  C   UNL A   1      37.402  30.346  32.904  1.00  0.00     0.041 A 
ATOM     66  F   UNL A   1      39.537  29.381  32.897  1.00  0.00    -0.206 F 
ATOM     67  C   UNL A   1      36.390  31.044  32.251  1.00  0.00     0.022 A 
BRANCH  64  68
ATOM     68  S   UNL A   1      35.305  32.402  30.073  1.00  0.00     0.124 S 
ATOM     69  O   UNL A   1      34.902  31.520  28.982  1.00  0.00    -0.237 OA
ATOM     70  O   UNL A   1      34.314  32.610  31.123  1.00  0.00    -0.237 OA
ATOM     71  O   UNL A   1      36.037  33.599  29.665  1.00  0.00    -0.744 OA
ENDBRANCH  64  68
ENDBRANCH  47  61
BRANCH  48  72
ATOM     72  C   UNL A   1      46.990  27.054  26.304  1.00  0.00     0.023 A 
ATOM     73  C   UNL A   1      48.063  26.495  27.011  1.00  0.00     0.031 A 
ATOM     74  C   UNL A   1      47.068  27.111  24.901  1.00  0.00     0.131 A 
ATOM     75  C   UNL A   1      49.178  26.015  26.310  1.00  0.00     0.055 A 
ATOM     76  C   UNL A   1      48.165  26.606  24.206  1.00  0.00     0.041 A 
ATOM     77  F   UNL A   1      46.053  27.625  24.187  1.00  0.00    -0.206 F 
ATOM     78  C   UNL A   1      49.231  26.054  24.913  1.00  0.00     0.022 A 
BRANCH  75  79
ATOM     79  S   UNL A   1      50.565  25.324  27.250  1.00  0.00     0.124 S 
ATOM     80  O   UNL A   1      51.494  24.964  26.186  1.00  0.00    -0.237 OA
ATOM     81  O   UNL A   1      50.958  26.450  28.091  1.00  0.00    -0.237 OA
ATOM     82  O   UNL A   1      49.964  24.200  27.964  1.00  0.00    -0.744 OA
ENDBRANCH  75  79
ENDBRANCH  48  72
BRANCH  60  83
ATOM     83  C   UNL A   1      45.166  33.164  29.060  1.00  0.00     0.023 A 
ATOM     84  C   UNL A   1      45.282  34.033  27.962  1.00  0.00     0.031 A 
ATOM     85  C   UNL A   1      45.787  33.526  30.268  1.00  0.00     0.131 A 
ATOM     86  C   UNL A   1      46.046  35.202  28.078  1.00  0.00     0.055 A 
ATOM     87  C   UNL A   1      46.511  34.712  30.390  1.00  0.00     0.041 A 
ATOM     88  F   UNL A   1      45.707  32.726  31.342  1.00  0.00    -0.206 F 
ATOM     89  C   UNL A   1      46.652  35.553  29.288  1.00  0.00     0.022 A 
BRANCH  86  90
ATOM     90  S   UNL A   1      46.300  36.225  26.602  1.00  0.00     0.124 S 
ATOM     91  O   UNL A   1      45.369  37.325  26.831  1.00  0.00    -0.237 OA
ATOM     92  O   UNL A   1      47.718  36.560  26.693  1.00  0.00    -0.237 OA
ATOM     93  O   UNL A   1      45.945  35.332  25.501  1.00  0.00    -0.744 OA
ENDBRANCH  86  90
ENDBRANCH  60  83
ENDBRANCH  34  35
ENDBRANCH  27  29
ENDBRANCH  26  27
ENDBRANCH  25  26
ENDBRANCH   1  25
TORSDOF 18
ENDMDL
MODEL 2
REMARK VINA RESULT:     -12.3      5.926     10.595
REMARK SMILES Cc1nc(-c2ccc(C(F)(F)F)cc2)nc(SCC(=O)OCCOC(=O)c2ccc(-c3c4nc(c(-c5cc(S(=O)(=O)[O-])ccc5F)c5ccc([nH]5)c(-c5cc(S(=O)(=O)[O-])ccc5F)c5nc(c(-c6cc(S(=O)(=O)[O-])ccc6F)c6ccc3[nH]6)C=C5)C=C4)cc2)c1C
REMARK SMILES IDX 22 1 21 2 19 3 20 4 18 5 17 6 16 7 1 8 2 9 3 10 90 11 4 12
REMARK SMILES IDX 91 13 15 14 5 15 6 16 14 17 7 18 13 19 8 20 9 21 10 22 11 23
REMARK SMILES IDX 12 24 23 25 24 26 25 27 26 28 27 29 28 30 89 31 29 32 88 33
REMARK SMILES IDX 30 34 31 35 32 36 82 37 33 38 87 39 81 40 83 41 34 42 86 43
REMARK SMILES IDX 80 44 79 45 35 47 67 48 47 49 66 50 48 51 51 52 65 53 84 54
REMARK SMILES IDX 49 55 50 56 64 58 85 59 52 60 36 61 37 62 45 63 38 64 44 65
REMARK SMILES IDX 46 66 43 67 39 68 40 69 41 70 42 71 68 72 69 73 77 74 70 75
REMARK SMILES IDX 76 76 78 77 75 78 71 79 72 80 73 81 74 82 53 83 54 84 62 85
REMARK SMILES IDX 55 86 61 87 63 88 60 89 56 90 57 91 58 92 59 93
REMARK H PARENT 83 46 51 57
REMARK Flexibility Score: inf
ROOT
ATOM      1  C   UNL A   1      31.290  29.403  24.808  1.00  0.00     0.274 C 
ENDROOT
BRANCH   1   2
ATOM      2  O   UNL A   1      31.417  28.828  23.490  1.00  0.00    -0.461 OA
BRANCH   2   3
ATOM      3  C   UNL A   1      30.557  27.813  23.221  1.00  0.00     0.316 C 
ATOM      4  O   UNL A   1      29.727  27.847  22.313  1.00  0.00    -0.251 OA
BRANCH   3   5
ATOM      5  C   UNL A   1      30.588  26.648  24.178  1.00  0.00     0.199 C 
BRANCH   5   6
ATOM      6  S   UNL A   1      30.869  24.979  23.541  1.00  0.00    -0.094 SA
BRANCH   6   7
ATOM      7  C   UNL A   1      32.405  24.327  24.176  1.00  0.00     0.104 A 
ATOM      8  C   UNL A   1      35.725  24.766  25.921  1.00  0.00     0.067 C 
ATOM      9  C   UNL A   1      34.517  24.217  25.226  1.00  0.00     0.045 A 
ATOM     10  N   UNL A   1      34.380  22.892  25.390  1.00  0.00    -0.233 NA
ATOM     11  C   UNL A   1      33.591  24.978  24.507  1.00  0.00     0.003 A 
ATOM     12  C   UNL A   1      33.339  22.318  24.790  1.00  0.00     0.160 A 
ATOM     13  C   UNL A   1      33.917  26.352  24.036  1.00  0.00     0.049 C 
ATOM     14  N   UNL A   1      32.310  22.982  24.256  1.00  0.00    -0.221 NA
BRANCH  12  15
ATOM     15  C   UNL A   1      33.504  20.902  24.469  1.00  0.00     0.019 A 
ATOM     16  C   UNL A   1      32.429  20.124  24.015  1.00  0.00     0.012 A 
ATOM     17  C   UNL A   1      34.719  20.256  24.761  1.00  0.00     0.012 A 
ATOM     18  C   UNL A   1      32.562  18.740  23.868  1.00  0.00     0.014 A 
ATOM     19  C   UNL A   1      34.850  18.873  24.632  1.00  0.00     0.014 A 
ATOM     20  C   UNL A   1      33.769  18.098  24.192  1.00  0.00     0.056 A 
BRANCH  20  21
ATOM     21  C   UNL A   1      33.881  16.601  24.075  1.00  0.00     0.416 C 
ATOM     22  F   UNL A   1      34.868  16.081  24.857  1.00  0.00    -0.166 F 
ATOM     23  F   UNL A   1      32.736  15.969  24.463  1.00  0.00    -0.166 F 
ATOM     24  F   UNL A   1      34.132  16.158  22.811  1.00  0.00    -0.166 F 
ENDBRANCH  20  21
ENDBRANCH  12  15
ENDBRANCH   6   7
ENDBRANCH   5   6
ENDBRANCH   3   5
ENDBRANCH   2   3
ENDBRANCH   1   2
BRANCH   1  25
ATOM     25  C   UNL A   1      32.641  29.716  25.447  1.00  0.00     0.275 C 
BRANCH  25  26
ATOM     26  O   UNL A   1      32.478  30.086  26.827  1.00  0.00    -0.458 OA
BRANCH  26  27
ATOM     27  C   UNL A   1      33.186  31.172  27.219  1.00  0.00     0.338 C 
ATOM     28  O   UNL A   1      32.772  32.320  27.258  1.00  0.00    -0.246 OA
BRANCH  27  29
ATOM     29  C   UNL A   1      34.558  30.813  27.659  1.00  0.00     0.060 A 
ATOM     30  C   UNL A   1      34.925  29.508  28.000  1.00  0.00     0.016 A 
ATOM     31  C   UNL A   1      35.464  31.859  27.875  1.00  0.00     0.016 A 
ATOM     32  C   UNL A   1      36.134  29.277  28.669  1.00  0.00     0.010 A 
ATOM     33  C   UNL A   1      36.701  31.612  28.474  1.00  0.00     0.010 A 
ATOM     34  C   UNL A   1      37.037  30.326  28.916  1.00  0.00    -0.014 A 
BRANCH  34  35
ATOM     35  C   UNL A   1      38.334  30.106  29.618  1.00  0.00     0.031 A 
ATOM     36  C   UNL A   1      39.383  29.189  29.038  1.00  0.00     0.074 A 
ATOM     37  C   UNL A   1      38.570  30.700  30.801  1.00  0.00     0.049 A 
ATOM     38  N   UNL A   1      40.421  28.636  29.612  1.00  0.00    -0.248 NA
ATOM     39  C   UNL A   1      39.236  28.842  27.619  1.00  0.00     0.031 C 
ATOM     40  C   UNL A   1      37.685  31.659  31.464  1.00  0.00     0.029 A 
ATOM     41  N   UNL A   1      39.630  30.573  31.662  1.00  0.00    -0.354 N 
ATOM     42  C   UNL A   1      41.021  27.842  28.639  1.00  0.00     0.074 A 
ATOM     43  C   UNL A   1      40.230  27.984  27.435  1.00  0.00     0.031 C 
ATOM     44  C   UNL A   1      38.249  32.052  32.614  1.00  0.00     0.029 A 
ATOM     45  C   UNL A   1      39.484  31.303  32.816  1.00  0.00     0.049 A 
ATOM     46  H   UNL A   1      40.418  30.014  31.471  1.00  0.00     0.167 HD
ATOM     47  C   UNL A   1      42.129  27.065  28.741  1.00  0.00     0.034 A 
ATOM     48  C   UNL A   1      40.221  31.323  33.942  1.00  0.00     0.034 A 
ATOM     49  C   UNL A   1      42.938  26.969  29.930  1.00  0.00     0.049 A 
ATOM     50  C   UNL A   1      41.401  30.405  34.067  1.00  0.00     0.074 A 
ATOM     51  C   UNL A   1      44.075  26.207  30.144  1.00  0.00     0.029 A 
ATOM     52  N   UNL A   1      42.709  27.675  31.102  1.00  0.00    -0.354 N 
ATOM     53  N   UNL A   1      41.869  29.542  33.198  1.00  0.00    -0.248 NA
ATOM     54  C   UNL A   1      42.129  30.443  35.341  1.00  0.00     0.031 C 
ATOM     55  C   UNL A   1      44.510  26.425  31.457  1.00  0.00     0.029 A 
ATOM     56  C   UNL A   1      43.674  27.360  32.045  1.00  0.00     0.049 A 
ATOM     57  H   UNL A   1      41.968  28.308  31.242  1.00  0.00     0.167 HD
ATOM     58  C   UNL A   1      42.942  28.921  33.827  1.00  0.00     0.074 A 
ATOM     59  C   UNL A   1      43.064  29.527  35.138  1.00  0.00     0.031 C 
ATOM     60  C   UNL A   1      43.751  27.935  33.364  1.00  0.00     0.034 A 
BRANCH  47  61
ATOM     61  C   UNL A   1      42.506  26.217  27.554  1.00  0.00     0.023 A 
ATOM     62  C   UNL A   1      42.102  24.877  27.437  1.00  0.00     0.031 A 
ATOM     63  C   UNL A   1      43.263  26.776  26.508  1.00  0.00     0.131 A 
ATOM     64  C   UNL A   1      42.483  24.131  26.310  1.00  0.00     0.055 A 
ATOM     65  C   UNL A   1      43.594  26.045  25.367  1.00  0.00     0.041 A 
ATOM     66  F   UNL A   1      43.687  28.047  26.579  1.00  0.00    -0.206 F 
ATOM     67  C   UNL A   1      43.208  24.711  25.265  1.00  0.00     0.022 A 
BRANCH  64  68
ATOM     68  S   UNL A   1      42.066  22.366  26.247  1.00  0.00     0.124 S 
ATOM     69  O   UNL A   1      42.597  21.893  27.522  1.00  0.00    -0.237 OA
ATOM     70  O   UNL A   1      40.612  22.387  26.131  1.00  0.00    -0.237 OA
ATOM     71  O   UNL A   1      42.776  21.887  25.063  1.00  0.00    -0.744 OA
ENDBRANCH  64  68
ENDBRANCH  47  61
BRANCH  48  72
ATOM     72  C   UNL A   1      39.794  32.183  35.072  1.00  0.00     0.023 A 
ATOM     73  C   UNL A   1      38.941  31.689  36.068  1.00  0.00     0.031 A 
ATOM     74  C   UNL A   1      40.273  33.500  35.191  1.00  0.00     0.131 A 
ATOM     75  C   UNL A   1      38.585  32.512  37.145  1.00  0.00     0.055 A 
ATOM     76  C   UNL A   1      39.942  34.305  36.280  1.00  0.00     0.041 A 
ATOM     77  F   UNL A   1      41.106  34.004  34.266  1.00  0.00    -0.206 F 
ATOM     78  C   UNL A   1      39.091  33.811  37.265  1.00  0.00     0.022 A 
BRANCH  75  79
ATOM     79  S   UNL A   1      37.457  31.859  38.404  1.00  0.00     0.124 S 
ATOM     80  O   UNL A   1      37.250  30.493  37.936  1.00  0.00    -0.237 OA
ATOM     81  O   UNL A   1      38.241  32.007  39.625  1.00  0.00    -0.237 OA
ATOM     82  O   UNL A   1      36.294  32.738  38.305  1.00  0.00    -0.744 OA
ENDBRANCH  75  79
ENDBRANCH  48  72
BRANCH  60  83
ATOM     83  C   UNL A   1      44.829  27.460  34.295  1.00  0.00     0.023 A 
ATOM     84  C   UNL A   1      44.614  26.372  35.158  1.00  0.00     0.031 A 
ATOM     85  C   UNL A   1      46.068  28.119  34.347  1.00  0.00     0.131 A 
ATOM     86  C   UNL A   1      45.608  26.005  36.075  1.00  0.00     0.055 A 
ATOM     87  C   UNL A   1      47.071  27.723  35.232  1.00  0.00     0.041 A 
ATOM     88  F   UNL A   1      46.318  29.166  33.544  1.00  0.00    -0.206 F 
ATOM     89  C   UNL A   1      46.839  26.666  36.110  1.00  0.00     0.022 A 
BRANCH  86  90
ATOM     90  S   UNL A   1      45.243  24.696  37.276  1.00  0.00     0.124 S 
ATOM     91  O   UNL A   1      46.512  24.574  37.986  1.00  0.00    -0.237 OA
ATOM     92  O   UNL A   1      44.138  25.268  38.038  1.00  0.00    -0.237 OA
ATOM     93  O   UNL A   1      44.890  23.551  36.438  1.00  0.00    -0.744 OA
ENDBRANCH  86  90
ENDBRANCH  60  83
ENDBRANCH  34  35
ENDBRANCH  27  29
ENDBRANCH  26  27
ENDBRANCH  25  26
ENDBRANCH   1  25
TORSDOF 18
ENDMDL
MODEL 3
REMARK VINA RESULT:     -12.2      1.908      2.236
REMARK SMILES Cc1nc(-c2ccc(C(F)(F)F)cc2)nc(SCC(=O)OCCOC(=O)c2ccc(-c3c4nc(c(-c5cc(S(=O)(=O)[O-])ccc5F)c5ccc([nH]5)c(-c5cc(S(=O)(=O)[O-])ccc5F)c5nc(c(-c6cc(S(=O)(=O)[O-])ccc6F)c6ccc3[nH]6)C=C5)C=C4)cc2)c1C
REMARK SMILES IDX 22 1 21 2 19 3 20 4 18 5 17 6 16 7 1 8 2 9 3 10 90 11 4 12
REMARK SMILES IDX 91 13 15 14 5 15 6 16 14 17 7 18 13 19 8 20 9 21 10 22 11 23
REMARK SMILES IDX 12 24 23 25 24 26 25 27 26 28 27 29 28 30 89 31 29 32 88 33
REMARK SMILES IDX 30 34 31 35 32 36 82 37 33 38 87 39 81 40 83 41 34 42 86 43
REMARK SMILES IDX 80 44 79 45 35 47 67 48 47 49 66 50 48 51 51 52 65 53 84 54
REMARK SMILES IDX 49 55 50 56 64 58 85 59 52 60 36 61 37 62 45 63 38 64 44 65
REMARK SMILES IDX 46 66 43 67 39 68 40 69 41 70 42 71 68 72 69 73 77 74 70 75
REMARK SMILES IDX 76 76 78 77 75 78 71 79 72 80 73 81 74 82 53 83 54 84 62 85
REMARK SMILES IDX 55 86 61 87 63 88 60 89 56 90 57 91 58 92 59 93
REMARK H PARENT 83 46 51 57
REMARK Flexibility Score: inf
ROOT
ATOM      1  C   UNL A   1      34.804  20.822  24.614  1.00  0.00     0.274 C 
ENDROOT
BRANCH   1   2
ATOM      2  O   UNL A   1      34.059  21.506  25.644  1.00  0.00    -0.461 OA
BRANCH   2   3
ATOM      3  C   UNL A   1      32.717  21.556  25.446  1.00  0.00     0.316 C 
ATOM      4  O   UNL A   1      32.125  20.860  24.621  1.00  0.00    -0.251 OA
BRANCH   3   5
ATOM      5  C   UNL A   1      31.971  22.608  26.228  1.00  0.00     0.199 C 
BRANCH   5   6
ATOM      6  S   UNL A   1      32.551  24.320  26.195  1.00  0.00    -0.094 SA
BRANCH   6   7
ATOM      7  C   UNL A   1      32.293  25.029  24.577  1.00  0.00     0.104 A 
ATOM      8  C   UNL A   1      32.812  25.031  20.837  1.00  0.00     0.067 C 
ATOM      9  C   UNL A   1      32.385  25.342  22.239  1.00  0.00     0.045 A 
ATOM     10  N   UNL A   1      31.302  26.133  22.290  1.00  0.00    -0.233 NA
ATOM     11  C   UNL A   1      33.002  24.849  23.392  1.00  0.00     0.003 A 
ATOM     12  C   UNL A   1      30.864  26.473  23.500  1.00  0.00     0.160 A 
ATOM     13  C   UNL A   1      34.374  24.275  23.351  1.00  0.00     0.049 C 
ATOM     14  N   UNL A   1      31.262  25.899  24.640  1.00  0.00    -0.221 NA
BRANCH  12  15
ATOM     15  C   UNL A   1      30.123  27.730  23.568  1.00  0.00     0.019 A 
ATOM     16  C   UNL A   1      28.785  27.815  23.157  1.00  0.00     0.012 A 
ATOM     17  C   UNL A   1      30.794  28.919  23.907  1.00  0.00     0.012 A 
ATOM     18  C   UNL A   1      28.141  29.054  23.076  1.00  0.00     0.014 A 
ATOM     19  C   UNL A   1      30.160  30.159  23.810  1.00  0.00     0.014 A 
ATOM     20  C   UNL A   1      28.827  30.239  23.385  1.00  0.00     0.056 A 
BRANCH  20  21
ATOM     21  C   UNL A   1      28.135  31.569  23.245  1.00  0.00     0.416 C 
ATOM     22  F   UNL A   1      26.933  31.612  23.885  1.00  0.00    -0.166 F 
ATOM     23  F   UNL A   1      28.869  32.588  23.780  1.00  0.00    -0.166 F 
ATOM     24  F   UNL A   1      27.887  31.935  21.957  1.00  0.00    -0.166 F 
ENDBRANCH  20  21
ENDBRANCH  12  15
ENDBRANCH   6   7
ENDBRANCH   5   6
ENDBRANCH   3   5
ENDBRANCH   2   3
ENDBRANCH   1   2
BRANCH   1  25
ATOM     25  C   UNL A   1      36.227  20.478  25.049  1.00  0.00     0.275 C 
BRANCH  25  26
ATOM     26  O   UNL A   1      36.949  21.667  25.413  1.00  0.00    -0.458 OA
BRANCH  26  27
ATOM     27  C   UNL A   1      38.250  21.475  25.734  1.00  0.00     0.338 C 
ATOM     28  O   UNL A   1      38.908  20.475  25.488  1.00  0.00    -0.246 OA
BRANCH  27  29
ATOM     29  C   UNL A   1      38.842  22.663  26.401  1.00  0.00     0.060 A 
ATOM     30  C   UNL A   1      38.389  23.964  26.166  1.00  0.00     0.016 A 
ATOM     31  C   UNL A   1      39.991  22.465  27.177  1.00  0.00     0.016 A 
ATOM     32  C   UNL A   1      39.154  25.056  26.597  1.00  0.00     0.010 A 
ATOM     33  C   UNL A   1      40.709  23.558  27.669  1.00  0.00     0.010 A 
ATOM     34  C   UNL A   1      40.324  24.867  27.352  1.00  0.00    -0.014 A 
BRANCH  34  35
ATOM     35  C   UNL A   1      41.152  26.011  27.830  1.00  0.00     0.031 A 
ATOM     36  C   UNL A   1      40.551  27.098  28.688  1.00  0.00     0.074 A 
ATOM     37  C   UNL A   1      42.445  26.106  27.471  1.00  0.00     0.049 A 
ATOM     38  N   UNL A   1      40.997  28.299  28.952  1.00  0.00    -0.248 NA
ATOM     39  C   UNL A   1      39.266  26.789  29.328  1.00  0.00     0.031 C 
ATOM     40  C   UNL A   1      43.188  25.109  26.698  1.00  0.00     0.029 A 
ATOM     41  N   UNL A   1      43.360  27.100  27.705  1.00  0.00    -0.354 N 
ATOM     42  C   UNL A   1      40.029  28.904  29.748  1.00  0.00     0.074 A 
ATOM     43  C   UNL A   1      38.967  27.935  29.925  1.00  0.00     0.031 C 
ATOM     44  C   UNL A   1      44.451  25.531  26.542  1.00  0.00     0.029 A 
ATOM     45  C   UNL A   1      44.580  26.864  27.119  1.00  0.00     0.049 A 
ATOM     46  H   UNL A   1      43.164  27.902  28.240  1.00  0.00     0.167 HD
ATOM     47  C   UNL A   1      40.025  30.151  30.281  1.00  0.00     0.034 A 
ATOM     48  C   UNL A   1      45.663  27.654  26.996  1.00  0.00     0.034 A 
ATOM     49  C   UNL A   1      41.109  31.090  30.141  1.00  0.00     0.049 A 
ATOM     50  C   UNL A   1      45.616  29.056  27.527  1.00  0.00     0.074 A 
ATOM     51  C   UNL A   1      41.205  32.382  30.633  1.00  0.00     0.029 A 
ATOM     52  N   UNL A   1      42.298  30.832  29.476  1.00  0.00    -0.354 N 
ATOM     53  N   UNL A   1      44.636  29.672  28.143  1.00  0.00    -0.248 NA
ATOM     54  C   UNL A   1      46.814  29.878  27.315  1.00  0.00     0.031 C 
ATOM     55  C   UNL A   1      42.436  32.914  30.233  1.00  0.00     0.029 A 
ATOM     56  C   UNL A   1      43.128  31.939  29.535  1.00  0.00     0.049 A 
ATOM     57  H   UNL A   1      42.519  29.983  29.027  1.00  0.00     0.167 HD
ATOM     58  C   UNL A   1      45.094  30.963  28.380  1.00  0.00     0.074 A 
ATOM     59  C   UNL A   1      46.446  31.027  27.862  1.00  0.00     0.031 C 
ATOM     60  C   UNL A   1      44.452  32.003  28.969  1.00  0.00     0.034 A 
BRANCH  47  61
ATOM     61  C   UNL A   1      38.791  30.596  31.025  1.00  0.00     0.023 A 
ATOM     62  C   UNL A   1      37.722  31.238  30.378  1.00  0.00     0.031 A 
ATOM     63  C   UNL A   1      38.676  30.341  32.404  1.00  0.00     0.131 A 
ATOM     64  C   UNL A   1      36.597  31.633  31.119  1.00  0.00     0.055 A 
ATOM     65  C   UNL A   1      37.533  30.690  33.124  1.00  0.00     0.041 A 
ATOM     66  F   UNL A   1      39.676  29.744  33.071  1.00  0.00    -0.206 F 
ATOM     67  C   UNL A   1      36.486  31.345  32.482  1.00  0.00     0.022 A 
BRANCH  64  68
ATOM     68  S   UNL A   1      35.293  32.583  30.289  1.00  0.00     0.124 S 
ATOM     69  O   UNL A   1      34.358  32.820  31.385  1.00  0.00    -0.237 OA
ATOM     70  O   UNL A   1      36.014  33.754  29.801  1.00  0.00    -0.237 OA
ATOM     71  O   UNL A   1      34.813  31.673  29.250  1.00  0.00    -0.744 OA
ENDBRANCH  64  68
ENDBRANCH  47  61
BRANCH  48  72
ATOM     72  C   UNL A   1      46.845  27.153  26.254  1.00  0.00     0.023 A 
ATOM     73  C   UNL A   1      47.068  27.527  24.922  1.00  0.00     0.031 A 
ATOM     74  C   UNL A   1      47.791  26.327  26.887  1.00  0.00     0.131 A 
ATOM     75  C   UNL A   1      48.214  27.070  24.258  1.00  0.00     0.055 A 
ATOM     76  C   UNL A   1      48.945  25.900  26.233  1.00  0.00     0.041 A 
ATOM     77  F   UNL A   1      47.622  25.960  28.168  1.00  0.00    -0.206 F 
ATOM     78  C   UNL A   1      49.161  26.271  24.908  1.00  0.00     0.022 A 
BRANCH  75  79
ATOM     79  S   UNL A   1      48.463  27.543  22.527  1.00  0.00     0.124 S 
ATOM     80  O   UNL A   1      48.606  26.243  21.881  1.00  0.00    -0.237 OA
ATOM     81  O   UNL A   1      47.237  28.277  22.229  1.00  0.00    -0.237 OA
ATOM     82  O   UNL A   1      49.676  28.358  22.569  1.00  0.00    -0.744 OA
ENDBRANCH  75  79
ENDBRANCH  48  72
BRANCH  60  83
ATOM     83  C   UNL A   1      45.217  33.291  29.071  1.00  0.00     0.023 A 
ATOM     84  C   UNL A   1      46.057  33.550  30.168  1.00  0.00     0.031 A 
ATOM     85  C   UNL A   1      45.081  34.282  28.084  1.00  0.00     0.131 A 
ATOM     86  C   UNL A   1      46.692  34.795  30.278  1.00  0.00     0.055 A 
ATOM     87  C   UNL A   1      45.750  35.502  28.178  1.00  0.00     0.041 A 
ATOM     88  F   UNL A   1      44.288  34.080  27.021  1.00  0.00    -0.206 F 
ATOM     89  C   UNL A   1      46.553  35.768  29.284  1.00  0.00     0.022 A 
BRANCH  86  90
ATOM     90  S   UNL A   1      47.647  35.154  31.778  1.00  0.00     0.124 S 
ATOM     91  O   UNL A   1      46.733  34.720  32.830  1.00  0.00    -0.237 OA
ATOM     92  O   UNL A   1      48.842  34.336  31.593  1.00  0.00    -0.237 OA
ATOM     93  O   UNL A   1      47.868  36.597  31.706  1.00  0.00    -0.744 OA
ENDBRANCH  86  90
ENDBRANCH  60  83
ENDBRANCH  34  35
ENDBRANCH  27  29
ENDBRANCH  26  27
ENDBRANCH  25  26
ENDBRANCH   1  25
TORSDOF 18
ENDMDL
