MODEL 1
REMARK VINA RESULT:     -11.1      0.000      0.000
REMARK SMILES C#CCN(CC(=O)OCCOC(=O)c1ccc(-c2c3nc(c(-c4cc(S(=O)(=O)[O-])ccc4F)c4ccc([nH]4)c(-c4cc(S(=O)(=O)[O-])ccc4F)c4nc(c(-c5cc(S(=O)(=O)[O-])ccc5F)c5ccc2[nH]5)C=C4)C=C3)cc1)C(=O)Nc1cccc(C#N)c1
REMARK SMILES IDX 9 1 8 2 6 3 7 4 5 5 4 6 3 7 2 8 1 9 77 10 78 11 79 12 80 14
REMARK SMILES IDX 81 15 87 16 82 17 84 18 83 19 85 20 86 21 10 22 11 23 12 24
REMARK SMILES IDX 13 25 14 26 15 27 76 28 16 29 75 30 17 31 18 32 19 33 69 34
REMARK SMILES IDX 20 35 74 36 68 37 70 38 21 39 73 40 67 41 66 42 22 44 54 45
REMARK SMILES IDX 34 46 53 47 35 48 38 49 52 50 71 51 36 52 37 53 51 55 72 56
REMARK SMILES IDX 39 57 23 58 24 59 32 60 25 61 31 62 33 63 30 64 26 65 27 66
REMARK SMILES IDX 28 67 29 68 55 69 56 70 64 71 57 72 63 73 65 74 62 75 58 76
REMARK SMILES IDX 59 77 60 78 61 79 40 80 41 81 49 82 42 83 48 84 50 85 47 86
REMARK SMILES IDX 43 87 44 88 45 89 46 90
REMARK H PARENT 79 13 70 43 38 54
REMARK Flexibility Score: inf
ROOT
ATOM      1  C   UNL A   1      31.381  29.117  23.803  1.00  0.00     0.274 C 
ENDROOT
BRANCH   1   2
ATOM      2  O   UNL A   1      32.707  29.271  23.199  1.00  0.00    -0.461 OA
BRANCH   2   3
ATOM      3  C   UNL A   1      33.310  28.141  22.684  1.00  0.00     0.325 C 
ATOM      4  O   UNL A   1      34.200  28.170  21.842  1.00  0.00    -0.250 OA
BRANCH   3   5
ATOM      5  C   UNL A   1      33.003  26.864  23.544  1.00  0.00     0.245 C 
BRANCH   5   6
ATOM      6  N   UNL A   1      32.157  25.889  22.866  1.00  0.00    -0.302 N 
BRANCH   6   7
ATOM      7  C   UNL A   1      31.233  25.353  23.763  1.00  0.00     0.211 C 
BRANCH   7   8
ATOM      8  C   UNL A   1      31.759  24.687  25.024  1.00  0.00    -0.085 C 
ATOM      9  C   UNL A   1      32.211  24.115  26.106  1.00  0.00     0.006 C 
ENDBRANCH   7   8
ENDBRANCH   6   7
BRANCH   6  10
ATOM     10  C   UNL A   1      32.231  25.191  21.696  1.00  0.00     0.323 C 
ATOM     11  O   UNL A   1      31.783  25.656  20.638  1.00  0.00    -0.248 OA
ATOM     12  N   UNL A   1      32.899  24.047  21.550  1.00  0.00    -0.308 N 
ATOM     13  H   UNL A   1      33.164  23.876  20.618  1.00  0.00     0.171 HD
BRANCH  12  14
ATOM     14  C   UNL A   1      33.300  23.054  22.405  1.00  0.00     0.044 A 
ATOM     15  C   UNL A   1      32.156  21.724  22.751  1.00  0.00     0.026 A 
ATOM     16  C   UNL A   1      34.797  23.054  23.332  1.00  0.00     0.045 A 
ATOM     17  C   UNL A   1      32.706  20.361  24.138  1.00  0.00     0.004 A 
ATOM     18  C   UNL A   1      35.253  21.866  24.571  1.00  0.00     0.054 A 
ATOM     19  C   UNL A   1      34.254  20.535  24.992  1.00  0.00     0.019 A 
BRANCH  18  20
ATOM     20  C   UNL A   1      36.520  22.060  25.210  1.00  0.00     0.099 C 
ATOM     21  N   UNL A   1      37.544  22.157  25.746  1.00  0.00    -0.192 NA
ENDBRANCH  18  20
ENDBRANCH  12  14
ENDBRANCH   6  10
ENDBRANCH   5   6
ENDBRANCH   3   5
ENDBRANCH   2   3
ENDBRANCH   1   2
BRANCH   1  22
ATOM     22  C   UNL A   1      31.201  30.081  25.024  1.00  0.00     0.275 C 
BRANCH  22  23
ATOM     23  O   UNL A   1      32.491  30.450  25.614  1.00  0.00    -0.458 OA
BRANCH  23  24
ATOM     24  C   UNL A   1      32.496  31.398  26.606  1.00  0.00     0.338 C 
ATOM     25  O   UNL A   1      31.510  32.096  26.821  1.00  0.00    -0.246 OA
BRANCH  24  26
ATOM     26  C   UNL A   1      33.807  31.496  27.611  1.00  0.00     0.060 A 
ATOM     27  C   UNL A   1      35.310  32.803  28.023  1.00  0.00     0.016 A 
ATOM     28  C   UNL A   1      34.161  29.749  27.968  1.00  0.00     0.016 A 
ATOM     29  C   UNL A   1      36.871  32.214  28.607  1.00  0.00     0.010 A 
ATOM     30  C   UNL A   1      35.749  29.315  28.623  1.00  0.00     0.010 A 
ATOM     31  C   UNL A   1      37.035  30.510  28.940  1.00  0.00    -0.014 A 
BRANCH  31  32
ATOM     32  C   UNL A   1      38.232  30.168  29.735  1.00  0.00     0.031 A 
ATOM     33  C   UNL A   1      39.290  29.303  29.147  1.00  0.00     0.074 A 
ATOM     34  C   UNL A   1      38.323  30.688  30.980  1.00  0.00     0.049 A 
ATOM     35  N   UNL A   1      40.332  28.778  29.729  1.00  0.00    -0.248 NA
ATOM     36  C   UNL A   1      39.147  28.953  27.727  1.00  0.00     0.031 C 
ATOM     37  C   UNL A   1      37.325  31.559  31.622  1.00  0.00     0.029 A 
ATOM     38  N   UNL A   1      39.301  30.599  31.933  1.00  0.00    -0.354 N 
ATOM     39  C   UNL A   1      40.943  27.989  28.764  1.00  0.00     0.074 A 
ATOM     40  C   UNL A   1      40.142  28.093  27.562  1.00  0.00     0.031 C 
ATOM     41  C   UNL A   1      37.786  32.006  32.792  1.00  0.00     0.029 A 
ATOM     42  C   UNL A   1      39.022  31.315  33.079  1.00  0.00     0.049 A 
ATOM     43  H   UNL A   1      40.125  30.073  31.813  1.00  0.00     0.167 HD
ATOM     44  C   UNL A   1      42.068  27.246  28.897  1.00  0.00     0.034 A 
ATOM     45  C   UNL A   1      39.652  31.356  34.265  1.00  0.00     0.034 A 
ATOM     46  C   UNL A   1      42.814  27.194  30.132  1.00  0.00     0.049 A 
ATOM     47  C   UNL A   1      40.868  30.493  34.393  1.00  0.00     0.074 A 
ATOM     48  C   UNL A   1      43.949  26.467  30.432  1.00  0.00     0.029 A 
ATOM     49  N   UNL A   1      42.488  27.913  31.282  1.00  0.00    -0.354 N 
ATOM     50  N   UNL A   1      41.406  29.701  33.492  1.00  0.00    -0.248 NA
ATOM     51  C   UNL A   1      41.556  30.516  35.682  1.00  0.00     0.031 C 
ATOM     52  C   UNL A   1      44.269  26.695  31.776  1.00  0.00     0.029 A 
ATOM     53  C   UNL A   1      43.388  27.632  32.297  1.00  0.00     0.049 A 
ATOM     54  H   UNL A   1      41.727  28.533  31.361  1.00  0.00     0.167 HD
ATOM     55  C   UNL A   1      42.515  29.137  34.101  1.00  0.00     0.074 A 
ATOM     56  C   UNL A   1      42.579  29.710  35.436  1.00  0.00     0.031 C 
ATOM     57  C   UNL A   1      43.395  28.226  33.615  1.00  0.00     0.034 A 
BRANCH  44  58
ATOM     58  C   UNL A   1      42.475  26.391  27.719  1.00  0.00     0.023 A 
ATOM     59  C   UNL A   1      42.087  25.044  27.605  1.00  0.00     0.031 A 
ATOM     60  C   UNL A   1      43.338  26.907  26.735  1.00  0.00     0.131 A 
ATOM     61  C   UNL A   1      42.634  24.238  26.594  1.00  0.00     0.055 A 
ATOM     62  C   UNL A   1      43.808  26.122  25.678  1.00  0.00     0.041 A 
ATOM     63  F   UNL A   1      43.770  28.176  26.801  1.00  0.00    -0.206 F 
ATOM     64  C   UNL A   1      43.472  24.773  25.613  1.00  0.00     0.022 A 
BRANCH  61  65
ATOM     65  S   UNL A   1      42.376  22.443  26.682  1.00  0.00     0.124 S 
ATOM     66  O   UNL A   1      43.465  21.951  25.843  1.00  0.00    -0.237 OA
ATOM     67  O   UNL A   1      42.499  22.176  28.110  1.00  0.00    -0.237 OA
ATOM     68  O   UNL A   1      41.037  22.261  26.125  1.00  0.00    -0.744 OA
ENDBRANCH  61  65
ENDBRANCH  44  58
BRANCH  45  69
ATOM     69  C   UNL A   1      39.108  32.167  35.395  1.00  0.00     0.023 A 
ATOM     70  C   UNL A   1      38.492  31.554  36.495  1.00  0.00     0.031 A 
ATOM     71  C   UNL A   1      39.209  33.574  35.405  1.00  0.00     0.131 A 
ATOM     72  C   UNL A   1      37.973  32.339  37.537  1.00  0.00     0.055 A 
ATOM     73  C   UNL A   1      38.750  34.346  36.474  1.00  0.00     0.041 A 
ATOM     74  F   UNL A   1      39.794  34.222  34.385  1.00  0.00    -0.206 F 
ATOM     75  C   UNL A   1      38.114  33.729  37.544  1.00  0.00     0.022 A 
BRANCH  72  76
ATOM     76  S   UNL A   1      37.030  31.520  38.853  1.00  0.00     0.124 S 
ATOM     77  O   UNL A   1      35.808  32.314  38.881  1.00  0.00    -0.237 OA
ATOM     78  O   UNL A   1      36.903  30.163  38.331  1.00  0.00    -0.237 OA
ATOM     79  O   UNL A   1      37.893  31.659  40.025  1.00  0.00    -0.744 OA
ENDBRANCH  72  76
ENDBRANCH  45  69
BRANCH  57  80
ATOM     80  C   UNL A   1      44.518  27.851  34.543  1.00  0.00     0.023 A 
ATOM     81  C   UNL A   1      44.354  26.865  35.529  1.00  0.00     0.031 A 
ATOM     82  C   UNL A   1      45.747  28.526  34.465  1.00  0.00     0.131 A 
ATOM     83  C   UNL A   1      45.378  26.638  36.455  1.00  0.00     0.055 A 
ATOM     84  C   UNL A   1      46.793  28.237  35.338  1.00  0.00     0.041 A 
ATOM     85  F   UNL A   1      45.945  29.483  33.543  1.00  0.00    -0.206 F 
ATOM     86  C   UNL A   1      46.605  27.301  36.352  1.00  0.00     0.022 A 
BRANCH  83  87
ATOM     87  S   UNL A   1      45.032  25.565  37.872  1.00  0.00     0.124 S 
ATOM     88  O   UNL A   1      43.939  26.276  38.527  1.00  0.00    -0.237 OA
ATOM     89  O   UNL A   1      44.677  24.304  37.229  1.00  0.00    -0.237 OA
ATOM     90  O   UNL A   1      46.295  25.554  38.607  1.00  0.00    -0.744 OA
ENDBRANCH  83  87
ENDBRANCH  57  80
ENDBRANCH  31  32
ENDBRANCH  24  26
ENDBRANCH  23  24
ENDBRANCH  22  23
ENDBRANCH   1  22
TORSDOF 20
ENDMDL
MODEL 2
REMARK VINA RESULT:     -11.1      4.754     10.018
REMARK SMILES C#CCN(CC(=O)OCCOC(=O)c1ccc(-c2c3nc(c(-c4cc(S(=O)(=O)[O-])ccc4F)c4ccc([nH]4)c(-c4cc(S(=O)(=O)[O-])ccc4F)c4nc(c(-c5cc(S(=O)(=O)[O-])ccc5F)c5ccc2[nH]5)C=C4)C=C3)cc1)C(=O)Nc1cccc(C#N)c1
REMARK SMILES IDX 9 1 8 2 6 3 7 4 5 5 4 6 3 7 2 8 1 9 77 10 78 11 79 12 80 14
REMARK SMILES IDX 81 15 87 16 82 17 84 18 83 19 85 20 86 21 10 22 11 23 12 24
REMARK SMILES IDX 13 25 14 26 15 27 76 28 16 29 75 30 17 31 18 32 19 33 69 34
REMARK SMILES IDX 20 35 74 36 68 37 70 38 21 39 73 40 67 41 66 42 22 44 54 45
REMARK SMILES IDX 34 46 53 47 35 48 38 49 52 50 71 51 36 52 37 53 51 55 72 56
REMARK SMILES IDX 39 57 23 58 24 59 32 60 25 61 31 62 33 63 30 64 26 65 27 66
REMARK SMILES IDX 28 67 29 68 55 69 56 70 64 71 57 72 63 73 65 74 62 75 58 76
REMARK SMILES IDX 59 77 60 78 61 79 40 80 41 81 49 82 42 83 48 84 50 85 47 86
REMARK SMILES IDX 43 87 44 88 45 89 46 90
REMARK H PARENT 79 13 70 43 38 54
REMARK Flexibility Score: inf
ROOT
ATOM      1  C   UNL A   1      34.467  20.337  24.729  1.00  0.00     0.274 C 
ENDROOT
BRANCH   1   2
ATOM      2  O   UNL A   1      33.412  20.855  23.852  1.00  0.00    -0.461 OA
BRANCH   2   3
ATOM      3  C   UNL A   1      32.247  21.297  24.446  1.00  0.00     0.325 C 
ATOM      4  O   UNL A   1      31.662  20.686  25.333  1.00  0.00    -0.250 OA
BRANCH   3   5
ATOM      5  C   UNL A   1      31.964  22.810  24.135  1.00  0.00     0.245 C 
BRANCH   5   6
ATOM      6  N   UNL A   1      31.831  23.639  25.327  1.00  0.00    -0.302 N 
BRANCH   6   7
ATOM      7  C   UNL A   1      33.089  23.899  25.871  1.00  0.00     0.211 C 
BRANCH   7   8
ATOM      8  C   UNL A   1      33.574  23.020  27.013  1.00  0.00    -0.085 C 
ATOM      9  C   UNL A   1      33.989  22.266  27.992  1.00  0.00     0.006 C 
ENDBRANCH   7   8
ENDBRANCH   6   7
BRANCH   6  10
ATOM     10  C   UNL A   1      30.808  23.968  26.168  1.00  0.00     0.323 C 
ATOM     11  O   UNL A   1      30.103  23.099  26.699  1.00  0.00    -0.248 OA
ATOM     12  N   UNL A   1      30.569  25.206  26.602  1.00  0.00    -0.308 N 
ATOM     13  H   UNL A   1      30.069  25.223  27.450  1.00  0.00     0.171 HD
BRANCH  12  14
ATOM     14  C   UNL A   1      30.862  26.460  26.135  1.00  0.00     0.044 A 
ATOM     15  C   UNL A   1      31.662  27.610  27.248  1.00  0.00     0.026 A 
ATOM     16  C   UNL A   1      30.371  27.104  24.572  1.00  0.00     0.045 A 
ATOM     17  C   UNL A   1      31.936  29.502  26.592  1.00  0.00     0.004 A 
ATOM     18  C   UNL A   1      30.591  28.778  24.021  1.00  0.00     0.054 A 
ATOM     19  C   UNL A   1      31.352  29.979  24.983  1.00  0.00     0.019 A 
BRANCH  18  20
ATOM     20  C   UNL A   1      30.109  29.090  22.708  1.00  0.00     0.099 C 
ATOM     21  N   UNL A   1      29.773  29.374  21.636  1.00  0.00    -0.192 NA
ENDBRANCH  18  20
ENDBRANCH  12  14
ENDBRANCH   6  10
ENDBRANCH   5   6
ENDBRANCH   3   5
ENDBRANCH   2   3
ENDBRANCH   1   2
BRANCH   1  22
ATOM     22  C   UNL A   1      35.767  21.203  24.621  1.00  0.00     0.275 C 
BRANCH  22  23
ATOM     23  O   UNL A   1      36.622  21.040  25.800  1.00  0.00    -0.458 OA
BRANCH  23  24
ATOM     24  C   UNL A   1      37.937  20.699  25.599  1.00  0.00     0.338 C 
ATOM     25  O   UNL A   1      38.241  19.688  24.973  1.00  0.00    -0.246 OA
BRANCH  24  26
ATOM     26  C   UNL A   1      39.119  21.748  26.088  1.00  0.00     0.060 A 
ATOM     27  C   UNL A   1      40.666  21.783  27.408  1.00  0.00     0.016 A 
ATOM     28  C   UNL A   1      38.410  23.367  25.661  1.00  0.00     0.016 A 
ATOM     29  C   UNL A   1      41.192  23.309  28.129  1.00  0.00     0.010 A 
ATOM     30  C   UNL A   1      39.091  24.822  26.408  1.00  0.00     0.010 A 
ATOM     31  C   UNL A   1      40.437  24.781  27.578  1.00  0.00    -0.014 A 
BRANCH  31  32
ATOM     32  C   UNL A   1      41.161  26.008  27.970  1.00  0.00     0.031 A 
ATOM     33  C   UNL A   1      40.487  27.028  28.817  1.00  0.00     0.074 A 
ATOM     34  C   UNL A   1      42.439  26.138  27.549  1.00  0.00     0.049 A 
ATOM     35  N   UNL A   1      40.899  28.222  29.141  1.00  0.00    -0.248 NA
ATOM     36  C   UNL A   1      39.162  26.680  29.348  1.00  0.00     0.031 C 
ATOM     37  C   UNL A   1      43.174  25.168  26.721  1.00  0.00     0.029 A 
ATOM     38  N   UNL A   1      43.374  27.113  27.770  1.00  0.00    -0.354 N 
ATOM     39  C   UNL A   1      39.863  28.792  29.868  1.00  0.00     0.074 A 
ATOM     40  C   UNL A   1      38.796  27.817  29.922  1.00  0.00     0.031 C 
ATOM     41  C   UNL A   1      44.451  25.534  26.603  1.00  0.00     0.029 A 
ATOM     42  C   UNL A   1      44.593  26.852  27.179  1.00  0.00     0.049 A 
ATOM     43  H   UNL A   1      43.193  27.923  28.298  1.00  0.00     0.167 HD
ATOM     44  C   UNL A   1      39.828  30.028  30.423  1.00  0.00     0.034 A 
ATOM     45  C   UNL A   1      45.689  27.618  27.048  1.00  0.00     0.034 A 
ATOM     46  C   UNL A   1      40.938  30.948  30.326  1.00  0.00     0.049 A 
ATOM     47  C   UNL A   1      45.603  28.992  27.637  1.00  0.00     0.074 A 
ATOM     48  C   UNL A   1      41.041  32.239  30.805  1.00  0.00     0.029 A 
ATOM     49  N   UNL A   1      42.149  30.658  29.697  1.00  0.00    -0.354 N 
ATOM     50  N   UNL A   1      44.595  29.547  28.272  1.00  0.00    -0.248 NA
ATOM     51  C   UNL A   1      46.782  29.843  27.491  1.00  0.00     0.031 C 
ATOM     52  C   UNL A   1      42.284  32.750  30.411  1.00  0.00     0.029 A 
ATOM     53  C   UNL A   1      42.996  31.752  29.761  1.00  0.00     0.049 A 
ATOM     54  H   UNL A   1      42.370  29.800  29.271  1.00  0.00     0.167 HD
ATOM     55  C   UNL A   1      45.023  30.817  28.620  1.00  0.00     0.074 A 
ATOM     56  C   UNL A   1      46.394  30.926  28.148  1.00  0.00     0.031 C 
ATOM     57  C   UNL A   1      44.352  31.808  29.260  1.00  0.00     0.034 A 
BRANCH  44  58
ATOM     58  C   UNL A   1      38.537  30.452  31.083  1.00  0.00     0.023 A 
ATOM     59  C   UNL A   1      37.519  31.118  30.375  1.00  0.00     0.031 A 
ATOM     60  C   UNL A   1      38.354  30.266  32.466  1.00  0.00     0.131 A 
ATOM     61  C   UNL A   1      36.419  31.654  31.063  1.00  0.00     0.055 A 
ATOM     62  C   UNL A   1      37.212  30.723  33.130  1.00  0.00     0.041 A 
ATOM     63  F   UNL A   1      39.299  29.665  33.206  1.00  0.00    -0.206 F 
ATOM     64  C   UNL A   1      36.244  31.439  32.432  1.00  0.00     0.022 A 
BRANCH  61  65
ATOM     65  S   UNL A   1      35.311  32.785  30.177  1.00  0.00     0.124 S 
ATOM     66  O   UNL A   1      36.160  33.963  30.022  1.00  0.00    -0.237 OA
ATOM     67  O   UNL A   1      35.016  32.045  28.955  1.00  0.00    -0.237 OA
ATOM     68  O   UNL A   1      34.185  32.952  31.094  1.00  0.00    -0.744 OA
ENDBRANCH  61  65
ENDBRANCH  44  58
BRANCH  45  69
ATOM     69  C   UNL A   1      46.882  27.131  26.292  1.00  0.00     0.023 A 
ATOM     70  C   UNL A   1      47.925  26.458  26.944  1.00  0.00     0.031 A 
ATOM     71  C   UNL A   1      46.993  27.314  24.898  1.00  0.00     0.131 A 
ATOM     72  C   UNL A   1      49.044  26.024  26.213  1.00  0.00     0.055 A 
ATOM     73  C   UNL A   1      48.077  26.824  24.167  1.00  0.00     0.041 A 
ATOM     74  F   UNL A   1      46.025  27.945  24.214  1.00  0.00    -0.206 F 
ATOM     75  C   UNL A   1      49.119  26.185  24.828  1.00  0.00     0.022 A 
BRANCH  72  76
ATOM     76  S   UNL A   1      50.447  25.317  27.118  1.00  0.00     0.124 S 
ATOM     77  O   UNL A   1      49.819  24.202  27.817  1.00  0.00    -0.237 OA
ATOM     78  O   UNL A   1      51.358  24.965  26.034  1.00  0.00    -0.237 OA
ATOM     79  O   UNL A   1      50.890  26.418  27.972  1.00  0.00    -0.744 OA
ENDBRANCH  72  76
ENDBRANCH  45  69
BRANCH  57  80
ATOM     80  C   UNL A   1      45.137  33.065  29.512  1.00  0.00     0.023 A 
ATOM     81  C   UNL A   1      45.873  33.242  30.695  1.00  0.00     0.031 A 
ATOM     82  C   UNL A   1      45.107  34.111  28.576  1.00  0.00     0.131 A 
ATOM     83  C   UNL A   1      46.484  34.475  30.949  1.00  0.00     0.055 A 
ATOM     84  C   UNL A   1      45.786  35.307  28.798  1.00  0.00     0.041 A 
ATOM     85  F   UNL A   1      44.409  33.988  27.435  1.00  0.00    -0.206 F 
ATOM     86  C   UNL A   1      46.465  35.501  29.999  1.00  0.00     0.022 A 
BRANCH  83  87
ATOM     87  S   UNL A   1      47.186  34.763  32.594  1.00  0.00     0.124 S 
ATOM     88  O   UNL A   1      48.611  34.568  32.349  1.00  0.00    -0.237 OA
ATOM     89  O   UNL A   1      46.770  36.133  32.875  1.00  0.00    -0.237 OA
ATOM     90  O   UNL A   1      46.551  33.739  33.419  1.00  0.00    -0.744 OA
ENDBRANCH  83  87
ENDBRANCH  57  80
ENDBRANCH  31  32
ENDBRANCH  24  26
ENDBRANCH  23  24
ENDBRANCH  22  23
ENDBRANCH   1  22
TORSDOF 20
ENDMDL
MODEL 3
REMARK VINA RESULT:     -11.0      5.117      7.522
REMARK SMILES C#CCN(CC(=O)OCCOC(=O)c1ccc(-c2c3nc(c(-c4cc(S(=O)(=O)[O-])ccc4F)c4ccc([nH]4)c(-c4cc(S(=O)(=O)[O-])ccc4F)c4nc(c(-c5cc(S(=O)(=O)[O-])ccc5F)c5ccc2[nH]5)C=C4)C=C3)cc1)C(=O)Nc1cccc(C#N)c1
REMARK SMILES IDX 9 1 8 2 6 3 7 4 5 5 4 6 3 7 2 8 1 9 77 10 78 11 79 12 80 14
REMARK SMILES IDX 81 15 87 16 82 17 84 18 83 19 85 20 86 21 10 22 11 23 12 24
REMARK SMILES IDX 13 25 14 26 15 27 76 28 16 29 75 30 17 31 18 32 19 33 69 34
REMARK SMILES IDX 20 35 74 36 68 37 70 38 21 39 73 40 67 41 66 42 22 44 54 45
REMARK SMILES IDX 34 46 53 47 35 48 38 49 52 50 71 51 36 52 37 53 51 55 72 56
REMARK SMILES IDX 39 57 23 58 24 59 32 60 25 61 31 62 33 63 30 64 26 65 27 66
REMARK SMILES IDX 28 67 29 68 55 69 56 70 64 71 57 72 63 73 65 74 62 75 58 76
REMARK SMILES IDX 59 77 60 78 61 79 40 80 41 81 49 82 42 83 48 84 50 85 47 86
REMARK SMILES IDX 43 87 44 88 45 89 46 90
REMARK H PARENT 79 13 70 43 38 54
REMARK Flexibility Score: inf
ROOT
ATOM      1  C   UNL A   1      34.601  20.084  24.799  1.00  0.00     0.274 C 
ENDROOT
BRANCH   1   2
ATOM      2  O   UNL A   1      33.473  20.493  23.957  1.00  0.00    -0.461 OA
BRANCH   2   3
ATOM      3  C   UNL A   1      32.296  20.841  24.590  1.00  0.00     0.325 C 
ATOM      4  O   UNL A   1      31.750  20.145  25.438  1.00  0.00    -0.250 OA
BRANCH   3   5
ATOM      5  C   UNL A   1      31.941  22.356  24.385  1.00  0.00     0.245 C 
BRANCH   5   6
ATOM      6  N   UNL A   1      31.620  23.057  25.623  1.00  0.00    -0.302 N 
BRANCH   6   7
ATOM      7  C   UNL A   1      32.765  23.180  26.411  1.00  0.00     0.211 C 
BRANCH   7   8
ATOM      8  C   UNL A   1      33.886  24.078  25.914  1.00  0.00    -0.085 C 
ATOM      9  C   UNL A   1      34.848  24.848  25.487  1.00  0.00     0.006 C 
ENDBRANCH   7   8
ENDBRANCH   6   7
BRANCH   6  10
ATOM     10  C   UNL A   1      30.473  23.353  26.298  1.00  0.00     0.323 C 
ATOM     11  O   UNL A   1      29.829  22.477  26.893  1.00  0.00    -0.248 OA
ATOM     12  N   UNL A   1      30.026  24.592  26.503  1.00  0.00    -0.308 N 
ATOM     13  H   UNL A   1      29.433  24.660  27.285  1.00  0.00     0.171 HD
BRANCH  12  14
ATOM     14  C   UNL A   1      30.207  25.794  25.870  1.00  0.00     0.044 A 
ATOM     15  C   UNL A   1      29.367  26.064  24.315  1.00  0.00     0.026 A 
ATOM     16  C   UNL A   1      31.334  27.050  26.375  1.00  0.00     0.045 A 
ATOM     17  C   UNL A   1      29.777  27.776  23.321  1.00  0.00     0.004 A 
ATOM     18  C   UNL A   1      31.707  28.535  25.475  1.00  0.00     0.054 A 
ATOM     19  C   UNL A   1      30.964  28.923  23.977  1.00  0.00     0.019 A 
BRANCH  18  20
ATOM     20  C   UNL A   1      32.663  29.421  26.068  1.00  0.00     0.099 C 
ATOM     21  N   UNL A   1      33.409  30.130  26.604  1.00  0.00    -0.192 NA
ENDBRANCH  18  20
ENDBRANCH  12  14
ENDBRANCH   6  10
ENDBRANCH   5   6
ENDBRANCH   3   5
ENDBRANCH   2   3
ENDBRANCH   1   2
BRANCH   1  22
ATOM     22  C   UNL A   1      35.762  21.133  24.735  1.00  0.00     0.275 C 
BRANCH  22  23
ATOM     23  O   UNL A   1      36.644  21.032  25.901  1.00  0.00    -0.458 OA
BRANCH  23  24
ATOM     24  C   UNL A   1      37.961  20.710  25.685  1.00  0.00     0.338 C 
ATOM     25  O   UNL A   1      38.273  19.692  25.075  1.00  0.00    -0.246 OA
BRANCH  24  26
ATOM     26  C   UNL A   1      39.131  21.790  26.135  1.00  0.00     0.060 A 
ATOM     27  C   UNL A   1      40.642  21.913  27.492  1.00  0.00     0.016 A 
ATOM     28  C   UNL A   1      38.439  23.376  25.580  1.00  0.00     0.016 A 
ATOM     29  C   UNL A   1      41.151  23.484  28.121  1.00  0.00     0.010 A 
ATOM     30  C   UNL A   1      39.102  24.878  26.245  1.00  0.00     0.010 A 
ATOM     31  C   UNL A   1      40.415  24.916  27.452  1.00  0.00    -0.014 A 
BRANCH  31  32
ATOM     32  C   UNL A   1      41.131  26.167  27.779  1.00  0.00     0.031 A 
ATOM     33  C   UNL A   1      42.517  26.378  27.284  1.00  0.00     0.074 A 
ATOM     34  C   UNL A   1      40.468  27.091  28.511  1.00  0.00     0.049 A 
ATOM     35  N   UNL A   1      43.354  27.332  27.582  1.00  0.00    -0.248 NA
ATOM     36  C   UNL A   1      43.051  25.372  26.355  1.00  0.00     0.031 C 
ATOM     37  C   UNL A   1      39.095  26.957  29.024  1.00  0.00     0.029 A 
ATOM     38  N   UNL A   1      40.827  28.341  28.937  1.00  0.00    -0.354 N 
ATOM     39  C   UNL A   1      44.534  27.017  26.923  1.00  0.00     0.074 A 
ATOM     40  C   UNL A   1      44.308  25.771  26.222  1.00  0.00     0.031 C 
ATOM     41  C   UNL A   1      38.697  28.101  29.584  1.00  0.00     0.029 A 
ATOM     42  C   UNL A   1      39.836  28.988  29.645  1.00  0.00     0.049 A 
ATOM     43  H   UNL A   1      41.709  28.739  28.756  1.00  0.00     0.167 HD
ATOM     44  C   UNL A   1      45.695  27.717  26.927  1.00  0.00     0.034 A 
ATOM     45  C   UNL A   1      39.858  30.141  30.335  1.00  0.00     0.034 A 
ATOM     46  C   UNL A   1      45.842  28.957  27.653  1.00  0.00     0.049 A 
ATOM     47  C   UNL A   1      41.165  30.870  30.353  1.00  0.00     0.074 A 
ATOM     48  C   UNL A   1      46.957  29.762  27.780  1.00  0.00     0.029 A 
ATOM     49  N   UNL A   1      44.823  29.571  28.381  1.00  0.00    -0.354 N 
ATOM     50  N   UNL A   1      42.297  30.532  29.776  1.00  0.00    -0.248 NA
ATOM     51  C   UNL A   1      41.210  32.119  31.111  1.00  0.00     0.031 C 
ATOM     52  C   UNL A   1      46.632  30.823  28.633  1.00  0.00     0.029 A 
ATOM     53  C   UNL A   1      45.289  30.733  28.974  1.00  0.00     0.049 A 
ATOM     54  H   UNL A   1      43.904  29.228  28.462  1.00  0.00     0.167 HD
ATOM     55  C   UNL A   1      43.194  31.541  30.088  1.00  0.00     0.074 A 
ATOM     56  C   UNL A   1      42.453  32.511  30.878  1.00  0.00     0.031 C 
ATOM     57  C   UNL A   1      44.507  31.657  29.764  1.00  0.00     0.034 A 
BRANCH  44  58
ATOM     58  C   UNL A   1      46.873  27.106  26.206  1.00  0.00     0.023 A 
ATOM     59  C   UNL A   1      47.861  26.367  26.883  1.00  0.00     0.031 A 
ATOM     60  C   UNL A   1      47.060  27.338  24.831  1.00  0.00     0.131 A 
ATOM     61  C   UNL A   1      49.029  25.973  26.210  1.00  0.00     0.055 A 
ATOM     62  C   UNL A   1      48.183  26.864  24.147  1.00  0.00     0.041 A 
ATOM     63  F   UNL A   1      46.170  28.060  24.132  1.00  0.00    -0.206 F 
ATOM     64  C   UNL A   1      49.185  26.193  24.840  1.00  0.00     0.022 A 
BRANCH  61  65
ATOM     65  S   UNL A   1      50.415  25.327  27.187  1.00  0.00     0.124 S 
ATOM     66  O   UNL A   1      50.745  26.479  28.022  1.00  0.00    -0.237 OA
ATOM     67  O   UNL A   1      49.813  24.191  27.875  1.00  0.00    -0.237 OA
ATOM     68  O   UNL A   1      51.417  24.987  26.178  1.00  0.00    -0.744 OA
ENDBRANCH  61  65
ENDBRANCH  44  58
BRANCH  45  69
ATOM     69  C   UNL A   1      38.657  30.607  31.091  1.00  0.00     0.023 A 
ATOM     70  C   UNL A   1      37.622  31.298  30.447  1.00  0.00     0.031 A 
ATOM     71  C   UNL A   1      38.514  30.354  32.471  1.00  0.00     0.131 A 
ATOM     72  C   UNL A   1      36.510  31.741  31.183  1.00  0.00     0.055 A 
ATOM     73  C   UNL A   1      37.377  30.739  33.185  1.00  0.00     0.041 A 
ATOM     74  F   UNL A   1      39.467  29.690  33.145  1.00  0.00    -0.206 F 
ATOM     75  C   UNL A   1      36.371  31.450  32.542  1.00  0.00     0.022 A 
BRANCH  72  76
ATOM     76  S   UNL A   1      35.280  32.782  30.351  1.00  0.00     0.124 S 
ATOM     77  O   UNL A   1      34.815  31.901  29.287  1.00  0.00    -0.237 OA
ATOM     78  O   UNL A   1      34.330  33.045  31.428  1.00  0.00    -0.237 OA
ATOM     79  O   UNL A   1      36.057  33.939  29.910  1.00  0.00    -0.744 OA
ENDBRANCH  72  76
ENDBRANCH  45  69
BRANCH  57  80
ATOM     80  C   UNL A   1      45.182  32.913  30.241  1.00  0.00     0.023 A 
ATOM     81  C   UNL A   1      45.241  34.062  29.437  1.00  0.00     0.031 A 
ATOM     82  C   UNL A   1      45.813  32.937  31.495  1.00  0.00     0.131 A 
ATOM     83  C   UNL A   1      45.989  35.165  29.863  1.00  0.00     0.055 A 
ATOM     84  C   UNL A   1      46.487  34.068  31.950  1.00  0.00     0.041 A 
ATOM     85  F   UNL A   1      45.790  31.857  32.294  1.00  0.00    -0.206 F 
ATOM     86  C   UNL A   1      46.594  35.185  31.124  1.00  0.00     0.022 A 
BRANCH  83  87
ATOM     87  S   UNL A   1      46.273  36.516  28.691  1.00  0.00     0.124 S 
ATOM     88  O   UNL A   1      44.909  36.928  28.373  1.00  0.00    -0.237 OA
ATOM     89  O   UNL A   1      47.055  37.458  29.484  1.00  0.00    -0.237 OA
ATOM     90  O   UNL A   1      46.997  35.872  27.598  1.00  0.00    -0.744 OA
ENDBRANCH  83  87
ENDBRANCH  57  80
ENDBRANCH  31  32
ENDBRANCH  24  26
ENDBRANCH  23  24
ENDBRANCH  22  23
ENDBRANCH   1  22
TORSDOF 20
ENDMDL
