MODEL 1
REMARK VINA RESULT:     -12.3      0.000      0.000
REMARK SMILES C[C@@H](C(=O)OCCOC(=O)c1ccc(-c2c3nc(c(-c4cc(S(=O)(=O)[O-])ccc4F)c4ccc([nH]4)c(-c4cc(S(=O)(=O)[O-])ccc4F)c4nc(c(-c5cc(S(=O)(=O)[O-])ccc5F)c5ccc2[nH]5)C=C4)C=C3)cc1)S(=O)(=O)N[C@@]12C[C@@H]3C[C@@](C)(C[C@@](C)(C3)C1)C2
REMARK SMILES IDX 6 1 5 2 3 3 4 4 2 5 1 6 74 7 75 8 76 9 77 10 78 12 79 13
REMARK SMILES IDX 88 14 89 15 80 16 85 17 82 18 87 19 81 20 84 21 86 22 83 23
REMARK SMILES IDX 7 24 8 25 9 26 10 27 11 28 12 29 73 30 13 31 72 32 14 33
REMARK SMILES IDX 15 34 16 35 66 36 17 37 71 38 65 39 67 40 18 41 70 42 64 43
REMARK SMILES IDX 63 44 19 46 51 47 31 48 50 49 32 50 35 51 49 52 68 53 33 54
REMARK SMILES IDX 34 55 48 57 69 58 36 59 20 60 21 61 29 62 22 63 28 64 30 65
REMARK SMILES IDX 27 66 23 67 24 68 25 69 26 70 52 71 53 72 61 73 54 74 60 75
REMARK SMILES IDX 62 76 59 77 55 78 56 79 57 80 58 81 37 82 38 83 46 84 39 85
REMARK SMILES IDX 45 86 47 87 44 88 40 89 41 90 42 91 43 92
REMARK H PARENT 77 11 67 45 35 56
REMARK Flexibility Score: inf
ROOT
ATOM      1  C   UNL A   1      31.909  28.017  25.269  1.00  0.00     0.274 C 
ENDROOT
BRANCH   1   2
ATOM      2  O   UNL A   1      30.946  27.732  24.227  1.00  0.00    -0.461 OA
BRANCH   2   3
ATOM      3  C   UNL A   1      31.406  27.870  22.946  1.00  0.00     0.325 C 
ATOM      4  O   UNL A   1      30.699  28.252  22.022  1.00  0.00    -0.251 OA
BRANCH   3   5
ATOM      5  C   UNL A   1      32.798  27.335  22.759  1.00  0.00     0.230 C 
ATOM      6  C   UNL A   1      33.866  28.338  22.355  1.00  0.00     0.039 C 
BRANCH   5   7
ATOM      7  S   UNL A   1      32.810  25.785  21.872  1.00  0.00     0.225 S 
ATOM      8  O   UNL A   1      31.507  25.171  22.035  1.00  0.00    -0.212 OA
ATOM      9  O   UNL A   1      33.277  26.051  20.530  1.00  0.00    -0.212 OA
BRANCH   7  10
ATOM     10  N   UNL A   1      33.977  24.776  22.504  1.00  0.00    -0.208 NA
ATOM     11  H   UNL A   1      34.711  25.407  22.826  1.00  0.00     0.141 HD
BRANCH  10  12
ATOM     12  C   UNL A   1      33.851  23.770  23.589  1.00  0.00     0.034 C 
ATOM     13  C   UNL A   1      33.222  22.471  23.007  1.00  0.00     0.027 C 
ATOM     14  C   UNL A   1      35.260  23.379  24.059  1.00  0.00     0.030 C 
ATOM     15  C   UNL A   1      32.971  24.230  24.756  1.00  0.00     0.030 C 
ATOM     16  C   UNL A   1      33.153  21.368  24.084  1.00  0.00    -0.008 C 
ATOM     17  C   UNL A   1      35.204  22.336  25.192  1.00  0.00    -0.030 C 
ATOM     18  C   UNL A   1      32.879  23.150  25.851  1.00  0.00    -0.030 C 
ATOM     19  C   UNL A   1      34.563  21.056  24.618  1.00  0.00     0.010 C 
ATOM     20  C   UNL A   1      32.282  21.861  25.248  1.00  0.00     0.010 C 
ATOM     21  C   UNL A   1      34.316  22.866  26.346  1.00  0.00     0.013 C 
ATOM     22  C   UNL A   1      36.622  22.067  25.702  1.00  0.00     0.011 C 
ATOM     23  C   UNL A   1      31.996  23.654  26.996  1.00  0.00     0.011 C 
ENDBRANCH  10  12
ENDBRANCH   7  10
ENDBRANCH   5   7
ENDBRANCH   3   5
ENDBRANCH   2   3
ENDBRANCH   1   2
BRANCH   1  24
ATOM     24  C   UNL A   1      31.634  29.352  25.953  1.00  0.00     0.275 C 
BRANCH  24  25
ATOM     25  O   UNL A   1      32.765  30.216  25.783  1.00  0.00    -0.458 OA
BRANCH  25  26
ATOM     26  C   UNL A   1      33.015  31.075  26.798  1.00  0.00     0.338 C 
ATOM     27  O   UNL A   1      32.254  31.933  27.224  1.00  0.00    -0.246 OA
BRANCH  26  28
ATOM     28  C   UNL A   1      34.355  30.820  27.371  1.00  0.00     0.060 A 
ATOM     29  C   UNL A   1      34.791  29.523  27.633  1.00  0.00     0.016 A 
ATOM     30  C   UNL A   1      35.154  31.897  27.754  1.00  0.00     0.016 A 
ATOM     31  C   UNL A   1      35.957  29.308  28.372  1.00  0.00     0.010 A 
ATOM     32  C   UNL A   1      36.384  31.671  28.389  1.00  0.00     0.010 A 
ATOM     33  C   UNL A   1      36.788  30.373  28.747  1.00  0.00    -0.014 A 
BRANCH  33  34
ATOM     34  C   UNL A   1      38.054  30.137  29.515  1.00  0.00     0.031 A 
ATOM     35  C   UNL A   1      39.141  29.245  28.954  1.00  0.00     0.074 A 
ATOM     36  C   UNL A   1      38.252  30.715  30.720  1.00  0.00     0.049 A 
ATOM     37  N   UNL A   1      40.189  28.732  29.552  1.00  0.00    -0.248 NA
ATOM     38  C   UNL A   1      39.027  28.871  27.536  1.00  0.00     0.031 C 
ATOM     39  C   UNL A   1      37.333  31.645  31.379  1.00  0.00     0.029 A 
ATOM     40  N   UNL A   1      39.296  30.606  31.609  1.00  0.00    -0.354 N 
ATOM     41  C   UNL A   1      40.823  27.933  28.604  1.00  0.00     0.074 A 
ATOM     42  C   UNL A   1      40.037  28.026  27.391  1.00  0.00     0.031 C 
ATOM     43  C   UNL A   1      37.873  32.062  32.533  1.00  0.00     0.029 A 
ATOM     44  C   UNL A   1      39.108  31.327  32.767  1.00  0.00     0.049 A 
ATOM     45  H   UNL A   1      40.100  30.066  31.434  1.00  0.00     0.167 HD
ATOM     46  C   UNL A   1      41.949  27.185  28.735  1.00  0.00     0.034 A 
ATOM     47  C   UNL A   1      39.798  31.350  33.925  1.00  0.00     0.034 A 
ATOM     48  C   UNL A   1      42.745  27.127  29.939  1.00  0.00     0.049 A 
ATOM     49  C   UNL A   1      40.999  30.459  34.078  1.00  0.00     0.074 A 
ATOM     50  C   UNL A   1      43.900  26.400  30.175  1.00  0.00     0.029 A 
ATOM     51  N   UNL A   1      42.477  27.827  31.108  1.00  0.00    -0.354 N 
ATOM     52  N   UNL A   1      41.527  29.630  33.208  1.00  0.00    -0.248 NA
ATOM     53  C   UNL A   1      41.682  30.488  35.377  1.00  0.00     0.031 C 
ATOM     54  C   UNL A   1      44.294  26.611  31.502  1.00  0.00     0.029 A 
ATOM     55  C   UNL A   1      43.428  27.527  32.074  1.00  0.00     0.049 A 
ATOM     56  H   UNL A   1      41.723  28.447  31.233  1.00  0.00     0.167 HD
ATOM     57  C   UNL A   1      42.609  29.042  33.856  1.00  0.00     0.074 A 
ATOM     58  C   UNL A   1      42.673  29.631  35.178  1.00  0.00     0.031 C 
ATOM     59  C   UNL A   1      43.469  28.098  33.399  1.00  0.00     0.034 A 
BRANCH  46  60
ATOM     60  C   UNL A   1      42.350  26.312  27.567  1.00  0.00     0.023 A 
ATOM     61  C   UNL A   1      41.902  24.987  27.429  1.00  0.00     0.031 A 
ATOM     62  C   UNL A   1      43.212  26.822  26.578  1.00  0.00     0.131 A 
ATOM     63  C   UNL A   1      42.364  24.201  26.361  1.00  0.00     0.055 A 
ATOM     64  C   UNL A   1      43.607  26.059  25.477  1.00  0.00     0.041 A 
ATOM     65  F   UNL A   1      43.692  28.072  26.668  1.00  0.00    -0.206 F 
ATOM     66  C   UNL A   1      43.193  24.735  25.370  1.00  0.00     0.022 A 
BRANCH  63  67
ATOM     67  S   UNL A   1      41.977  22.428  26.353  1.00  0.00     0.124 S 
ATOM     68  O   UNL A   1      42.640  21.985  25.127  1.00  0.00    -0.237 OA
ATOM     69  O   UNL A   1      42.573  21.970  27.603  1.00  0.00    -0.237 OA
ATOM     70  O   UNL A   1      40.517  22.395  26.308  1.00  0.00    -0.744 OA
ENDBRANCH  63  67
ENDBRANCH  46  60
BRANCH  47  71
ATOM     71  C   UNL A   1      39.302  32.167  35.073  1.00  0.00     0.023 A 
ATOM     72  C   UNL A   1      39.766  33.472  35.295  1.00  0.00     0.031 A 
ATOM     73  C   UNL A   1      38.363  31.637  35.978  1.00  0.00     0.131 A 
ATOM     74  C   UNL A   1      39.308  34.194  36.410  1.00  0.00     0.055 A 
ATOM     75  C   UNL A   1      37.864  32.380  37.047  1.00  0.00     0.041 A 
ATOM     76  F   UNL A   1      37.894  30.389  35.818  1.00  0.00    -0.206 F 
ATOM     77  C   UNL A   1      38.345  33.665  37.274  1.00  0.00     0.022 A 
BRANCH  74  78
ATOM     78  S   UNL A   1      40.049  35.810  36.766  1.00  0.00     0.124 S 
ATOM     79  O   UNL A   1      39.649  36.586  35.596  1.00  0.00    -0.237 OA
ATOM     80  O   UNL A   1      39.407  36.170  38.025  1.00  0.00    -0.237 OA
ATOM     81  O   UNL A   1      41.477  35.516  36.858  1.00  0.00    -0.744 OA
ENDBRANCH  74  78
ENDBRANCH  47  71
BRANCH  59  82
ATOM     82  C   UNL A   1      44.570  27.674  34.339  1.00  0.00     0.023 A 
ATOM     83  C   UNL A   1      44.431  26.559  35.183  1.00  0.00     0.031 A 
ATOM     84  C   UNL A   1      45.759  28.420  34.416  1.00  0.00     0.131 A 
ATOM     85  C   UNL A   1      45.437  26.257  36.113  1.00  0.00     0.055 A 
ATOM     86  C   UNL A   1      46.781  28.082  35.304  1.00  0.00     0.041 A 
ATOM     87  F   UNL A   1      45.943  29.496  33.634  1.00  0.00    -0.206 F 
ATOM     88  C   UNL A   1      46.617  27.003  36.169  1.00  0.00     0.022 A 
BRANCH  85  89
ATOM     89  S   UNL A   1      45.144  24.932  37.316  1.00  0.00     0.124 S 
ATOM     90  O   UNL A   1      46.474  24.347  37.453  1.00  0.00    -0.237 OA
ATOM     91  O   UNL A   1      44.648  25.667  38.476  1.00  0.00    -0.237 OA
ATOM     92  O   UNL A   1      44.157  24.080  36.655  1.00  0.00    -0.744 OA
ENDBRANCH  85  89
ENDBRANCH  59  82
ENDBRANCH  33  34
ENDBRANCH  26  28
ENDBRANCH  25  26
ENDBRANCH  24  25
ENDBRANCH   1  24
TORSDOF 17
ENDMDL
MODEL 2
REMARK VINA RESULT:     -12.2      4.937      9.871
REMARK SMILES C[C@@H](C(=O)OCCOC(=O)c1ccc(-c2c3nc(c(-c4cc(S(=O)(=O)[O-])ccc4F)c4ccc([nH]4)c(-c4cc(S(=O)(=O)[O-])ccc4F)c4nc(c(-c5cc(S(=O)(=O)[O-])ccc5F)c5ccc2[nH]5)C=C4)C=C3)cc1)S(=O)(=O)N[C@@]12C[C@@H]3C[C@@](C)(C[C@@](C)(C3)C1)C2
REMARK SMILES IDX 6 1 5 2 3 3 4 4 2 5 1 6 74 7 75 8 76 9 77 10 78 12 79 13
REMARK SMILES IDX 88 14 89 15 80 16 85 17 82 18 87 19 81 20 84 21 86 22 83 23
REMARK SMILES IDX 7 24 8 25 9 26 10 27 11 28 12 29 73 30 13 31 72 32 14 33
REMARK SMILES IDX 15 34 16 35 66 36 17 37 71 38 65 39 67 40 18 41 70 42 64 43
REMARK SMILES IDX 63 44 19 46 51 47 31 48 50 49 32 50 35 51 49 52 68 53 33 54
REMARK SMILES IDX 34 55 48 57 69 58 36 59 20 60 21 61 29 62 22 63 28 64 30 65
REMARK SMILES IDX 27 66 23 67 24 68 25 69 26 70 52 71 53 72 61 73 54 74 60 75
REMARK SMILES IDX 62 76 59 77 55 78 56 79 57 80 58 81 37 82 38 83 46 84 39 85
REMARK SMILES IDX 45 86 47 87 44 88 40 89 41 90 42 91 43 92
REMARK H PARENT 77 11 67 45 35 56
REMARK Flexibility Score: inf
ROOT
ATOM      1  C   UNL A   1      34.882  20.738  24.893  1.00  0.00     0.274 C 
ENDROOT
BRANCH   1   2
ATOM      2  O   UNL A   1      34.589  21.973  25.587  1.00  0.00    -0.461 OA
BRANCH   2   3
ATOM      3  C   UNL A   1      34.407  23.069  24.788  1.00  0.00     0.325 C 
ATOM      4  O   UNL A   1      34.997  24.127  24.965  1.00  0.00    -0.251 OA
BRANCH   3   5
ATOM      5  C   UNL A   1      33.288  22.899  23.800  1.00  0.00     0.230 C 
ATOM      6  C   UNL A   1      33.603  23.228  22.350  1.00  0.00     0.039 C 
BRANCH   5   7
ATOM      7  S   UNL A   1      31.738  23.529  24.422  1.00  0.00     0.225 S 
ATOM      8  O   UNL A   1      30.960  23.990  23.289  1.00  0.00    -0.212 OA
ATOM      9  O   UNL A   1      31.163  22.516  25.277  1.00  0.00    -0.212 OA
BRANCH   7  10
ATOM     10  N   UNL A   1      32.016  24.808  25.455  1.00  0.00    -0.208 NA
ATOM     11  H   UNL A   1      32.847  24.535  25.980  1.00  0.00     0.141 HD
BRANCH  10  12
ATOM     12  C   UNL A   1      32.239  26.239  25.128  1.00  0.00     0.034 C 
ATOM     13  C   UNL A   1      30.862  26.959  25.036  1.00  0.00     0.027 C 
ATOM     14  C   UNL A   1      32.977  26.899  26.301  1.00  0.00     0.030 C 
ATOM     15  C   UNL A   1      32.969  26.461  23.799  1.00  0.00     0.030 C 
ATOM     16  C   UNL A   1      31.051  28.470  24.782  1.00  0.00    -0.008 C 
ATOM     17  C   UNL A   1      33.246  28.392  26.026  1.00  0.00    -0.030 C 
ATOM     18  C   UNL A   1      33.174  27.961  23.514  1.00  0.00    -0.030 C 
ATOM     19  C   UNL A   1      31.880  29.100  25.917  1.00  0.00     0.010 C 
ATOM     20  C   UNL A   1      31.801  28.663  23.457  1.00  0.00     0.010 C 
ATOM     21  C   UNL A   1      34.000  28.548  24.682  1.00  0.00     0.013 C 
ATOM     22  C   UNL A   1      34.083  28.973  27.169  1.00  0.00     0.011 C 
ATOM     23  C   UNL A   1      33.910  28.134  22.183  1.00  0.00     0.011 C 
ENDBRANCH  10  12
ENDBRANCH   7  10
ENDBRANCH   5   7
ENDBRANCH   3   5
ENDBRANCH   2   3
ENDBRANCH   1   2
BRANCH   1  24
ATOM     24  C   UNL A   1      36.347  20.336  25.032  1.00  0.00     0.275 C 
BRANCH  24  25
ATOM     25  O   UNL A   1      37.096  21.438  25.560  1.00  0.00    -0.458 OA
BRANCH  25  26
ATOM     26  C   UNL A   1      38.407  21.208  25.793  1.00  0.00     0.338 C 
ATOM     27  O   UNL A   1      39.021  20.184  25.527  1.00  0.00    -0.246 OA
BRANCH  26  28
ATOM     28  C   UNL A   1      39.040  22.400  26.401  1.00  0.00     0.060 A 
ATOM     29  C   UNL A   1      38.568  23.683  26.130  1.00  0.00     0.016 A 
ATOM     30  C   UNL A   1      40.190  22.247  27.174  1.00  0.00     0.016 A 
ATOM     31  C   UNL A   1      39.303  24.801  26.530  1.00  0.00     0.010 A 
ATOM     32  C   UNL A   1      40.857  23.375  27.675  1.00  0.00     0.010 A 
ATOM     33  C   UNL A   1      40.449  24.674  27.327  1.00  0.00    -0.014 A 
BRANCH  33  34
ATOM     34  C   UNL A   1      41.219  25.878  27.779  1.00  0.00     0.031 A 
ATOM     35  C   UNL A   1      40.557  26.944  28.625  1.00  0.00     0.074 A 
ATOM     36  C   UNL A   1      42.518  26.037  27.442  1.00  0.00     0.049 A 
ATOM     37  N   UNL A   1      40.970  28.154  28.915  1.00  0.00    -0.248 NA
ATOM     38  C   UNL A   1      39.250  26.609  29.211  1.00  0.00     0.031 C 
ATOM     39  C   UNL A   1      43.323  25.079  26.682  1.00  0.00     0.029 A 
ATOM     40  N   UNL A   1      43.395  27.065  27.700  1.00  0.00    -0.354 N 
ATOM     41  C   UNL A   1      39.954  28.741  29.665  1.00  0.00     0.074 A 
ATOM     42  C   UNL A   1      38.901  27.754  29.781  1.00  0.00     0.031 C 
ATOM     43  C   UNL A   1      44.579  25.535  26.581  1.00  0.00     0.029 A 
ATOM     44  C   UNL A   1      44.640  26.877  27.144  1.00  0.00     0.049 A 
ATOM     45  H   UNL A   1      43.154  27.859  28.230  1.00  0.00     0.167 HD
ATOM     46  C   UNL A   1      39.900  29.988  30.200  1.00  0.00     0.034 A 
ATOM     47  C   UNL A   1      45.698  27.704  27.025  1.00  0.00     0.034 A 
ATOM     48  C   UNL A   1      40.971  30.953  30.109  1.00  0.00     0.049 A 
ATOM     49  C   UNL A   1      45.592  29.106  27.557  1.00  0.00     0.074 A 
ATOM     50  C   UNL A   1      41.016  32.243  30.613  1.00  0.00     0.029 A 
ATOM     51  N   UNL A   1      42.190  30.736  29.480  1.00  0.00    -0.354 N 
ATOM     52  N   UNL A   1      44.587  29.681  28.173  1.00  0.00    -0.248 NA
ATOM     53  C   UNL A   1      46.756  29.978  27.355  1.00  0.00     0.031 C 
ATOM     54  C   UNL A   1      42.232  32.825  30.236  1.00  0.00     0.029 A 
ATOM     55  C   UNL A   1      42.980  31.876  29.560  1.00  0.00     0.049 A 
ATOM     56  H   UNL A   1      42.456  29.896  29.041  1.00  0.00     0.167 HD
ATOM     57  C   UNL A   1      45.000  30.983  28.437  1.00  0.00     0.074 A 
ATOM     58  C   UNL A   1      46.355  31.099  27.937  1.00  0.00     0.031 C 
ATOM     59  C   UNL A   1      44.319  31.992  29.034  1.00  0.00     0.034 A 
BRANCH  46  60
ATOM     60  C   UNL A   1      38.613  30.407  30.872  1.00  0.00     0.023 A 
ATOM     61  C   UNL A   1      37.595  31.093  30.188  1.00  0.00     0.031 A 
ATOM     62  C   UNL A   1      38.411  30.120  32.236  1.00  0.00     0.131 A 
ATOM     63  C   UNL A   1      36.450  31.519  30.882  1.00  0.00     0.055 A 
ATOM     64  C   UNL A   1      37.237  30.480  32.902  1.00  0.00     0.041 A 
ATOM     65  F   UNL A   1      39.357  29.489  32.948  1.00  0.00    -0.206 F 
ATOM     66  C   UNL A   1      36.253  31.196  32.228  1.00  0.00     0.022 A 
BRANCH  63  67
ATOM     67  S   UNL A   1      35.281  32.622  30.039  1.00  0.00     0.124 S 
ATOM     68  O   UNL A   1      34.800  31.770  28.952  1.00  0.00    -0.237 OA
ATOM     69  O   UNL A   1      34.315  32.921  31.090  1.00  0.00    -0.237 OA
ATOM     70  O   UNL A   1      36.112  33.746  29.616  1.00  0.00    -0.744 OA
ENDBRANCH  63  67
ENDBRANCH  46  60
BRANCH  47  71
ATOM     71  C   UNL A   1      46.910  27.261  26.274  1.00  0.00     0.023 A 
ATOM     72  C   UNL A   1      47.127  27.650  24.943  1.00  0.00     0.031 A 
ATOM     73  C   UNL A   1      47.864  26.421  26.880  1.00  0.00     0.131 A 
ATOM     74  C   UNL A   1      48.258  27.179  24.255  1.00  0.00     0.055 A 
ATOM     75  C   UNL A   1      49.016  26.008  26.213  1.00  0.00     0.041 A 
ATOM     76  F   UNL A   1      47.699  26.010  28.148  1.00  0.00    -0.206 F 
ATOM     77  C   UNL A   1      49.213  26.379  24.888  1.00  0.00     0.022 A 
BRANCH  74  78
ATOM     78  S   UNL A   1      48.425  27.560  22.490  1.00  0.00     0.124 S 
ATOM     79  O   UNL A   1      48.512  26.226  21.905  1.00  0.00    -0.237 OA
ATOM     80  O   UNL A   1      47.198  28.300  22.220  1.00  0.00    -0.237 OA
ATOM     81  O   UNL A   1      49.654  28.348  22.427  1.00  0.00    -0.744 OA
ENDBRANCH  74  78
ENDBRANCH  47  71
BRANCH  59  82
ATOM     82  C   UNL A   1      45.054  33.298  29.204  1.00  0.00     0.023 A 
ATOM     83  C   UNL A   1      45.015  34.299  28.217  1.00  0.00     0.031 A 
ATOM     84  C   UNL A   1      45.834  33.527  30.350  1.00  0.00     0.131 A 
ATOM     85  C   UNL A   1      45.793  35.457  28.367  1.00  0.00     0.055 A 
ATOM     86  C   UNL A   1      46.561  34.706  30.520  1.00  0.00     0.041 A 
ATOM     87  F   UNL A   1      45.908  32.604  31.322  1.00  0.00    -0.206 F 
ATOM     88  C   UNL A   1      46.554  35.673  29.518  1.00  0.00     0.022 A 
BRANCH  85  89
ATOM     89  S   UNL A   1      45.872  36.639  26.992  1.00  0.00     0.124 S 
ATOM     90  O   UNL A   1      46.245  35.779  25.874  1.00  0.00    -0.237 OA
ATOM     91  O   UNL A   1      44.514  37.172  26.960  1.00  0.00    -0.237 OA
ATOM     92  O   UNL A   1      46.900  37.588  27.415  1.00  0.00    -0.744 OA
ENDBRANCH  85  89
ENDBRANCH  59  82
ENDBRANCH  33  34
ENDBRANCH  26  28
ENDBRANCH  25  26
ENDBRANCH  24  25
ENDBRANCH   1  24
TORSDOF 17
ENDMDL
MODEL 3
REMARK VINA RESULT:     -12.1      5.000      9.860
REMARK SMILES C[C@@H](C(=O)OCCOC(=O)c1ccc(-c2c3nc(c(-c4cc(S(=O)(=O)[O-])ccc4F)c4ccc([nH]4)c(-c4cc(S(=O)(=O)[O-])ccc4F)c4nc(c(-c5cc(S(=O)(=O)[O-])ccc5F)c5ccc2[nH]5)C=C4)C=C3)cc1)S(=O)(=O)N[C@@]12C[C@@H]3C[C@@](C)(C[C@@](C)(C3)C1)C2
REMARK SMILES IDX 6 1 5 2 3 3 4 4 2 5 1 6 74 7 75 8 76 9 77 10 78 12 79 13
REMARK SMILES IDX 88 14 89 15 80 16 85 17 82 18 87 19 81 20 84 21 86 22 83 23
REMARK SMILES IDX 7 24 8 25 9 26 10 27 11 28 12 29 73 30 13 31 72 32 14 33
REMARK SMILES IDX 15 34 16 35 66 36 17 37 71 38 65 39 67 40 18 41 70 42 64 43
REMARK SMILES IDX 63 44 19 46 51 47 31 48 50 49 32 50 35 51 49 52 68 53 33 54
REMARK SMILES IDX 34 55 48 57 69 58 36 59 20 60 21 61 29 62 22 63 28 64 30 65
REMARK SMILES IDX 27 66 23 67 24 68 25 69 26 70 52 71 53 72 61 73 54 74 60 75
REMARK SMILES IDX 62 76 59 77 55 78 56 79 57 80 58 81 37 82 38 83 46 84 39 85
REMARK SMILES IDX 45 86 47 87 44 88 40 89 41 90 42 91 43 92
REMARK H PARENT 77 11 67 45 35 56
REMARK Flexibility Score: inf
ROOT
ATOM      1  C   UNL A   1      36.344  22.679  23.776  1.00  0.00     0.274 C 
ENDROOT
BRANCH   1   2
ATOM      2  O   UNL A   1      35.537  23.405  24.734  1.00  0.00    -0.461 OA
BRANCH   2   3
ATOM      3  C   UNL A   1      34.223  23.028  24.802  1.00  0.00     0.325 C 
ATOM      4  O   UNL A   1      33.586  22.653  23.825  1.00  0.00    -0.251 OA
BRANCH   3   5
ATOM      5  C   UNL A   1      33.602  23.294  26.143  1.00  0.00     0.230 C 
ATOM      6  C   UNL A   1      34.086  22.438  27.302  1.00  0.00     0.039 C 
BRANCH   5   7
ATOM      7  S   UNL A   1      31.835  23.526  26.033  1.00  0.00     0.225 S 
ATOM      8  O   UNL A   1      31.241  22.251  25.683  1.00  0.00    -0.212 OA
ATOM      9  O   UNL A   1      31.399  24.171  27.251  1.00  0.00    -0.212 OA
BRANCH   7  10
ATOM     10  N   UNL A   1      31.479  24.642  24.846  1.00  0.00    -0.208 NA
ATOM     11  H   UNL A   1      30.459  24.679  24.830  1.00  0.00     0.141 HD
BRANCH  10  12
ATOM     12  C   UNL A   1      31.903  26.061  24.742  1.00  0.00     0.034 C 
ATOM     13  C   UNL A   1      33.077  26.166  23.726  1.00  0.00     0.027 C 
ATOM     14  C   UNL A   1      30.750  26.872  24.135  1.00  0.00     0.030 C 
ATOM     15  C   UNL A   1      32.382  26.659  26.069  1.00  0.00     0.030 C 
ATOM     16  C   UNL A   1      33.493  27.639  23.523  1.00  0.00    -0.008 C 
ATOM     17  C   UNL A   1      31.122  28.362  24.002  1.00  0.00    -0.030 C 
ATOM     18  C   UNL A   1      32.806  28.130  25.902  1.00  0.00    -0.030 C 
ATOM     19  C   UNL A   1      32.298  28.463  23.008  1.00  0.00     0.010 C 
ATOM     20  C   UNL A   1      33.949  28.219  24.869  1.00  0.00     0.010 C 
ATOM     21  C   UNL A   1      31.580  28.911  25.376  1.00  0.00     0.013 C 
ATOM     22  C   UNL A   1      29.904  29.144  23.502  1.00  0.00     0.011 C 
ATOM     23  C   UNL A   1      33.271  28.687  27.251  1.00  0.00     0.011 C 
ENDBRANCH  10  12
ENDBRANCH   7  10
ENDBRANCH   5   7
ENDBRANCH   3   5
ENDBRANCH   2   3
ENDBRANCH   1   2
BRANCH   1  24
ATOM     24  C   UNL A   1      37.025  21.467  24.404  1.00  0.00     0.275 C 
BRANCH  24  25
ATOM     25  O   UNL A   1      37.394  21.773  25.755  1.00  0.00    -0.458 OA
BRANCH  25  26
ATOM     26  C   UNL A   1      38.694  21.584  26.074  1.00  0.00     0.338 C 
ATOM     27  O   UNL A   1      39.348  20.569  25.874  1.00  0.00    -0.246 OA
BRANCH  26  28
ATOM     28  C   UNL A   1      39.259  22.807  26.685  1.00  0.00     0.060 A 
ATOM     29  C   UNL A   1      38.726  24.064  26.405  1.00  0.00     0.016 A 
ATOM     30  C   UNL A   1      40.407  22.714  27.472  1.00  0.00     0.016 A 
ATOM     31  C   UNL A   1      39.399  25.219  26.809  1.00  0.00     0.010 A 
ATOM     32  C   UNL A   1      41.011  23.875  27.976  1.00  0.00     0.010 A 
ATOM     33  C   UNL A   1      40.541  25.151  27.620  1.00  0.00    -0.014 A 
BRANCH  33  34
ATOM     34  C   UNL A   1      41.244  26.394  28.076  1.00  0.00     0.031 A 
ATOM     35  C   UNL A   1      40.503  27.457  28.858  1.00  0.00     0.074 A 
ATOM     36  C   UNL A   1      42.553  26.591  27.800  1.00  0.00     0.049 A 
ATOM     37  N   UNL A   1      40.859  28.688  29.136  1.00  0.00    -0.248 NA
ATOM     38  C   UNL A   1      39.181  27.089  29.387  1.00  0.00     0.031 C 
ATOM     39  C   UNL A   1      43.428  25.644  27.107  1.00  0.00     0.029 A 
ATOM     40  N   UNL A   1      43.379  27.657  28.073  1.00  0.00    -0.354 N 
ATOM     41  C   UNL A   1      39.786  29.256  29.818  1.00  0.00     0.074 A 
ATOM     42  C   UNL A   1      38.763  28.235  29.907  1.00  0.00     0.031 C 
ATOM     43  C   UNL A   1      44.671  26.143  27.057  1.00  0.00     0.029 A 
ATOM     44  C   UNL A   1      44.657  27.500  27.586  1.00  0.00     0.049 A 
ATOM     45  H   UNL A   1      43.084  28.455  28.569  1.00  0.00     0.167 HD
ATOM     46  C   UNL A   1      39.661  30.514  30.314  1.00  0.00     0.034 A 
ATOM     47  C   UNL A   1      45.690  28.361  27.497  1.00  0.00     0.034 A 
ATOM     48  C   UNL A   1      40.701  31.514  30.251  1.00  0.00     0.049 A 
ATOM     49  C   UNL A   1      45.508  29.772  27.984  1.00  0.00     0.074 A 
ATOM     50  C   UNL A   1      40.675  32.817  30.721  1.00  0.00     0.029 A 
ATOM     51  N   UNL A   1      41.958  31.326  29.689  1.00  0.00    -0.354 N 
ATOM     52  N   UNL A   1      44.453  30.326  28.533  1.00  0.00    -0.248 NA
ATOM     53  C   UNL A   1      46.649  30.680  27.817  1.00  0.00     0.031 C 
ATOM     54  C   UNL A   1      41.888  33.434  30.389  1.00  0.00     0.029 A 
ATOM     55  C   UNL A   1      42.702  32.495  29.778  1.00  0.00     0.049 A 
ATOM     56  H   UNL A   1      42.275  30.486  29.287  1.00  0.00     0.167 HD
ATOM     57  C   UNL A   1      44.807  31.648  28.781  1.00  0.00     0.074 A 
ATOM     58  C   UNL A   1      46.180  31.800  28.347  1.00  0.00     0.031 C 
ATOM     59  C   UNL A   1      44.060  32.647  29.317  1.00  0.00     0.034 A 
BRANCH  46  60
ATOM     60  C   UNL A   1      38.327  30.903  30.910  1.00  0.00     0.023 A 
ATOM     61  C   UNL A   1      37.314  31.513  30.152  1.00  0.00     0.031 A 
ATOM     62  C   UNL A   1      38.075  30.665  32.275  1.00  0.00     0.131 A 
ATOM     63  C   UNL A   1      36.121  31.917  30.775  1.00  0.00     0.055 A 
ATOM     64  C   UNL A   1      36.858  31.000  32.871  1.00  0.00     0.041 A 
ATOM     65  F   UNL A   1      39.013  30.107  33.055  1.00  0.00    -0.206 F 
ATOM     66  C   UNL A   1      35.876  31.642  32.123  1.00  0.00     0.022 A 
BRANCH  63  67
ATOM     67  S   UNL A   1      34.946  32.930  29.833  1.00  0.00     0.124 S 
ATOM     68  O   UNL A   1      34.399  31.953  28.893  1.00  0.00    -0.237 OA
ATOM     69  O   UNL A   1      34.033  33.399  30.869  1.00  0.00    -0.237 OA
ATOM     70  O   UNL A   1      35.787  33.960  29.228  1.00  0.00    -0.744 OA
ENDBRANCH  63  67
ENDBRANCH  46  60
BRANCH  47  71
ATOM     71  C   UNL A   1      46.953  27.944  26.819  1.00  0.00     0.023 A 
ATOM     72  C   UNL A   1      47.081  27.985  25.423  1.00  0.00     0.031 A 
ATOM     73  C   UNL A   1      48.050  27.479  27.569  1.00  0.00     0.131 A 
ATOM     74  C   UNL A   1      48.270  27.544  24.819  1.00  0.00     0.055 A 
ATOM     75  C   UNL A   1      49.251  27.103  26.969  1.00  0.00     0.041 A 
ATOM     76  F   UNL A   1      47.978  27.410  28.908  1.00  0.00    -0.206 F 
ATOM     77  C   UNL A   1      49.362  27.124  25.583  1.00  0.00     0.022 A 
BRANCH  74  78
ATOM     78  S   UNL A   1      48.345  27.449  23.009  1.00  0.00     0.124 S 
ATOM     79  O   UNL A   1      49.629  28.084  22.731  1.00  0.00    -0.237 OA
ATOM     80  O   UNL A   1      48.277  26.011  22.777  1.00  0.00    -0.237 OA
ATOM     81  O   UNL A   1      47.171  28.204  22.580  1.00  0.00    -0.744 OA
ENDBRANCH  74  78
ENDBRANCH  47  71
BRANCH  59  82
ATOM     82  C   UNL A   1      44.740  33.983  29.486  1.00  0.00     0.023 A 
ATOM     83  C   UNL A   1      44.564  35.023  28.557  1.00  0.00     0.031 A 
ATOM     84  C   UNL A   1      45.605  34.203  30.572  1.00  0.00     0.131 A 
ATOM     85  C   UNL A   1      45.291  36.214  28.697  1.00  0.00     0.055 A 
ATOM     86  C   UNL A   1      46.283  35.412  30.737  1.00  0.00     0.041 A 
ATOM     87  F   UNL A   1      45.812  33.243  31.487  1.00  0.00    -0.206 F 
ATOM     88  C   UNL A   1      46.138  36.421  29.788  1.00  0.00     0.022 A 
BRANCH  85  89
ATOM     89  S   UNL A   1      45.188  37.459  27.380  1.00  0.00     0.124 S 
ATOM     90  O   UNL A   1      43.833  37.256  26.877  1.00  0.00    -0.237 OA
ATOM     91  O   UNL A   1      45.419  38.703  28.107  1.00  0.00    -0.237 OA
ATOM     92  O   UNL A   1      46.256  37.073  26.459  1.00  0.00    -0.744 OA
ENDBRANCH  85  89
ENDBRANCH  59  82
ENDBRANCH  33  34
ENDBRANCH  26  28
ENDBRANCH  25  26
ENDBRANCH  24  25
ENDBRANCH   1  24
TORSDOF 17
ENDMDL
