MODEL 1
REMARK VINA RESULT:     -11.9      0.000      0.000
REMARK SMILES Cc1cc(=O)cc(C)n1C[C@H]1CCCC[C@@H]1C(=O)OCCOC(=O)c1ccc(-c2c3nc(c(-c4cc(S(=O)(=O)[O-])ccc4F)c4ccc([nH]4)c(-c4cc(S(=O)(=O)[O-])ccc4F)c4nc(c(-c5cc(S(=O)(=O)[O-])ccc5F)c5ccc2[nH]5)C=C4)C=C3)cc1
REMARK SMILES IDX 21 1 20 2 19 3 17 4 18 5 16 6 11 7 12 8 13 9 15 10 14 11
REMARK SMILES IDX 10 12 9 13 1 14 2 15 3 16 4 17 7 18 5 19 6 20 8 21 22 22
REMARK SMILES IDX 23 23 24 24 25 25 26 26 87 27 27 28 86 29 28 30 29 31 30 32
REMARK SMILES IDX 80 33 31 34 85 35 79 36 81 37 32 38 84 39 78 40 77 41 33 43
REMARK SMILES IDX 65 44 45 45 64 46 46 47 49 48 63 49 82 50 47 51 48 52 62 54
REMARK SMILES IDX 83 55 50 56 34 57 35 58 43 59 36 60 42 61 44 62 41 63 37 64
REMARK SMILES IDX 38 65 39 66 40 67 66 68 67 69 75 70 68 71 74 72 76 73 73 74
REMARK SMILES IDX 69 75 70 76 71 77 72 78 51 79 52 80 60 81 53 82 59 83 61 84
REMARK SMILES IDX 58 85 54 86 55 87 56 88 57 89
REMARK H PARENT 81 42 49 53
REMARK Flexibility Score: inf
ROOT
ATOM      1  C   UNL A   1      31.488  30.193  25.345  1.00  0.00     0.275 C 
ENDROOT
BRANCH   1   2
ATOM      2  C   UNL A   1      32.007  29.244  24.263  1.00  0.00     0.274 C 
BRANCH   2   3
ATOM      3  O   UNL A   1      33.266  28.631  24.643  1.00  0.00    -0.462 OA
BRANCH   3   4
ATOM      4  C   UNL A   1      33.482  27.399  24.101  1.00  0.00     0.309 C 
ATOM      5  O   UNL A   1      33.332  27.157  22.908  1.00  0.00    -0.252 OA
BRANCH   4   6
ATOM      6  C   UNL A   1      33.846  26.333  25.157  1.00  0.00     0.104 C 
ATOM      7  C   UNL A   1      33.645  24.849  24.694  1.00  0.00     0.023 C 
ATOM      8  C   UNL A   1      32.149  24.704  24.403  1.00  0.00     0.006 C 
ATOM      9  C   UNL A   1      31.269  24.940  25.634  1.00  0.00     0.000 C 
ATOM     10  C   UNL A   1      33.020  26.617  26.435  1.00  0.00     0.016 C 
ATOM     11  C   UNL A   1      31.528  26.291  26.286  1.00  0.00     0.001 C 
BRANCH   7  12
ATOM     12  C   UNL A   1      34.134  23.835  25.779  1.00  0.00     0.126 C 
BRANCH  12  13
ATOM     13  N   UNL A   1      34.909  22.638  25.306  1.00  0.00    -0.349 N 
ATOM     14  C   UNL A   1      37.080  23.923  25.703  1.00  0.00     0.064 C 
ATOM     15  C   UNL A   1      36.333  22.649  25.393  1.00  0.00     0.018 A 
ATOM     16  C   UNL A   1      37.084  21.542  25.247  1.00  0.00     0.073 A 
ATOM     17  C   UNL A   1      36.451  20.242  24.996  1.00  0.00     0.182 A 
ATOM     18  C   UNL A   1      34.289  21.374  25.040  1.00  0.00     0.018 A 
ATOM     19  O   UNL A   1      37.127  19.224  24.924  1.00  0.00    -0.290 OA
ATOM     20  C   UNL A   1      34.991  20.234  24.872  1.00  0.00     0.073 A 
ATOM     21  C   UNL A   1      32.796  21.188  24.973  1.00  0.00     0.064 C 
ENDBRANCH  12  13
ENDBRANCH   7  12
ENDBRANCH   4   6
ENDBRANCH   3   4
ENDBRANCH   2   3
ENDBRANCH   1   2
BRANCH   1  22
ATOM     22  O   UNL A   1      32.276  30.048  26.535  1.00  0.00    -0.458 OA
BRANCH  22  23
ATOM     23  C   UNL A   1      32.817  31.187  27.034  1.00  0.00     0.338 C 
ATOM     24  O   UNL A   1      32.228  32.252  27.177  1.00  0.00    -0.246 OA
BRANCH  23  25
ATOM     25  C   UNL A   1      34.218  30.949  27.479  1.00  0.00     0.060 A 
ATOM     26  C   UNL A   1      34.697  29.661  27.712  1.00  0.00     0.016 A 
ATOM     27  C   UNL A   1      35.045  32.035  27.780  1.00  0.00     0.016 A 
ATOM     28  C   UNL A   1      35.909  29.478  28.387  1.00  0.00     0.010 A 
ATOM     29  C   UNL A   1      36.312  31.831  28.359  1.00  0.00     0.010 A 
ATOM     30  C   UNL A   1      36.746  30.549  28.735  1.00  0.00    -0.014 A 
BRANCH  30  31
ATOM     31  C   UNL A   1      38.008  30.344  29.536  1.00  0.00     0.031 A 
ATOM     32  C   UNL A   1      39.165  29.544  28.961  1.00  0.00     0.074 A 
ATOM     33  C   UNL A   1      38.190  30.894  30.759  1.00  0.00     0.049 A 
ATOM     34  N   UNL A   1      40.175  28.988  29.583  1.00  0.00    -0.248 NA
ATOM     35  C   UNL A   1      39.179  29.331  27.505  1.00  0.00     0.031 C 
ATOM     36  C   UNL A   1      37.250  31.772  31.457  1.00  0.00     0.029 A 
ATOM     37  N   UNL A   1      39.256  30.815  31.630  1.00  0.00    -0.354 N 
ATOM     38  C   UNL A   1      40.886  28.281  28.615  1.00  0.00     0.074 A 
ATOM     39  C   UNL A   1      40.205  28.503  27.356  1.00  0.00     0.031 C 
ATOM     40  C   UNL A   1      37.816  32.229  32.583  1.00  0.00     0.029 A 
ATOM     41  C   UNL A   1      39.089  31.548  32.784  1.00  0.00     0.049 A 
ATOM     42  H   UNL A   1      40.063  30.281  31.445  1.00  0.00     0.167 HD
ATOM     43  C   UNL A   1      41.990  27.508  28.766  1.00  0.00     0.034 A 
ATOM     44  C   UNL A   1      39.817  31.619  33.917  1.00  0.00     0.034 A 
ATOM     45  C   UNL A   1      42.732  27.373  29.996  1.00  0.00     0.049 A 
ATOM     46  C   UNL A   1      41.009  30.718  34.088  1.00  0.00     0.074 A 
ATOM     47  C   UNL A   1      43.854  26.600  30.246  1.00  0.00     0.029 A 
ATOM     48  N   UNL A   1      42.456  28.059  31.169  1.00  0.00    -0.354 N 
ATOM     49  N   UNL A   1      41.535  29.878  33.230  1.00  0.00    -0.248 NA
ATOM     50  C   UNL A   1      41.667  30.731  35.402  1.00  0.00     0.031 C 
ATOM     51  C   UNL A   1      44.236  26.792  31.578  1.00  0.00     0.029 A 
ATOM     52  C   UNL A   1      43.383  27.724  32.142  1.00  0.00     0.049 A 
ATOM     53  H   UNL A   1      41.711  28.691  31.291  1.00  0.00     0.167 HD
ATOM     54  C   UNL A   1      42.576  29.253  33.908  1.00  0.00     0.074 A 
ATOM     55  C   UNL A   1      42.624  29.829  35.235  1.00  0.00     0.031 C 
ATOM     56  C   UNL A   1      43.411  28.279  33.470  1.00  0.00     0.034 A 
BRANCH  43  57
ATOM     57  C   UNL A   1      42.450  26.689  27.589  1.00  0.00     0.023 A 
ATOM     58  C   UNL A   1      42.107  25.339  27.437  1.00  0.00     0.031 A 
ATOM     59  C   UNL A   1      43.198  27.305  26.567  1.00  0.00     0.131 A 
ATOM     60  C   UNL A   1      42.535  24.638  26.298  1.00  0.00     0.055 A 
ATOM     61  C   UNL A   1      43.573  26.618  25.411  1.00  0.00     0.041 A 
ATOM     62  F   UNL A   1      43.560  28.594  26.670  1.00  0.00    -0.206 F 
ATOM     63  C   UNL A   1      43.245  25.274  25.274  1.00  0.00     0.022 A 
BRANCH  60  64
ATOM     64  S   UNL A   1      42.209  22.858  26.202  1.00  0.00     0.124 S 
ATOM     65  O   UNL A   1      40.756  22.825  26.347  1.00  0.00    -0.237 OA
ATOM     66  O   UNL A   1      42.729  22.514  24.885  1.00  0.00    -0.237 OA
ATOM     67  O   UNL A   1      42.960  22.312  27.332  1.00  0.00    -0.744 OA
ENDBRANCH  60  64
ENDBRANCH  43  57
BRANCH  44  68
ATOM     68  C   UNL A   1      39.370  32.489  35.043  1.00  0.00     0.023 A 
ATOM     69  C   UNL A   1      39.909  33.772  35.224  1.00  0.00     0.031 A 
ATOM     70  C   UNL A   1      38.406  32.038  35.965  1.00  0.00     0.131 A 
ATOM     71  C   UNL A   1      39.487  34.556  36.310  1.00  0.00     0.055 A 
ATOM     72  C   UNL A   1      37.952  32.842  37.010  1.00  0.00     0.041 A 
ATOM     73  F   UNL A   1      37.868  30.815  35.840  1.00  0.00    -0.206 F 
ATOM     74  C   UNL A   1      38.498  34.108  37.190  1.00  0.00     0.022 A 
BRANCH  71  75
ATOM     75  S   UNL A   1      40.279  36.165  36.585  1.00  0.00     0.124 S 
ATOM     76  O   UNL A   1      39.974  36.860  35.340  1.00  0.00    -0.237 OA
ATOM     77  O   UNL A   1      39.587  36.647  37.776  1.00  0.00    -0.237 OA
ATOM     78  O   UNL A   1      41.685  35.822  36.782  1.00  0.00    -0.744 OA
ENDBRANCH  71  75
ENDBRANCH  44  68
BRANCH  56  79
ATOM     79  C   UNL A   1      44.458  27.786  34.430  1.00  0.00     0.023 A 
ATOM     80  C   UNL A   1      44.193  26.730  35.318  1.00  0.00     0.031 A 
ATOM     81  C   UNL A   1      45.736  28.372  34.449  1.00  0.00     0.131 A 
ATOM     82  C   UNL A   1      45.187  26.311  36.216  1.00  0.00     0.055 A 
ATOM     83  C   UNL A   1      46.732  27.924  35.316  1.00  0.00     0.041 A 
ATOM     84  F   UNL A   1      46.035  29.383  33.618  1.00  0.00    -0.206 F 
ATOM     85  C   UNL A   1      46.458  26.892  36.210  1.00  0.00     0.022 A 
BRANCH  82  86
ATOM     86  S   UNL A   1      44.787  25.012  37.417  1.00  0.00     0.124 S 
ATOM     87  O   UNL A   1      43.348  24.858  37.226  1.00  0.00    -0.237 OA
ATOM     88  O   UNL A   1      45.613  23.897  36.967  1.00  0.00    -0.237 OA
ATOM     89  O   UNL A   1      45.182  25.597  38.697  1.00  0.00    -0.744 OA
ENDBRANCH  82  86
ENDBRANCH  56  79
ENDBRANCH  30  31
ENDBRANCH  23  25
ENDBRANCH  22  23
ENDBRANCH   1  22
TORSDOF 16
ENDMDL
MODEL 2
REMARK VINA RESULT:     -11.8      1.655      2.008
REMARK SMILES Cc1cc(=O)cc(C)n1C[C@H]1CCCC[C@@H]1C(=O)OCCOC(=O)c1ccc(-c2c3nc(c(-c4cc(S(=O)(=O)[O-])ccc4F)c4ccc([nH]4)c(-c4cc(S(=O)(=O)[O-])ccc4F)c4nc(c(-c5cc(S(=O)(=O)[O-])ccc5F)c5ccc2[nH]5)C=C4)C=C3)cc1
REMARK SMILES IDX 21 1 20 2 19 3 17 4 18 5 16 6 11 7 12 8 13 9 15 10 14 11
REMARK SMILES IDX 10 12 9 13 1 14 2 15 3 16 4 17 7 18 5 19 6 20 8 21 22 22
REMARK SMILES IDX 23 23 24 24 25 25 26 26 87 27 27 28 86 29 28 30 29 31 30 32
REMARK SMILES IDX 80 33 31 34 85 35 79 36 81 37 32 38 84 39 78 40 77 41 33 43
REMARK SMILES IDX 65 44 45 45 64 46 46 47 49 48 63 49 82 50 47 51 48 52 62 54
REMARK SMILES IDX 83 55 50 56 34 57 35 58 43 59 36 60 42 61 44 62 41 63 37 64
REMARK SMILES IDX 38 65 39 66 40 67 66 68 67 69 75 70 68 71 74 72 76 73 73 74
REMARK SMILES IDX 69 75 70 76 71 77 72 78 51 79 52 80 60 81 53 82 59 83 61 84
REMARK SMILES IDX 58 85 54 86 55 87 56 88 57 89
REMARK H PARENT 81 42 49 53
REMARK Flexibility Score: inf
ROOT
ATOM      1  C   UNL A   1      31.301  30.316  25.285  1.00  0.00     0.275 C 
ENDROOT
BRANCH   1   2
ATOM      2  C   UNL A   1      31.054  29.209  24.260  1.00  0.00     0.274 C 
BRANCH   2   3
ATOM      3  O   UNL A   1      32.280  28.522  23.901  1.00  0.00    -0.462 OA
BRANCH   3   4
ATOM      4  C   UNL A   1      32.102  27.262  23.413  1.00  0.00     0.309 C 
ATOM      5  O   UNL A   1      31.123  26.933  22.751  1.00  0.00    -0.252 OA
BRANCH   4   6
ATOM      6  C   UNL A   1      33.211  26.283  23.856  1.00  0.00     0.104 C 
ATOM      7  C   UNL A   1      32.791  24.773  23.876  1.00  0.00     0.023 C 
ATOM      8  C   UNL A   1      31.661  24.671  24.904  1.00  0.00     0.006 C 
ATOM      9  C   UNL A   1      32.097  25.060  26.320  1.00  0.00     0.000 C 
ATOM     10  C   UNL A   1      33.714  26.722  25.252  1.00  0.00     0.016 C 
ATOM     11  C   UNL A   1      32.708  26.453  26.379  1.00  0.00     0.001 C 
BRANCH   7  12
ATOM     12  C   UNL A   1      33.995  23.843  24.231  1.00  0.00     0.126 C 
BRANCH  12  13
ATOM     13  N   UNL A   1      33.704  22.384  24.438  1.00  0.00    -0.349 N 
ATOM     14  C   UNL A   1      34.745  22.537  26.766  1.00  0.00     0.064 C 
ATOM     15  C   UNL A   1      33.958  21.796  25.713  1.00  0.00     0.018 A 
ATOM     16  C   UNL A   1      33.489  20.586  26.067  1.00  0.00     0.073 A 
ATOM     17  C   UNL A   1      32.666  19.805  25.136  1.00  0.00     0.182 A 
ATOM     18  C   UNL A   1      32.920  21.615  23.518  1.00  0.00     0.018 A 
ATOM     19  O   UNL A   1      32.188  18.732  25.478  1.00  0.00    -0.290 OA
ATOM     20  C   UNL A   1      32.434  20.391  23.813  1.00  0.00     0.073 A 
ATOM     21  C   UNL A   1      32.521  22.119  22.156  1.00  0.00     0.064 C 
ENDBRANCH  12  13
ENDBRANCH   7  12
ENDBRANCH   4   6
ENDBRANCH   3   4
ENDBRANCH   2   3
ENDBRANCH   1   2
BRANCH   1  22
ATOM     22  O   UNL A   1      32.535  30.071  25.975  1.00  0.00    -0.458 OA
BRANCH  22  23
ATOM     23  C   UNL A   1      32.884  30.983  26.915  1.00  0.00     0.338 C 
ATOM     24  O   UNL A   1      32.141  31.831  27.396  1.00  0.00    -0.246 OA
BRANCH  23  25
ATOM     25  C   UNL A   1      34.287  30.762  27.363  1.00  0.00     0.060 A 
ATOM     26  C   UNL A   1      34.798  29.479  27.545  1.00  0.00     0.016 A 
ATOM     27  C   UNL A   1      35.083  31.856  27.719  1.00  0.00     0.016 A 
ATOM     28  C   UNL A   1      36.008  29.297  28.223  1.00  0.00     0.010 A 
ATOM     29  C   UNL A   1      36.349  31.659  28.302  1.00  0.00     0.010 A 
ATOM     30  C   UNL A   1      36.813  30.373  28.626  1.00  0.00    -0.014 A 
BRANCH  30  31
ATOM     31  C   UNL A   1      38.073  30.166  29.429  1.00  0.00     0.031 A 
ATOM     32  C   UNL A   1      39.232  29.368  28.856  1.00  0.00     0.074 A 
ATOM     33  C   UNL A   1      38.252  30.712  30.655  1.00  0.00     0.049 A 
ATOM     34  N   UNL A   1      40.240  28.810  29.479  1.00  0.00    -0.248 NA
ATOM     35  C   UNL A   1      39.250  29.159  27.399  1.00  0.00     0.031 C 
ATOM     36  C   UNL A   1      37.310  31.588  31.353  1.00  0.00     0.029 A 
ATOM     37  N   UNL A   1      39.315  30.630  31.529  1.00  0.00    -0.354 N 
ATOM     38  C   UNL A   1      40.954  28.106  28.511  1.00  0.00     0.074 A 
ATOM     39  C   UNL A   1      40.277  28.332  27.250  1.00  0.00     0.031 C 
ATOM     40  C   UNL A   1      37.873  32.042  32.481  1.00  0.00     0.029 A 
ATOM     41  C   UNL A   1      39.145  31.360  32.684  1.00  0.00     0.049 A 
ATOM     42  H   UNL A   1      40.123  30.097  31.344  1.00  0.00     0.167 HD
ATOM     43  C   UNL A   1      42.058  27.332  28.662  1.00  0.00     0.034 A 
ATOM     44  C   UNL A   1      39.870  31.428  33.819  1.00  0.00     0.034 A 
ATOM     45  C   UNL A   1      42.795  27.194  29.894  1.00  0.00     0.049 A 
ATOM     46  C   UNL A   1      41.061  30.526  33.991  1.00  0.00     0.074 A 
ATOM     47  C   UNL A   1      43.917  26.420  30.145  1.00  0.00     0.029 A 
ATOM     48  N   UNL A   1      42.517  27.876  31.068  1.00  0.00    -0.354 N 
ATOM     49  N   UNL A   1      41.590  29.689  33.132  1.00  0.00    -0.248 NA
ATOM     50  C   UNL A   1      41.717  30.536  35.307  1.00  0.00     0.031 C 
ATOM     51  C   UNL A   1      44.296  26.608  31.478  1.00  0.00     0.029 A 
ATOM     52  C   UNL A   1      43.441  27.538  32.043  1.00  0.00     0.049 A 
ATOM     53  H   UNL A   1      41.772  28.508  31.190  1.00  0.00     0.167 HD
ATOM     54  C   UNL A   1      42.629  29.062  33.811  1.00  0.00     0.074 A 
ATOM     55  C   UNL A   1      42.674  29.634  35.139  1.00  0.00     0.031 C 
ATOM     56  C   UNL A   1      43.466  28.089  33.373  1.00  0.00     0.034 A 
BRANCH  43  57
ATOM     57  C   UNL A   1      42.521  26.516  27.484  1.00  0.00     0.023 A 
ATOM     58  C   UNL A   1      42.174  25.168  27.325  1.00  0.00     0.031 A 
ATOM     59  C   UNL A   1      43.276  27.134  26.468  1.00  0.00     0.131 A 
ATOM     60  C   UNL A   1      42.605  24.471  26.185  1.00  0.00     0.055 A 
ATOM     61  C   UNL A   1      43.655  26.451  25.311  1.00  0.00     0.041 A 
ATOM     62  F   UNL A   1      43.642  28.421  26.579  1.00  0.00    -0.206 F 
ATOM     63  C   UNL A   1      43.323  25.108  25.167  1.00  0.00     0.022 A 
BRANCH  60  64
ATOM     64  S   UNL A   1      42.273  22.693  26.079  1.00  0.00     0.124 S 
ATOM     65  O   UNL A   1      42.855  22.369  24.779  1.00  0.00    -0.237 OA
ATOM     66  O   UNL A   1      42.979  22.172  27.244  1.00  0.00    -0.237 OA
ATOM     67  O   UNL A   1      40.815  22.613  26.146  1.00  0.00    -0.744 OA
ENDBRANCH  60  64
ENDBRANCH  43  57
BRANCH  44  68
ATOM     68  C   UNL A   1      39.420  32.294  34.946  1.00  0.00     0.023 A 
ATOM     69  C   UNL A   1      38.766  31.748  36.061  1.00  0.00     0.031 A 
ATOM     70  C   UNL A   1      39.623  33.687  34.913  1.00  0.00     0.131 A 
ATOM     71  C   UNL A   1      38.329  32.594  37.094  1.00  0.00     0.055 A 
ATOM     72  C   UNL A   1      39.235  34.515  35.966  1.00  0.00     0.041 A 
ATOM     73  F   UNL A   1      40.234  34.259  33.864  1.00  0.00    -0.206 F 
ATOM     74  C   UNL A   1      38.578  33.969  37.063  1.00  0.00     0.022 A 
BRANCH  71  75
ATOM     75  S   UNL A   1      37.390  31.877  38.471  1.00  0.00     0.124 S 
ATOM     76  O   UNL A   1      36.201  32.722  38.489  1.00  0.00    -0.237 OA
ATOM     77  O   UNL A   1      37.195  30.502  38.026  1.00  0.00    -0.237 OA
ATOM     78  O   UNL A   1      38.288  32.037  39.613  1.00  0.00    -0.744 OA
ENDBRANCH  71  75
ENDBRANCH  44  68
BRANCH  56  79
ATOM     79  C   UNL A   1      44.510  27.594  34.334  1.00  0.00     0.023 A 
ATOM     80  C   UNL A   1      44.245  26.530  35.212  1.00  0.00     0.031 A 
ATOM     81  C   UNL A   1      45.785  28.185  34.364  1.00  0.00     0.131 A 
ATOM     82  C   UNL A   1      45.236  26.108  36.112  1.00  0.00     0.055 A 
ATOM     83  C   UNL A   1      46.779  27.735  35.232  1.00  0.00     0.041 A 
ATOM     84  F   UNL A   1      46.083  29.204  33.542  1.00  0.00    -0.206 F 
ATOM     85  C   UNL A   1      46.505  26.694  36.117  1.00  0.00     0.022 A 
BRANCH  82  86
ATOM     86  S   UNL A   1      44.836  24.798  37.301  1.00  0.00     0.124 S 
ATOM     87  O   UNL A   1      45.871  24.985  38.314  1.00  0.00    -0.237 OA
ATOM     88  O   UNL A   1      43.477  25.142  37.707  1.00  0.00    -0.237 OA
ATOM     89  O   UNL A   1      44.954  23.573  36.513  1.00  0.00    -0.744 OA
ENDBRANCH  82  86
ENDBRANCH  56  79
ENDBRANCH  30  31
ENDBRANCH  23  25
ENDBRANCH  22  23
ENDBRANCH   1  22
TORSDOF 16
ENDMDL
MODEL 3
REMARK VINA RESULT:     -11.7      4.675     10.002
REMARK SMILES Cc1cc(=O)cc(C)n1C[C@H]1CCCC[C@@H]1C(=O)OCCOC(=O)c1ccc(-c2c3nc(c(-c4cc(S(=O)(=O)[O-])ccc4F)c4ccc([nH]4)c(-c4cc(S(=O)(=O)[O-])ccc4F)c4nc(c(-c5cc(S(=O)(=O)[O-])ccc5F)c5ccc2[nH]5)C=C4)C=C3)cc1
REMARK SMILES IDX 21 1 20 2 19 3 17 4 18 5 16 6 11 7 12 8 13 9 15 10 14 11
REMARK SMILES IDX 10 12 9 13 1 14 2 15 3 16 4 17 7 18 5 19 6 20 8 21 22 22
REMARK SMILES IDX 23 23 24 24 25 25 26 26 87 27 27 28 86 29 28 30 29 31 30 32
REMARK SMILES IDX 80 33 31 34 85 35 79 36 81 37 32 38 84 39 78 40 77 41 33 43
REMARK SMILES IDX 65 44 45 45 64 46 46 47 49 48 63 49 82 50 47 51 48 52 62 54
REMARK SMILES IDX 83 55 50 56 34 57 35 58 43 59 36 60 42 61 44 62 41 63 37 64
REMARK SMILES IDX 38 65 39 66 40 67 66 68 67 69 75 70 68 71 74 72 76 73 73 74
REMARK SMILES IDX 69 75 70 76 71 77 72 78 51 79 52 80 60 81 53 82 59 83 61 84
REMARK SMILES IDX 58 85 54 86 55 87 56 88 57 89
REMARK H PARENT 81 42 49 53
REMARK Flexibility Score: inf
ROOT
ATOM      1  C   UNL A   1      36.082  20.637  25.025  1.00  0.00     0.275 C 
ENDROOT
BRANCH   1   2
ATOM      2  C   UNL A   1      34.923  21.158  25.876  1.00  0.00     0.274 C 
BRANCH   2   3
ATOM      3  O   UNL A   1      35.167  22.506  26.353  1.00  0.00    -0.462 OA
BRANCH   3   4
ATOM      4  C   UNL A   1      34.072  23.318  26.342  1.00  0.00     0.309 C 
ATOM      5  O   UNL A   1      32.981  22.976  26.785  1.00  0.00    -0.252 OA
BRANCH   4   6
ATOM      6  C   UNL A   1      34.330  24.667  25.637  1.00  0.00     0.104 C 
ATOM      7  C   UNL A   1      33.041  25.461  25.235  1.00  0.00     0.023 C 
ATOM      8  C   UNL A   1      32.297  24.566  24.239  1.00  0.00     0.006 C 
ATOM      9  C   UNL A   1      33.098  24.287  22.964  1.00  0.00     0.000 C 
ATOM     10  C   UNL A   1      35.212  24.401  24.392  1.00  0.00     0.016 C 
ATOM     11  C   UNL A   1      34.468  23.688  23.255  1.00  0.00     0.001 C 
BRANCH   7  12
ATOM     12  C   UNL A   1      33.388  26.857  24.626  1.00  0.00     0.126 C 
BRANCH  12  13
ATOM     13  N   UNL A   1      32.627  28.045  25.140  1.00  0.00    -0.349 N 
ATOM     14  C   UNL A   1      34.433  28.401  26.910  1.00  0.00     0.064 C 
ATOM     15  C   UNL A   1      33.204  28.856  26.162  1.00  0.00     0.018 A 
ATOM     16  C   UNL A   1      32.725  30.070  26.491  1.00  0.00     0.073 A 
ATOM     17  C   UNL A   1      31.565  30.628  25.787  1.00  0.00     0.182 A 
ATOM     18  C   UNL A   1      31.480  28.577  24.465  1.00  0.00     0.018 A 
ATOM     19  O   UNL A   1      31.166  31.756  26.043  1.00  0.00    -0.290 OA
ATOM     20  C   UNL A   1      30.949  29.782  24.761  1.00  0.00     0.073 A 
ATOM     21  C   UNL A   1      30.791  27.869  23.329  1.00  0.00     0.064 C 
ENDBRANCH  12  13
ENDBRANCH   7  12
ENDBRANCH   4   6
ENDBRANCH   3   4
ENDBRANCH   2   3
ENDBRANCH   1   2
BRANCH   1  22
ATOM     22  O   UNL A   1      37.132  21.615  24.986  1.00  0.00    -0.458 OA
BRANCH  22  23
ATOM     23  C   UNL A   1      38.299  21.261  25.576  1.00  0.00     0.338 C 
ATOM     24  O   UNL A   1      38.835  20.162  25.492  1.00  0.00    -0.246 OA
BRANCH  23  25
ATOM     25  C   UNL A   1      38.905  22.426  26.278  1.00  0.00     0.060 A 
ATOM     26  C   UNL A   1      38.407  23.716  26.107  1.00  0.00     0.016 A 
ATOM     27  C   UNL A   1      40.066  22.253  27.038  1.00  0.00     0.016 A 
ATOM     28  C   UNL A   1      39.150  24.817  26.547  1.00  0.00     0.010 A 
ATOM     29  C   UNL A   1      40.746  23.365  27.570  1.00  0.00     0.010 A 
ATOM     30  C   UNL A   1      40.338  24.678  27.282  1.00  0.00    -0.014 A 
BRANCH  30  31
ATOM     31  C   UNL A   1      41.172  25.870  27.677  1.00  0.00     0.031 A 
ATOM     32  C   UNL A   1      40.624  26.910  28.640  1.00  0.00     0.074 A 
ATOM     33  C   UNL A   1      42.443  26.044  27.246  1.00  0.00     0.049 A 
ATOM     34  N   UNL A   1      41.030  28.138  28.850  1.00  0.00    -0.248 NA
ATOM     35  C   UNL A   1      39.463  26.526  29.458  1.00  0.00     0.031 C 
ATOM     36  C   UNL A   1      43.196  25.122  26.394  1.00  0.00     0.029 A 
ATOM     37  N   UNL A   1      43.345  27.057  27.491  1.00  0.00    -0.354 N 
ATOM     38  C   UNL A   1      40.122  28.701  29.744  1.00  0.00     0.074 A 
ATOM     39  C   UNL A   1      39.157  27.668  30.060  1.00  0.00     0.031 C 
ATOM     40  C   UNL A   1      44.460  25.553  26.277  1.00  0.00     0.029 A 
ATOM     41  C   UNL A   1      44.573  26.867  26.897  1.00  0.00     0.049 A 
ATOM     42  H   UNL A   1      43.131  27.846  28.040  1.00  0.00     0.167 HD
ATOM     43  C   UNL A   1      40.088  29.962  30.241  1.00  0.00     0.034 A 
ATOM     44  C   UNL A   1      45.649  27.672  26.780  1.00  0.00     0.034 A 
ATOM     45  C   UNL A   1      41.107  30.958  30.014  1.00  0.00     0.049 A 
ATOM     46  C   UNL A   1      45.575  29.084  27.291  1.00  0.00     0.074 A 
ATOM     47  C   UNL A   1      41.148  32.268  30.465  1.00  0.00     0.029 A 
ATOM     48  N   UNL A   1      42.283  30.745  29.314  1.00  0.00    -0.354 N 
ATOM     49  N   UNL A   1      44.603  29.674  27.943  1.00  0.00    -0.248 NA
ATOM     50  C   UNL A   1      46.721  29.957  26.997  1.00  0.00     0.031 C 
ATOM     51  C   UNL A   1      42.332  32.856  30.009  1.00  0.00     0.029 A 
ATOM     52  C   UNL A   1      43.053  31.898  29.318  1.00  0.00     0.049 A 
ATOM     53  H   UNL A   1      42.535  29.899  28.878  1.00  0.00     0.167 HD
ATOM     54  C   UNL A   1      45.015  30.990  28.121  1.00  0.00     0.074 A 
ATOM     55  C   UNL A   1      46.333  31.104  27.536  1.00  0.00     0.031 C 
ATOM     56  C   UNL A   1      44.353  32.015  28.711  1.00  0.00     0.034 A 
BRANCH  43  57
ATOM     57  C   UNL A   1      38.881  30.378  31.041  1.00  0.00     0.023 A 
ATOM     58  C   UNL A   1      37.790  31.039  30.461  1.00  0.00     0.031 A 
ATOM     59  C   UNL A   1      38.807  30.042  32.407  1.00  0.00     0.131 A 
ATOM     60  C   UNL A   1      36.677  31.367  31.252  1.00  0.00     0.055 A 
ATOM     61  C   UNL A   1      37.675  30.322  33.174  1.00  0.00     0.041 A 
ATOM     62  F   UNL A   1      39.830  29.418  33.011  1.00  0.00    -0.206 F 
ATOM     63  C   UNL A   1      36.602  30.993  32.597  1.00  0.00     0.022 A 
BRANCH  60  64
ATOM     64  S   UNL A   1      35.350  32.355  30.513  1.00  0.00     0.124 S 
ATOM     65  O   UNL A   1      35.062  31.588  29.303  1.00  0.00    -0.237 OA
ATOM     66  O   UNL A   1      34.324  32.327  31.548  1.00  0.00    -0.237 OA
ATOM     67  O   UNL A   1      35.977  33.657  30.290  1.00  0.00    -0.744 OA
ENDBRANCH  60  64
ENDBRANCH  43  57
BRANCH  44  68
ATOM     68  C   UNL A   1      46.855  27.208  26.035  1.00  0.00     0.023 A 
ATOM     69  C   UNL A   1      47.070  27.585  24.701  1.00  0.00     0.031 A 
ATOM     70  C   UNL A   1      47.802  26.365  26.647  1.00  0.00     0.131 A 
ATOM     71  C   UNL A   1      48.201  27.109  24.017  1.00  0.00     0.055 A 
ATOM     72  C   UNL A   1      48.951  25.939  25.981  1.00  0.00     0.041 A 
ATOM     73  F   UNL A   1      47.636  25.968  27.918  1.00  0.00    -0.206 F 
ATOM     74  C   UNL A   1      49.152  26.307  24.655  1.00  0.00     0.022 A 
BRANCH  71  75
ATOM     75  S   UNL A   1      48.398  27.521  22.262  1.00  0.00     0.124 S 
ATOM     76  O   UNL A   1      49.553  28.411  22.296  1.00  0.00    -0.237 OA
ATOM     77  O   UNL A   1      48.614  26.209  21.662  1.00  0.00    -0.237 OA
ATOM     78  O   UNL A   1      47.129  28.158  21.918  1.00  0.00    -0.744 OA
ENDBRANCH  71  75
ENDBRANCH  44  68
BRANCH  56  79
ATOM     79  C   UNL A   1      45.050  33.346  28.764  1.00  0.00     0.023 A 
ATOM     80  C   UNL A   1      45.939  33.661  29.806  1.00  0.00     0.031 A 
ATOM     81  C   UNL A   1      44.831  34.303  27.759  1.00  0.00     0.131 A 
ATOM     82  C   UNL A   1      46.556  34.921  29.836  1.00  0.00     0.055 A 
ATOM     83  C   UNL A   1      45.477  35.539  27.772  1.00  0.00     0.041 A 
ATOM     84  F   UNL A   1      43.991  34.045  26.744  1.00  0.00    -0.206 F 
ATOM     85  C   UNL A   1      46.341  35.855  28.819  1.00  0.00     0.022 A 
BRANCH  82  86
ATOM     86  S   UNL A   1      47.622  35.338  31.242  1.00  0.00     0.124 S 
ATOM     87  O   UNL A   1      48.392  34.110  31.411  1.00  0.00    -0.237 OA
ATOM     88  O   UNL A   1      48.363  36.493  30.748  1.00  0.00    -0.237 OA
ATOM     89  O   UNL A   1      46.674  35.627  32.317  1.00  0.00    -0.744 OA
ENDBRANCH  82  86
ENDBRANCH  56  79
ENDBRANCH  30  31
ENDBRANCH  23  25
ENDBRANCH  22  23
ENDBRANCH   1  22
TORSDOF 16
ENDMDL
