MODEL 1
REMARK VINA RESULT:     -13.4      0.000      0.000
REMARK SMILES O=C(OCCOC(=O)[C@]1(NC(=O)C2CCN(C(=O)C3CC3)CC2)CCCc2ccccc21)c1ccc(-c2c3nc(c(-c4cc(S(=O)(=O)[O-])ccc4F)c4ccc([nH]4)c(-c4cc(S(=O)(=O)[O-])ccc4F)c4nc(c(-c5cc(S(=O)(=O)[O-])ccc5F)c5ccc2[nH]5)C=C4)C=C3)cc1
REMARK SMILES IDX 4 1 3 2 2 3 1 4 33 5 34 6 95 7 35 8 94 9 36 10 37 11 38 12
REMARK SMILES IDX 88 13 39 14 93 15 87 16 89 17 40 18 92 19 86 20 85 21 41 23
REMARK SMILES IDX 73 24 53 25 72 26 54 27 57 28 71 29 90 30 55 31 56 32 70 34
REMARK SMILES IDX 91 35 58 36 42 37 43 38 51 39 44 40 50 41 52 42 49 43 45 44
REMARK SMILES IDX 46 45 47 46 48 47 74 48 75 49 83 50 76 51 82 52 84 53 81 54
REMARK SMILES IDX 77 55 78 56 79 57 80 58 59 59 60 60 68 61 61 62 67 63 69 64
REMARK SMILES IDX 66 65 62 66 63 67 64 68 65 69 5 70 6 71 7 72 8 73 9 74 24 75
REMARK SMILES IDX 32 76 25 77 27 78 31 79 26 80 28 81 30 82 29 83 10 84 11 85
REMARK SMILES IDX 12 87 13 88 14 89 23 90 15 91 22 92 16 93 17 94 18 95 19 96
REMARK SMILES IDX 20 97 21 98
REMARK H PARENT 89 22 57 33 10 86
REMARK Flexibility Score: inf
ROOT
ATOM      1  C   UNL A   1      37.290  21.760  24.795  1.00  0.00     0.275 C 
ENDROOT
BRANCH   1   2
ATOM      2  O   UNL A   1      37.785  22.196  26.061  1.00  0.00    -0.458 OA
BRANCH   2   3
ATOM      3  C   UNL A   1      39.117  22.026  26.193  1.00  0.00     0.338 C 
ATOM      4  O   UNL A   1      39.739  20.974  26.096  1.00  0.00    -0.246 OA
BRANCH   3   5
ATOM      5  C   UNL A   1      39.609  23.223  26.885  1.00  0.00     0.060 A 
ATOM      6  C   UNL A   1      40.654  23.195  27.807  1.00  0.00     0.016 A 
ATOM      7  C   UNL A   1      39.122  24.436  26.416  1.00  0.00     0.016 A 
ATOM      8  C   UNL A   1      41.218  24.396  28.238  1.00  0.00     0.010 A 
ATOM      9  C   UNL A   1      39.670  25.618  26.840  1.00  0.00     0.010 A 
ATOM     10  C   UNL A   1      40.726  25.607  27.742  1.00  0.00    -0.014 A 
BRANCH  10  11
ATOM     11  C   UNL A   1      41.290  26.915  28.087  1.00  0.00     0.031 A 
ATOM     12  C   UNL A   1      42.756  27.145  27.895  1.00  0.00     0.074 A 
ATOM     13  C   UNL A   1      40.538  27.769  28.803  1.00  0.00     0.049 A 
ATOM     14  N   UNL A   1      43.447  28.235  28.078  1.00  0.00    -0.248 NA
ATOM     15  C   UNL A   1      43.566  25.974  27.511  1.00  0.00     0.031 C 
ATOM     16  C   UNL A   1      39.179  27.510  29.288  1.00  0.00     0.029 A 
ATOM     17  N   UNL A   1      40.844  29.000  29.311  1.00  0.00    -0.354 N 
ATOM     18  C   UNL A   1      44.754  27.896  27.758  1.00  0.00     0.074 A 
ATOM     19  C   UNL A   1      44.792  26.464  27.579  1.00  0.00     0.031 C 
ATOM     20  C   UNL A   1      38.783  28.541  30.055  1.00  0.00     0.029 A 
ATOM     21  C   UNL A   1      39.843  29.538  30.079  1.00  0.00     0.049 A 
ATOM     22  H   UNL A   1      41.700  29.456  29.142  1.00  0.00     0.167 HD
ATOM     23  C   UNL A   1      45.791  28.736  27.520  1.00  0.00     0.034 A 
ATOM     24  C   UNL A   1      39.798  30.727  30.702  1.00  0.00     0.034 A 
ATOM     25  C   UNL A   1      45.676  30.153  27.742  1.00  0.00     0.049 A 
ATOM     26  C   UNL A   1      40.918  31.690  30.425  1.00  0.00     0.074 A 
ATOM     27  C   UNL A   1      46.539  31.174  27.399  1.00  0.00     0.029 A 
ATOM     28  N   UNL A   1      44.600  30.743  28.403  1.00  0.00    -0.354 N 
ATOM     29  N   UNL A   1      42.075  31.464  29.842  1.00  0.00    -0.248 NA
ATOM     30  C   UNL A   1      40.683  33.087  30.792  1.00  0.00     0.031 C 
ATOM     31  C   UNL A   1      46.000  32.376  27.883  1.00  0.00     0.029 A 
ATOM     32  C   UNL A   1      44.778  32.110  28.486  1.00  0.00     0.049 A 
ATOM     33  H   UNL A   1      43.825  30.254  28.760  1.00  0.00     0.167 HD
ATOM     34  C   UNL A   1      42.671  32.709  29.691  1.00  0.00     0.074 A 
ATOM     35  C   UNL A   1      41.758  33.673  30.285  1.00  0.00     0.031 C 
ATOM     36  C   UNL A   1      43.840  33.036  29.077  1.00  0.00     0.034 A 
BRANCH  23  37
ATOM     37  C   UNL A   1      47.046  28.123  26.941  1.00  0.00     0.023 A 
ATOM     38  C   UNL A   1      47.325  28.233  25.562  1.00  0.00     0.031 A 
ATOM     39  C   UNL A   1      47.931  27.365  27.721  1.00  0.00     0.131 A 
ATOM     40  C   UNL A   1      48.359  27.484  24.985  1.00  0.00     0.055 A 
ATOM     41  C   UNL A   1      49.030  26.707  27.155  1.00  0.00     0.041 A 
ATOM     42  F   UNL A   1      47.726  27.213  29.038  1.00  0.00    -0.206 F 
ATOM     43  C   UNL A   1      49.233  26.741  25.776  1.00  0.00     0.022 A 
BRANCH  40  44
ATOM     44  S   UNL A   1      48.407  27.346  23.176  1.00  0.00     0.124 S 
ATOM     45  O   UNL A   1      49.697  27.962  22.868  1.00  0.00    -0.237 OA
ATOM     46  O   UNL A   1      48.326  25.905  22.965  1.00  0.00    -0.237 OA
ATOM     47  O   UNL A   1      47.240  28.109  22.741  1.00  0.00    -0.744 OA
ENDBRANCH  40  44
ENDBRANCH  23  37
BRANCH  24  48
ATOM     48  C   UNL A   1      38.612  31.105  31.506  1.00  0.00     0.023 A 
ATOM     49  C   UNL A   1      37.508  31.732  30.909  1.00  0.00     0.031 A 
ATOM     50  C   UNL A   1      38.552  30.815  32.878  1.00  0.00     0.131 A 
ATOM     51  C   UNL A   1      36.399  32.084  31.692  1.00  0.00     0.055 A 
ATOM     52  C   UNL A   1      37.441  31.155  33.652  1.00  0.00     0.041 A 
ATOM     53  F   UNL A   1      39.571  30.181  33.482  1.00  0.00    -0.206 F 
ATOM     54  C   UNL A   1      36.358  31.802  33.060  1.00  0.00     0.022 A 
BRANCH  51  55
ATOM     55  S   UNL A   1      35.014  32.941  30.896  1.00  0.00     0.124 S 
ATOM     56  O   UNL A   1      35.653  34.155  30.403  1.00  0.00    -0.237 OA
ATOM     57  O   UNL A   1      34.607  31.973  29.881  1.00  0.00    -0.237 OA
ATOM     58  O   UNL A   1      34.060  33.134  31.986  1.00  0.00    -0.744 OA
ENDBRANCH  51  55
ENDBRANCH  24  48
BRANCH  36  59
ATOM     59  C   UNL A   1      44.129  34.503  28.939  1.00  0.00     0.023 A 
ATOM     60  C   UNL A   1      44.743  35.236  29.964  1.00  0.00     0.031 A 
ATOM     61  C   UNL A   1      43.749  35.178  27.765  1.00  0.00     0.131 A 
ATOM     62  C   UNL A   1      44.900  36.620  29.825  1.00  0.00     0.055 A 
ATOM     63  C   UNL A   1      43.965  36.545  27.606  1.00  0.00     0.041 A 
ATOM     64  F   UNL A   1      43.154  34.516  26.758  1.00  0.00    -0.206 F 
ATOM     65  C   UNL A   1      44.531  37.277  28.646  1.00  0.00     0.022 A 
BRANCH  62  66
ATOM     66  S   UNL A   1      45.499  37.569  31.248  1.00  0.00     0.124 S 
ATOM     67  O   UNL A   1      46.665  38.245  30.687  1.00  0.00    -0.237 OA
ATOM     68  O   UNL A   1      44.356  38.422  31.557  1.00  0.00    -0.237 OA
ATOM     69  O   UNL A   1      45.795  36.541  32.244  1.00  0.00    -0.744 OA
ENDBRANCH  62  66
ENDBRANCH  36  59
ENDBRANCH  10  11
ENDBRANCH   3   5
ENDBRANCH   2   3
ENDBRANCH   1   2
BRANCH   1  70
ATOM     70  C   UNL A   1      37.011  22.974  23.890  1.00  0.00     0.274 C 
BRANCH  70  71
ATOM     71  O   UNL A   1      35.884  23.830  24.232  1.00  0.00    -0.460 OA
BRANCH  71  72
ATOM     72  C   UNL A   1      34.776  23.760  23.440  1.00  0.00     0.336 C 
ATOM     73  O   UNL A   1      34.830  23.364  22.276  1.00  0.00    -0.249 OA
BRANCH  72  74
ATOM     74  C   UNL A   1      33.487  24.437  24.049  1.00  0.00     0.164 C 
ATOM     75  C   UNL A   1      32.605  24.660  22.761  1.00  0.00     0.046 C 
ATOM     76  C   UNL A   1      33.582  25.868  24.653  1.00  0.00    -0.008 A 
ATOM     77  C   UNL A   1      33.244  25.610  21.743  1.00  0.00     0.008 C 
ATOM     78  C   UNL A   1      33.635  27.025  23.831  1.00  0.00    -0.042 A 
ATOM     79  C   UNL A   1      33.414  26.090  26.034  1.00  0.00     0.007 A 
ATOM     80  C   UNL A   1      33.580  26.975  22.326  1.00  0.00     0.036 C 
ATOM     81  C   UNL A   1      33.613  28.319  24.400  1.00  0.00     0.004 A 
ATOM     82  C   UNL A   1      33.355  27.382  26.581  1.00  0.00     0.000 A 
ATOM     83  C   UNL A   1      33.468  28.496  25.767  1.00  0.00     0.000 A 
BRANCH  74  84
ATOM     84  N   UNL A   1      32.634  23.529  24.929  1.00  0.00    -0.336 N 
ATOM     85  C   UNL A   1      32.713  22.288  25.496  1.00  0.00     0.224 C 
ATOM     86  H   UNL A   1      31.778  23.962  25.152  1.00  0.00     0.164 HD
ATOM     87  O   UNL A   1      32.039  22.106  26.517  1.00  0.00    -0.275 OA
BRANCH  85  88
ATOM     88  C   UNL A   1      33.475  21.120  24.880  1.00  0.00     0.082 C 
ATOM     89  C   UNL A   1      32.892  20.749  23.501  1.00  0.00     0.035 C 
ATOM     90  C   UNL A   1      33.612  19.916  25.863  1.00  0.00     0.035 C 
ATOM     91  C   UNL A   1      31.949  19.549  23.510  1.00  0.00     0.120 C 
ATOM     92  C   UNL A   1      32.665  18.728  25.646  1.00  0.00     0.120 C 
ATOM     93  N   UNL A   1      32.560  18.439  24.228  1.00  0.00    -0.342 N 
ATOM     94  C   UNL A   1      33.119  17.398  23.479  1.00  0.00     0.225 C 
ATOM     95  O   UNL A   1      33.047  17.416  22.249  1.00  0.00    -0.275 OA
BRANCH  94  96
ATOM     96  C   UNL A   1      33.797  16.185  24.040  1.00  0.00     0.079 C 
ATOM     97  C   UNL A   1      34.678  16.048  25.246  1.00  0.00     0.014 C 
ATOM     98  C   UNL A   1      33.293  15.453  25.256  1.00  0.00     0.014 C 
ENDBRANCH  94  96
ENDBRANCH  85  88
ENDBRANCH  74  84
ENDBRANCH  72  74
ENDBRANCH  71  72
ENDBRANCH  70  71
ENDBRANCH   1  70
TORSDOF 17
ENDMDL
MODEL 2
REMARK VINA RESULT:     -13.3      1.951      2.191
REMARK SMILES O=C(OCCOC(=O)[C@]1(NC(=O)C2CCN(C(=O)C3CC3)CC2)CCCc2ccccc21)c1ccc(-c2c3nc(c(-c4cc(S(=O)(=O)[O-])ccc4F)c4ccc([nH]4)c(-c4cc(S(=O)(=O)[O-])ccc4F)c4nc(c(-c5cc(S(=O)(=O)[O-])ccc5F)c5ccc2[nH]5)C=C4)C=C3)cc1
REMARK SMILES IDX 4 1 3 2 2 3 1 4 33 5 34 6 95 7 35 8 94 9 36 10 37 11 38 12
REMARK SMILES IDX 88 13 39 14 93 15 87 16 89 17 40 18 92 19 86 20 85 21 41 23
REMARK SMILES IDX 73 24 53 25 72 26 54 27 57 28 71 29 90 30 55 31 56 32 70 34
REMARK SMILES IDX 91 35 58 36 42 37 43 38 51 39 44 40 50 41 52 42 49 43 45 44
REMARK SMILES IDX 46 45 47 46 48 47 74 48 75 49 83 50 76 51 82 52 84 53 81 54
REMARK SMILES IDX 77 55 78 56 79 57 80 58 59 59 60 60 68 61 61 62 67 63 69 64
REMARK SMILES IDX 66 65 62 66 63 67 64 68 65 69 5 70 6 71 7 72 8 73 9 74 24 75
REMARK SMILES IDX 32 76 25 77 27 78 31 79 26 80 28 81 30 82 29 83 10 84 11 85
REMARK SMILES IDX 12 87 13 88 14 89 23 90 15 91 22 92 16 93 17 94 18 95 19 96
REMARK SMILES IDX 20 97 21 98
REMARK H PARENT 89 22 57 33 10 86
REMARK Flexibility Score: inf
ROOT
ATOM      1  C   UNL A   1      37.054  21.630  24.482  1.00  0.00     0.275 C 
ENDROOT
BRANCH   1   2
ATOM      2  O   UNL A   1      37.509  22.175  25.721  1.00  0.00    -0.458 OA
BRANCH   2   3
ATOM      3  C   UNL A   1      38.783  21.836  26.010  1.00  0.00     0.338 C 
ATOM      4  O   UNL A   1      39.250  20.705  26.071  1.00  0.00    -0.246 OA
BRANCH   3   5
ATOM      5  C   UNL A   1      39.377  23.018  26.646  1.00  0.00     0.060 A 
ATOM      6  C   UNL A   1      40.398  22.940  27.593  1.00  0.00     0.016 A 
ATOM      7  C   UNL A   1      39.022  24.243  26.099  1.00  0.00     0.016 A 
ATOM      8  C   UNL A   1      41.069  24.103  27.970  1.00  0.00     0.010 A 
ATOM      9  C   UNL A   1      39.676  25.388  26.470  1.00  0.00     0.010 A 
ATOM     10  C   UNL A   1      40.709  25.326  27.396  1.00  0.00    -0.014 A 
BRANCH  10  11
ATOM     11  C   UNL A   1      41.393  26.590  27.681  1.00  0.00     0.031 A 
ATOM     12  C   UNL A   1      42.855  26.707  27.381  1.00  0.00     0.074 A 
ATOM     13  C   UNL A   1      40.762  27.505  28.438  1.00  0.00     0.049 A 
ATOM     14  N   UNL A   1      43.637  27.743  27.499  1.00  0.00    -0.248 NA
ATOM     15  C   UNL A   1      43.545  25.475  26.955  1.00  0.00     0.031 C 
ATOM     16  C   UNL A   1      39.426  27.354  29.024  1.00  0.00     0.029 A 
ATOM     17  N   UNL A   1      41.196  28.713  28.906  1.00  0.00    -0.354 N 
ATOM     18  C   UNL A   1      44.888  27.303  27.090  1.00  0.00     0.074 A 
ATOM     19  C   UNL A   1      44.806  25.872  26.928  1.00  0.00     0.031 C 
ATOM     20  C   UNL A   1      39.166  28.417  29.803  1.00  0.00     0.029 A 
ATOM     21  C   UNL A   1      40.297  29.332  29.737  1.00  0.00     0.049 A 
ATOM     22  H   UNL A   1      42.069  29.101  28.669  1.00  0.00     0.167 HD
ATOM     23  C   UNL A   1      45.964  28.060  26.766  1.00  0.00     0.034 A 
ATOM     24  C   UNL A   1      40.387  30.526  30.346  1.00  0.00     0.034 A 
ATOM     25  C   UNL A   1      45.973  29.484  26.976  1.00  0.00     0.049 A 
ATOM     26  C   UNL A   1      41.553  31.399  29.975  1.00  0.00     0.074 A 
ATOM     27  C   UNL A   1      46.883  30.433  26.558  1.00  0.00     0.029 A 
ATOM     28  N   UNL A   1      44.996  30.159  27.705  1.00  0.00    -0.354 N 
ATOM     29  N   UNL A   1      42.643  31.081  29.314  1.00  0.00    -0.248 NA
ATOM     30  C   UNL A   1      41.450  32.813  30.340  1.00  0.00     0.031 C 
ATOM     31  C   UNL A   1      46.472  31.677  27.063  1.00  0.00     0.029 A 
ATOM     32  C   UNL A   1      45.282  31.510  27.757  1.00  0.00     0.049 A 
ATOM     33  H   UNL A   1      44.214  29.733  28.124  1.00  0.00     0.167 HD
ATOM     34  C   UNL A   1      43.318  32.276  29.102  1.00  0.00     0.074 A 
ATOM     35  C   UNL A   1      42.527  33.311  29.748  1.00  0.00     0.031 C 
ATOM     36  C   UNL A   1      44.460  32.509  28.402  1.00  0.00     0.034 A 
BRANCH  23  37
ATOM     37  C   UNL A   1      47.125  27.350  26.106  1.00  0.00     0.023 A 
ATOM     38  C   UNL A   1      48.041  26.605  26.880  1.00  0.00     0.031 A 
ATOM     39  C   UNL A   1      47.383  27.464  24.733  1.00  0.00     0.131 A 
ATOM     40  C   UNL A   1      49.233  26.136  26.313  1.00  0.00     0.055 A 
ATOM     41  C   UNL A   1      48.522  26.898  24.150  1.00  0.00     0.041 A 
ATOM     42  F   UNL A   1      46.558  28.162  23.937  1.00  0.00    -0.206 F 
ATOM     43  C   UNL A   1      49.470  26.253  24.945  1.00  0.00     0.022 A 
BRANCH  40  44
ATOM     44  S   UNL A   1      50.541  25.557  27.430  1.00  0.00     0.124 S 
ATOM     45  O   UNL A   1      51.706  25.562  26.546  1.00  0.00    -0.237 OA
ATOM     46  O   UNL A   1      50.536  26.571  28.478  1.00  0.00    -0.237 OA
ATOM     47  O   UNL A   1      50.084  24.232  27.838  1.00  0.00    -0.744 OA
ENDBRANCH  40  44
ENDBRANCH  23  37
BRANCH  24  48
ATOM     48  C   UNL A   1      39.294  30.999  31.228  1.00  0.00     0.023 A 
ATOM     49  C   UNL A   1      39.442  30.997  32.622  1.00  0.00     0.031 A 
ATOM     50  C   UNL A   1      38.096  31.491  30.685  1.00  0.00     0.131 A 
ATOM     51  C   UNL A   1      38.391  31.445  33.436  1.00  0.00     0.055 A 
ATOM     52  C   UNL A   1      37.056  31.948  31.498  1.00  0.00     0.041 A 
ATOM     53  F   UNL A   1      37.927  31.547  29.354  1.00  0.00    -0.206 F 
ATOM     54  C   UNL A   1      37.198  31.918  32.883  1.00  0.00     0.022 A 
BRANCH  51  55
ATOM     55  S   UNL A   1      38.599  31.376  35.236  1.00  0.00     0.124 S 
ATOM     56  O   UNL A   1      37.455  32.149  35.702  1.00  0.00    -0.237 OA
ATOM     57  O   UNL A   1      38.548  29.938  35.487  1.00  0.00    -0.237 OA
ATOM     58  O   UNL A   1      39.904  31.996  35.451  1.00  0.00    -0.744 OA
ENDBRANCH  51  55
ENDBRANCH  24  48
BRANCH  36  59
ATOM     59  C   UNL A   1      44.849  33.949  28.223  1.00  0.00     0.023 A 
ATOM     60  C   UNL A   1      45.679  34.610  29.138  1.00  0.00     0.031 A 
ATOM     61  C   UNL A   1      44.344  34.673  27.128  1.00  0.00     0.131 A 
ATOM     62  C   UNL A   1      45.929  35.978  28.979  1.00  0.00     0.055 A 
ATOM     63  C   UNL A   1      44.647  36.019  26.940  1.00  0.00     0.041 A 
ATOM     64  F   UNL A   1      43.540  34.080  26.228  1.00  0.00    -0.206 F 
ATOM     65  C   UNL A   1      45.434  36.684  27.877  1.00  0.00     0.022 A 
BRANCH  62  66
ATOM     66  S   UNL A   1      46.828  36.849  30.289  1.00  0.00     0.124 S 
ATOM     67  O   UNL A   1      48.218  36.578  29.930  1.00  0.00    -0.237 OA
ATOM     68  O   UNL A   1      46.383  38.227  30.110  1.00  0.00    -0.237 OA
ATOM     69  O   UNL A   1      46.364  36.199  31.513  1.00  0.00    -0.744 OA
ENDBRANCH  62  66
ENDBRANCH  36  59
ENDBRANCH  10  11
ENDBRANCH   3   5
ENDBRANCH   2   3
ENDBRANCH   1   2
BRANCH   1  70
ATOM     70  C   UNL A   1      36.744  22.765  23.489  1.00  0.00     0.274 C 
BRANCH  70  71
ATOM     71  O   UNL A   1      35.732  23.740  23.869  1.00  0.00    -0.460 OA
BRANCH  71  72
ATOM     72  C   UNL A   1      34.572  23.756  23.153  1.00  0.00     0.336 C 
ATOM     73  O   UNL A   1      34.527  23.410  21.973  1.00  0.00    -0.249 OA
BRANCH  72  74
ATOM     74  C   UNL A   1      33.360  24.463  23.879  1.00  0.00     0.164 C 
ATOM     75  C   UNL A   1      32.392  24.757  22.669  1.00  0.00     0.046 C 
ATOM     76  C   UNL A   1      33.558  25.871  24.510  1.00  0.00    -0.008 A 
ATOM     77  C   UNL A   1      32.988  25.711  21.629  1.00  0.00     0.008 C 
ATOM     78  C   UNL A   1      33.594  27.049  23.717  1.00  0.00    -0.042 A 
ATOM     79  C   UNL A   1      33.505  26.059  25.905  1.00  0.00     0.007 A 
ATOM     80  C   UNL A   1      33.423  27.045  22.219  1.00  0.00     0.036 C 
ATOM     81  C   UNL A   1      33.667  28.325  24.319  1.00  0.00     0.004 A 
ATOM     82  C   UNL A   1      33.540  27.336  26.489  1.00  0.00     0.000 A 
ATOM     83  C   UNL A   1      33.635  28.468  25.698  1.00  0.00     0.000 A 
BRANCH  74  84
ATOM     84  N   UNL A   1      32.542  23.562  24.798  1.00  0.00    -0.336 N 
ATOM     85  C   UNL A   1      32.656  22.339  25.397  1.00  0.00     0.224 C 
ATOM     86  H   UNL A   1      31.681  23.984  25.025  1.00  0.00     0.164 HD
ATOM     87  O   UNL A   1      32.005  22.172  26.435  1.00  0.00    -0.275 OA
BRANCH  85  88
ATOM     88  C   UNL A   1      33.432  21.170  24.800  1.00  0.00     0.082 C 
ATOM     89  C   UNL A   1      32.851  20.769  23.429  1.00  0.00     0.035 C 
ATOM     90  C   UNL A   1      33.586  19.985  25.803  1.00  0.00     0.035 C 
ATOM     91  C   UNL A   1      31.922  19.557  23.461  1.00  0.00     0.120 C 
ATOM     92  C   UNL A   1      32.654  18.783  25.609  1.00  0.00     0.120 C 
ATOM     93  N   UNL A   1      32.549  18.467  24.196  1.00  0.00    -0.342 N 
ATOM     94  C   UNL A   1      33.119  17.420  23.465  1.00  0.00     0.225 C 
ATOM     95  O   UNL A   1      33.045  17.416  22.234  1.00  0.00    -0.275 OA
BRANCH  94  96
ATOM     96  C   UNL A   1      33.814  16.227  24.045  1.00  0.00     0.079 C 
ATOM     97  C   UNL A   1      34.698  16.121  25.251  1.00  0.00     0.014 C 
ATOM     98  C   UNL A   1      33.321  15.508  25.273  1.00  0.00     0.014 C 
ENDBRANCH  94  96
ENDBRANCH  85  88
ENDBRANCH  74  84
ENDBRANCH  72  74
ENDBRANCH  71  72
ENDBRANCH  70  71
ENDBRANCH   1  70
TORSDOF 17
ENDMDL
MODEL 3
REMARK VINA RESULT:     -12.9      1.843      2.332
REMARK SMILES O=C(OCCOC(=O)[C@]1(NC(=O)C2CCN(C(=O)C3CC3)CC2)CCCc2ccccc21)c1ccc(-c2c3nc(c(-c4cc(S(=O)(=O)[O-])ccc4F)c4ccc([nH]4)c(-c4cc(S(=O)(=O)[O-])ccc4F)c4nc(c(-c5cc(S(=O)(=O)[O-])ccc5F)c5ccc2[nH]5)C=C4)C=C3)cc1
REMARK SMILES IDX 4 1 3 2 2 3 1 4 33 5 34 6 95 7 35 8 94 9 36 10 37 11 38 12
REMARK SMILES IDX 88 13 39 14 93 15 87 16 89 17 40 18 92 19 86 20 85 21 41 23
REMARK SMILES IDX 73 24 53 25 72 26 54 27 57 28 71 29 90 30 55 31 56 32 70 34
REMARK SMILES IDX 91 35 58 36 42 37 43 38 51 39 44 40 50 41 52 42 49 43 45 44
REMARK SMILES IDX 46 45 47 46 48 47 74 48 75 49 83 50 76 51 82 52 84 53 81 54
REMARK SMILES IDX 77 55 78 56 79 57 80 58 59 59 60 60 68 61 61 62 67 63 69 64
REMARK SMILES IDX 66 65 62 66 63 67 64 68 65 69 5 70 6 71 7 72 8 73 9 74 24 75
REMARK SMILES IDX 32 76 25 77 27 78 31 79 26 80 28 81 30 82 29 83 10 84 11 85
REMARK SMILES IDX 12 87 13 88 14 89 23 90 15 91 22 92 16 93 17 94 18 95 19 96
REMARK SMILES IDX 20 97 21 98
REMARK H PARENT 89 22 57 33 10 86
REMARK Flexibility Score: inf
ROOT
ATOM      1  C   UNL A   1      37.427  22.429  25.196  1.00  0.00     0.275 C 
ENDROOT
BRANCH   1   2
ATOM      2  O   UNL A   1      37.938  22.685  26.504  1.00  0.00    -0.458 OA
BRANCH   2   3
ATOM      3  C   UNL A   1      39.255  22.982  26.506  1.00  0.00     0.338 C 
ATOM      4  O   UNL A   1      40.190  22.191  26.470  1.00  0.00    -0.246 OA
BRANCH   3   5
ATOM      5  C   UNL A   1      39.353  24.365  26.987  1.00  0.00     0.060 A 
ATOM      6  C   UNL A   1      38.980  24.752  28.274  1.00  0.00     0.016 A 
ATOM      7  C   UNL A   1      40.043  25.245  26.164  1.00  0.00     0.016 A 
ATOM      8  C   UNL A   1      39.325  26.024  28.731  1.00  0.00     0.010 A 
ATOM      9  C   UNL A   1      40.380  26.496  26.608  1.00  0.00     0.010 A 
ATOM     10  C   UNL A   1      40.035  26.891  27.894  1.00  0.00    -0.014 A 
BRANCH  10  11
ATOM     11  C   UNL A   1      40.495  28.220  28.304  1.00  0.00     0.031 A 
ATOM     12  C   UNL A   1      41.936  28.412  28.657  1.00  0.00     0.074 A 
ATOM     13  C   UNL A   1      39.574  29.153  28.603  1.00  0.00     0.049 A 
ATOM     14  N   UNL A   1      42.562  29.507  28.986  1.00  0.00    -0.248 NA
ATOM     15  C   UNL A   1      42.772  27.199  28.716  1.00  0.00     0.031 C 
ATOM     16  C   UNL A   1      38.120  28.962  28.563  1.00  0.00     0.029 A 
ATOM     17  N   UNL A   1      39.729  30.426  29.073  1.00  0.00    -0.354 N 
ATOM     18  C   UNL A   1      43.875  29.121  29.213  1.00  0.00     0.074 A 
ATOM     19  C   UNL A   1      43.907  27.679  29.194  1.00  0.00     0.031 C 
ATOM     20  C   UNL A   1      37.519  30.071  29.027  1.00  0.00     0.029 A 
ATOM     21  C   UNL A   1      38.542  31.053  29.356  1.00  0.00     0.049 A 
ATOM     22  H   UNL A   1      40.607  30.852  29.197  1.00  0.00     0.167 HD
ATOM     23  C   UNL A   1      44.967  29.920  29.307  1.00  0.00     0.034 A 
ATOM     24  C   UNL A   1      38.327  32.301  29.804  1.00  0.00     0.034 A 
ATOM     25  C   UNL A   1      44.849  31.354  29.337  1.00  0.00     0.049 A 
ATOM     26  C   UNL A   1      39.516  33.217  29.881  1.00  0.00     0.074 A 
ATOM     27  C   UNL A   1      45.827  32.323  29.252  1.00  0.00     0.029 A 
ATOM     28  N   UNL A   1      43.635  32.021  29.488  1.00  0.00    -0.354 N 
ATOM     29  N   UNL A   1      40.794  32.918  29.800  1.00  0.00    -0.248 NA
ATOM     30  C   UNL A   1      39.231  34.648  30.003  1.00  0.00     0.031 C 
ATOM     31  C   UNL A   1      45.207  33.575  29.385  1.00  0.00     0.029 A 
ATOM     32  C   UNL A   1      43.837  33.388  29.507  1.00  0.00     0.049 A 
ATOM     33  H   UNL A   1      42.759  31.582  29.571  1.00  0.00     0.167 HD
ATOM     34  C   UNL A   1      41.465  34.134  29.769  1.00  0.00     0.074 A 
ATOM     35  C   UNL A   1      40.446  35.164  29.886  1.00  0.00     0.031 C 
ATOM     36  C   UNL A   1      42.793  34.381  29.613  1.00  0.00     0.034 A 
BRANCH  23  37
ATOM     37  C   UNL A   1      46.315  29.236  29.301  1.00  0.00     0.023 A 
ATOM     38  C   UNL A   1      46.971  28.957  28.083  1.00  0.00     0.031 A 
ATOM     39  C   UNL A   1      46.925  28.785  30.481  1.00  0.00     0.131 A 
ATOM     40  C   UNL A   1      48.103  28.132  28.058  1.00  0.00     0.055 A 
ATOM     41  C   UNL A   1      48.118  28.052  30.457  1.00  0.00     0.041 A 
ATOM     42  F   UNL A   1      46.355  29.008  31.675  1.00  0.00    -0.206 F 
ATOM     43  C   UNL A   1      48.699  27.697  29.240  1.00  0.00     0.022 A 
BRANCH  40  44
ATOM     44  S   UNL A   1      48.650  27.480  26.455  1.00  0.00     0.124 S 
ATOM     45  O   UNL A   1      47.381  27.070  25.856  1.00  0.00    -0.237 OA
ATOM     46  O   UNL A   1      49.296  28.636  25.845  1.00  0.00    -0.237 OA
ATOM     47  O   UNL A   1      49.543  26.382  26.817  1.00  0.00    -0.744 OA
ENDBRANCH  40  44
ENDBRANCH  23  37
BRANCH  24  48
ATOM     48  C   UNL A   1      36.947  32.774  30.064  1.00  0.00     0.023 A 
ATOM     49  C   UNL A   1      36.478  32.943  31.375  1.00  0.00     0.031 A 
ATOM     50  C   UNL A   1      36.086  33.095  29.002  1.00  0.00     0.131 A 
ATOM     51  C   UNL A   1      35.166  33.387  31.595  1.00  0.00     0.055 A 
ATOM     52  C   UNL A   1      34.785  33.549  29.225  1.00  0.00     0.041 A 
ATOM     53  F   UNL A   1      36.507  32.985  27.731  1.00  0.00    -0.206 F 
ATOM     54  C   UNL A   1      34.315  33.689  30.529  1.00  0.00     0.022 A 
BRANCH  51  55
ATOM     55  S   UNL A   1      34.579  33.540  33.303  1.00  0.00     0.124 S 
ATOM     56  O   UNL A   1      35.537  32.714  34.027  1.00  0.00    -0.237 OA
ATOM     57  O   UNL A   1      34.676  34.980  33.524  1.00  0.00    -0.237 OA
ATOM     58  O   UNL A   1      33.217  33.014  33.244  1.00  0.00    -0.744 OA
ENDBRANCH  51  55
ENDBRANCH  24  48
BRANCH  36  59
ATOM     59  C   UNL A   1      43.186  35.823  29.460  1.00  0.00     0.023 A 
ATOM     60  C   UNL A   1      43.642  36.585  30.544  1.00  0.00     0.031 A 
ATOM     61  C   UNL A   1      43.066  36.445  28.204  1.00  0.00     0.131 A 
ATOM     62  C   UNL A   1      43.900  37.950  30.369  1.00  0.00     0.055 A 
ATOM     63  C   UNL A   1      43.385  37.788  28.021  1.00  0.00     0.041 A 
ATOM     64  F   UNL A   1      42.629  35.754  27.138  1.00  0.00    -0.206 F 
ATOM     65  C   UNL A   1      43.792  38.553  29.112  1.00  0.00     0.022 A 
BRANCH  62  66
ATOM     66  S   UNL A   1      44.282  38.950  31.830  1.00  0.00     0.124 S 
ATOM     67  O   UNL A   1      43.576  38.224  32.883  1.00  0.00    -0.237 OA
ATOM     68  O   UNL A   1      45.739  38.886  31.880  1.00  0.00    -0.237 OA
ATOM     69  O   UNL A   1      43.728  40.262  31.502  1.00  0.00    -0.744 OA
ENDBRANCH  62  66
ENDBRANCH  36  59
ENDBRANCH  10  11
ENDBRANCH   3   5
ENDBRANCH   2   3
ENDBRANCH   1   2
BRANCH   1  70
ATOM     70  C   UNL A   1      36.801  23.710  24.614  1.00  0.00     0.274 C 
BRANCH  70  71
ATOM     71  O   UNL A   1      35.393  23.961  24.887  1.00  0.00    -0.460 OA
BRANCH  71  72
ATOM     72  C   UNL A   1      34.513  23.799  23.859  1.00  0.00     0.336 C 
ATOM     73  O   UNL A   1      34.871  23.414  22.746  1.00  0.00    -0.249 OA
BRANCH  72  74
ATOM     74  C   UNL A   1      33.063  24.359  24.139  1.00  0.00     0.164 C 
ATOM     75  C   UNL A   1      32.584  24.744  22.686  1.00  0.00     0.046 C 
ATOM     76  C   UNL A   1      32.892  25.693  24.921  1.00  0.00    -0.008 A 
ATOM     77  C   UNL A   1      33.435  25.839  22.034  1.00  0.00     0.008 C 
ATOM     78  C   UNL A   1      33.114  26.955  24.307  1.00  0.00    -0.042 A 
ATOM     79  C   UNL A   1      32.315  25.717  26.206  1.00  0.00     0.007 A 
ATOM     80  C   UNL A   1      33.504  27.115  22.860  1.00  0.00     0.036 C 
ATOM     81  C   UNL A   1      32.849  28.155  25.004  1.00  0.00     0.004 A 
ATOM     82  C   UNL A   1      32.022  26.918  26.872  1.00  0.00     0.000 A 
ATOM     83  C   UNL A   1      32.302  28.137  26.278  1.00  0.00     0.000 A 
BRANCH  74  84
ATOM     84  N   UNL A   1      32.047  23.321  24.601  1.00  0.00    -0.336 N 
ATOM     85  C   UNL A   1      32.037  22.033  25.059  1.00  0.00     0.224 C 
ATOM     86  H   UNL A   1      31.131  23.683  24.556  1.00  0.00     0.164 HD
ATOM     87  O   UNL A   1      31.081  21.710  25.773  1.00  0.00    -0.275 OA
BRANCH  85  88
ATOM     88  C   UNL A   1      33.056  20.977  24.644  1.00  0.00     0.082 C 
ATOM     89  C   UNL A   1      32.778  20.477  23.212  1.00  0.00     0.035 C 
ATOM     90  C   UNL A   1      33.198  19.840  25.703  1.00  0.00     0.035 C 
ATOM     91  C   UNL A   1      32.032  19.147  23.135  1.00  0.00     0.120 C 
ATOM     92  C   UNL A   1      32.486  18.515  25.403  1.00  0.00     0.120 C 
ATOM     93  N   UNL A   1      32.668  18.168  24.005  1.00  0.00    -0.342 N 
ATOM     94  C   UNL A   1      33.493  17.202  23.419  1.00  0.00     0.225 C 
ATOM     95  O   UNL A   1      33.630  17.169  22.195  1.00  0.00    -0.275 OA
BRANCH  94  96
ATOM     96  C   UNL A   1      34.235  16.127  24.153  1.00  0.00     0.079 C 
ATOM     97  C   UNL A   1      35.230  16.235  25.270  1.00  0.00     0.014 C 
ATOM     98  C   UNL A   1      33.859  15.668  25.537  1.00  0.00     0.014 C 
ENDBRANCH  94  96
ENDBRANCH  85  88
ENDBRANCH  74  84
ENDBRANCH  72  74
ENDBRANCH  71  72
ENDBRANCH  70  71
ENDBRANCH   1  70
TORSDOF 17
ENDMDL
