MODEL 1
REMARK VINA RESULT:     -12.0      0.000      0.000
REMARK SMILES COc1cc(C=C2C(=O)N(C)C(=S)N(C)C2=O)c(Br)cc1OCC(=O)OCCOC(=O)c1ccc(-c2c3nc(c(-c4cc(S(=O)(=O)[O-])ccc4F)c4ccc([nH]4)c(-c4cc(S(=O)(=O)[O-])ccc4F)c4nc(c(-c5cc(S(=O)(=O)[O-])ccc5F)c5ccc2[nH]5)C=C4)C=C3)cc1
REMARK SMILES IDX 27 1 26 2 24 3 25 4 23 5 22 6 21 7 3 8 4 9 5 10 20 11 18 12
REMARK SMILES IDX 19 13 2 14 1 15 6 16 7 17 8 18 16 19 9 20 10 21 14 22 17 23
REMARK SMILES IDX 11 24 12 25 15 26 13 27 28 28 29 29 30 30 31 31 32 32 33 33
REMARK SMILES IDX 94 34 34 35 93 36 35 37 36 38 37 39 87 40 38 41 92 42 86 43
REMARK SMILES IDX 88 44 39 45 91 46 85 47 84 48 40 50 72 51 52 52 71 53 53 54
REMARK SMILES IDX 56 55 70 56 89 57 54 58 55 59 69 61 90 62 57 63 41 64 42 65
REMARK SMILES IDX 50 66 43 67 49 68 51 69 48 70 44 71 45 72 46 73 47 74 73 75
REMARK SMILES IDX 74 76 82 77 75 78 81 79 83 80 80 81 76 82 77 83 78 84 79 85
REMARK SMILES IDX 58 86 59 87 67 88 60 89 66 90 68 91 65 92 61 93 62 94 63 95
REMARK SMILES IDX 64 96
REMARK H PARENT 88 49 56 60
REMARK Flexibility Score: inf
ROOT
ATOM      1  C   UNL A   1      30.936  30.375  24.955  1.00  0.00     0.274 C 
ENDROOT
BRANCH   1   2
ATOM      2  O   UNL A   1      29.780  30.864  24.245  1.00  0.00    -0.460 OA
BRANCH   2   3
ATOM      3  C   UNL A   1      29.577  30.321  23.012  1.00  0.00     0.344 C 
ATOM      4  O   UNL A   1      29.289  30.973  22.013  1.00  0.00    -0.248 OA
BRANCH   3   5
ATOM      5  C   UNL A   1      29.601  28.790  23.005  1.00  0.00     0.352 C 
BRANCH   5   6
ATOM      6  O   UNL A   1      30.312  28.058  22.025  1.00  0.00    -0.478 OA
BRANCH   6   7
ATOM      7  C   UNL A   1      31.266  27.154  22.397  1.00  0.00     0.163 A 
ATOM      8  C   UNL A   1      31.930  26.206  21.617  1.00  0.00     0.161 A 
ATOM      9  C   UNL A   1      32.968  25.441  22.186  1.00  0.00     0.059 A 
ATOM     10  C   UNL A   1      33.331  25.553  23.532  1.00  0.00    -0.006 A 
ATOM     11  C   UNL A   1      31.514  27.166  23.772  1.00  0.00     0.066 A 
ATOM     12  C   UNL A   1      32.520  26.370  24.337  1.00  0.00     0.029 A 
ATOM     13  Br  UNL A   1      32.708  26.472  26.231  1.00  0.00    -0.050 Br
BRANCH   8  14
ATOM     14  O   UNL A   1      31.537  26.023  20.318  1.00  0.00    -0.493 OA
ATOM     15  C   UNL A   1      32.493  25.354  19.492  1.00  0.00     0.278 C 
ENDBRANCH   8  14
BRANCH  10  16
ATOM     16  C   UNL A   1      34.479  24.798  24.090  1.00  0.00     0.029 C 
ATOM     17  C   UNL A   1      34.535  23.549  24.613  1.00  0.00     0.106 C 
ATOM     18  C   UNL A   1      33.378  22.684  24.889  1.00  0.00     0.265 C 
ATOM     19  C   UNL A   1      35.886  22.960  24.785  1.00  0.00     0.265 C 
ATOM     20  O   UNL A   1      32.357  23.088  25.437  1.00  0.00    -0.268 OA
ATOM     21  N   UNL A   1      33.582  21.345  24.599  1.00  0.00    -0.288 N 
ATOM     22  N   UNL A   1      35.925  21.565  24.902  1.00  0.00    -0.288 N 
ATOM     23  O   UNL A   1      36.896  23.658  24.735  1.00  0.00    -0.268 OA
ATOM     24  C   UNL A   1      32.359  20.601  24.331  1.00  0.00     0.156 C 
ATOM     25  C   UNL A   1      34.812  20.706  24.774  1.00  0.00     0.185 C 
ATOM     26  C   UNL A   1      37.263  20.990  25.051  1.00  0.00     0.156 C 
ATOM     27  S   UNL A   1      34.944  19.012  24.836  1.00  0.00    -0.040 S 
ENDBRANCH  10  16
ENDBRANCH   6   7
ENDBRANCH   5   6
ENDBRANCH   3   5
ENDBRANCH   2   3
ENDBRANCH   1   2
BRANCH   1  28
ATOM     28  C   UNL A   1      31.347  31.286  26.110  1.00  0.00     0.275 C 
BRANCH  28  29
ATOM     29  O   UNL A   1      32.528  30.796  26.770  1.00  0.00    -0.458 OA
BRANCH  29  30
ATOM     30  C   UNL A   1      33.245  31.757  27.390  1.00  0.00     0.338 C 
ATOM     31  O   UNL A   1      32.849  32.889  27.659  1.00  0.00    -0.246 OA
BRANCH  30  32
ATOM     32  C   UNL A   1      34.617  31.317  27.678  1.00  0.00     0.060 A 
ATOM     33  C   UNL A   1      34.877  29.986  27.990  1.00  0.00     0.016 A 
ATOM     34  C   UNL A   1      35.601  32.287  27.873  1.00  0.00     0.016 A 
ATOM     35  C   UNL A   1      36.076  29.654  28.624  1.00  0.00     0.010 A 
ATOM     36  C   UNL A   1      36.807  31.952  28.489  1.00  0.00     0.010 A 
ATOM     37  C   UNL A   1      37.035  30.640  28.921  1.00  0.00    -0.014 A 
BRANCH  37  38
ATOM     38  C   UNL A   1      38.294  30.309  29.636  1.00  0.00     0.031 A 
ATOM     39  C   UNL A   1      39.278  29.304  29.084  1.00  0.00     0.074 A 
ATOM     40  C   UNL A   1      38.521  30.891  30.827  1.00  0.00     0.049 A 
ATOM     41  N   UNL A   1      40.354  28.810  29.647  1.00  0.00    -0.248 NA
ATOM     42  C   UNL A   1      39.033  28.797  27.726  1.00  0.00     0.031 C 
ATOM     43  C   UNL A   1      37.655  31.896  31.447  1.00  0.00     0.029 A 
ATOM     44  N   UNL A   1      39.528  30.707  31.740  1.00  0.00    -0.354 N 
ATOM     45  C   UNL A   1      40.912  27.933  28.720  1.00  0.00     0.074 A 
ATOM     46  C   UNL A   1      40.049  27.959  27.555  1.00  0.00     0.031 C 
ATOM     47  C   UNL A   1      38.162  32.235  32.640  1.00  0.00     0.029 A 
ATOM     48  C   UNL A   1      39.336  31.412  32.904  1.00  0.00     0.049 A 
ATOM     49  H   UNL A   1      40.308  30.131  31.577  1.00  0.00     0.167 HD
ATOM     50  C   UNL A   1      42.031  27.173  28.838  1.00  0.00     0.034 A 
ATOM     51  C   UNL A   1      39.987  31.361  34.080  1.00  0.00     0.034 A 
ATOM     52  C   UNL A   1      42.859  27.134  30.026  1.00  0.00     0.049 A 
ATOM     53  C   UNL A   1      41.159  30.433  34.223  1.00  0.00     0.074 A 
ATOM     54  C   UNL A   1      44.020  26.410  30.244  1.00  0.00     0.029 A 
ATOM     55  N   UNL A   1      42.604  27.829  31.202  1.00  0.00    -0.354 N 
ATOM     56  N   UNL A   1      41.669  29.606  33.341  1.00  0.00    -0.248 NA
ATOM     57  C   UNL A   1      41.844  30.436  35.520  1.00  0.00     0.031 C 
ATOM     58  C   UNL A   1      44.419  26.604  31.572  1.00  0.00     0.029 A 
ATOM     59  C   UNL A   1      43.562  27.519  32.159  1.00  0.00     0.049 A 
ATOM     60  H   UNL A   1      41.852  28.450  31.337  1.00  0.00     0.167 HD
ATOM     61  C   UNL A   1      42.756  29.008  33.971  1.00  0.00     0.074 A 
ATOM     62  C   UNL A   1      42.832  29.583  35.299  1.00  0.00     0.031 C 
ATOM     63  C   UNL A   1      43.615  28.074  33.491  1.00  0.00     0.034 A 
BRANCH  50  64
ATOM     64  C   UNL A   1      42.411  26.270  27.685  1.00  0.00     0.023 A 
ATOM     65  C   UNL A   1      41.915  24.960  27.568  1.00  0.00     0.031 A 
ATOM     66  C   UNL A   1      43.242  26.751  26.656  1.00  0.00     0.131 A 
ATOM     67  C   UNL A   1      42.276  24.169  26.461  1.00  0.00     0.055 A 
ATOM     68  C   UNL A   1      43.548  25.984  25.530  1.00  0.00     0.041 A 
ATOM     69  F   UNL A   1      43.761  27.988  26.720  1.00  0.00    -0.206 F 
ATOM     70  C   UNL A   1      43.069  24.681  25.431  1.00  0.00     0.022 A 
BRANCH  67  71
ATOM     71  S   UNL A   1      41.768  22.428  26.427  1.00  0.00     0.124 S 
ATOM     72  O   UNL A   1      40.322  22.543  26.258  1.00  0.00    -0.237 OA
ATOM     73  O   UNL A   1      42.507  21.907  25.283  1.00  0.00    -0.237 OA
ATOM     74  O   UNL A   1      42.196  21.920  27.729  1.00  0.00    -0.744 OA
ENDBRANCH  67  71
ENDBRANCH  50  64
BRANCH  51  75
ATOM     75  C   UNL A   1      39.499  32.175  35.226  1.00  0.00     0.023 A 
ATOM     76  C   UNL A   1      39.983  33.470  35.449  1.00  0.00     0.031 A 
ATOM     77  C   UNL A   1      38.537  31.663  36.118  1.00  0.00     0.131 A 
ATOM     78  C   UNL A   1      39.528  34.201  36.555  1.00  0.00     0.055 A 
ATOM     79  C   UNL A   1      38.043  32.416  37.181  1.00  0.00     0.041 A 
ATOM     80  F   UNL A   1      38.040  30.427  35.944  1.00  0.00    -0.206 F 
ATOM     81  C   UNL A   1      38.549  33.690  37.412  1.00  0.00     0.022 A 
BRANCH  78  82
ATOM     82  S   UNL A   1      40.299  35.803  36.908  1.00  0.00     0.124 S 
ATOM     83  O   UNL A   1      39.715  36.647  35.871  1.00  0.00    -0.237 OA
ATOM     84  O   UNL A   1      39.850  36.060  38.272  1.00  0.00    -0.237 OA
ATOM     85  O   UNL A   1      41.727  35.532  36.763  1.00  0.00    -0.744 OA
ENDBRANCH  78  82
ENDBRANCH  51  75
BRANCH  63  86
ATOM     86  C   UNL A   1      44.739  27.657  34.407  1.00  0.00     0.023 A 
ATOM     87  C   UNL A   1      44.592  26.600  35.322  1.00  0.00     0.031 A 
ATOM     88  C   UNL A   1      45.957  28.358  34.397  1.00  0.00     0.131 A 
ATOM     89  C   UNL A   1      45.618  26.322  36.239  1.00  0.00     0.055 A 
ATOM     90  C   UNL A   1      46.999  28.035  35.266  1.00  0.00     0.041 A 
ATOM     91  F   UNL A   1      46.151  29.380  33.546  1.00  0.00    -0.206 F 
ATOM     92  C   UNL A   1      46.826  27.023  36.206  1.00  0.00     0.022 A 
BRANCH  89  93
ATOM     93  S   UNL A   1      45.308  25.107  37.549  1.00  0.00     0.124 S 
ATOM     94  O   UNL A   1      45.794  25.808  38.734  1.00  0.00    -0.237 OA
ATOM     95  O   UNL A   1      43.863  24.920  37.467  1.00  0.00    -0.237 OA
ATOM     96  O   UNL A   1      46.107  23.952  37.142  1.00  0.00    -0.744 OA
ENDBRANCH  89  93
ENDBRANCH  63  86
ENDBRANCH  37  38
ENDBRANCH  30  32
ENDBRANCH  29  30
ENDBRANCH  28  29
ENDBRANCH   1  28
TORSDOF 18
ENDMDL
MODEL 2
REMARK VINA RESULT:     -11.7      1.833      2.109
REMARK SMILES COc1cc(C=C2C(=O)N(C)C(=S)N(C)C2=O)c(Br)cc1OCC(=O)OCCOC(=O)c1ccc(-c2c3nc(c(-c4cc(S(=O)(=O)[O-])ccc4F)c4ccc([nH]4)c(-c4cc(S(=O)(=O)[O-])ccc4F)c4nc(c(-c5cc(S(=O)(=O)[O-])ccc5F)c5ccc2[nH]5)C=C4)C=C3)cc1
REMARK SMILES IDX 27 1 26 2 24 3 25 4 23 5 22 6 21 7 3 8 4 9 5 10 20 11 18 12
REMARK SMILES IDX 19 13 2 14 1 15 6 16 7 17 8 18 16 19 9 20 10 21 14 22 17 23
REMARK SMILES IDX 11 24 12 25 15 26 13 27 28 28 29 29 30 30 31 31 32 32 33 33
REMARK SMILES IDX 94 34 34 35 93 36 35 37 36 38 37 39 87 40 38 41 92 42 86 43
REMARK SMILES IDX 88 44 39 45 91 46 85 47 84 48 40 50 72 51 52 52 71 53 53 54
REMARK SMILES IDX 56 55 70 56 89 57 54 58 55 59 69 61 90 62 57 63 41 64 42 65
REMARK SMILES IDX 50 66 43 67 49 68 51 69 48 70 44 71 45 72 46 73 47 74 73 75
REMARK SMILES IDX 74 76 82 77 75 78 81 79 83 80 80 81 76 82 77 83 78 84 79 85
REMARK SMILES IDX 58 86 59 87 67 88 60 89 66 90 68 91 65 92 61 93 62 94 63 95
REMARK SMILES IDX 64 96
REMARK H PARENT 88 49 56 60
REMARK Flexibility Score: inf
ROOT
ATOM      1  C   UNL A   1      31.076  30.258  25.044  1.00  0.00     0.274 C 
ENDROOT
BRANCH   1   2
ATOM      2  O   UNL A   1      29.956  30.804  24.317  1.00  0.00    -0.460 OA
BRANCH   2   3
ATOM      3  C   UNL A   1      29.697  30.217  23.115  1.00  0.00     0.344 C 
ATOM      4  O   UNL A   1      29.354  30.833  22.110  1.00  0.00    -0.248 OA
BRANCH   3   5
ATOM      5  C   UNL A   1      29.732  28.687  23.158  1.00  0.00     0.352 C 
BRANCH   5   6
ATOM      6  O   UNL A   1      30.369  27.926  22.151  1.00  0.00    -0.478 OA
BRANCH   6   7
ATOM      7  C   UNL A   1      31.317  26.999  22.483  1.00  0.00     0.163 A 
ATOM      8  C   UNL A   1      31.968  26.075  21.662  1.00  0.00     0.161 A 
ATOM      9  C   UNL A   1      33.001  25.280  22.196  1.00  0.00     0.059 A 
ATOM     10  C   UNL A   1      33.373  25.336  23.543  1.00  0.00    -0.006 A 
ATOM     11  C   UNL A   1      31.573  26.956  23.855  1.00  0.00     0.066 A 
ATOM     12  C   UNL A   1      32.574  26.130  24.384  1.00  0.00     0.029 A 
ATOM     13  Br  UNL A   1      32.774  26.157  26.279  1.00  0.00    -0.050 Br
BRANCH   8  14
ATOM     14  O   UNL A   1      31.566  25.947  20.360  1.00  0.00    -0.493 OA
ATOM     15  C   UNL A   1      32.545  25.381  19.485  1.00  0.00     0.278 C 
ENDBRANCH   8  14
BRANCH  10  16
ATOM     16  C   UNL A   1      34.517  24.550  24.065  1.00  0.00     0.029 C 
ATOM     17  C   UNL A   1      34.557  23.296  24.574  1.00  0.00     0.106 C 
ATOM     18  C   UNL A   1      33.387  22.455  24.873  1.00  0.00     0.265 C 
ATOM     19  C   UNL A   1      35.898  22.674  24.707  1.00  0.00     0.265 C 
ATOM     20  O   UNL A   1      32.391  22.876  25.450  1.00  0.00    -0.268 OA
ATOM     21  N   UNL A   1      33.553  21.114  24.565  1.00  0.00    -0.288 N 
ATOM     22  N   UNL A   1      35.907  21.277  24.811  1.00  0.00    -0.288 N 
ATOM     23  O   UNL A   1      36.923  23.349  24.637  1.00  0.00    -0.268 OA
ATOM     24  C   UNL A   1      32.307  20.401  24.322  1.00  0.00     0.156 C 
ATOM     25  C   UNL A   1      34.772  20.446  24.704  1.00  0.00     0.185 C 
ATOM     26  C   UNL A   1      37.235  20.670  24.920  1.00  0.00     0.156 C 
ATOM     27  S   UNL A   1      34.866  18.748  24.748  1.00  0.00    -0.040 S 
ENDBRANCH  10  16
ENDBRANCH   6   7
ENDBRANCH   5   6
ENDBRANCH   3   5
ENDBRANCH   2   3
ENDBRANCH   1   2
BRANCH   1  28
ATOM     28  C   UNL A   1      31.527  31.159  26.192  1.00  0.00     0.275 C 
BRANCH  28  29
ATOM     29  O   UNL A   1      32.726  30.657  26.811  1.00  0.00    -0.458 OA
BRANCH  29  30
ATOM     30  C   UNL A   1      33.456  31.607  27.434  1.00  0.00     0.338 C 
ATOM     31  O   UNL A   1      33.063  32.731  27.739  1.00  0.00    -0.246 OA
BRANCH  30  32
ATOM     32  C   UNL A   1      34.835  31.166  27.678  1.00  0.00     0.060 A 
ATOM     33  C   UNL A   1      35.104  29.832  27.975  1.00  0.00     0.016 A 
ATOM     34  C   UNL A   1      35.826  32.134  27.849  1.00  0.00     0.016 A 
ATOM     35  C   UNL A   1      36.323  29.497  28.571  1.00  0.00     0.010 A 
ATOM     36  C   UNL A   1      37.049  31.795  28.426  1.00  0.00     0.010 A 
ATOM     37  C   UNL A   1      37.290  30.482  28.845  1.00  0.00    -0.014 A 
BRANCH  37  38
ATOM     38  C   UNL A   1      38.570  30.146  29.519  1.00  0.00     0.031 A 
ATOM     39  C   UNL A   1      39.512  29.106  28.960  1.00  0.00     0.074 A 
ATOM     40  C   UNL A   1      38.855  30.759  30.682  1.00  0.00     0.049 A 
ATOM     41  N   UNL A   1      40.599  28.607  29.496  1.00  0.00    -0.248 NA
ATOM     42  C   UNL A   1      39.203  28.564  27.628  1.00  0.00     0.031 C 
ATOM     43  C   UNL A   1      38.033  31.799  31.305  1.00  0.00     0.029 A 
ATOM     44  N   UNL A   1      39.894  30.582  31.560  1.00  0.00    -0.354 N 
ATOM     45  C   UNL A   1      41.104  27.692  28.574  1.00  0.00     0.074 A 
ATOM     46  C   UNL A   1      40.196  27.701  27.444  1.00  0.00     0.031 C 
ATOM     47  C   UNL A   1      38.595  32.163  32.465  1.00  0.00     0.029 A 
ATOM     48  C   UNL A   1      39.762  31.325  32.708  1.00  0.00     0.049 A 
ATOM     49  H   UNL A   1      40.656  29.985  31.384  1.00  0.00     0.167 HD
ATOM     50  C   UNL A   1      42.212  26.913  28.672  1.00  0.00     0.034 A 
ATOM     51  C   UNL A   1      40.458  31.296  33.859  1.00  0.00     0.034 A 
ATOM     52  C   UNL A   1      43.085  26.893  29.827  1.00  0.00     0.049 A 
ATOM     53  C   UNL A   1      41.617  30.349  33.984  1.00  0.00     0.074 A 
ATOM     54  C   UNL A   1      44.240  26.152  30.021  1.00  0.00     0.029 A 
ATOM     55  N   UNL A   1      42.891  27.627  30.990  1.00  0.00    -0.354 N 
ATOM     56  N   UNL A   1      42.076  29.486  33.109  1.00  0.00    -0.248 NA
ATOM     57  C   UNL A   1      42.354  30.377  35.253  1.00  0.00     0.031 C 
ATOM     58  C   UNL A   1      44.695  26.377  31.326  1.00  0.00     0.029 A 
ATOM     59  C   UNL A   1      43.880  27.326  31.917  1.00  0.00     0.049 A 
ATOM     60  H   UNL A   1      42.157  28.268  31.136  1.00  0.00     0.167 HD
ATOM     61  C   UNL A   1      43.175  28.885  33.714  1.00  0.00     0.074 A 
ATOM     62  C   UNL A   1      43.316  29.497  35.019  1.00  0.00     0.031 C 
ATOM     63  C   UNL A   1      43.997  27.920  33.229  1.00  0.00     0.034 A 
BRANCH  50  64
ATOM     64  C   UNL A   1      42.528  25.968  27.533  1.00  0.00     0.023 A 
ATOM     65  C   UNL A   1      42.029  24.655  27.491  1.00  0.00     0.031 A 
ATOM     66  C   UNL A   1      43.300  26.411  26.442  1.00  0.00     0.131 A 
ATOM     67  C   UNL A   1      42.328  23.825  26.396  1.00  0.00     0.055 A 
ATOM     68  C   UNL A   1      43.543  25.603  25.329  1.00  0.00     0.041 A 
ATOM     69  F   UNL A   1      43.819  27.650  26.432  1.00  0.00    -0.206 F 
ATOM     70  C   UNL A   1      43.062  24.298  25.305  1.00  0.00     0.022 A 
BRANCH  67  71
ATOM     71  S   UNL A   1      41.822  22.083  26.454  1.00  0.00     0.124 S 
ATOM     72  O   UNL A   1      42.609  21.509  25.366  1.00  0.00    -0.237 OA
ATOM     73  O   UNL A   1      42.209  21.688  27.803  1.00  0.00    -0.237 OA
ATOM     74  O   UNL A   1      40.382  22.137  26.210  1.00  0.00    -0.744 OA
ENDBRANCH  67  71
ENDBRANCH  50  64
BRANCH  51  75
ATOM     75  C   UNL A   1      40.032  32.153  34.998  1.00  0.00     0.023 A 
ATOM     76  C   UNL A   1      39.172  31.660  35.989  1.00  0.00     0.031 A 
ATOM     77  C   UNL A   1      40.481  33.483  35.110  1.00  0.00     0.131 A 
ATOM     78  C   UNL A   1      38.760  32.501  37.032  1.00  0.00     0.055 A 
ATOM     79  C   UNL A   1      40.118  34.295  36.182  1.00  0.00     0.041 A 
ATOM     80  F   UNL A   1      41.309  33.999  34.187  1.00  0.00    -0.206 F 
ATOM     81  C   UNL A   1      39.242  33.808  37.146  1.00  0.00     0.022 A 
BRANCH  78  82
ATOM     82  S   UNL A   1      37.518  31.885  38.199  1.00  0.00     0.124 S 
ATOM     83  O   UNL A   1      36.418  32.817  37.980  1.00  0.00    -0.237 OA
ATOM     84  O   UNL A   1      37.308  30.521  37.723  1.00  0.00    -0.237 OA
ATOM     85  O   UNL A   1      38.185  31.996  39.494  1.00  0.00    -0.744 OA
ENDBRANCH  78  82
ENDBRANCH  51  75
BRANCH  63  86
ATOM     86  C   UNL A   1      45.148  27.507  34.112  1.00  0.00     0.023 A 
ATOM     87  C   UNL A   1      46.395  28.154  34.051  1.00  0.00     0.031 A 
ATOM     88  C   UNL A   1      45.009  26.420  34.993  1.00  0.00     0.131 A 
ATOM     89  C   UNL A   1      47.474  27.663  34.802  1.00  0.00     0.055 A 
ATOM     90  C   UNL A   1      46.068  25.977  35.786  1.00  0.00     0.041 A 
ATOM     91  F   UNL A   1      43.842  25.763  35.089  1.00  0.00    -0.206 F 
ATOM     92  C   UNL A   1      47.314  26.588  35.681  1.00  0.00     0.022 A 
BRANCH  89  93
ATOM     93  S   UNL A   1      49.119  28.376  34.530  1.00  0.00     0.124 S 
ATOM     94  O   UNL A   1      48.841  29.808  34.578  1.00  0.00    -0.237 OA
ATOM     95  O   UNL A   1      49.882  27.837  35.652  1.00  0.00    -0.237 OA
ATOM     96  O   UNL A   1      49.502  27.863  33.216  1.00  0.00    -0.744 OA
ENDBRANCH  89  93
ENDBRANCH  63  86
ENDBRANCH  37  38
ENDBRANCH  30  32
ENDBRANCH  29  30
ENDBRANCH  28  29
ENDBRANCH   1  28
TORSDOF 18
ENDMDL
MODEL 3
REMARK VINA RESULT:     -11.5      1.811      2.119
REMARK SMILES COc1cc(C=C2C(=O)N(C)C(=S)N(C)C2=O)c(Br)cc1OCC(=O)OCCOC(=O)c1ccc(-c2c3nc(c(-c4cc(S(=O)(=O)[O-])ccc4F)c4ccc([nH]4)c(-c4cc(S(=O)(=O)[O-])ccc4F)c4nc(c(-c5cc(S(=O)(=O)[O-])ccc5F)c5ccc2[nH]5)C=C4)C=C3)cc1
REMARK SMILES IDX 27 1 26 2 24 3 25 4 23 5 22 6 21 7 3 8 4 9 5 10 20 11 18 12
REMARK SMILES IDX 19 13 2 14 1 15 6 16 7 17 8 18 16 19 9 20 10 21 14 22 17 23
REMARK SMILES IDX 11 24 12 25 15 26 13 27 28 28 29 29 30 30 31 31 32 32 33 33
REMARK SMILES IDX 94 34 34 35 93 36 35 37 36 38 37 39 87 40 38 41 92 42 86 43
REMARK SMILES IDX 88 44 39 45 91 46 85 47 84 48 40 50 72 51 52 52 71 53 53 54
REMARK SMILES IDX 56 55 70 56 89 57 54 58 55 59 69 61 90 62 57 63 41 64 42 65
REMARK SMILES IDX 50 66 43 67 49 68 51 69 48 70 44 71 45 72 46 73 47 74 73 75
REMARK SMILES IDX 74 76 82 77 75 78 81 79 83 80 80 81 76 82 77 83 78 84 79 85
REMARK SMILES IDX 58 86 59 87 67 88 60 89 66 90 68 91 65 92 61 93 62 94 63 95
REMARK SMILES IDX 64 96
REMARK H PARENT 88 49 56 60
REMARK Flexibility Score: inf
ROOT
ATOM      1  C   UNL A   1      31.193  30.113  24.870  1.00  0.00     0.274 C 
ENDROOT
BRANCH   1   2
ATOM      2  O   UNL A   1      30.044  30.745  24.267  1.00  0.00    -0.460 OA
BRANCH   2   3
ATOM      3  C   UNL A   1      29.602  30.173  23.112  1.00  0.00     0.344 C 
ATOM      4  O   UNL A   1      29.017  30.786  22.223  1.00  0.00    -0.248 OA
BRANCH   3   5
ATOM      5  C   UNL A   1      29.772  28.652  23.076  1.00  0.00     0.352 C 
BRANCH   5   6
ATOM      6  O   UNL A   1      30.542  28.010  22.079  1.00  0.00    -0.478 OA
BRANCH   6   7
ATOM      7  C   UNL A   1      31.463  27.061  22.422  1.00  0.00     0.163 A 
ATOM      8  C   UNL A   1      32.038  26.066  21.629  1.00  0.00     0.161 A 
ATOM      9  C   UNL A   1      33.059  25.255  22.164  1.00  0.00     0.059 A 
ATOM     10  C   UNL A   1      33.491  25.369  23.489  1.00  0.00    -0.006 A 
ATOM     11  C   UNL A   1      31.776  27.082  23.784  1.00  0.00     0.066 A 
ATOM     12  C   UNL A   1      32.764  26.242  24.316  1.00  0.00     0.029 A 
ATOM     13  Br  UNL A   1      33.047  26.363  26.197  1.00  0.00    -0.050 Br
BRANCH   8  14
ATOM     14  O   UNL A   1      31.574  25.885  20.354  1.00  0.00    -0.493 OA
ATOM     15  C   UNL A   1      32.552  25.411  19.424  1.00  0.00     0.278 C 
ENDBRANCH   8  14
BRANCH  10  16
ATOM     16  C   UNL A   1      34.622  24.562  24.007  1.00  0.00     0.029 C 
ATOM     17  C   UNL A   1      34.639  23.315  24.537  1.00  0.00     0.106 C 
ATOM     18  C   UNL A   1      33.452  22.509  24.866  1.00  0.00     0.265 C 
ATOM     19  C   UNL A   1      35.965  22.661  24.660  1.00  0.00     0.265 C 
ATOM     20  O   UNL A   1      32.475  22.966  25.451  1.00  0.00    -0.268 OA
ATOM     21  N   UNL A   1      33.579  21.160  24.578  1.00  0.00    -0.288 N 
ATOM     22  N   UNL A   1      35.940  21.267  24.787  1.00  0.00    -0.288 N 
ATOM     23  O   UNL A   1      37.005  23.309  24.564  1.00  0.00    -0.268 OA
ATOM     24  C   UNL A   1      32.311  20.476  24.366  1.00  0.00     0.156 C 
ATOM     25  C   UNL A   1      34.783  20.463  24.710  1.00  0.00     0.185 C 
ATOM     26  C   UNL A   1      37.253  20.627  24.886  1.00  0.00     0.156 C 
ATOM     27  S   UNL A   1      34.834  18.764  24.781  1.00  0.00    -0.040 S 
ENDBRANCH  10  16
ENDBRANCH   6   7
ENDBRANCH   5   6
ENDBRANCH   3   5
ENDBRANCH   2   3
ENDBRANCH   1   2
BRANCH   1  28
ATOM     28  C   UNL A   1      31.603  30.772  26.186  1.00  0.00     0.275 C 
BRANCH  28  29
ATOM     29  O   UNL A   1      32.969  30.467  26.520  1.00  0.00    -0.458 OA
BRANCH  29  30
ATOM     30  C   UNL A   1      33.567  31.409  27.281  1.00  0.00     0.338 C 
ATOM     31  O   UNL A   1      33.079  32.489  27.605  1.00  0.00    -0.246 OA
BRANCH  30  32
ATOM     32  C   UNL A   1      34.933  31.022  27.659  1.00  0.00     0.060 A 
ATOM     33  C   UNL A   1      35.219  29.705  28.008  1.00  0.00     0.016 A 
ATOM     34  C   UNL A   1      35.870  32.028  27.897  1.00  0.00     0.016 A 
ATOM     35  C   UNL A   1      36.388  29.426  28.720  1.00  0.00     0.010 A 
ATOM     36  C   UNL A   1      37.046  31.745  28.590  1.00  0.00     0.010 A 
ATOM     37  C   UNL A   1      37.293  30.449  29.057  1.00  0.00    -0.014 A 
BRANCH  37  38
ATOM     38  C   UNL A   1      38.517  30.173  29.853  1.00  0.00     0.031 A 
ATOM     39  C   UNL A   1      39.549  29.169  29.396  1.00  0.00     0.074 A 
ATOM     40  C   UNL A   1      38.666  30.806  31.030  1.00  0.00     0.049 A 
ATOM     41  N   UNL A   1      40.601  28.720  30.036  1.00  0.00    -0.248 NA
ATOM     42  C   UNL A   1      39.389  28.605  28.047  1.00  0.00     0.031 C 
ATOM     43  C   UNL A   1      37.747  31.814  31.561  1.00  0.00     0.029 A 
ATOM     44  N   UNL A   1      39.624  30.679  32.003  1.00  0.00    -0.354 N 
ATOM     45  C   UNL A   1      41.227  27.820  29.176  1.00  0.00     0.074 A 
ATOM     46  C   UNL A   1      40.429  27.783  27.966  1.00  0.00     0.031 C 
ATOM     47  C   UNL A   1      38.181  32.211  32.765  1.00  0.00     0.029 A 
ATOM     48  C   UNL A   1      39.354  31.424  33.125  1.00  0.00     0.049 A 
ATOM     49  H   UNL A   1      40.423  30.113  31.906  1.00  0.00     0.167 HD
ATOM     50  C   UNL A   1      42.352  27.090  29.385  1.00  0.00     0.034 A 
ATOM     51  C   UNL A   1      39.941  31.433  34.337  1.00  0.00     0.034 A 
ATOM     52  C   UNL A   1      43.113  27.115  30.617  1.00  0.00     0.049 A 
ATOM     53  C   UNL A   1      41.120  30.537  34.580  1.00  0.00     0.074 A 
ATOM     54  C   UNL A   1      44.275  26.425  30.927  1.00  0.00     0.029 A 
ATOM     55  N   UNL A   1      42.780  27.848  31.749  1.00  0.00    -0.354 N 
ATOM     56  N   UNL A   1      41.694  29.687  33.761  1.00  0.00    -0.248 NA
ATOM     57  C   UNL A   1      41.733  30.604  35.912  1.00  0.00     0.031 C 
ATOM     58  C   UNL A   1      44.596  26.678  32.266  1.00  0.00     0.029 A 
ATOM     59  C   UNL A   1      43.690  27.596  32.768  1.00  0.00     0.049 A 
ATOM     60  H   UNL A   1      42.011  28.459  31.818  1.00  0.00     0.167 HD
ATOM     61  C   UNL A   1      42.756  29.138  34.473  1.00  0.00     0.074 A 
ATOM     62  C   UNL A   1      42.748  29.764  35.779  1.00  0.00     0.031 C 
ATOM     63  C   UNL A   1      43.659  28.204  34.078  1.00  0.00     0.034 A 
BRANCH  50  64
ATOM     64  C   UNL A   1      42.812  26.150  28.292  1.00  0.00     0.023 A 
ATOM     65  C   UNL A   1      43.947  26.416  27.507  1.00  0.00     0.031 A 
ATOM     66  C   UNL A   1      42.131  24.938  28.070  1.00  0.00     0.131 A 
ATOM     67  C   UNL A   1      44.350  25.496  26.521  1.00  0.00     0.055 A 
ATOM     68  C   UNL A   1      42.570  24.001  27.133  1.00  0.00     0.041 A 
ATOM     69  F   UNL A   1      41.029  24.636  28.777  1.00  0.00    -0.206 F 
ATOM     70  C   UNL A   1      43.683  24.281  26.347  1.00  0.00     0.022 A 
BRANCH  67  71
ATOM     71  S   UNL A   1      45.708  25.948  25.406  1.00  0.00     0.124 S 
ATOM     72  O   UNL A   1      45.785  24.774  24.541  1.00  0.00    -0.237 OA
ATOM     73  O   UNL A   1      45.211  27.170  24.785  1.00  0.00    -0.237 OA
ATOM     74  O   UNL A   1      46.846  26.125  26.306  1.00  0.00    -0.744 OA
ENDBRANCH  67  71
ENDBRANCH  50  64
BRANCH  51  75
ATOM     75  C   UNL A   1      39.374  32.279  35.421  1.00  0.00     0.023 A 
ATOM     76  C   UNL A   1      39.813  33.596  35.612  1.00  0.00     0.031 A 
ATOM     77  C   UNL A   1      38.381  31.778  36.285  1.00  0.00     0.131 A 
ATOM     78  C   UNL A   1      39.284  34.359  36.662  1.00  0.00     0.055 A 
ATOM     79  C   UNL A   1      37.815  32.562  37.289  1.00  0.00     0.041 A 
ATOM     80  F   UNL A   1      37.925  30.523  36.140  1.00  0.00    -0.206 F 
ATOM     81  C   UNL A   1      38.276  33.858  37.490  1.00  0.00     0.022 A 
BRANCH  78  82
ATOM     82  S   UNL A   1      39.995  35.995  36.983  1.00  0.00     0.124 S 
ATOM     83  O   UNL A   1      41.389  35.665  37.252  1.00  0.00    -0.237 OA
ATOM     84  O   UNL A   1      39.730  36.690  35.728  1.00  0.00    -0.237 OA
ATOM     85  O   UNL A   1      39.233  36.476  38.133  1.00  0.00    -0.744 OA
ENDBRANCH  78  82
ENDBRANCH  51  75
BRANCH  63  86
ATOM     86  C   UNL A   1      44.738  27.847  35.069  1.00  0.00     0.023 A 
ATOM     87  C   UNL A   1      45.956  28.547  35.119  1.00  0.00     0.031 A 
ATOM     88  C   UNL A   1      44.563  26.760  35.944  1.00  0.00     0.131 A 
ATOM     89  C   UNL A   1      46.980  28.107  35.973  1.00  0.00     0.055 A 
ATOM     90  C   UNL A   1      45.560  26.367  36.838  1.00  0.00     0.041 A 
ATOM     91  F   UNL A   1      43.421  26.053  35.936  1.00  0.00    -0.206 F 
ATOM     92  C   UNL A   1      46.784  27.031  36.844  1.00  0.00     0.022 A 
BRANCH  89  93
ATOM     93  S   UNL A   1      48.611  28.889  35.851  1.00  0.00     0.124 S 
ATOM     94  O   UNL A   1      49.404  27.840  35.218  1.00  0.00    -0.237 OA
ATOM     95  O   UNL A   1      48.334  30.062  35.028  1.00  0.00    -0.237 OA
ATOM     96  O   UNL A   1      48.959  29.176  37.241  1.00  0.00    -0.744 OA
ENDBRANCH  89  93
ENDBRANCH  63  86
ENDBRANCH  37  38
ENDBRANCH  30  32
ENDBRANCH  29  30
ENDBRANCH  28  29
ENDBRANCH   1  28
TORSDOF 18
ENDMDL
