MODEL 1
REMARK VINA RESULT:     -11.4      0.000      0.000
REMARK SMILES C[C@@H](C(=O)OCCOC(=O)c1ccc(-c2c3nc(c(-c4cc(S(=O)(=O)[O-])ccc4F)c4ccc([nH]4)c(-c4cc(S(=O)(=O)[O-])ccc4F)c4nc(c(-c5cc(S(=O)(=O)[O-])ccc5F)c5ccc2[nH]5)C=C4)C=C3)cc1)c1ccc(C(=O)c2cccs2)cc1
REMARK SMILES IDX 6 1 5 2 3 3 4 4 2 5 1 6 74 7 75 8 86 9 76 10 85 11 77 12
REMARK SMILES IDX 78 13 79 14 80 15 81 16 84 17 82 18 83 19 7 20 8 21 9 22
REMARK SMILES IDX 10 23 11 24 12 25 73 26 13 27 72 28 14 29 15 30 16 31 66 32
REMARK SMILES IDX 17 33 71 34 65 35 67 36 18 37 70 38 64 39 63 40 19 42 51 43
REMARK SMILES IDX 31 44 50 45 32 46 35 47 49 48 68 49 33 50 34 51 48 53 69 54
REMARK SMILES IDX 36 55 20 56 21 57 29 58 22 59 28 60 30 61 27 62 23 63 24 64
REMARK SMILES IDX 25 65 26 66 52 67 53 68 61 69 54 70 60 71 62 72 59 73 55 74
REMARK SMILES IDX 56 75 57 76 58 77 37 78 38 79 46 80 39 81 45 82 47 83 44 84
REMARK SMILES IDX 40 85 41 86 42 87 43 88
REMARK H PARENT 67 41 35 52
REMARK Flexibility Score: inf
ROOT
ATOM      1  C   UNL A   1      30.890  29.214  24.824  1.00  0.00     0.274 C 
ENDROOT
BRANCH   1   2
ATOM      2  O   UNL A   1      31.118  29.199  23.401  1.00  0.00    -0.462 OA
BRANCH   2   3
ATOM      3  C   UNL A   1      31.657  28.060  22.880  1.00  0.00     0.313 C 
ATOM      4  O   UNL A   1      31.000  27.199  22.307  1.00  0.00    -0.252 OA
BRANCH   3   5
ATOM      5  C   UNL A   1      33.157  27.933  23.177  1.00  0.00     0.126 C 
ATOM      6  C   UNL A   1      34.048  28.177  21.955  1.00  0.00     0.025 C 
BRANCH   5   7
ATOM      7  C   UNL A   1      33.485  26.628  23.898  1.00  0.00    -0.034 A 
ATOM      8  C   UNL A   1      33.998  25.555  23.160  1.00  0.00     0.005 A 
ATOM      9  C   UNL A   1      33.348  26.463  25.285  1.00  0.00     0.005 A 
ATOM     10  C   UNL A   1      34.340  24.353  23.787  1.00  0.00     0.012 A 
ATOM     11  C   UNL A   1      33.712  25.259  25.917  1.00  0.00     0.012 A 
ATOM     12  C   UNL A   1      34.198  24.180  25.174  1.00  0.00     0.023 A 
BRANCH  12  13
ATOM     13  C   UNL A   1      34.617  22.849  25.738  1.00  0.00     0.202 C 
ATOM     14  O   UNL A   1      35.427  22.897  26.667  1.00  0.00    -0.288 OA
BRANCH  13  15
ATOM     15  C   UNL A   1      34.087  21.587  25.245  1.00  0.00     0.075 A 
ATOM     16  C   UNL A   1      34.698  20.386  24.935  1.00  0.00     0.024 A 
ATOM     17  S   UNL A   1      32.376  21.460  25.092  1.00  0.00    -0.140 S 
ATOM     18  C   UNL A   1      33.761  19.378  24.557  1.00  0.00     0.012 A 
ATOM     19  C   UNL A   1      32.463  19.831  24.600  1.00  0.00     0.065 A 
ENDBRANCH  13  15
ENDBRANCH  12  13
ENDBRANCH   5   7
ENDBRANCH   3   5
ENDBRANCH   2   3
ENDBRANCH   1   2
BRANCH   1  20
ATOM     20  C   UNL A   1      31.390  30.520  25.438  1.00  0.00     0.275 C 
BRANCH  20  21
ATOM     21  O   UNL A   1      32.652  30.314  26.096  1.00  0.00    -0.458 OA
BRANCH  21  22
ATOM     22  C   UNL A   1      33.047  31.308  26.921  1.00  0.00     0.338 C 
ATOM     23  O   UNL A   1      32.429  32.320  27.214  1.00  0.00    -0.246 OA
BRANCH  22  24
ATOM     24  C   UNL A   1      34.367  30.987  27.479  1.00  0.00     0.060 A 
ATOM     25  C   UNL A   1      34.719  29.650  27.637  1.00  0.00     0.016 A 
ATOM     26  C   UNL A   1      35.189  31.997  27.978  1.00  0.00     0.016 A 
ATOM     27  C   UNL A   1      35.841  29.318  28.391  1.00  0.00     0.010 A 
ATOM     28  C   UNL A   1      36.370  31.656  28.653  1.00  0.00     0.010 A 
ATOM     29  C   UNL A   1      36.687  30.310  28.912  1.00  0.00    -0.014 A 
BRANCH  29  30
ATOM     30  C   UNL A   1      37.847  29.922  29.770  1.00  0.00     0.031 A 
ATOM     31  C   UNL A   1      38.961  29.065  29.212  1.00  0.00     0.074 A 
ATOM     32  C   UNL A   1      37.953  30.408  31.024  1.00  0.00     0.049 A 
ATOM     33  N   UNL A   1      40.000  28.553  29.822  1.00  0.00    -0.248 NA
ATOM     34  C   UNL A   1      38.887  28.729  27.782  1.00  0.00     0.031 C 
ATOM     35  C   UNL A   1      36.976  31.284  31.675  1.00  0.00     0.029 A 
ATOM     36  N   UNL A   1      38.946  30.273  31.965  1.00  0.00    -0.354 N 
ATOM     37  C   UNL A   1      40.703  27.844  28.854  1.00  0.00     0.074 A 
ATOM     38  C   UNL A   1      39.929  27.923  27.634  1.00  0.00     0.031 C 
ATOM     39  C   UNL A   1      37.450  31.667  32.869  1.00  0.00     0.029 A 
ATOM     40  C   UNL A   1      38.720  30.992  33.116  1.00  0.00     0.049 A 
ATOM     41  H   UNL A   1      39.744  29.713  31.828  1.00  0.00     0.167 HD
ATOM     42  C   UNL A   1      41.912  27.233  28.952  1.00  0.00     0.034 A 
ATOM     43  C   UNL A   1      39.432  31.082  34.258  1.00  0.00     0.034 A 
ATOM     44  C   UNL A   1      42.720  27.225  30.146  1.00  0.00     0.049 A 
ATOM     45  C   UNL A   1      40.707  30.290  34.379  1.00  0.00     0.074 A 
ATOM     46  C   UNL A   1      43.973  26.665  30.334  1.00  0.00     0.029 A 
ATOM     47  N   UNL A   1      42.371  27.823  31.349  1.00  0.00    -0.354 N 
ATOM     48  N   UNL A   1      41.297  29.531  33.485  1.00  0.00    -0.248 NA
ATOM     49  C   UNL A   1      41.399  30.347  35.673  1.00  0.00     0.031 C 
ATOM     50  C   UNL A   1      44.367  26.899  31.656  1.00  0.00     0.029 A 
ATOM     51  C   UNL A   1      43.385  27.649  32.280  1.00  0.00     0.049 A 
ATOM     52  H   UNL A   1      41.526  28.300  31.517  1.00  0.00     0.167 HD
ATOM     53  C   UNL A   1      42.430  29.022  34.111  1.00  0.00     0.074 A 
ATOM     54  C   UNL A   1      42.455  29.579  35.447  1.00  0.00     0.031 C 
ATOM     55  C   UNL A   1      43.369  28.171  33.624  1.00  0.00     0.034 A 
BRANCH  42  56
ATOM     56  C   UNL A   1      42.444  26.541  27.721  1.00  0.00     0.023 A 
ATOM     57  C   UNL A   1      42.118  25.205  27.434  1.00  0.00     0.031 A 
ATOM     58  C   UNL A   1      43.282  27.222  26.821  1.00  0.00     0.131 A 
ATOM     59  C   UNL A   1      42.667  24.573  26.309  1.00  0.00     0.055 A 
ATOM     60  C   UNL A   1      43.777  26.606  25.669  1.00  0.00     0.041 A 
ATOM     61  F   UNL A   1      43.638  28.496  27.050  1.00  0.00    -0.206 F 
ATOM     62  C   UNL A   1      43.480  25.270  25.414  1.00  0.00     0.022 A 
BRANCH  59  63
ATOM     63  S   UNL A   1      42.404  22.790  26.109  1.00  0.00     0.124 S 
ATOM     64  O   UNL A   1      43.148  22.248  27.245  1.00  0.00    -0.237 OA
ATOM     65  O   UNL A   1      40.952  22.680  26.188  1.00  0.00    -0.237 OA
ATOM     66  O   UNL A   1      42.986  22.505  24.800  1.00  0.00    -0.744 OA
ENDBRANCH  59  63
ENDBRANCH  42  56
BRANCH  43  67
ATOM     67  C   UNL A   1      38.915  31.881  35.409  1.00  0.00     0.023 A 
ATOM     68  C   UNL A   1      38.357  31.269  36.542  1.00  0.00     0.031 A 
ATOM     69  C   UNL A   1      38.938  33.289  35.366  1.00  0.00     0.131 A 
ATOM     70  C   UNL A   1      37.823  32.061  37.573  1.00  0.00     0.055 A 
ATOM     71  C   UNL A   1      38.460  34.070  36.417  1.00  0.00     0.041 A 
ATOM     72  F   UNL A   1      39.444  33.928  34.300  1.00  0.00    -0.206 F 
ATOM     73  C   UNL A   1      37.888  33.456  37.526  1.00  0.00     0.022 A 
BRANCH  70  74
ATOM     74  S   UNL A   1      36.952  31.250  38.943  1.00  0.00     0.124 S 
ATOM     75  O   UNL A   1      36.794  29.891  38.435  1.00  0.00    -0.237 OA
ATOM     76  O   UNL A   1      37.892  31.420  40.046  1.00  0.00    -0.237 OA
ATOM     77  O   UNL A   1      35.713  32.017  39.061  1.00  0.00    -0.744 OA
ENDBRANCH  70  74
ENDBRANCH  43  67
BRANCH  55  78
ATOM     78  C   UNL A   1      44.498  27.812  34.555  1.00  0.00     0.023 A 
ATOM     79  C   UNL A   1      44.432  26.669  35.373  1.00  0.00     0.031 A 
ATOM     80  C   UNL A   1      45.629  28.638  34.655  1.00  0.00     0.131 A 
ATOM     81  C   UNL A   1      45.459  26.412  36.292  1.00  0.00     0.055 A 
ATOM     82  C   UNL A   1      46.671  28.349  35.537  1.00  0.00     0.041 A 
ATOM     83  F   UNL A   1      45.738  29.741  33.897  1.00  0.00    -0.206 F 
ATOM     84  C   UNL A   1      46.584  27.238  36.371  1.00  0.00     0.022 A 
BRANCH  81  85
ATOM     85  S   UNL A   1      45.272  25.020  37.440  1.00  0.00     0.124 S 
ATOM     86  O   UNL A   1      44.672  24.000  36.585  1.00  0.00    -0.237 OA
ATOM     87  O   UNL A   1      46.646  24.772  37.860  1.00  0.00    -0.237 OA
ATOM     88  O   UNL A   1      44.393  25.550  38.482  1.00  0.00    -0.744 OA
ENDBRANCH  81  85
ENDBRANCH  55  78
ENDBRANCH  29  30
ENDBRANCH  22  24
ENDBRANCH  21  22
ENDBRANCH  20  21
ENDBRANCH   1  20
TORSDOF 17
ENDMDL
MODEL 2
REMARK VINA RESULT:     -11.2      1.482      7.848
REMARK SMILES C[C@@H](C(=O)OCCOC(=O)c1ccc(-c2c3nc(c(-c4cc(S(=O)(=O)[O-])ccc4F)c4ccc([nH]4)c(-c4cc(S(=O)(=O)[O-])ccc4F)c4nc(c(-c5cc(S(=O)(=O)[O-])ccc5F)c5ccc2[nH]5)C=C4)C=C3)cc1)c1ccc(C(=O)c2cccs2)cc1
REMARK SMILES IDX 6 1 5 2 3 3 4 4 2 5 1 6 74 7 75 8 86 9 76 10 85 11 77 12
REMARK SMILES IDX 78 13 79 14 80 15 81 16 84 17 82 18 83 19 7 20 8 21 9 22
REMARK SMILES IDX 10 23 11 24 12 25 73 26 13 27 72 28 14 29 15 30 16 31 66 32
REMARK SMILES IDX 17 33 71 34 65 35 67 36 18 37 70 38 64 39 63 40 19 42 51 43
REMARK SMILES IDX 31 44 50 45 32 46 35 47 49 48 68 49 33 50 34 51 48 53 69 54
REMARK SMILES IDX 36 55 20 56 21 57 29 58 22 59 28 60 30 61 27 62 23 63 24 64
REMARK SMILES IDX 25 65 26 66 52 67 53 68 61 69 54 70 60 71 62 72 59 73 55 74
REMARK SMILES IDX 56 75 57 76 58 77 37 78 38 79 46 80 39 81 45 82 47 83 44 84
REMARK SMILES IDX 40 85 41 86 42 87 43 88
REMARK H PARENT 67 41 35 52
REMARK Flexibility Score: inf
ROOT
ATOM      1  C   UNL A   1      31.502  31.789  26.700  1.00  0.00     0.274 C 
ENDROOT
BRANCH   1   2
ATOM      2  O   UNL A   1      32.649  30.917  26.681  1.00  0.00    -0.462 OA
BRANCH   2   3
ATOM      3  C   UNL A   1      32.474  29.687  26.119  1.00  0.00     0.313 C 
ATOM      4  O   UNL A   1      31.764  29.482  25.142  1.00  0.00    -0.252 OA
BRANCH   3   5
ATOM      5  C   UNL A   1      33.186  28.577  26.905  1.00  0.00     0.126 C 
ATOM      6  C   UNL A   1      34.628  28.922  27.285  1.00  0.00     0.025 C 
BRANCH   5   7
ATOM      7  C   UNL A   1      33.064  27.223  26.211  1.00  0.00    -0.034 A 
ATOM      8  C   UNL A   1      32.009  26.372  26.562  1.00  0.00     0.005 A 
ATOM      9  C   UNL A   1      33.932  26.802  25.191  1.00  0.00     0.005 A 
ATOM     10  C   UNL A   1      31.844  25.137  25.929  1.00  0.00     0.012 A 
ATOM     11  C   UNL A   1      33.753  25.567  24.541  1.00  0.00     0.012 A 
ATOM     12  C   UNL A   1      32.715  24.708  24.912  1.00  0.00     0.023 A 
BRANCH  12  13
ATOM     13  C   UNL A   1      32.426  23.368  24.292  1.00  0.00     0.202 C 
ATOM     14  O   UNL A   1      31.425  23.321  23.573  1.00  0.00    -0.288 OA
BRANCH  13  15
ATOM     15  C   UNL A   1      33.278  22.207  24.500  1.00  0.00     0.075 A 
ATOM     16  C   UNL A   1      34.610  22.089  24.851  1.00  0.00     0.024 A 
ATOM     17  S   UNL A   1      32.529  20.658  24.406  1.00  0.00    -0.140 S 
ATOM     18  C   UNL A   1      35.011  20.729  25.022  1.00  0.00     0.012 A 
ATOM     19  C   UNL A   1      33.975  19.850  24.810  1.00  0.00     0.065 A 
ENDBRANCH  13  15
ENDBRANCH  12  13
ENDBRANCH   5   7
ENDBRANCH   3   5
ENDBRANCH   2   3
ENDBRANCH   1   2
BRANCH   1  20
ATOM     20  C   UNL A   1      31.932  33.246  26.857  1.00  0.00     0.275 C 
BRANCH  20  21
ATOM     21  O   UNL A   1      32.207  33.542  28.237  1.00  0.00    -0.458 OA
BRANCH  21  22
ATOM     22  C   UNL A   1      33.237  34.388  28.455  1.00  0.00     0.338 C 
ATOM     23  O   UNL A   1      33.215  35.609  28.429  1.00  0.00    -0.246 OA
BRANCH  22  24
ATOM     24  C   UNL A   1      34.444  33.617  28.781  1.00  0.00     0.060 A 
ATOM     25  C   UNL A   1      34.302  32.393  29.426  1.00  0.00     0.016 A 
ATOM     26  C   UNL A   1      35.711  34.168  28.583  1.00  0.00     0.016 A 
ATOM     27  C   UNL A   1      35.420  31.768  29.973  1.00  0.00     0.010 A 
ATOM     28  C   UNL A   1      36.842  33.484  29.051  1.00  0.00     0.010 A 
ATOM     29  C   UNL A   1      36.708  32.298  29.796  1.00  0.00    -0.014 A 
BRANCH  29  30
ATOM     30  C   UNL A   1      37.879  31.638  30.448  1.00  0.00     0.031 A 
ATOM     31  C   UNL A   1      38.249  31.969  31.876  1.00  0.00     0.074 A 
ATOM     32  C   UNL A   1      38.563  30.675  29.795  1.00  0.00     0.049 A 
ATOM     33  N   UNL A   1      39.278  31.570  32.582  1.00  0.00    -0.248 NA
ATOM     34  C   UNL A   1      37.350  32.881  32.600  1.00  0.00     0.031 C 
ATOM     35  C   UNL A   1      38.285  30.222  28.430  1.00  0.00     0.029 A 
ATOM     36  N   UNL A   1      39.602  29.872  30.200  1.00  0.00    -0.354 N 
ATOM     37  C   UNL A   1      39.145  32.173  33.829  1.00  0.00     0.074 A 
ATOM     38  C   UNL A   1      37.982  33.030  33.756  1.00  0.00     0.031 C 
ATOM     39  C   UNL A   1      39.076  29.178  28.141  1.00  0.00     0.029 A 
ATOM     40  C   UNL A   1      39.984  28.944  29.258  1.00  0.00     0.049 A 
ATOM     41  H   UNL A   1      40.033  29.954  31.081  1.00  0.00     0.167 HD
ATOM     42  C   UNL A   1      39.887  31.986  34.950  1.00  0.00     0.034 A 
ATOM     43  C   UNL A   1      40.972  28.025  29.271  1.00  0.00     0.034 A 
ATOM     44  C   UNL A   1      40.996  31.070  35.044  1.00  0.00     0.049 A 
ATOM     45  C   UNL A   1      41.856  27.931  30.486  1.00  0.00     0.074 A 
ATOM     46  C   UNL A   1      41.786  30.784  36.146  1.00  0.00     0.029 A 
ATOM     47  N   UNL A   1      41.461  30.271  34.007  1.00  0.00    -0.354 N 
ATOM     48  N   UNL A   1      41.782  28.596  31.616  1.00  0.00    -0.248 NA
ATOM     49  C   UNL A   1      42.973  26.980  30.417  1.00  0.00     0.031 C 
ATOM     50  C   UNL A   1      42.744  29.836  35.767  1.00  0.00     0.029 A 
ATOM     51  C   UNL A   1      42.521  29.491  34.445  1.00  0.00     0.049 A 
ATOM     52  H   UNL A   1      41.091  30.261  33.095  1.00  0.00     0.167 HD
ATOM     53  C   UNL A   1      42.844  28.140  32.391  1.00  0.00     0.074 A 
ATOM     54  C   UNL A   1      43.526  27.129  31.611  1.00  0.00     0.031 C 
ATOM     55  C   UNL A   1      43.220  28.523  33.638  1.00  0.00     0.034 A 
BRANCH  42  56
ATOM     56  C   UNL A   1      39.504  32.775  36.178  1.00  0.00     0.023 A 
ATOM     57  C   UNL A   1      38.612  32.258  37.132  1.00  0.00     0.031 A 
ATOM     58  C   UNL A   1      40.037  34.056  36.402  1.00  0.00     0.131 A 
ATOM     59  C   UNL A   1      38.236  33.034  38.238  1.00  0.00     0.055 A 
ATOM     60  C   UNL A   1      39.707  34.801  37.537  1.00  0.00     0.041 A 
ATOM     61  F   UNL A   1      40.884  34.607  35.518  1.00  0.00    -0.206 F 
ATOM     62  C   UNL A   1      38.792  34.296  38.456  1.00  0.00     0.022 A 
BRANCH  59  63
ATOM     63  S   UNL A   1      36.912  32.418  39.313  1.00  0.00     0.124 S 
ATOM     64  O   UNL A   1      37.247  30.999  39.418  1.00  0.00    -0.237 OA
ATOM     65  O   UNL A   1      37.101  33.210  40.522  1.00  0.00    -0.237 OA
ATOM     66  O   UNL A   1      35.697  32.708  38.555  1.00  0.00    -0.744 OA
ENDBRANCH  59  63
ENDBRANCH  42  56
BRANCH  43  67
ATOM     67  C   UNL A   1      41.233  27.182  28.066  1.00  0.00     0.023 A 
ATOM     68  C   UNL A   1      40.868  25.827  28.019  1.00  0.00     0.031 A 
ATOM     69  C   UNL A   1      41.897  27.724  26.949  1.00  0.00     0.131 A 
ATOM     70  C   UNL A   1      41.191  25.055  26.891  1.00  0.00     0.055 A 
ATOM     71  C   UNL A   1      42.163  26.968  25.807  1.00  0.00     0.041 A 
ATOM     72  F   UNL A   1      42.284  29.009  26.944  1.00  0.00    -0.206 F 
ATOM     73  C   UNL A   1      41.819  25.621  25.778  1.00  0.00     0.022 A 
BRANCH  70  74
ATOM     74  S   UNL A   1      40.867  23.269  26.925  1.00  0.00     0.124 S 
ATOM     75  O   UNL A   1      39.409  23.229  26.890  1.00  0.00    -0.237 OA
ATOM     76  O   UNL A   1      41.553  22.812  25.721  1.00  0.00    -0.237 OA
ATOM     77  O   UNL A   1      41.470  22.838  28.184  1.00  0.00    -0.744 OA
ENDBRANCH  70  74
ENDBRANCH  43  67
BRANCH  55  78
ATOM     78  C   UNL A   1      44.422  27.825  34.220  1.00  0.00     0.023 A 
ATOM     79  C   UNL A   1      44.297  26.594  34.889  1.00  0.00     0.031 A 
ATOM     80  C   UNL A   1      45.696  28.413  34.142  1.00  0.00     0.131 A 
ATOM     81  C   UNL A   1      45.420  26.015  35.497  1.00  0.00     0.055 A 
ATOM     82  C   UNL A   1      46.819  27.808  34.706  1.00  0.00     0.041 A 
ATOM     83  F   UNL A   1      45.867  29.589  33.515  1.00  0.00    -0.206 F 
ATOM     84  C   UNL A   1      46.683  26.608  35.399  1.00  0.00     0.022 A 
BRANCH  81  85
ATOM     85  S   UNL A   1      45.197  24.510  36.484  1.00  0.00     0.124 S 
ATOM     86  O   UNL A   1      46.542  23.942  36.481  1.00  0.00    -0.237 OA
ATOM     87  O   UNL A   1      44.732  25.038  37.762  1.00  0.00    -0.237 OA
ATOM     88  O   UNL A   1      44.202  23.749  35.730  1.00  0.00    -0.744 OA
ENDBRANCH  81  85
ENDBRANCH  55  78
ENDBRANCH  29  30
ENDBRANCH  22  24
ENDBRANCH  21  22
ENDBRANCH  20  21
ENDBRANCH   1  20
TORSDOF 17
ENDMDL
MODEL 3
REMARK VINA RESULT:     -10.9      1.900      2.324
REMARK SMILES C[C@@H](C(=O)OCCOC(=O)c1ccc(-c2c3nc(c(-c4cc(S(=O)(=O)[O-])ccc4F)c4ccc([nH]4)c(-c4cc(S(=O)(=O)[O-])ccc4F)c4nc(c(-c5cc(S(=O)(=O)[O-])ccc5F)c5ccc2[nH]5)C=C4)C=C3)cc1)c1ccc(C(=O)c2cccs2)cc1
REMARK SMILES IDX 6 1 5 2 3 3 4 4 2 5 1 6 74 7 75 8 86 9 76 10 85 11 77 12
REMARK SMILES IDX 78 13 79 14 80 15 81 16 84 17 82 18 83 19 7 20 8 21 9 22
REMARK SMILES IDX 10 23 11 24 12 25 73 26 13 27 72 28 14 29 15 30 16 31 66 32
REMARK SMILES IDX 17 33 71 34 65 35 67 36 18 37 70 38 64 39 63 40 19 42 51 43
REMARK SMILES IDX 31 44 50 45 32 46 35 47 49 48 68 49 33 50 34 51 48 53 69 54
REMARK SMILES IDX 36 55 20 56 21 57 29 58 22 59 28 60 30 61 27 62 23 63 24 64
REMARK SMILES IDX 25 65 26 66 52 67 53 68 61 69 54 70 60 71 62 72 59 73 55 74
REMARK SMILES IDX 56 75 57 76 58 77 37 78 38 79 46 80 39 81 45 82 47 83 44 84
REMARK SMILES IDX 40 85 41 86 42 87 43 88
REMARK H PARENT 67 41 35 52
REMARK Flexibility Score: inf
ROOT
ATOM      1  C   UNL A   1      32.272  28.445  24.953  1.00  0.00     0.274 C 
ENDROOT
BRANCH   1   2
ATOM      2  O   UNL A   1      32.098  27.514  26.039  1.00  0.00    -0.462 OA
BRANCH   2   3
ATOM      3  C   UNL A   1      31.096  26.599  25.906  1.00  0.00     0.313 C 
ATOM      4  O   UNL A   1      30.319  26.309  26.808  1.00  0.00    -0.252 OA
BRANCH   3   5
ATOM      5  C   UNL A   1      31.113  25.906  24.537  1.00  0.00     0.126 C 
ATOM      6  C   UNL A   1      29.754  25.908  23.831  1.00  0.00     0.025 C 
BRANCH   5   7
ATOM      7  C   UNL A   1      31.739  24.516  24.611  1.00  0.00    -0.034 A 
ATOM      8  C   UNL A   1      32.938  24.273  23.929  1.00  0.00     0.005 A 
ATOM      9  C   UNL A   1      31.200  23.472  25.379  1.00  0.00     0.005 A 
ATOM     10  C   UNL A   1      33.560  23.024  23.997  1.00  0.00     0.012 A 
ATOM     11  C   UNL A   1      31.838  22.220  25.462  1.00  0.00     0.012 A 
ATOM     12  C   UNL A   1      33.020  21.973  24.758  1.00  0.00     0.023 A 
BRANCH  12  13
ATOM     13  C   UNL A   1      33.789  20.680  24.769  1.00  0.00     0.202 C 
ATOM     14  O   UNL A   1      34.836  20.689  25.423  1.00  0.00    -0.288 OA
BRANCH  13  15
ATOM     15  C   UNL A   1      33.325  19.484  24.081  1.00  0.00     0.075 A 
ATOM     16  C   UNL A   1      32.354  19.291  23.116  1.00  0.00     0.024 A 
ATOM     17  S   UNL A   1      34.165  18.016  24.406  1.00  0.00    -0.140 S 
ATOM     18  C   UNL A   1      32.294  17.938  22.665  1.00  0.00     0.012 A 
ATOM     19  C   UNL A   1      33.226  17.140  23.285  1.00  0.00     0.065 A 
ENDBRANCH  13  15
ENDBRANCH  12  13
ENDBRANCH   5   7
ENDBRANCH   3   5
ENDBRANCH   2   3
ENDBRANCH   1   2
BRANCH   1  20
ATOM     20  C   UNL A   1      31.943  29.867  25.401  1.00  0.00     0.275 C 
BRANCH  20  21
ATOM     21  O   UNL A   1      32.278  30.047  26.788  1.00  0.00    -0.458 OA
BRANCH  21  22
ATOM     22  C   UNL A   1      32.898  31.208  27.090  1.00  0.00     0.338 C 
ATOM     23  O   UNL A   1      32.439  32.337  27.013  1.00  0.00    -0.246 OA
BRANCH  22  24
ATOM     24  C   UNL A   1      34.252  30.927  27.584  1.00  0.00     0.060 A 
ATOM     25  C   UNL A   1      34.650  29.601  27.729  1.00  0.00     0.016 A 
ATOM     26  C   UNL A   1      35.070  31.962  28.039  1.00  0.00     0.016 A 
ATOM     27  C   UNL A   1      35.816  29.305  28.429  1.00  0.00     0.010 A 
ATOM     28  C   UNL A   1      36.291  31.658  28.656  1.00  0.00     0.010 A 
ATOM     29  C   UNL A   1      36.658  30.323  28.903  1.00  0.00    -0.014 A 
BRANCH  29  30
ATOM     30  C   UNL A   1      37.869  29.972  29.705  1.00  0.00     0.031 A 
ATOM     31  C   UNL A   1      38.943  29.081  29.122  1.00  0.00     0.074 A 
ATOM     32  C   UNL A   1      38.057  30.521  30.924  1.00  0.00     0.049 A 
ATOM     33  N   UNL A   1      40.018  28.594  29.690  1.00  0.00    -0.248 NA
ATOM     34  C   UNL A   1      38.777  28.673  27.719  1.00  0.00     0.031 C 
ATOM     35  C   UNL A   1      37.125  31.434  31.589  1.00  0.00     0.029 A 
ATOM     36  N   UNL A   1      39.107  30.427  31.805  1.00  0.00    -0.354 N 
ATOM     37  C   UNL A   1      40.656  27.832  28.717  1.00  0.00     0.074 A 
ATOM     38  C   UNL A   1      39.805  27.855  27.547  1.00  0.00     0.031 C 
ATOM     39  C   UNL A   1      37.676  31.874  32.730  1.00  0.00     0.029 A 
ATOM     40  C   UNL A   1      38.956  31.206  32.930  1.00  0.00     0.049 A 
ATOM     41  H   UNL A   1      39.893  29.856  31.646  1.00  0.00     0.167 HD
ATOM     42  C   UNL A   1      41.866  27.220  28.769  1.00  0.00     0.034 A 
ATOM     43  C   UNL A   1      39.741  31.348  34.019  1.00  0.00     0.034 A 
ATOM     44  C   UNL A   1      42.749  27.268  29.908  1.00  0.00     0.049 A 
ATOM     45  C   UNL A   1      41.018  30.556  34.099  1.00  0.00     0.074 A 
ATOM     46  C   UNL A   1      44.010  26.711  30.045  1.00  0.00     0.029 A 
ATOM     47  N   UNL A   1      42.479  27.928  31.100  1.00  0.00    -0.354 N 
ATOM     48  N   UNL A   1      41.547  29.749  33.208  1.00  0.00    -0.248 NA
ATOM     49  C   UNL A   1      41.791  30.675  35.341  1.00  0.00     0.031 C 
ATOM     50  C   UNL A   1      44.488  27.009  31.326  1.00  0.00     0.029 A 
ATOM     51  C   UNL A   1      43.549  27.796  31.971  1.00  0.00     0.049 A 
ATOM     52  H   UNL A   1      41.648  28.418  31.296  1.00  0.00     0.167 HD
ATOM     53  C   UNL A   1      42.717  29.266  33.787  1.00  0.00     0.074 A 
ATOM     54  C   UNL A   1      42.828  29.890  35.088  1.00  0.00     0.031 C 
ATOM     55  C   UNL A   1      43.620  28.386  33.285  1.00  0.00     0.034 A 
BRANCH  42  56
ATOM     56  C   UNL A   1      42.317  26.463  27.544  1.00  0.00     0.023 A 
ATOM     57  C   UNL A   1      42.027  25.099  27.379  1.00  0.00     0.031 A 
ATOM     58  C   UNL A   1      43.039  27.110  26.527  1.00  0.00     0.131 A 
ATOM     59  C   UNL A   1      42.501  24.409  26.254  1.00  0.00     0.055 A 
ATOM     60  C   UNL A   1      43.457  26.433  25.378  1.00  0.00     0.041 A 
ATOM     61  F   UNL A   1      43.356  28.410  26.635  1.00  0.00    -0.206 F 
ATOM     62  C   UNL A   1      43.198  25.072  25.243  1.00  0.00     0.022 A 
BRANCH  59  63
ATOM     63  S   UNL A   1      42.302  22.608  26.200  1.00  0.00     0.124 S 
ATOM     64  O   UNL A   1      43.018  22.264  24.973  1.00  0.00    -0.237 OA
ATOM     65  O   UNL A   1      42.934  22.188  27.446  1.00  0.00    -0.237 OA
ATOM     66  O   UNL A   1      40.854  22.427  26.138  1.00  0.00    -0.744 OA
ENDBRANCH  59  63
ENDBRANCH  42  56
BRANCH  43  67
ATOM     67  C   UNL A   1      39.300  32.209  35.157  1.00  0.00     0.023 A 
ATOM     68  C   UNL A   1      39.782  33.517  35.325  1.00  0.00     0.031 A 
ATOM     69  C   UNL A   1      38.409  31.707  36.125  1.00  0.00     0.131 A 
ATOM     70  C   UNL A   1      39.391  34.268  36.446  1.00  0.00     0.055 A 
ATOM     71  C   UNL A   1      37.978  32.477  37.205  1.00  0.00     0.041 A 
ATOM     72  F   UNL A   1      37.928  30.458  36.025  1.00  0.00    -0.206 F 
ATOM     73  C   UNL A   1      38.478  33.763  37.376  1.00  0.00     0.022 A 
BRANCH  70  74
ATOM     74  S   UNL A   1      40.162  35.886  36.733  1.00  0.00     0.124 S 
ATOM     75  O   UNL A   1      41.581  35.551  36.702  1.00  0.00    -0.237 OA
ATOM     76  O   UNL A   1      39.660  36.667  35.608  1.00  0.00    -0.237 OA
ATOM     77  O   UNL A   1      39.646  36.281  38.042  1.00  0.00    -0.744 OA
ENDBRANCH  70  74
ENDBRANCH  43  67
BRANCH  55  78
ATOM     78  C   UNL A   1      44.805  28.067  34.160  1.00  0.00     0.023 A 
ATOM     79  C   UNL A   1      44.766  27.006  35.082  1.00  0.00     0.031 A 
ATOM     80  C   UNL A   1      45.967  28.854  34.100  1.00  0.00     0.131 A 
ATOM     81  C   UNL A   1      45.852  26.792  35.943  1.00  0.00     0.055 A 
ATOM     82  C   UNL A   1      47.064  28.605  34.926  1.00  0.00     0.041 A 
ATOM     83  F   UNL A   1      46.053  29.880  33.238  1.00  0.00    -0.206 F 
ATOM     84  C   UNL A   1      47.006  27.577  35.863  1.00  0.00     0.022 A 
BRANCH  81  85
ATOM     85  S   UNL A   1      45.708  25.516  37.225  1.00  0.00     0.124 S 
ATOM     86  O   UNL A   1      45.403  26.311  38.411  1.00  0.00    -0.237 OA
ATOM     87  O   UNL A   1      44.622  24.683  36.720  1.00  0.00    -0.237 OA
ATOM     88  O   UNL A   1      47.025  24.881  37.227  1.00  0.00    -0.744 OA
ENDBRANCH  81  85
ENDBRANCH  55  78
ENDBRANCH  29  30
ENDBRANCH  22  24
ENDBRANCH  21  22
ENDBRANCH  20  21
ENDBRANCH   1  20
TORSDOF 17
ENDMDL
