MODEL 1
REMARK VINA RESULT:     -10.6      0.000      0.000
REMARK SMILES CC(C)[C@H]([NH2+]Cc1ccncc1)C(=O)OCCOC(=O)c1ccc(-c2c3nc(c(-c4cc(S(=O)(=O)[O-])ccc4F)c4ccc([nH]4)c(-c4cc(S(=O)(=O)[O-])ccc4F)c4nc(c(-c5cc(S(=O)(=O)[O-])ccc5F)c5ccc2[nH]5)C=C4)C=C3)cc1
REMARK SMILES IDX 16 1 15 2 13 3 14 4 4 5 2 6 1 7 3 8 5 9 6 12 7 13 8 14 12 15
REMARK SMILES IDX 9 16 11 17 10 18 17 19 18 20 19 21 20 22 21 23 22 24 83 25
REMARK SMILES IDX 23 26 82 27 24 28 25 29 26 30 76 31 27 32 81 33 75 34 77 35
REMARK SMILES IDX 28 36 80 37 74 38 73 39 29 41 61 42 41 43 60 44 42 45 45 46
REMARK SMILES IDX 59 47 78 48 43 49 44 50 58 52 79 53 46 54 30 55 31 56 39 57
REMARK SMILES IDX 32 58 38 59 40 60 37 61 33 62 34 63 35 64 36 65 62 66 63 67
REMARK SMILES IDX 71 68 64 69 70 70 72 71 69 72 65 73 66 74 67 75 68 76 47 77
REMARK SMILES IDX 48 78 56 79 49 80 55 81 57 82 54 83 50 84 51 85 52 86 53 87
REMARK H PARENT 5 10 5 11 77 40 45 51
REMARK Flexibility Score: inf
ROOT
ATOM      1  C   UNL A   1      31.595  29.866  25.377  1.00  0.00     0.274 C 
ENDROOT
BRANCH   1   2
ATOM      2  O   UNL A   1      32.811  29.507  24.693  1.00  0.00    -0.458 OA
BRANCH   2   3
ATOM      3  C   UNL A   1      32.670  28.920  23.477  1.00  0.00     0.365 C 
ATOM      4  O   UNL A   1      33.506  29.004  22.584  1.00  0.00    -0.245 OA
BRANCH   3   5
ATOM      5  C   UNL A   1      31.361  28.118  23.319  1.00  0.00     0.296 C 
BRANCH   5   6
ATOM      6  C   UNL A   1      31.556  26.585  23.234  1.00  0.00     0.053 C 
ATOM      7  C   UNL A   1      30.381  25.819  23.859  1.00  0.00     0.014 C 
ATOM      8  C   UNL A   1      31.686  26.150  21.765  1.00  0.00     0.014 C 
ENDBRANCH   5   6
BRANCH   5   9
ATOM      9  N   UNL A   1      30.396  28.690  22.341  1.00  0.00    -0.331 N 
ATOM     10  H   UNL A   1      30.263  28.002  21.599  1.00  0.00     0.347 HD
ATOM     11  H   UNL A   1      30.813  29.570  22.037  1.00  0.00     0.347 HD
BRANCH   9  12
ATOM     12  C   UNL A   1      29.079  29.048  22.850  1.00  0.00     0.298 C 
BRANCH  12  13
ATOM     13  C   UNL A   1      28.735  30.478  22.508  1.00  0.00     0.009 A 
ATOM     14  C   UNL A   1      28.321  30.826  21.221  1.00  0.00     0.029 A 
ATOM     15  C   UNL A   1      28.819  31.488  23.474  1.00  0.00     0.029 A 
ATOM     16  C   UNL A   1      28.061  32.160  20.944  1.00  0.00     0.111 A 
ATOM     17  C   UNL A   1      28.535  32.793  23.099  1.00  0.00     0.111 A 
ATOM     18  N   UNL A   1      28.179  33.156  21.848  1.00  0.00    -0.265 NA
ENDBRANCH  12  13
ENDBRANCH   9  12
ENDBRANCH   5   9
ENDBRANCH   3   5
ENDBRANCH   2   3
ENDBRANCH   1   2
BRANCH   1  19
ATOM     19  C   UNL A   1      31.849  30.968  26.414  1.00  0.00     0.275 C 
BRANCH  19  20
ATOM     20  O   UNL A   1      32.977  30.667  27.259  1.00  0.00    -0.458 OA
BRANCH  20  21
ATOM     21  C   UNL A   1      33.774  31.719  27.572  1.00  0.00     0.338 C 
ATOM     22  O   UNL A   1      33.462  32.897  27.560  1.00  0.00    -0.246 OA
BRANCH  21  23
ATOM     23  C   UNL A   1      35.058  31.230  28.107  1.00  0.00     0.060 A 
ATOM     24  C   UNL A   1      35.109  29.916  28.582  1.00  0.00     0.016 A 
ATOM     25  C   UNL A   1      36.181  32.052  28.193  1.00  0.00     0.016 A 
ATOM     26  C   UNL A   1      36.283  29.406  29.124  1.00  0.00     0.010 A 
ATOM     27  C   UNL A   1      37.361  31.544  28.751  1.00  0.00     0.010 A 
ATOM     28  C   UNL A   1      37.417  30.218  29.218  1.00  0.00    -0.014 A 
BRANCH  28  29
ATOM     29  C   UNL A   1      38.641  29.686  29.862  1.00  0.00     0.031 A 
ATOM     30  C   UNL A   1      39.045  30.197  31.214  1.00  0.00     0.074 A 
ATOM     31  C   UNL A   1      39.358  28.727  29.249  1.00  0.00     0.049 A 
ATOM     32  N   UNL A   1      40.122  29.939  31.908  1.00  0.00    -0.248 NA
ATOM     33  C   UNL A   1      38.109  31.123  31.868  1.00  0.00     0.031 C 
ATOM     34  C   UNL A   1      39.015  28.108  27.968  1.00  0.00     0.029 A 
ATOM     35  N   UNL A   1      40.524  28.107  29.618  1.00  0.00    -0.354 N 
ATOM     36  C   UNL A   1      40.005  30.686  33.076  1.00  0.00     0.074 A 
ATOM     37  C   UNL A   1      38.760  31.419  32.983  1.00  0.00     0.031 C 
ATOM     38  C   UNL A   1      39.956  27.203  27.653  1.00  0.00     0.029 A 
ATOM     39  C   UNL A   1      40.995  27.217  28.680  1.00  0.00     0.049 A 
ATOM     40  H   UNL A   1      40.981  28.282  30.472  1.00  0.00     0.167 HD
ATOM     41  C   UNL A   1      40.863  30.748  34.125  1.00  0.00     0.034 A 
ATOM     42  C   UNL A   1      42.150  26.526  28.636  1.00  0.00     0.034 A 
ATOM     43  C   UNL A   1      42.100  30.007  34.193  1.00  0.00     0.049 A 
ATOM     44  C   UNL A   1      43.130  26.681  29.772  1.00  0.00     0.074 A 
ATOM     45  C   UNL A   1      43.043  29.992  35.205  1.00  0.00     0.029 A 
ATOM     46  N   UNL A   1      42.571  29.155  33.201  1.00  0.00    -0.354 N 
ATOM     47  N   UNL A   1      43.026  27.412  30.859  1.00  0.00    -0.248 NA
ATOM     48  C   UNL A   1      44.384  25.923  29.675  1.00  0.00     0.031 C 
ATOM     49  C   UNL A   1      44.111  29.183  34.798  1.00  0.00     0.029 A 
ATOM     50  C   UNL A   1      43.804  28.636  33.563  1.00  0.00     0.049 A 
ATOM     51  H   UNL A   1      42.096  28.949  32.363  1.00  0.00     0.167 HD
ATOM     52  C   UNL A   1      44.191  27.183  31.584  1.00  0.00     0.074 A 
ATOM     53  C   UNL A   1      44.977  26.236  30.818  1.00  0.00     0.031 C 
ATOM     54  C   UNL A   1      44.578  27.704  32.776  1.00  0.00     0.034 A 
BRANCH  41  55
ATOM     55  C   UNL A   1      40.518  31.702  35.243  1.00  0.00     0.023 A 
ATOM     56  C   UNL A   1      39.527  31.407  36.195  1.00  0.00     0.031 A 
ATOM     57  C   UNL A   1      41.171  32.944  35.334  1.00  0.00     0.131 A 
ATOM     58  C   UNL A   1      39.169  32.369  37.152  1.00  0.00     0.055 A 
ATOM     59  C   UNL A   1      40.863  33.866  36.335  1.00  0.00     0.041 A 
ATOM     60  F   UNL A   1      42.110  33.289  34.440  1.00  0.00    -0.206 F 
ATOM     61  C   UNL A   1      39.847  33.587  37.244  1.00  0.00     0.022 A 
BRANCH  58  62
ATOM     62  S   UNL A   1      37.714  32.062  38.191  1.00  0.00     0.124 S 
ATOM     63  O   UNL A   1      37.363  30.696  37.811  1.00  0.00    -0.237 OA
ATOM     64  O   UNL A   1      38.245  32.236  39.538  1.00  0.00    -0.237 OA
ATOM     65  O   UNL A   1      36.763  33.084  37.759  1.00  0.00    -0.744 OA
ENDBRANCH  58  62
ENDBRANCH  41  55
BRANCH  42  66
ATOM     66  C   UNL A   1      42.480  25.681  27.453  1.00  0.00     0.023 A 
ATOM     67  C   UNL A   1      42.078  24.338  27.379  1.00  0.00     0.031 A 
ATOM     68  C   UNL A   1      43.247  26.199  26.392  1.00  0.00     0.131 A 
ATOM     69  C   UNL A   1      42.476  23.549  26.288  1.00  0.00     0.055 A 
ATOM     70  C   UNL A   1      43.597  25.424  25.285  1.00  0.00     0.041 A 
ATOM     71  F   UNL A   1      43.661  27.476  26.415  1.00  0.00    -0.206 F 
ATOM     72  C   UNL A   1      43.220  24.086  25.236  1.00  0.00     0.022 A 
BRANCH  69  73
ATOM     73  S   UNL A   1      42.075  21.780  26.302  1.00  0.00     0.124 S 
ATOM     74  O   UNL A   1      42.949  21.267  25.252  1.00  0.00    -0.237 OA
ATOM     75  O   UNL A   1      42.420  21.401  27.668  1.00  0.00    -0.237 OA
ATOM     76  O   UNL A   1      40.647  21.752  25.992  1.00  0.00    -0.744 OA
ENDBRANCH  69  73
ENDBRANCH  42  66
BRANCH  54  77
ATOM     77  C   UNL A   1      45.895  27.223  33.334  1.00  0.00     0.023 A 
ATOM     78  C   UNL A   1      45.993  26.038  34.082  1.00  0.00     0.031 A 
ATOM     79  C   UNL A   1      47.066  27.972  33.120  1.00  0.00     0.131 A 
ATOM     80  C   UNL A   1      47.226  25.659  34.631  1.00  0.00     0.055 A 
ATOM     81  C   UNL A   1      48.300  27.563  33.624  1.00  0.00     0.041 A 
ATOM     82  F   UNL A   1      47.027  29.113  32.414  1.00  0.00    -0.206 F 
ATOM     83  C   UNL A   1      48.384  26.406  34.394  1.00  0.00     0.022 A 
BRANCH  80  84
ATOM     84  S   UNL A   1      47.287  24.215  35.728  1.00  0.00     0.124 S 
ATOM     85  O   UNL A   1      48.031  23.253  34.921  1.00  0.00    -0.237 OA
ATOM     86  O   UNL A   1      47.984  24.740  36.898  1.00  0.00    -0.237 OA
ATOM     87  O   UNL A   1      45.879  23.888  35.943  1.00  0.00    -0.744 OA
ENDBRANCH  80  84
ENDBRANCH  54  77
ENDBRANCH  28  29
ENDBRANCH  21  23
ENDBRANCH  20  21
ENDBRANCH  19  20
ENDBRANCH   1  19
TORSDOF 18
ENDMDL
MODEL 2
REMARK VINA RESULT:     -10.4      1.814      8.097
REMARK SMILES CC(C)[C@H]([NH2+]Cc1ccncc1)C(=O)OCCOC(=O)c1ccc(-c2c3nc(c(-c4cc(S(=O)(=O)[O-])ccc4F)c4ccc([nH]4)c(-c4cc(S(=O)(=O)[O-])ccc4F)c4nc(c(-c5cc(S(=O)(=O)[O-])ccc5F)c5ccc2[nH]5)C=C4)C=C3)cc1
REMARK SMILES IDX 16 1 15 2 13 3 14 4 4 5 2 6 1 7 3 8 5 9 6 12 7 13 8 14 12 15
REMARK SMILES IDX 9 16 11 17 10 18 17 19 18 20 19 21 20 22 21 23 22 24 83 25
REMARK SMILES IDX 23 26 82 27 24 28 25 29 26 30 76 31 27 32 81 33 75 34 77 35
REMARK SMILES IDX 28 36 80 37 74 38 73 39 29 41 61 42 41 43 60 44 42 45 45 46
REMARK SMILES IDX 59 47 78 48 43 49 44 50 58 52 79 53 46 54 30 55 31 56 39 57
REMARK SMILES IDX 32 58 38 59 40 60 37 61 33 62 34 63 35 64 36 65 62 66 63 67
REMARK SMILES IDX 71 68 64 69 70 70 72 71 69 72 65 73 66 74 67 75 68 76 47 77
REMARK SMILES IDX 48 78 56 79 49 80 55 81 57 82 54 83 50 84 51 85 52 86 53 87
REMARK H PARENT 5 10 5 11 77 40 45 51
REMARK Flexibility Score: inf
ROOT
ATOM      1  C   UNL A   1      31.563  28.078  26.253  1.00  0.00     0.274 C 
ENDROOT
BRANCH   1   2
ATOM      2  O   UNL A   1      32.708  27.389  25.717  1.00  0.00    -0.458 OA
BRANCH   2   3
ATOM      3  C   UNL A   1      32.507  26.670  24.584  1.00  0.00     0.365 C 
ATOM      4  O   UNL A   1      33.252  26.715  23.611  1.00  0.00    -0.245 OA
BRANCH   3   5
ATOM      5  C   UNL A   1      31.254  25.769  24.632  1.00  0.00     0.296 C 
BRANCH   5   6
ATOM      6  C   UNL A   1      31.548  24.282  24.944  1.00  0.00     0.053 C 
ATOM      7  C   UNL A   1      30.590  23.716  26.003  1.00  0.00     0.014 C 
ATOM      8  C   UNL A   1      31.408  23.436  23.668  1.00  0.00     0.014 C 
ENDBRANCH   5   6
BRANCH   5   9
ATOM      9  N   UNL A   1      30.276  26.005  23.535  1.00  0.00    -0.331 N 
ATOM     10  H   UNL A   1      30.009  25.096  23.158  1.00  0.00     0.347 HD
ATOM     11  H   UNL A   1      30.758  26.617  22.875  1.00  0.00     0.347 HD
BRANCH   9  12
ATOM     12  C   UNL A   1      29.053  26.713  23.887  1.00  0.00     0.298 C 
BRANCH  12  13
ATOM     13  C   UNL A   1      28.976  28.048  23.185  1.00  0.00     0.009 A 
ATOM     14  C   UNL A   1      30.104  28.603  22.580  1.00  0.00     0.029 A 
ATOM     15  C   UNL A   1      27.771  28.757  23.120  1.00  0.00     0.029 A 
ATOM     16  C   UNL A   1      29.994  29.852  21.988  1.00  0.00     0.111 A 
ATOM     17  C   UNL A   1      27.762  29.999  22.503  1.00  0.00     0.111 A 
ATOM     18  N   UNL A   1      28.854  30.574  21.954  1.00  0.00    -0.265 NA
ENDBRANCH  12  13
ENDBRANCH   9  12
ENDBRANCH   5   9
ENDBRANCH   3   5
ENDBRANCH   2   3
ENDBRANCH   1   2
BRANCH   1  19
ATOM     19  C   UNL A   1      31.619  29.578  25.932  1.00  0.00     0.275 C 
BRANCH  19  20
ATOM     20  O   UNL A   1      32.968  30.084  25.942  1.00  0.00    -0.458 OA
BRANCH  20  21
ATOM     21  C   UNL A   1      33.208  31.101  26.806  1.00  0.00     0.338 C 
ATOM     22  O   UNL A   1      32.446  32.010  27.090  1.00  0.00    -0.246 OA
BRANCH  21  23
ATOM     23  C   UNL A   1      34.484  30.870  27.507  1.00  0.00     0.060 A 
ATOM     24  C   UNL A   1      34.765  29.570  27.939  1.00  0.00     0.016 A 
ATOM     25  C   UNL A   1      35.370  31.910  27.787  1.00  0.00     0.016 A 
ATOM     26  C   UNL A   1      35.939  29.294  28.631  1.00  0.00     0.010 A 
ATOM     27  C   UNL A   1      36.547  31.636  28.495  1.00  0.00     0.010 A 
ATOM     28  C   UNL A   1      36.836  30.326  28.919  1.00  0.00    -0.014 A 
BRANCH  28  29
ATOM     29  C   UNL A   1      38.049  30.032  29.719  1.00  0.00     0.031 A 
ATOM     30  C   UNL A   1      39.092  29.106  29.165  1.00  0.00     0.074 A 
ATOM     31  C   UNL A   1      38.222  30.622  30.915  1.00  0.00     0.049 A 
ATOM     32  N   UNL A   1      40.172  28.641  29.734  1.00  0.00    -0.248 NA
ATOM     33  C   UNL A   1      38.885  28.642  27.785  1.00  0.00     0.031 C 
ATOM     34  C   UNL A   1      37.307  31.594  31.515  1.00  0.00     0.029 A 
ATOM     35  N   UNL A   1      39.224  30.491  31.842  1.00  0.00    -0.354 N 
ATOM     36  C   UNL A   1      40.770  27.813  28.790  1.00  0.00     0.074 A 
ATOM     37  C   UNL A   1      39.917  27.828  27.619  1.00  0.00     0.031 C 
ATOM     38  C   UNL A   1      37.785  31.964  32.714  1.00  0.00     0.029 A 
ATOM     39  C   UNL A   1      39.009  31.215  32.992  1.00  0.00     0.049 A 
ATOM     40  H   UNL A   1      40.021  29.931  31.699  1.00  0.00     0.167 HD
ATOM     41  C   UNL A   1      41.924  27.109  28.896  1.00  0.00     0.034 A 
ATOM     42  C   UNL A   1      39.698  31.240  34.149  1.00  0.00     0.034 A 
ATOM     43  C   UNL A   1      42.756  27.111  30.076  1.00  0.00     0.049 A 
ATOM     44  C   UNL A   1      40.929  30.378  34.277  1.00  0.00     0.074 A 
ATOM     45  C   UNL A   1      43.945  26.437  30.295  1.00  0.00     0.029 A 
ATOM     46  N   UNL A   1      42.480  27.815  31.242  1.00  0.00    -0.354 N 
ATOM     47  N   UNL A   1      41.471  29.574  33.390  1.00  0.00    -0.248 NA
ATOM     48  C   UNL A   1      41.639  30.422  35.562  1.00  0.00     0.031 C 
ATOM     49  C   UNL A   1      44.353  26.683  31.611  1.00  0.00     0.029 A 
ATOM     50  C   UNL A   1      43.458  27.567  32.193  1.00  0.00     0.049 A 
ATOM     51  H   UNL A   1      41.703  28.405  31.373  1.00  0.00     0.167 HD
ATOM     52  C   UNL A   1      42.597  29.035  34.003  1.00  0.00     0.074 A 
ATOM     53  C   UNL A   1      42.665  29.615  35.329  1.00  0.00     0.031 C 
ATOM     54  C   UNL A   1      43.498  28.145  33.516  1.00  0.00     0.034 A 
BRANCH  41  55
ATOM     55  C   UNL A   1      42.307  26.229  27.731  1.00  0.00     0.023 A 
ATOM     56  C   UNL A   1      41.839  24.909  27.610  1.00  0.00     0.031 A 
ATOM     57  C   UNL A   1      43.185  26.711  26.745  1.00  0.00     0.131 A 
ATOM     58  C   UNL A   1      42.305  24.096  26.564  1.00  0.00     0.055 A 
ATOM     59  C   UNL A   1      43.585  25.921  25.666  1.00  0.00     0.041 A 
ATOM     60  F   UNL A   1      43.682  27.955  26.821  1.00  0.00    -0.206 F 
ATOM     61  C   UNL A   1      43.157  24.601  25.579  1.00  0.00     0.022 A 
BRANCH  58  62
ATOM     62  S   UNL A   1      41.892  22.330  26.586  1.00  0.00     0.124 S 
ATOM     63  O   UNL A   1      42.571  21.883  27.800  1.00  0.00    -0.237 OA
ATOM     64  O   UNL A   1      40.434  22.347  26.636  1.00  0.00    -0.237 OA
ATOM     65  O   UNL A   1      42.467  21.828  25.340  1.00  0.00    -0.744 OA
ENDBRANCH  58  62
ENDBRANCH  41  55
BRANCH  42  66
ATOM     66  C   UNL A   1      39.209  32.050  35.301  1.00  0.00     0.023 A 
ATOM     67  C   UNL A   1      39.670  33.357  35.524  1.00  0.00     0.031 A 
ATOM     68  C   UNL A   1      38.300  31.504  36.228  1.00  0.00     0.131 A 
ATOM     69  C   UNL A   1      39.251  34.061  36.665  1.00  0.00     0.055 A 
ATOM     70  C   UNL A   1      37.847  32.227  37.333  1.00  0.00     0.041 A 
ATOM     71  F   UNL A   1      37.831  30.257  36.065  1.00  0.00    -0.206 F 
ATOM     72  C   UNL A   1      38.334  33.509  37.562  1.00  0.00     0.022 A 
BRANCH  69  73
ATOM     73  S   UNL A   1      39.988  35.683  37.005  1.00  0.00     0.124 S 
ATOM     74  O   UNL A   1      41.395  35.341  37.179  1.00  0.00    -0.237 OA
ATOM     75  O   UNL A   1      39.652  36.428  35.796  1.00  0.00    -0.237 OA
ATOM     76  O   UNL A   1      39.299  36.122  38.217  1.00  0.00    -0.744 OA
ENDBRANCH  69  73
ENDBRANCH  42  66
BRANCH  54  77
ATOM     77  C   UNL A   1      44.651  27.780  34.418  1.00  0.00     0.023 A 
ATOM     78  C   UNL A   1      44.632  26.620  35.210  1.00  0.00     0.031 A 
ATOM     79  C   UNL A   1      45.781  28.615  34.489  1.00  0.00     0.131 A 
ATOM     80  C   UNL A   1      45.700  26.350  36.078  1.00  0.00     0.055 A 
ATOM     81  C   UNL A   1      46.864  28.313  35.315  1.00  0.00     0.041 A 
ATOM     82  F   UNL A   1      45.849  29.736  33.754  1.00  0.00    -0.206 F 
ATOM     83  C   UNL A   1      46.823  27.181  36.124  1.00  0.00     0.022 A 
BRANCH  80  84
ATOM     84  S   UNL A   1      45.571  24.936  37.208  1.00  0.00     0.124 S 
ATOM     85  O   UNL A   1      44.131  24.861  37.437  1.00  0.00    -0.237 OA
ATOM     86  O   UNL A   1      46.149  23.852  36.420  1.00  0.00    -0.237 OA
ATOM     87  O   UNL A   1      46.362  25.349  38.365  1.00  0.00    -0.744 OA
ENDBRANCH  80  84
ENDBRANCH  54  77
ENDBRANCH  28  29
ENDBRANCH  21  23
ENDBRANCH  20  21
ENDBRANCH  19  20
ENDBRANCH   1  19
TORSDOF 18
ENDMDL
MODEL 3
REMARK VINA RESULT:     -10.4      2.665      8.843
REMARK SMILES CC(C)[C@H]([NH2+]Cc1ccncc1)C(=O)OCCOC(=O)c1ccc(-c2c3nc(c(-c4cc(S(=O)(=O)[O-])ccc4F)c4ccc([nH]4)c(-c4cc(S(=O)(=O)[O-])ccc4F)c4nc(c(-c5cc(S(=O)(=O)[O-])ccc5F)c5ccc2[nH]5)C=C4)C=C3)cc1
REMARK SMILES IDX 16 1 15 2 13 3 14 4 4 5 2 6 1 7 3 8 5 9 6 12 7 13 8 14 12 15
REMARK SMILES IDX 9 16 11 17 10 18 17 19 18 20 19 21 20 22 21 23 22 24 83 25
REMARK SMILES IDX 23 26 82 27 24 28 25 29 26 30 76 31 27 32 81 33 75 34 77 35
REMARK SMILES IDX 28 36 80 37 74 38 73 39 29 41 61 42 41 43 60 44 42 45 45 46
REMARK SMILES IDX 59 47 78 48 43 49 44 50 58 52 79 53 46 54 30 55 31 56 39 57
REMARK SMILES IDX 32 58 38 59 40 60 37 61 33 62 34 63 35 64 36 65 62 66 63 67
REMARK SMILES IDX 71 68 64 69 70 70 72 71 69 72 65 73 66 74 67 75 68 76 47 77
REMARK SMILES IDX 48 78 56 79 49 80 55 81 57 82 54 83 50 84 51 85 52 86 53 87
REMARK H PARENT 5 10 5 11 77 40 45 51
REMARK Flexibility Score: inf
ROOT
ATOM      1  C   UNL A   1      31.293  28.766  24.898  1.00  0.00     0.274 C 
ENDROOT
BRANCH   1   2
ATOM      2  O   UNL A   1      32.254  27.778  25.315  1.00  0.00    -0.458 OA
BRANCH   2   3
ATOM      3  C   UNL A   1      31.781  26.759  26.076  1.00  0.00     0.365 C 
ATOM      4  O   UNL A   1      31.076  26.922  27.065  1.00  0.00    -0.245 OA
BRANCH   3   5
ATOM      5  C   UNL A   1      32.200  25.360  25.574  1.00  0.00     0.296 C 
BRANCH   5   6
ATOM      6  C   UNL A   1      31.052  24.322  25.541  1.00  0.00     0.053 C 
ATOM      7  C   UNL A   1      31.026  23.534  24.223  1.00  0.00     0.014 C 
ATOM      8  C   UNL A   1      31.213  23.321  26.697  1.00  0.00     0.014 C 
ENDBRANCH   5   6
BRANCH   5   9
ATOM      9  N   UNL A   1      33.490  24.862  26.125  1.00  0.00    -0.331 N 
ATOM     10  H   UNL A   1      33.338  23.909  26.454  1.00  0.00     0.347 HD
ATOM     11  H   UNL A   1      33.745  25.531  26.853  1.00  0.00     0.347 HD
BRANCH   9  12
ATOM     12  C   UNL A   1      34.627  24.838  25.216  1.00  0.00     0.298 C 
BRANCH  12  13
ATOM     13  C   UNL A   1      35.264  23.470  25.177  1.00  0.00     0.009 A 
ATOM     14  C   UNL A   1      34.556  22.340  25.592  1.00  0.00     0.029 A 
ATOM     15  C   UNL A   1      36.576  23.300  24.721  1.00  0.00     0.029 A 
ATOM     16  C   UNL A   1      35.199  21.112  25.582  1.00  0.00     0.111 A 
ATOM     17  C   UNL A   1      37.131  22.029  24.746  1.00  0.00     0.111 A 
ATOM     18  N   UNL A   1      36.478  20.932  25.189  1.00  0.00    -0.265 NA
ENDBRANCH  12  13
ENDBRANCH   9  12
ENDBRANCH   5   9
ENDBRANCH   3   5
ENDBRANCH   2   3
ENDBRANCH   1   2
BRANCH   1  19
ATOM     19  C   UNL A   1      31.608  30.138  25.509  1.00  0.00     0.275 C 
BRANCH  19  20
ATOM     20  O   UNL A   1      32.946  30.201  26.038  1.00  0.00    -0.458 OA
BRANCH  20  21
ATOM     21  C   UNL A   1      33.181  31.197  26.927  1.00  0.00     0.338 C 
ATOM     22  O   UNL A   1      32.416  32.096  27.232  1.00  0.00    -0.246 OA
BRANCH  21  23
ATOM     23  C   UNL A   1      34.456  30.953  27.626  1.00  0.00     0.060 A 
ATOM     24  C   UNL A   1      34.718  29.654  28.071  1.00  0.00     0.016 A 
ATOM     25  C   UNL A   1      35.361  31.982  27.889  1.00  0.00     0.016 A 
ATOM     26  C   UNL A   1      35.890  29.366  28.762  1.00  0.00     0.010 A 
ATOM     27  C   UNL A   1      36.536  31.695  28.595  1.00  0.00     0.010 A 
ATOM     28  C   UNL A   1      36.806  30.386  29.033  1.00  0.00    -0.014 A 
BRANCH  28  29
ATOM     29  C   UNL A   1      38.017  30.081  29.831  1.00  0.00     0.031 A 
ATOM     30  C   UNL A   1      39.051  29.146  29.275  1.00  0.00     0.074 A 
ATOM     31  C   UNL A   1      38.197  30.669  31.028  1.00  0.00     0.049 A 
ATOM     32  N   UNL A   1      40.129  28.672  29.842  1.00  0.00    -0.248 NA
ATOM     33  C   UNL A   1      38.839  28.686  27.895  1.00  0.00     0.031 C 
ATOM     34  C   UNL A   1      37.290  31.648  31.630  1.00  0.00     0.029 A 
ATOM     35  N   UNL A   1      39.198  30.528  31.953  1.00  0.00    -0.354 N 
ATOM     36  C   UNL A   1      40.718  27.840  28.896  1.00  0.00     0.074 A 
ATOM     37  C   UNL A   1      39.864  27.863  27.727  1.00  0.00     0.031 C 
ATOM     38  C   UNL A   1      37.773  32.012  32.829  1.00  0.00     0.029 A 
ATOM     39  C   UNL A   1      38.991  31.253  33.104  1.00  0.00     0.049 A 
ATOM     40  H   UNL A   1      39.991  29.962  31.809  1.00  0.00     0.167 HD
ATOM     41  C   UNL A   1      41.866  27.126  29.001  1.00  0.00     0.034 A 
ATOM     42  C   UNL A   1      39.682  31.271  34.261  1.00  0.00     0.034 A 
ATOM     43  C   UNL A   1      42.700  27.120  30.179  1.00  0.00     0.049 A 
ATOM     44  C   UNL A   1      40.906  30.399  34.386  1.00  0.00     0.074 A 
ATOM     45  C   UNL A   1      43.884  26.436  30.396  1.00  0.00     0.029 A 
ATOM     46  N   UNL A   1      42.432  27.825  31.346  1.00  0.00    -0.354 N 
ATOM     47  N   UNL A   1      41.440  29.591  33.498  1.00  0.00    -0.248 NA
ATOM     48  C   UNL A   1      41.618  30.435  35.670  1.00  0.00     0.031 C 
ATOM     49  C   UNL A   1      44.295  26.677  31.712  1.00  0.00     0.029 A 
ATOM     50  C   UNL A   1      43.408  27.568  32.296  1.00  0.00     0.049 A 
ATOM     51  H   UNL A   1      41.660  28.422  31.479  1.00  0.00     0.167 HD
ATOM     52  C   UNL A   1      42.563  29.042  34.108  1.00  0.00     0.074 A 
ATOM     53  C   UNL A   1      42.637  29.620  35.435  1.00  0.00     0.031 C 
ATOM     54  C   UNL A   1      43.455  28.144  33.619  1.00  0.00     0.034 A 
BRANCH  41  55
ATOM     55  C   UNL A   1      42.240  26.244  27.834  1.00  0.00     0.023 A 
ATOM     56  C   UNL A   1      41.890  24.884  27.787  1.00  0.00     0.031 A 
ATOM     57  C   UNL A   1      42.992  26.769  26.768  1.00  0.00     0.131 A 
ATOM     58  C   UNL A   1      42.349  24.081  26.731  1.00  0.00     0.055 A 
ATOM     59  C   UNL A   1      43.381  25.982  25.684  1.00  0.00     0.041 A 
ATOM     60  F   UNL A   1      43.374  28.055  26.771  1.00  0.00    -0.206 F 
ATOM     61  C   UNL A   1      43.072  24.625  25.668  1.00  0.00     0.022 A 
BRANCH  58  62
ATOM     62  S   UNL A   1      42.105  22.286  26.835  1.00  0.00     0.124 S 
ATOM     63  O   UNL A   1      43.406  21.786  26.394  1.00  0.00    -0.237 OA
ATOM     64  O   UNL A   1      41.788  22.091  28.245  1.00  0.00    -0.237 OA
ATOM     65  O   UNL A   1      41.004  22.036  25.908  1.00  0.00    -0.744 OA
ENDBRANCH  58  62
ENDBRANCH  41  55
BRANCH  42  66
ATOM     66  C   UNL A   1      39.202  32.083  35.414  1.00  0.00     0.023 A 
ATOM     67  C   UNL A   1      39.660  33.393  35.627  1.00  0.00     0.031 A 
ATOM     68  C   UNL A   1      38.304  31.539  36.352  1.00  0.00     0.131 A 
ATOM     69  C   UNL A   1      39.250  34.100  36.769  1.00  0.00     0.055 A 
ATOM     70  C   UNL A   1      37.859  32.264  37.458  1.00  0.00     0.041 A 
ATOM     71  F   UNL A   1      37.838  30.289  36.198  1.00  0.00    -0.206 F 
ATOM     72  C   UNL A   1      38.343  33.549  37.677  1.00  0.00     0.022 A 
BRANCH  69  73
ATOM     73  S   UNL A   1      39.984  35.726  37.095  1.00  0.00     0.124 S 
ATOM     74  O   UNL A   1      39.654  36.453  35.874  1.00  0.00    -0.237 OA
ATOM     75  O   UNL A   1      39.276  36.142  38.302  1.00  0.00    -0.237 OA
ATOM     76  O   UNL A   1      41.403  35.428  37.279  1.00  0.00    -0.744 OA
ENDBRANCH  69  73
ENDBRANCH  42  66
BRANCH  54  77
ATOM     77  C   UNL A   1      44.606  27.769  34.519  1.00  0.00     0.023 A 
ATOM     78  C   UNL A   1      44.533  26.672  35.394  1.00  0.00     0.031 A 
ATOM     79  C   UNL A   1      45.789  28.530  34.504  1.00  0.00     0.131 A 
ATOM     80  C   UNL A   1      45.605  26.394  36.255  1.00  0.00     0.055 A 
ATOM     81  C   UNL A   1      46.872  28.217  35.325  1.00  0.00     0.041 A 
ATOM     82  F   UNL A   1      45.910  29.589  33.688  1.00  0.00    -0.206 F 
ATOM     83  C   UNL A   1      46.780  27.150  36.215  1.00  0.00     0.022 A 
BRANCH  80  84
ATOM     84  S   UNL A   1      45.416  25.076  37.487  1.00  0.00     0.124 S 
ATOM     85  O   UNL A   1      46.767  24.973  38.031  1.00  0.00    -0.237 OA
ATOM     86  O   UNL A   1      44.408  25.629  38.386  1.00  0.00    -0.237 OA
ATOM     87  O   UNL A   1      44.976  23.928  36.697  1.00  0.00    -0.744 OA
ENDBRANCH  80  84
ENDBRANCH  54  77
ENDBRANCH  28  29
ENDBRANCH  21  23
ENDBRANCH  20  21
ENDBRANCH  19  20
ENDBRANCH   1  19
TORSDOF 18
ENDMDL
