MODEL 1
REMARK VINA RESULT:     -10.6      0.000      0.000
REMARK SMILES CC(C)[C@H](NC(=O)OCc1ccccc1)C(=O)NCC(=O)OCCOC(=O)c1ccc(-c2c3nc(c(-c4cc(S(=O)(=O)[O-])ccc4F)c4ccc([nH]4)c(-c4cc(S(=O)(=O)[O-])ccc4F)c4nc(c(-c5cc(S(=O)(=O)[O-])ccc5F)c5ccc2[nH]5)C=C4)C=C3)cc1
REMARK SMILES IDX 22 1 20 2 21 3 19 4 18 5 16 6 17 7 4 9 2 10 1 11 3 12 5 13
REMARK SMILES IDX 6 14 7 16 8 17 9 18 10 19 11 20 15 21 12 22 14 23 13 24
REMARK SMILES IDX 23 25 24 26 25 27 26 28 27 29 28 30 29 31 90 32 30 33 89 34
REMARK SMILES IDX 31 35 32 36 33 37 83 38 34 39 88 40 82 41 84 42 35 43 87 44
REMARK SMILES IDX 81 45 80 46 36 48 68 49 48 50 67 51 49 52 52 53 66 54 85 55
REMARK SMILES IDX 50 56 51 57 65 59 86 60 53 61 37 62 38 63 46 64 39 65 45 66
REMARK SMILES IDX 47 67 44 68 40 69 41 70 42 71 43 72 69 73 70 74 78 75 71 76
REMARK SMILES IDX 77 77 79 78 76 79 72 80 73 81 74 82 75 83 54 84 55 85 63 86
REMARK SMILES IDX 56 87 62 88 64 89 61 90 57 91 58 92 59 93 60 94
REMARK H PARENT 18 8 5 15 84 47 52 58
REMARK Flexibility Score: inf
ROOT
ATOM      1  O   UNL A   1      33.621  28.315  25.600  1.00  0.00    -0.461 OA
ENDROOT
BRANCH   1   2
ATOM      2  C   UNL A   1      33.097  27.171  26.113  1.00  0.00     0.325 C 
ATOM      3  O   UNL A   1      32.091  27.112  26.810  1.00  0.00    -0.250 OA
BRANCH   2   4
ATOM      4  C   UNL A   1      33.861  25.929  25.681  1.00  0.00     0.238 C 
BRANCH   4   5
ATOM      5  N   UNL A   1      34.105  25.696  24.263  1.00  0.00    -0.343 N 
ATOM      6  C   UNL A   1      34.383  24.497  23.652  1.00  0.00     0.243 C 
ATOM      7  O   UNL A   1      34.084  24.339  22.469  1.00  0.00    -0.273 OA
ATOM      8  H   UNL A   1      34.066  26.486  23.677  1.00  0.00     0.164 HD
BRANCH   6   9
ATOM      9  C   UNL A   1      35.007  23.359  24.490  1.00  0.00     0.177 C 
BRANCH   9  10
ATOM     10  C   UNL A   1      36.569  23.302  24.499  1.00  0.00     0.015 C 
ATOM     11  C   UNL A   1      37.292  23.771  25.770  1.00  0.00     0.010 C 
ATOM     12  C   UNL A   1      37.039  21.874  24.197  1.00  0.00     0.010 C 
ENDBRANCH   9  10
BRANCH   9  13
ATOM     13  N   UNL A   1      34.375  22.132  23.994  1.00  0.00    -0.309 N 
ATOM     14  C   UNL A   1      33.479  21.316  24.588  1.00  0.00     0.408 C 
ATOM     15  H   UNL A   1      34.646  21.862  23.087  1.00  0.00     0.167 HD
ATOM     16  O   UNL A   1      33.225  20.228  24.108  1.00  0.00    -0.225 OA
BRANCH  14  17
ATOM     17  O   UNL A   1      32.876  21.889  25.653  1.00  0.00    -0.445 OA
BRANCH  17  18
ATOM     18  C   UNL A   1      31.455  21.989  25.528  1.00  0.00     0.270 C 
BRANCH  18  19
ATOM     19  C   UNL A   1      30.949  23.361  25.114  1.00  0.00    -0.011 A 
ATOM     20  C   UNL A   1      30.433  24.210  26.104  1.00  0.00     0.007 A 
ATOM     21  C   UNL A   1      30.872  23.783  23.777  1.00  0.00     0.007 A 
ATOM     22  C   UNL A   1      29.860  25.439  25.766  1.00  0.00     0.000 A 
ATOM     23  C   UNL A   1      30.290  25.005  23.437  1.00  0.00     0.000 A 
ATOM     24  C   UNL A   1      29.782  25.833  24.433  1.00  0.00     0.000 A 
ENDBRANCH  18  19
ENDBRANCH  17  18
ENDBRANCH  14  17
ENDBRANCH   9  13
ENDBRANCH   6   9
ENDBRANCH   4   5
ENDBRANCH   2   4
ENDBRANCH   1   2
BRANCH   1  25
ATOM     25  C   UNL A   1      32.746  29.036  24.717  1.00  0.00     0.274 C 
BRANCH  25  26
ATOM     26  C   UNL A   1      32.098  30.222  25.444  1.00  0.00     0.275 C 
BRANCH  26  27
ATOM     27  O   UNL A   1      32.471  30.302  26.837  1.00  0.00    -0.458 OA
BRANCH  27  28
ATOM     28  C   UNL A   1      33.129  31.430  27.194  1.00  0.00     0.338 C 
ATOM     29  O   UNL A   1      32.678  32.565  27.204  1.00  0.00    -0.246 OA
BRANCH  28  30
ATOM     30  C   UNL A   1      34.468  31.118  27.721  1.00  0.00     0.060 A 
ATOM     31  C   UNL A   1      34.732  29.809  28.119  1.00  0.00     0.016 A 
ATOM     32  C   UNL A   1      35.397  32.123  27.979  1.00  0.00     0.016 A 
ATOM     33  C   UNL A   1      35.860  29.506  28.865  1.00  0.00     0.010 A 
ATOM     34  C   UNL A   1      36.582  31.801  28.656  1.00  0.00     0.010 A 
ATOM     35  C   UNL A   1      36.808  30.494  29.130  1.00  0.00    -0.014 A 
BRANCH  35  36
ATOM     36  C   UNL A   1      38.010  30.143  29.927  1.00  0.00     0.031 A 
ATOM     37  C   UNL A   1      39.052  29.225  29.352  1.00  0.00     0.074 A 
ATOM     38  C   UNL A   1      38.191  30.699  31.143  1.00  0.00     0.049 A 
ATOM     39  N   UNL A   1      40.108  28.710  29.926  1.00  0.00    -0.248 NA
ATOM     40  C   UNL A   1      38.878  28.831  27.945  1.00  0.00     0.031 C 
ATOM     41  C   UNL A   1      37.288  31.667  31.772  1.00  0.00     0.029 A 
ATOM     42  N   UNL A   1      39.198  30.546  32.061  1.00  0.00    -0.354 N 
ATOM     43  C   UNL A   1      40.712  27.909  28.962  1.00  0.00     0.074 A 
ATOM     44  C   UNL A   1      39.885  27.985  27.776  1.00  0.00     0.031 C 
ATOM     45  C   UNL A   1      37.797  32.041  32.956  1.00  0.00     0.029 A 
ATOM     46  C   UNL A   1      39.010  31.275  33.212  1.00  0.00     0.049 A 
ATOM     47  H   UNL A   1      39.981  29.968  31.911  1.00  0.00     0.167 HD
ATOM     48  C   UNL A   1      41.854  27.183  29.060  1.00  0.00     0.034 A 
ATOM     49  C   UNL A   1      39.711  31.292  34.363  1.00  0.00     0.034 A 
ATOM     50  C   UNL A   1      42.669  27.132  30.251  1.00  0.00     0.049 A 
ATOM     51  C   UNL A   1      40.919  30.398  34.481  1.00  0.00     0.074 A 
ATOM     52  C   UNL A   1      43.831  26.412  30.472  1.00  0.00     0.029 A 
ATOM     53  N   UNL A   1      42.412  27.835  31.422  1.00  0.00    -0.354 N 
ATOM     54  N   UNL A   1      41.444  29.596  33.583  1.00  0.00    -0.248 NA
ATOM     55  C   UNL A   1      41.625  30.410  35.767  1.00  0.00     0.031 C 
ATOM     56  C   UNL A   1      44.240  26.632  31.792  1.00  0.00     0.029 A 
ATOM     57  C   UNL A   1      43.379  27.548  32.374  1.00  0.00     0.049 A 
ATOM     58  H   UNL A   1      41.653  28.448  31.557  1.00  0.00     0.167 HD
ATOM     59  C   UNL A   1      42.562  29.032  34.190  1.00  0.00     0.074 A 
ATOM     60  C   UNL A   1      42.644  29.602  35.520  1.00  0.00     0.031 C 
ATOM     61  C   UNL A   1      43.442  28.124  33.696  1.00  0.00     0.034 A 
BRANCH  48  62
ATOM     62  C   UNL A   1      42.250  26.345  27.869  1.00  0.00     0.023 A 
ATOM     63  C   UNL A   1      41.803  25.023  27.708  1.00  0.00     0.031 A 
ATOM     64  C   UNL A   1      43.109  26.872  26.887  1.00  0.00     0.131 A 
ATOM     65  C   UNL A   1      42.269  24.252  26.631  1.00  0.00     0.055 A 
ATOM     66  C   UNL A   1      43.505  26.127  25.776  1.00  0.00     0.041 A 
ATOM     67  F   UNL A   1      43.588  28.122  26.999  1.00  0.00    -0.206 F 
ATOM     68  C   UNL A   1      43.096  24.803  25.649  1.00  0.00     0.022 A 
BRANCH  65  69
ATOM     69  S   UNL A   1      41.886  22.479  26.601  1.00  0.00     0.124 S 
ATOM     70  O   UNL A   1      42.491  22.027  27.852  1.00  0.00    -0.237 OA
ATOM     71  O   UNL A   1      40.428  22.473  26.557  1.00  0.00    -0.237 OA
ATOM     72  O   UNL A   1      42.550  22.006  25.389  1.00  0.00    -0.744 OA
ENDBRANCH  65  69
ENDBRANCH  48  62
BRANCH  49  73
ATOM     73  C   UNL A   1      39.265  32.127  35.517  1.00  0.00     0.023 A 
ATOM     74  C   UNL A   1      39.686  33.458  35.650  1.00  0.00     0.031 A 
ATOM     75  C   UNL A   1      38.467  31.585  36.541  1.00  0.00     0.131 A 
ATOM     76  C   UNL A   1      39.357  34.184  36.805  1.00  0.00     0.055 A 
ATOM     77  C   UNL A   1      38.087  32.331  37.657  1.00  0.00     0.041 A 
ATOM     78  F   UNL A   1      38.038  30.314  36.470  1.00  0.00    -0.206 F 
ATOM     79  C   UNL A   1      38.548  33.635  37.802  1.00  0.00     0.022 A 
BRANCH  76  80
ATOM     80  S   UNL A   1      40.103  35.821  37.041  1.00  0.00     0.124 S 
ATOM     81  O   UNL A   1      39.654  36.526  35.846  1.00  0.00    -0.237 OA
ATOM     82  O   UNL A   1      39.503  36.247  38.301  1.00  0.00    -0.237 OA
ATOM     83  O   UNL A   1      41.536  35.537  37.098  1.00  0.00    -0.744 OA
ENDBRANCH  76  80
ENDBRANCH  49  73
BRANCH  61  84
ATOM     84  C   UNL A   1      44.599  27.746  34.588  1.00  0.00     0.023 A 
ATOM     85  C   UNL A   1      44.553  26.613  35.420  1.00  0.00     0.031 A 
ATOM     86  C   UNL A   1      45.752  28.549  34.628  1.00  0.00     0.131 A 
ATOM     87  C   UNL A   1      45.610  26.352  36.302  1.00  0.00     0.055 A 
ATOM     88  C   UNL A   1      46.828  28.249  35.461  1.00  0.00     0.041 A 
ATOM     89  F   UNL A   1      45.847  29.644  33.857  1.00  0.00    -0.206 F 
ATOM     90  C   UNL A   1      46.755  27.152  36.317  1.00  0.00     0.022 A 
BRANCH  87  91
ATOM     91  S   UNL A   1      45.427  25.008  37.507  1.00  0.00     0.124 S 
ATOM     92  O   UNL A   1      44.156  25.341  38.141  1.00  0.00    -0.237 OA
ATOM     93  O   UNL A   1      45.423  23.823  36.655  1.00  0.00    -0.237 OA
ATOM     94  O   UNL A   1      46.603  25.151  38.363  1.00  0.00    -0.744 OA
ENDBRANCH  87  91
ENDBRANCH  61  84
ENDBRANCH  35  36
ENDBRANCH  28  30
ENDBRANCH  27  28
ENDBRANCH  26  27
ENDBRANCH  25  26
ENDBRANCH   1  25
TORSDOF 21
ENDMDL
MODEL 2
REMARK VINA RESULT:     -10.3      1.537      2.660
REMARK SMILES CC(C)[C@H](NC(=O)OCc1ccccc1)C(=O)NCC(=O)OCCOC(=O)c1ccc(-c2c3nc(c(-c4cc(S(=O)(=O)[O-])ccc4F)c4ccc([nH]4)c(-c4cc(S(=O)(=O)[O-])ccc4F)c4nc(c(-c5cc(S(=O)(=O)[O-])ccc5F)c5ccc2[nH]5)C=C4)C=C3)cc1
REMARK SMILES IDX 22 1 20 2 21 3 19 4 18 5 16 6 17 7 4 9 2 10 1 11 3 12 5 13
REMARK SMILES IDX 6 14 7 16 8 17 9 18 10 19 11 20 15 21 12 22 14 23 13 24
REMARK SMILES IDX 23 25 24 26 25 27 26 28 27 29 28 30 29 31 90 32 30 33 89 34
REMARK SMILES IDX 31 35 32 36 33 37 83 38 34 39 88 40 82 41 84 42 35 43 87 44
REMARK SMILES IDX 81 45 80 46 36 48 68 49 48 50 67 51 49 52 52 53 66 54 85 55
REMARK SMILES IDX 50 56 51 57 65 59 86 60 53 61 37 62 38 63 46 64 39 65 45 66
REMARK SMILES IDX 47 67 44 68 40 69 41 70 42 71 43 72 69 73 70 74 78 75 71 76
REMARK SMILES IDX 77 77 79 78 76 79 72 80 73 81 74 82 75 83 54 84 55 85 63 86
REMARK SMILES IDX 56 87 62 88 64 89 61 90 57 91 58 92 59 93 60 94
REMARK H PARENT 18 8 5 15 84 47 52 58
REMARK Flexibility Score: inf
ROOT
ATOM      1  O   UNL A   1      30.612  28.622  24.158  1.00  0.00    -0.461 OA
ENDROOT
BRANCH   1   2
ATOM      2  C   UNL A   1      30.676  27.739  23.128  1.00  0.00     0.325 C 
ATOM      3  O   UNL A   1      30.266  27.955  21.993  1.00  0.00    -0.250 OA
BRANCH   2   4
ATOM      4  C   UNL A   1      31.377  26.443  23.505  1.00  0.00     0.238 C 
BRANCH   4   5
ATOM      5  N   UNL A   1      32.359  25.869  22.593  1.00  0.00    -0.343 N 
ATOM      6  C   UNL A   1      32.895  24.605  22.636  1.00  0.00     0.243 C 
ATOM      7  O   UNL A   1      33.297  24.084  21.595  1.00  0.00    -0.273 OA
ATOM      8  H   UNL A   1      32.671  26.453  21.864  1.00  0.00     0.164 HD
BRANCH   6   9
ATOM      9  C   UNL A   1      32.922  23.850  23.982  1.00  0.00     0.177 C 
BRANCH   9  10
ATOM     10  C   UNL A   1      32.870  24.745  25.263  1.00  0.00     0.015 C 
ATOM     11  C   UNL A   1      32.254  24.140  26.533  1.00  0.00     0.010 C 
ATOM     12  C   UNL A   1      34.282  25.228  25.617  1.00  0.00     0.010 C 
ENDBRANCH   9  10
BRANCH   9  13
ATOM     13  N   UNL A   1      34.106  22.989  23.912  1.00  0.00    -0.309 N 
ATOM     14  C   UNL A   1      34.331  21.776  24.458  1.00  0.00     0.408 C 
ATOM     15  H   UNL A   1      34.854  23.352  23.385  1.00  0.00     0.167 HD
ATOM     16  O   UNL A   1      35.452  21.303  24.469  1.00  0.00    -0.225 OA
BRANCH  14  17
ATOM     17  O   UNL A   1      33.195  21.166  24.863  1.00  0.00    -0.445 OA
BRANCH  17  18
ATOM     18  C   UNL A   1      32.772  20.102  24.006  1.00  0.00     0.270 C 
BRANCH  18  19
ATOM     19  C   UNL A   1      33.122  18.709  24.502  1.00  0.00    -0.011 A 
ATOM     20  C   UNL A   1      34.138  18.000  23.844  1.00  0.00     0.007 A 
ATOM     21  C   UNL A   1      32.410  18.051  25.517  1.00  0.00     0.007 A 
ATOM     22  C   UNL A   1      34.429  16.679  24.191  1.00  0.00     0.000 A 
ATOM     23  C   UNL A   1      32.693  16.727  25.858  1.00  0.00     0.000 A 
ATOM     24  C   UNL A   1      33.703  16.040  25.192  1.00  0.00     0.000 A 
ENDBRANCH  18  19
ENDBRANCH  17  18
ENDBRANCH  14  17
ENDBRANCH   9  13
ENDBRANCH   6   9
ENDBRANCH   4   5
ENDBRANCH   2   4
ENDBRANCH   1   2
BRANCH   1  25
ATOM     25  C   UNL A   1      31.597  28.421  25.186  1.00  0.00     0.274 C 
BRANCH  25  26
ATOM     26  C   UNL A   1      31.817  29.712  25.986  1.00  0.00     0.275 C 
BRANCH  26  27
ATOM     27  O   UNL A   1      33.203  30.112  26.043  1.00  0.00    -0.458 OA
BRANCH  27  28
ATOM     28  C   UNL A   1      33.491  31.066  26.960  1.00  0.00     0.338 C 
ATOM     29  O   UNL A   1      32.741  31.947  27.355  1.00  0.00    -0.246 OA
BRANCH  28  30
ATOM     30  C   UNL A   1      34.817  30.843  27.558  1.00  0.00     0.060 A 
ATOM     31  C   UNL A   1      35.139  29.557  27.990  1.00  0.00     0.016 A 
ATOM     32  C   UNL A   1      35.669  31.906  27.848  1.00  0.00     0.016 A 
ATOM     33  C   UNL A   1      36.243  29.334  28.797  1.00  0.00     0.010 A 
ATOM     34  C   UNL A   1      36.835  31.666  28.588  1.00  0.00     0.010 A 
ATOM     35  C   UNL A   1      37.115  30.381  29.094  1.00  0.00    -0.014 A 
BRANCH  35  36
ATOM     36  C   UNL A   1      38.293  30.114  29.957  1.00  0.00     0.031 A 
ATOM     37  C   UNL A   1      39.395  29.216  29.468  1.00  0.00     0.074 A 
ATOM     38  C   UNL A   1      38.398  30.729  31.153  1.00  0.00     0.049 A 
ATOM     39  N   UNL A   1      40.444  28.770  30.108  1.00  0.00    -0.248 NA
ATOM     40  C   UNL A   1      39.299  28.755  28.074  1.00  0.00     0.031 C 
ATOM     41  C   UNL A   1      37.431  31.685  31.700  1.00  0.00     0.029 A 
ATOM     42  N   UNL A   1      39.369  30.656  32.119  1.00  0.00    -0.354 N 
ATOM     43  C   UNL A   1      41.120  27.954  29.208  1.00  0.00     0.074 A 
ATOM     44  C   UNL A   1      40.344  27.945  27.985  1.00  0.00     0.031 C 
ATOM     45  C   UNL A   1      37.872  32.129  32.886  1.00  0.00     0.029 A 
ATOM     46  C   UNL A   1      39.101  31.426  33.228  1.00  0.00     0.049 A 
ATOM     47  H   UNL A   1      40.179  30.105  32.028  1.00  0.00     0.167 HD
ATOM     48  C   UNL A   1      42.284  27.280  29.387  1.00  0.00     0.034 A 
ATOM     49  C   UNL A   1      39.749  31.520  34.405  1.00  0.00     0.034 A 
ATOM     50  C   UNL A   1      43.047  27.314  30.612  1.00  0.00     0.049 A 
ATOM     51  C   UNL A   1      40.985  30.683  34.614  1.00  0.00     0.074 A 
ATOM     52  C   UNL A   1      44.226  26.653  30.915  1.00  0.00     0.029 A 
ATOM     53  N   UNL A   1      42.712  28.055  31.739  1.00  0.00    -0.354 N 
ATOM     54  N   UNL A   1      41.580  29.865  33.777  1.00  0.00    -0.248 NA
ATOM     55  C   UNL A   1      41.632  30.779  35.927  1.00  0.00     0.031 C 
ATOM     56  C   UNL A   1      44.567  26.945  32.240  1.00  0.00     0.029 A 
ATOM     57  C   UNL A   1      43.646  27.849  32.743  1.00  0.00     0.049 A 
ATOM     58  H   UNL A   1      41.924  28.641  31.814  1.00  0.00     0.167 HD
ATOM     59  C   UNL A   1      42.691  29.375  34.455  1.00  0.00     0.074 A 
ATOM     60  C   UNL A   1      42.692  30.004  35.760  1.00  0.00     0.031 C 
ATOM     61  C   UNL A   1      43.627  28.483  34.040  1.00  0.00     0.034 A 
BRANCH  48  62
ATOM     62  C   UNL A   1      42.765  26.409  28.252  1.00  0.00     0.023 A 
ATOM     63  C   UNL A   1      42.343  25.077  28.106  1.00  0.00     0.031 A 
ATOM     64  C   UNL A   1      43.681  26.915  27.311  1.00  0.00     0.131 A 
ATOM     65  C   UNL A   1      42.885  24.278  27.088  1.00  0.00     0.055 A 
ATOM     66  C   UNL A   1      44.156  26.139  26.253  1.00  0.00     0.041 A 
ATOM     67  F   UNL A   1      44.140  28.173  27.412  1.00  0.00    -0.206 F 
ATOM     68  C   UNL A   1      43.769  24.806  26.144  1.00  0.00     0.022 A 
BRANCH  65  69
ATOM     69  S   UNL A   1      42.523  22.500  27.092  1.00  0.00     0.124 S 
ATOM     70  O   UNL A   1      43.672  21.965  26.365  1.00  0.00    -0.237 OA
ATOM     71  O   UNL A   1      42.468  22.193  28.516  1.00  0.00    -0.237 OA
ATOM     72  O   UNL A   1      41.248  22.409  26.384  1.00  0.00    -0.744 OA
ENDBRANCH  65  69
ENDBRANCH  48  62
BRANCH  49  73
ATOM     73  C   UNL A   1      39.220  32.385  35.501  1.00  0.00     0.023 A 
ATOM     74  C   UNL A   1      39.669  33.705  35.661  1.00  0.00     0.031 A 
ATOM     75  C   UNL A   1      38.308  31.883  36.447  1.00  0.00     0.131 A 
ATOM     76  C   UNL A   1      39.253  34.456  36.770  1.00  0.00     0.055 A 
ATOM     77  C   UNL A   1      37.845  32.656  37.512  1.00  0.00     0.041 A 
ATOM     78  F   UNL A   1      37.846  30.625  36.348  1.00  0.00    -0.206 F 
ATOM     79  C   UNL A   1      38.332  33.947  37.688  1.00  0.00     0.022 A 
BRANCH  76  80
ATOM     80  S   UNL A   1      40.026  36.071  37.061  1.00  0.00     0.124 S 
ATOM     81  O   UNL A   1      41.409  35.695  37.328  1.00  0.00    -0.237 OA
ATOM     82  O   UNL A   1      39.780  36.755  35.795  1.00  0.00    -0.237 OA
ATOM     83  O   UNL A   1      39.289  36.600  38.207  1.00  0.00    -0.744 OA
ENDBRANCH  76  80
ENDBRANCH  49  73
BRANCH  61  84
ATOM     84  C   UNL A   1      44.757  28.191  34.996  1.00  0.00     0.023 A 
ATOM     85  C   UNL A   1      44.619  27.265  36.045  1.00  0.00     0.031 A 
ATOM     86  C   UNL A   1      45.981  28.873  34.872  1.00  0.00     0.131 A 
ATOM     87  C   UNL A   1      45.661  27.095  36.967  1.00  0.00     0.055 A 
ATOM     88  C   UNL A   1      47.037  28.653  35.755  1.00  0.00     0.041 A 
ATOM     89  F   UNL A   1      46.166  29.770  33.891  1.00  0.00    -0.206 F 
ATOM     90  C   UNL A   1      46.876  27.770  36.820  1.00  0.00     0.022 A 
BRANCH  87  91
ATOM     91  S   UNL A   1      45.371  26.055  38.425  1.00  0.00     0.124 S 
ATOM     92  O   UNL A   1      44.028  26.460  38.825  1.00  0.00    -0.237 OA
ATOM     93  O   UNL A   1      45.495  24.708  37.877  1.00  0.00    -0.237 OA
ATOM     94  O   UNL A   1      46.437  26.449  39.345  1.00  0.00    -0.744 OA
ENDBRANCH  87  91
ENDBRANCH  61  84
ENDBRANCH  35  36
ENDBRANCH  28  30
ENDBRANCH  27  28
ENDBRANCH  26  27
ENDBRANCH  25  26
ENDBRANCH   1  25
TORSDOF 21
ENDMDL
MODEL 3
REMARK VINA RESULT:     -10.2      2.267      3.023
REMARK SMILES CC(C)[C@H](NC(=O)OCc1ccccc1)C(=O)NCC(=O)OCCOC(=O)c1ccc(-c2c3nc(c(-c4cc(S(=O)(=O)[O-])ccc4F)c4ccc([nH]4)c(-c4cc(S(=O)(=O)[O-])ccc4F)c4nc(c(-c5cc(S(=O)(=O)[O-])ccc5F)c5ccc2[nH]5)C=C4)C=C3)cc1
REMARK SMILES IDX 22 1 20 2 21 3 19 4 18 5 16 6 17 7 4 9 2 10 1 11 3 12 5 13
REMARK SMILES IDX 6 14 7 16 8 17 9 18 10 19 11 20 15 21 12 22 14 23 13 24
REMARK SMILES IDX 23 25 24 26 25 27 26 28 27 29 28 30 29 31 90 32 30 33 89 34
REMARK SMILES IDX 31 35 32 36 33 37 83 38 34 39 88 40 82 41 84 42 35 43 87 44
REMARK SMILES IDX 81 45 80 46 36 48 68 49 48 50 67 51 49 52 52 53 66 54 85 55
REMARK SMILES IDX 50 56 51 57 65 59 86 60 53 61 37 62 38 63 46 64 39 65 45 66
REMARK SMILES IDX 47 67 44 68 40 69 41 70 42 71 43 72 69 73 70 74 78 75 71 76
REMARK SMILES IDX 77 77 79 78 76 79 72 80 73 81 74 82 75 83 54 84 55 85 63 86
REMARK SMILES IDX 56 87 62 88 64 89 61 90 57 91 58 92 59 93 60 94
REMARK H PARENT 18 8 5 15 84 47 52 58
REMARK Flexibility Score: inf
ROOT
ATOM      1  O   UNL A   1      32.033  27.970  26.090  1.00  0.00    -0.461 OA
ENDROOT
BRANCH   1   2
ATOM      2  C   UNL A   1      33.201  27.278  26.091  1.00  0.00     0.325 C 
ATOM      3  O   UNL A   1      34.312  27.777  26.235  1.00  0.00    -0.250 OA
BRANCH   2   4
ATOM      4  C   UNL A   1      32.997  25.777  25.954  1.00  0.00     0.238 C 
BRANCH   4   5
ATOM      5  N   UNL A   1      34.153  24.913  25.743  1.00  0.00    -0.343 N 
ATOM      6  C   UNL A   1      34.451  24.182  24.619  1.00  0.00     0.243 C 
ATOM      7  O   UNL A   1      35.625  23.913  24.368  1.00  0.00    -0.273 OA
ATOM      8  H   UNL A   1      34.791  24.848  26.490  1.00  0.00     0.164 HD
BRANCH   6   9
ATOM      9  C   UNL A   1      33.305  23.771  23.669  1.00  0.00     0.177 C 
BRANCH   9  10
ATOM     10  C   UNL A   1      33.080  22.233  23.503  1.00  0.00     0.015 C 
ATOM     11  C   UNL A   1      33.035  21.376  24.777  1.00  0.00     0.010 C 
ATOM     12  C   UNL A   1      31.783  21.978  22.726  1.00  0.00     0.010 C 
ENDBRANCH   9  10
BRANCH   9  13
ATOM     13  N   UNL A   1      33.588  24.466  22.409  1.00  0.00    -0.309 N 
ATOM     14  C   UNL A   1      33.081  25.616  21.919  1.00  0.00     0.408 C 
ATOM     15  H   UNL A   1      34.252  24.024  21.832  1.00  0.00     0.167 HD
ATOM     16  O   UNL A   1      33.277  25.931  20.761  1.00  0.00    -0.225 OA
BRANCH  14  17
ATOM     17  O   UNL A   1      32.462  26.359  22.863  1.00  0.00    -0.445 OA
BRANCH  17  18
ATOM     18  C   UNL A   1      31.041  26.192  22.890  1.00  0.00     0.270 C 
BRANCH  18  19
ATOM     19  C   UNL A   1      30.250  27.489  22.863  1.00  0.00    -0.011 A 
ATOM     20  C   UNL A   1      28.899  27.456  23.238  1.00  0.00     0.007 A 
ATOM     21  C   UNL A   1      30.770  28.700  22.379  1.00  0.00     0.007 A 
ATOM     22  C   UNL A   1      28.098  28.596  23.131  1.00  0.00     0.000 A 
ATOM     23  C   UNL A   1      29.968  29.836  22.262  1.00  0.00     0.000 A 
ATOM     24  C   UNL A   1      28.630  29.784  22.637  1.00  0.00     0.000 A 
ENDBRANCH  18  19
ENDBRANCH  17  18
ENDBRANCH  14  17
ENDBRANCH   9  13
ENDBRANCH   6   9
ENDBRANCH   4   5
ENDBRANCH   2   4
ENDBRANCH   1   2
BRANCH   1  25
ATOM     25  C   UNL A   1      31.826  28.806  27.240  1.00  0.00     0.274 C 
BRANCH  25  26
ATOM     26  C   UNL A   1      31.881  30.290  26.849  1.00  0.00     0.275 C 
BRANCH  26  27
ATOM     27  O   UNL A   1      33.216  30.738  26.527  1.00  0.00    -0.458 OA
BRANCH  27  28
ATOM     28  C   UNL A   1      33.695  31.732  27.313  1.00  0.00     0.338 C 
ATOM     29  O   UNL A   1      33.118  32.766  27.613  1.00  0.00    -0.246 OA
BRANCH  28  30
ATOM     30  C   UNL A   1      34.991  31.361  27.905  1.00  0.00     0.060 A 
ATOM     31  C   UNL A   1      35.119  30.095  28.472  1.00  0.00     0.016 A 
ATOM     32  C   UNL A   1      36.012  32.296  28.054  1.00  0.00     0.016 A 
ATOM     33  C   UNL A   1      36.203  29.782  29.276  1.00  0.00     0.010 A 
ATOM     34  C   UNL A   1      37.152  31.949  28.793  1.00  0.00     0.010 A 
ATOM     35  C   UNL A   1      37.243  30.699  29.435  1.00  0.00    -0.014 A 
BRANCH  35  36
ATOM     36  C   UNL A   1      38.396  30.338  30.297  1.00  0.00     0.031 A 
ATOM     37  C   UNL A   1      39.463  29.415  29.778  1.00  0.00     0.074 A 
ATOM     38  C   UNL A   1      38.512  30.889  31.522  1.00  0.00     0.049 A 
ATOM     39  N   UNL A   1      40.482  28.892  30.408  1.00  0.00    -0.248 NA
ATOM     40  C   UNL A   1      39.366  29.026  28.362  1.00  0.00     0.031 C 
ATOM     41  C   UNL A   1      37.580  31.861  32.104  1.00  0.00     0.029 A 
ATOM     42  N   UNL A   1      39.464  30.726  32.496  1.00  0.00    -0.354 N 
ATOM     43  C   UNL A   1      41.134  28.090  29.478  1.00  0.00     0.074 A 
ATOM     44  C   UNL A   1      40.376  28.175  28.246  1.00  0.00     0.031 C 
ATOM     45  C   UNL A   1      38.024  32.227  33.315  1.00  0.00     0.029 A 
ATOM     46  C   UNL A   1      39.216  31.453  33.637  1.00  0.00     0.049 A 
ATOM     47  H   UNL A   1      40.251  30.144  32.387  1.00  0.00     0.167 HD
ATOM     48  C   UNL A   1      42.264  27.357  29.637  1.00  0.00     0.034 A 
ATOM     49  C   UNL A   1      39.851  31.462  34.825  1.00  0.00     0.034 A 
ATOM     50  C   UNL A   1      43.011  27.297  30.871  1.00  0.00     0.049 A 
ATOM     51  C   UNL A   1      41.045  30.560  35.008  1.00  0.00     0.074 A 
ATOM     52  C   UNL A   1      44.154  26.569  31.155  1.00  0.00     0.029 A 
ATOM     53  N   UNL A   1      42.693  27.998  32.028  1.00  0.00    -0.354 N 
ATOM     54  N   UNL A   1      41.615  29.757  34.139  1.00  0.00    -0.248 NA
ATOM     55  C   UNL A   1      41.677  30.564  36.332  1.00  0.00     0.031 C 
ATOM     56  C   UNL A   1      44.490  26.782  32.497  1.00  0.00     0.029 A 
ATOM     57  C   UNL A   1      43.603  27.701  33.032  1.00  0.00     0.049 A 
ATOM     58  H   UNL A   1      41.931  28.615  32.123  1.00  0.00     0.167 HD
ATOM     59  C   UNL A   1      42.694  29.185  34.805  1.00  0.00     0.074 A 
ATOM     60  C   UNL A   1      42.704  29.750  36.139  1.00  0.00     0.031 C 
ATOM     61  C   UNL A   1      43.595  28.273  34.358  1.00  0.00     0.034 A 
BRANCH  48  62
ATOM     62  C   UNL A   1      42.722  26.521  28.466  1.00  0.00     0.023 A 
ATOM     63  C   UNL A   1      43.863  26.852  27.717  1.00  0.00     0.031 A 
ATOM     64  C   UNL A   1      41.988  25.384  28.079  1.00  0.00     0.131 A 
ATOM     65  C   UNL A   1      44.199  26.097  26.582  1.00  0.00     0.055 A 
ATOM     66  C   UNL A   1      42.373  24.591  26.997  1.00  0.00     0.041 A 
ATOM     67  F   UNL A   1      40.875  25.031  28.742  1.00  0.00    -0.206 F 
ATOM     68  C   UNL A   1      43.478  24.953  26.232  1.00  0.00     0.022 A 
BRANCH  65  69
ATOM     69  S   UNL A   1      45.514  26.707  25.491  1.00  0.00     0.124 S 
ATOM     70  O   UNL A   1      44.850  27.828  24.829  1.00  0.00    -0.237 OA
ATOM     71  O   UNL A   1      46.570  27.056  26.434  1.00  0.00    -0.237 OA
ATOM     72  O   UNL A   1      45.800  25.564  24.627  1.00  0.00    -0.744 OA
ENDBRANCH  65  69
ENDBRANCH  48  62
BRANCH  49  73
ATOM     73  C   UNL A   1      39.346  32.296  35.955  1.00  0.00     0.023 A 
ATOM     74  C   UNL A   1      38.556  31.735  36.970  1.00  0.00     0.031 A 
ATOM     75  C   UNL A   1      39.586  33.681  36.000  1.00  0.00     0.131 A 
ATOM     76  C   UNL A   1      37.988  32.561  37.952  1.00  0.00     0.055 A 
ATOM     77  C   UNL A   1      39.074  34.489  37.016  1.00  0.00     0.041 A 
ATOM     78  F   UNL A   1      40.331  34.275  35.052  1.00  0.00    -0.206 F 
ATOM     79  C   UNL A   1      38.255  33.931  37.991  1.00  0.00     0.022 A 
BRANCH  76  80
ATOM     80  S   UNL A   1      36.798  31.834  39.113  1.00  0.00     0.124 S 
ATOM     81  O   UNL A   1      36.750  30.449  38.659  1.00  0.00    -0.237 OA
ATOM     82  O   UNL A   1      37.450  32.067  40.397  1.00  0.00    -0.237 OA
ATOM     83  O   UNL A   1      35.581  32.610  38.882  1.00  0.00    -0.744 OA
ENDBRANCH  76  80
ENDBRANCH  49  73
BRANCH  61  84
ATOM     84  C   UNL A   1      44.697  27.885  35.312  1.00  0.00     0.023 A 
ATOM     85  C   UNL A   1      44.494  26.940  36.334  1.00  0.00     0.031 A 
ATOM     86  C   UNL A   1      45.961  28.492  35.215  1.00  0.00     0.131 A 
ATOM     87  C   UNL A   1      45.516  26.680  37.257  1.00  0.00     0.055 A 
ATOM     88  C   UNL A   1      46.995  28.182  36.098  1.00  0.00     0.041 A 
ATOM     89  F   UNL A   1      46.210  29.403  34.260  1.00  0.00    -0.206 F 
ATOM     90  C   UNL A   1      46.771  27.281  37.136  1.00  0.00     0.022 A 
BRANCH  87  91
ATOM     91  S   UNL A   1      45.151  25.619  38.683  1.00  0.00     0.124 S 
ATOM     92  O   UNL A   1      44.763  24.369  38.040  1.00  0.00    -0.237 OA
ATOM     93  O   UNL A   1      46.425  25.603  39.394  1.00  0.00    -0.237 OA
ATOM     94  O   UNL A   1      44.070  26.326  39.368  1.00  0.00    -0.744 OA
ENDBRANCH  87  91
ENDBRANCH  61  84
ENDBRANCH  35  36
ENDBRANCH  28  30
ENDBRANCH  27  28
ENDBRANCH  26  27
ENDBRANCH  25  26
ENDBRANCH   1  25
TORSDOF 21
ENDMDL
