MODEL 1
REMARK VINA RESULT:     -14.4      0.000      0.000
REMARK SMILES O=C(OCCOC(=O)c1ccc(-c2c3nc(c(-c4cc(S(=O)(=O)[O-])ccc4F)c4ccc([nH]4)c(-c4cc(S(=O)(=O)[O-])ccc4F)c4nc(c(-c5cc(S(=O)(=O)[O-])ccc5F)c5ccc2[nH]5)C=C4)C=C3)cc1)C1=Cc2cc(Cl)cc(-c3ccc(CO)cc3)c2O[C@@H]1C(F)(F)F
REMARK SMILES IDX 4 1 3 2 2 3 1 4 72 5 73 6 90 7 74 8 89 9 75 10 88 11 76 12
REMARK SMILES IDX 79 13 77 14 78 15 91 16 92 17 93 18 94 19 80 20 81 21 87 22
REMARK SMILES IDX 82 23 86 24 83 25 84 26 85 27 5 29 6 30 7 31 8 32 9 33 10 34
REMARK SMILES IDX 71 35 11 36 70 37 12 38 13 39 14 40 64 41 15 42 69 43 63 44
REMARK SMILES IDX 65 45 16 46 68 47 62 48 61 49 17 51 49 52 29 53 48 54 30 55
REMARK SMILES IDX 33 56 47 57 66 58 31 59 32 60 46 62 67 63 34 64 18 65 19 66
REMARK SMILES IDX 27 67 20 68 26 69 28 70 25 71 21 72 22 73 23 74 24 75 50 76
REMARK SMILES IDX 51 77 59 78 52 79 58 80 60 81 57 82 53 83 54 84 55 85 56 86
REMARK SMILES IDX 35 87 36 88 44 89 37 90 43 91 45 92 42 93 38 94 39 95 40 96
REMARK SMILES IDX 41 97
REMARK H PARENT 85 28 65 50 33 61
REMARK Flexibility Score: inf
ROOT
ATOM      1  C   UNL A   1      35.878  22.888  23.599  1.00  0.00     0.275 C 
ENDROOT
BRANCH   1   2
ATOM      2  O   UNL A   1      35.314  24.114  24.366  1.00  0.00    -0.459 OA
BRANCH   2   3
ATOM      3  C   UNL A   1      34.291  24.698  23.732  1.00  0.00     0.338 C 
ATOM      4  O   UNL A   1      34.215  25.132  22.613  1.00  0.00    -0.246 OA
BRANCH   3   5
ATOM      5  C   UNL A   1      33.527  24.939  24.931  1.00  0.00     0.087 C 
ATOM      6  C   UNL A   1      33.993  26.058  25.702  1.00  0.00     0.027 C 
ATOM      7  C   UNL A   1      31.801  24.760  24.117  1.00  0.00     0.316 C 
ATOM      8  C   UNL A   1      33.104  27.588  25.820  1.00  0.00     0.019 A 
ATOM      9  O   UNL A   1      30.862  26.473  24.108  1.00  0.00    -0.475 OA
ATOM     10  C   UNL A   1      33.749  28.575  26.512  1.00  0.00     0.032 A 
ATOM     11  C   UNL A   1      31.650  27.924  24.925  1.00  0.00     0.135 A 
ATOM     12  C   UNL A   1      33.160  29.827  26.414  1.00  0.00     0.042 A 
ATOM     13  C   UNL A   1      31.196  29.219  24.813  1.00  0.00     0.026 A 
ATOM     14  Cl  UNL A   1      33.937  31.131  27.248  1.00  0.00    -0.084 Cl
ATOM     15  C   UNL A   1      31.989  30.122  25.619  1.00  0.00     0.033 A 
BRANCH   7  16
ATOM     16  C   UNL A   1      31.766  23.359  24.972  1.00  0.00     0.430 C 
ATOM     17  F   UNL A   1      31.961  23.414  26.257  1.00  0.00    -0.167 F 
ATOM     18  F   UNL A   1      30.508  22.839  24.862  1.00  0.00    -0.167 F 
ATOM     19  F   UNL A   1      32.589  22.372  24.526  1.00  0.00    -0.167 F 
ENDBRANCH   7  16
BRANCH  13  20
ATOM     20  C   UNL A   1      30.210  29.847  23.940  1.00  0.00    -0.015 A 
ATOM     21  C   UNL A   1      30.050  29.331  22.632  1.00  0.00     0.009 A 
ATOM     22  C   UNL A   1      29.622  31.075  24.238  1.00  0.00     0.009 A 
ATOM     23  C   UNL A   1      29.368  30.040  21.643  1.00  0.00     0.007 A 
ATOM     24  C   UNL A   1      28.932  31.788  23.244  1.00  0.00     0.007 A 
ATOM     25  C   UNL A   1      28.813  31.286  21.938  1.00  0.00    -0.023 A 
BRANCH  25  26
ATOM     26  C   UNL A   1      28.128  32.072  20.852  1.00  0.00     0.191 C 
BRANCH  26  27
ATOM     27  O   UNL A   1      27.675  33.328  21.348  1.00  0.00    -0.392 OA
ATOM     28  H   UNL A   1      28.340  34.008  21.161  1.00  0.00     0.211 HD
ENDBRANCH  26  27
ENDBRANCH  25  26
ENDBRANCH  13  20
ENDBRANCH   3   5
ENDBRANCH   2   3
ENDBRANCH   1   2
BRANCH   1  29
ATOM     29  C   UNL A   1      37.366  21.473  24.310  1.00  0.00     0.275 C 
BRANCH  29  30
ATOM     30  O   UNL A   1      38.273  21.688  25.813  1.00  0.00    -0.458 OA
BRANCH  30  31
ATOM     31  C   UNL A   1      39.590  21.815  26.261  1.00  0.00     0.338 C 
ATOM     32  O   UNL A   1      40.587  21.236  25.867  1.00  0.00    -0.246 OA
BRANCH  31  33
ATOM     33  C   UNL A   1      39.685  23.051  27.130  1.00  0.00     0.060 A 
ATOM     34  C   UNL A   1      40.797  23.208  28.002  1.00  0.00     0.016 A 
ATOM     35  C   UNL A   1      38.974  24.178  26.723  1.00  0.00     0.016 A 
ATOM     36  C   UNL A   1      41.358  24.503  28.190  1.00  0.00     0.010 A 
ATOM     37  C   UNL A   1      39.521  25.450  26.936  1.00  0.00     0.010 A 
ATOM     38  C   UNL A   1      40.774  25.623  27.564  1.00  0.00    -0.014 A 
BRANCH  38  39
ATOM     39  C   UNL A   1      41.310  27.020  27.679  1.00  0.00     0.031 A 
ATOM     40  C   UNL A   1      42.672  27.219  27.088  1.00  0.00     0.074 A 
ATOM     41  C   UNL A   1      40.736  28.027  28.386  1.00  0.00     0.049 A 
ATOM     42  N   UNL A   1      43.513  28.205  27.230  1.00  0.00    -0.248 NA
ATOM     43  C   UNL A   1      43.167  26.105  26.264  1.00  0.00     0.031 C 
ATOM     44  C   UNL A   1      39.414  27.998  29.013  1.00  0.00     0.029 A 
ATOM     45  N   UNL A   1      41.213  29.284  28.724  1.00  0.00    -0.354 N 
ATOM     46  C   UNL A   1      44.653  27.809  26.544  1.00  0.00     0.074 A 
ATOM     47  C   UNL A   1      44.409  26.482  26.029  1.00  0.00     0.031 C 
ATOM     48  C   UNL A   1      39.195  29.162  29.662  1.00  0.00     0.029 A 
ATOM     49  C   UNL A   1      40.373  30.021  29.546  1.00  0.00     0.049 A 
ATOM     50  H   UNL A   1      42.079  29.627  28.405  1.00  0.00     0.167 HD
ATOM     51  C   UNL A   1      45.805  28.490  26.353  1.00  0.00     0.034 A 
ATOM     52  C   UNL A   1      40.549  31.224  30.150  1.00  0.00     0.034 A 
ATOM     53  C   UNL A   1      46.046  29.809  26.865  1.00  0.00     0.049 A 
ATOM     54  C   UNL A   1      41.879  31.946  29.961  1.00  0.00     0.074 A 
ATOM     55  C   UNL A   1      47.162  30.603  26.686  1.00  0.00     0.029 A 
ATOM     56  N   UNL A   1      45.168  30.517  27.671  1.00  0.00    -0.354 N 
ATOM     57  N   UNL A   1      42.922  31.587  29.247  1.00  0.00    -0.248 NA
ATOM     58  C   UNL A   1      42.062  33.230  30.664  1.00  0.00     0.031 C 
ATOM     59  C   UNL A   1      46.992  31.761  27.448  1.00  0.00     0.029 A 
ATOM     60  C   UNL A   1      45.735  31.726  28.032  1.00  0.00     0.049 A 
ATOM     61  H   UNL A   1      44.274  30.207  27.945  1.00  0.00     0.167 HD
ATOM     62  C   UNL A   1      43.857  32.614  29.386  1.00  0.00     0.074 A 
ATOM     63  C   UNL A   1      43.255  33.616  30.236  1.00  0.00     0.031 C 
ATOM     64  C   UNL A   1      45.105  32.721  28.864  1.00  0.00     0.034 A 
BRANCH  51  65
ATOM     65  C   UNL A   1      46.892  27.777  25.602  1.00  0.00     0.023 A 
ATOM     66  C   UNL A   1      47.238  28.144  24.290  1.00  0.00     0.031 A 
ATOM     67  C   UNL A   1      47.531  26.666  26.175  1.00  0.00     0.131 A 
ATOM     68  C   UNL A   1      48.133  27.351  23.563  1.00  0.00     0.055 A 
ATOM     69  C   UNL A   1      48.491  25.936  25.476  1.00  0.00     0.041 A 
ATOM     70  F   UNL A   1      47.210  26.254  27.411  1.00  0.00    -0.206 F 
ATOM     71  C   UNL A   1      48.785  26.267  24.155  1.00  0.00     0.022 A 
BRANCH  68  72
ATOM     72  S   UNL A   1      48.311  27.664  21.787  1.00  0.00     0.124 S 
ATOM     73  O   UNL A   1      47.004  28.228  21.455  1.00  0.00    -0.237 OA
ATOM     74  O   UNL A   1      49.436  28.591  21.737  1.00  0.00    -0.237 OA
ATOM     75  O   UNL A   1      48.570  26.337  21.230  1.00  0.00    -0.744 OA
ENDBRANCH  68  72
ENDBRANCH  51  65
BRANCH  52  76
ATOM     76  C   UNL A   1      39.515  31.845  31.060  1.00  0.00     0.023 A 
ATOM     77  C   UNL A   1      39.554  31.654  32.458  1.00  0.00     0.031 A 
ATOM     78  C   UNL A   1      38.383  32.498  30.537  1.00  0.00     0.131 A 
ATOM     79  C   UNL A   1      38.458  32.028  33.263  1.00  0.00     0.055 A 
ATOM     80  C   UNL A   1      37.327  32.930  31.350  1.00  0.00     0.041 A 
ATOM     81  F   UNL A   1      38.264  32.695  29.215  1.00  0.00    -0.206 F 
ATOM     82  C   UNL A   1      37.351  32.679  32.717  1.00  0.00     0.022 A 
BRANCH  79  83
ATOM     83  S   UNL A   1      38.425  31.515  35.009  1.00  0.00     0.124 S 
ATOM     84  O   UNL A   1      39.720  31.992  35.481  1.00  0.00    -0.237 OA
ATOM     85  O   UNL A   1      37.255  32.225  35.512  1.00  0.00    -0.237 OA
ATOM     86  O   UNL A   1      38.286  30.061  34.936  1.00  0.00    -0.744 OA
ENDBRANCH  79  83
ENDBRANCH  52  76
BRANCH  64  87
ATOM     87  C   UNL A   1      45.884  33.984  29.140  1.00  0.00     0.023 A 
ATOM     88  C   UNL A   1      45.853  35.082  28.264  1.00  0.00     0.031 A 
ATOM     89  C   UNL A   1      46.614  34.110  30.336  1.00  0.00     0.131 A 
ATOM     90  C   UNL A   1      46.561  36.251  28.586  1.00  0.00     0.055 A 
ATOM     91  C   UNL A   1      47.266  35.295  30.679  1.00  0.00     0.041 A 
ATOM     92  F   UNL A   1      46.676  33.092  31.210  1.00  0.00    -0.206 F 
ATOM     93  C   UNL A   1      47.246  36.372  29.799  1.00  0.00     0.022 A 
BRANCH  90  94
ATOM     94  S   UNL A   1      46.617  37.600  27.376  1.00  0.00     0.124 S 
ATOM     95  O   UNL A   1      45.329  38.253  27.590  1.00  0.00    -0.237 OA
ATOM     96  O   UNL A   1      47.792  38.354  27.801  1.00  0.00    -0.237 OA
ATOM     97  O   UNL A   1      46.757  36.907  26.097  1.00  0.00    -0.744 OA
ENDBRANCH  90  94
ENDBRANCH  64  87
ENDBRANCH  38  39
ENDBRANCH  31  33
ENDBRANCH  30  31
ENDBRANCH  29  30
ENDBRANCH   1  29
TORSDOF 18
ENDMDL
MODEL 2
REMARK VINA RESULT:     -13.8      1.937      2.204
REMARK SMILES O=C(OCCOC(=O)c1ccc(-c2c3nc(c(-c4cc(S(=O)(=O)[O-])ccc4F)c4ccc([nH]4)c(-c4cc(S(=O)(=O)[O-])ccc4F)c4nc(c(-c5cc(S(=O)(=O)[O-])ccc5F)c5ccc2[nH]5)C=C4)C=C3)cc1)C1=Cc2cc(Cl)cc(-c3ccc(CO)cc3)c2O[C@@H]1C(F)(F)F
REMARK SMILES IDX 4 1 3 2 2 3 1 4 72 5 73 6 90 7 74 8 89 9 75 10 88 11 76 12
REMARK SMILES IDX 79 13 77 14 78 15 91 16 92 17 93 18 94 19 80 20 81 21 87 22
REMARK SMILES IDX 82 23 86 24 83 25 84 26 85 27 5 29 6 30 7 31 8 32 9 33 10 34
REMARK SMILES IDX 71 35 11 36 70 37 12 38 13 39 14 40 64 41 15 42 69 43 63 44
REMARK SMILES IDX 65 45 16 46 68 47 62 48 61 49 17 51 49 52 29 53 48 54 30 55
REMARK SMILES IDX 33 56 47 57 66 58 31 59 32 60 46 62 67 63 34 64 18 65 19 66
REMARK SMILES IDX 27 67 20 68 26 69 28 70 25 71 21 72 22 73 23 74 24 75 50 76
REMARK SMILES IDX 51 77 59 78 52 79 58 80 60 81 57 82 53 83 54 84 55 85 56 86
REMARK SMILES IDX 35 87 36 88 44 89 37 90 43 91 45 92 42 93 38 94 39 95 40 96
REMARK SMILES IDX 41 97
REMARK H PARENT 85 28 65 50 33 61
REMARK Flexibility Score: inf
ROOT
ATOM      1  C   UNL A   1      35.734  22.582  23.624  1.00  0.00     0.275 C 
ENDROOT
BRANCH   1   2
ATOM      2  O   UNL A   1      35.381  23.982  24.193  1.00  0.00    -0.459 OA
BRANCH   2   3
ATOM      3  C   UNL A   1      34.337  24.547  23.575  1.00  0.00     0.338 C 
ATOM      4  O   UNL A   1      34.237  24.982  22.458  1.00  0.00    -0.246 OA
BRANCH   3   5
ATOM      5  C   UNL A   1      33.585  24.768  24.785  1.00  0.00     0.087 C 
ATOM      6  C   UNL A   1      34.059  25.874  25.570  1.00  0.00     0.027 C 
ATOM      7  C   UNL A   1      31.852  24.603  23.984  1.00  0.00     0.316 C 
ATOM      8  C   UNL A   1      33.172  27.403  25.721  1.00  0.00     0.019 A 
ATOM      9  O   UNL A   1      30.914  26.317  24.012  1.00  0.00    -0.475 OA
ATOM     10  C   UNL A   1      33.824  28.378  26.422  1.00  0.00     0.032 A 
ATOM     11  C   UNL A   1      31.710  27.754  24.845  1.00  0.00     0.135 A 
ATOM     12  C   UNL A   1      33.235  29.632  26.351  1.00  0.00     0.042 A 
ATOM     13  C   UNL A   1      31.256  29.051  24.759  1.00  0.00     0.026 A 
ATOM     14  Cl  UNL A   1      34.021  30.922  27.198  1.00  0.00    -0.084 Cl
ATOM     15  C   UNL A   1      32.057  29.941  25.572  1.00  0.00     0.033 A 
BRANCH   7  16
ATOM     16  C   UNL A   1      31.823  23.188  24.816  1.00  0.00     0.430 C 
ATOM     17  F   UNL A   1      32.758  22.969  25.695  1.00  0.00    -0.167 F 
ATOM     18  F   UNL A   1      30.677  23.168  25.557  1.00  0.00    -0.167 F 
ATOM     19  F   UNL A   1      31.770  22.058  24.062  1.00  0.00    -0.167 F 
ENDBRANCH   7  16
BRANCH  13  20
ATOM     20  C   UNL A   1      30.262  29.693  23.906  1.00  0.00    -0.015 A 
ATOM     21  C   UNL A   1      30.180  29.288  22.552  1.00  0.00     0.009 A 
ATOM     22  C   UNL A   1      29.587  30.851  24.286  1.00  0.00     0.009 A 
ATOM     23  C   UNL A   1      29.489  30.040  21.603  1.00  0.00     0.007 A 
ATOM     24  C   UNL A   1      28.887  31.608  23.332  1.00  0.00     0.007 A 
ATOM     25  C   UNL A   1      28.845  31.219  21.983  1.00  0.00    -0.023 A 
BRANCH  25  26
ATOM     26  C   UNL A   1      28.149  32.056  20.943  1.00  0.00     0.191 C 
BRANCH  26  27
ATOM     27  O   UNL A   1      27.410  31.233  20.046  1.00  0.00    -0.392 OA
ATOM     28  H   UNL A   1      27.360  30.331  20.401  1.00  0.00     0.211 HD
ENDBRANCH  26  27
ENDBRANCH  25  26
ENDBRANCH  13  20
ENDBRANCH   3   5
ENDBRANCH   2   3
ENDBRANCH   1   2
BRANCH   1  29
ATOM     29  C   UNL A   1      37.179  21.171  24.426  1.00  0.00     0.275 C 
BRANCH  29  30
ATOM     30  O   UNL A   1      38.176  21.502  25.848  1.00  0.00    -0.458 OA
BRANCH  30  31
ATOM     31  C   UNL A   1      39.520  21.592  26.218  1.00  0.00     0.338 C 
ATOM     32  O   UNL A   1      40.479  21.011  25.744  1.00  0.00    -0.246 OA
BRANCH  31  33
ATOM     33  C   UNL A   1      39.691  22.796  27.120  1.00  0.00     0.060 A 
ATOM     34  C   UNL A   1      40.869  22.919  27.906  1.00  0.00     0.016 A 
ATOM     35  C   UNL A   1      38.956  23.939  26.811  1.00  0.00     0.016 A 
ATOM     36  C   UNL A   1      41.451  24.205  28.095  1.00  0.00     0.010 A 
ATOM     37  C   UNL A   1      39.525  25.201  27.025  1.00  0.00     0.010 A 
ATOM     38  C   UNL A   1      40.825  25.348  27.557  1.00  0.00    -0.014 A 
BRANCH  38  39
ATOM     39  C   UNL A   1      41.377  26.738  27.678  1.00  0.00     0.031 A 
ATOM     40  C   UNL A   1      42.772  26.906  27.161  1.00  0.00     0.074 A 
ATOM     41  C   UNL A   1      40.781  27.766  28.336  1.00  0.00     0.049 A 
ATOM     42  N   UNL A   1      43.620  27.881  27.332  1.00  0.00    -0.248 NA
ATOM     43  C   UNL A   1      43.293  25.770  26.383  1.00  0.00     0.031 C 
ATOM     44  C   UNL A   1      39.427  27.768  28.889  1.00  0.00     0.029 A 
ATOM     45  N   UNL A   1      41.259  29.021  28.679  1.00  0.00    -0.354 N 
ATOM     46  C   UNL A   1      44.790  27.456  26.716  1.00  0.00     0.074 A 
ATOM     47  C   UNL A   1      44.552  26.124  26.210  1.00  0.00     0.031 C 
ATOM     48  C   UNL A   1      39.191  28.946  29.506  1.00  0.00     0.029 A 
ATOM     49  C   UNL A   1      40.388  29.785  29.441  1.00  0.00     0.049 A 
ATOM     50  H   UNL A   1      42.147  29.345  28.403  1.00  0.00     0.167 HD
ATOM     51  C   UNL A   1      45.961  28.116  26.579  1.00  0.00     0.034 A 
ATOM     52  C   UNL A   1      40.549  30.996  30.034  1.00  0.00     0.034 A 
ATOM     53  C   UNL A   1      46.195  29.440  27.081  1.00  0.00     0.049 A 
ATOM     54  C   UNL A   1      41.899  31.694  29.907  1.00  0.00     0.074 A 
ATOM     55  C   UNL A   1      47.332  30.214  26.951  1.00  0.00     0.029 A 
ATOM     56  N   UNL A   1      45.285  30.175  27.826  1.00  0.00    -0.354 N 
ATOM     57  N   UNL A   1      42.974  31.306  29.257  1.00  0.00    -0.248 NA
ATOM     58  C   UNL A   1      42.064  32.986  30.598  1.00  0.00     0.031 C 
ATOM     59  C   UNL A   1      47.139  31.387  27.683  1.00  0.00     0.029 A 
ATOM     60  C   UNL A   1      45.851  31.381  28.197  1.00  0.00     0.049 A 
ATOM     61  H   UNL A   1      44.373  29.883  28.055  1.00  0.00     0.167 HD
ATOM     62  C   UNL A   1      43.917  32.321  29.431  1.00  0.00     0.074 A 
ATOM     63  C   UNL A   1      43.285  33.346  30.230  1.00  0.00     0.031 C 
ATOM     64  C   UNL A   1      45.193  32.400  28.977  1.00  0.00     0.034 A 
BRANCH  51  65
ATOM     65  C   UNL A   1      47.076  27.374  25.900  1.00  0.00     0.023 A 
ATOM     66  C   UNL A   1      48.023  26.642  26.635  1.00  0.00     0.031 A 
ATOM     67  C   UNL A   1      47.237  27.467  24.508  1.00  0.00     0.131 A 
ATOM     68  C   UNL A   1      49.141  26.106  25.985  1.00  0.00     0.055 A 
ATOM     69  C   UNL A   1      48.304  26.851  23.855  1.00  0.00     0.041 A 
ATOM     70  F   UNL A   1      46.379  28.183  23.766  1.00  0.00    -0.206 F 
ATOM     71  C   UNL A   1      49.274  26.179  24.596  1.00  0.00     0.022 A 
BRANCH  68  72
ATOM     72  S   UNL A   1      50.494  25.453  26.998  1.00  0.00     0.124 S 
ATOM     73  O   UNL A   1      51.496  25.137  25.982  1.00  0.00    -0.237 OA
ATOM     74  O   UNL A   1      50.807  26.576  27.874  1.00  0.00    -0.237 OA
ATOM     75  O   UNL A   1      49.898  24.293  27.658  1.00  0.00    -0.744 OA
ENDBRANCH  68  72
ENDBRANCH  51  65
BRANCH  52  76
ATOM     76  C   UNL A   1      39.478  31.648  30.875  1.00  0.00     0.023 A 
ATOM     77  C   UNL A   1      39.480  31.543  32.283  1.00  0.00     0.031 A 
ATOM     78  C   UNL A   1      38.348  32.242  30.283  1.00  0.00     0.131 A 
ATOM     79  C   UNL A   1      38.354  31.942  33.033  1.00  0.00     0.055 A 
ATOM     80  C   UNL A   1      37.260  32.700  31.038  1.00  0.00     0.041 A 
ATOM     81  F   UNL A   1      38.263  32.356  28.948  1.00  0.00    -0.206 F 
ATOM     82  C   UNL A   1      37.250  32.533  32.418  1.00  0.00     0.022 A 
BRANCH  79  83
ATOM     83  S   UNL A   1      38.281  31.535  34.806  1.00  0.00     0.124 S 
ATOM     84  O   UNL A   1      37.137  32.328  35.243  1.00  0.00    -0.237 OA
ATOM     85  O   UNL A   1      38.089  30.090  34.779  1.00  0.00    -0.237 OA
ATOM     86  O   UNL A   1      39.578  31.981  35.313  1.00  0.00    -0.744 OA
ENDBRANCH  79  83
ENDBRANCH  52  76
BRANCH  64  87
ATOM     87  C   UNL A   1      45.976  33.656  29.274  1.00  0.00     0.023 A 
ATOM     88  C   UNL A   1      46.788  33.773  30.414  1.00  0.00     0.031 A 
ATOM     89  C   UNL A   1      45.958  34.725  28.360  1.00  0.00     0.131 A 
ATOM     90  C   UNL A   1      47.531  34.946  30.624  1.00  0.00     0.055 A 
ATOM     91  C   UNL A   1      46.744  35.863  28.543  1.00  0.00     0.041 A 
ATOM     92  F   UNL A   1      45.199  34.666  27.253  1.00  0.00    -0.206 F 
ATOM     93  C   UNL A   1      47.532  35.980  29.683  1.00  0.00     0.022 A 
BRANCH  90  94
ATOM     94  S   UNL A   1      48.462  35.126  32.169  1.00  0.00     0.124 S 
ATOM     95  O   UNL A   1      48.080  36.467  32.600  1.00  0.00    -0.237 OA
ATOM     96  O   UNL A   1      47.946  34.025  32.977  1.00  0.00    -0.237 OA
ATOM     97  O   UNL A   1      49.855  34.983  31.749  1.00  0.00    -0.744 OA
ENDBRANCH  90  94
ENDBRANCH  64  87
ENDBRANCH  38  39
ENDBRANCH  31  33
ENDBRANCH  30  31
ENDBRANCH  29  30
ENDBRANCH   1  29
TORSDOF 18
ENDMDL
MODEL 3
REMARK VINA RESULT:     -13.6      5.211     12.019
REMARK SMILES O=C(OCCOC(=O)c1ccc(-c2c3nc(c(-c4cc(S(=O)(=O)[O-])ccc4F)c4ccc([nH]4)c(-c4cc(S(=O)(=O)[O-])ccc4F)c4nc(c(-c5cc(S(=O)(=O)[O-])ccc5F)c5ccc2[nH]5)C=C4)C=C3)cc1)C1=Cc2cc(Cl)cc(-c3ccc(CO)cc3)c2O[C@@H]1C(F)(F)F
REMARK SMILES IDX 4 1 3 2 2 3 1 4 72 5 73 6 90 7 74 8 89 9 75 10 88 11 76 12
REMARK SMILES IDX 79 13 77 14 78 15 91 16 92 17 93 18 94 19 80 20 81 21 87 22
REMARK SMILES IDX 82 23 86 24 83 25 84 26 85 27 5 29 6 30 7 31 8 32 9 33 10 34
REMARK SMILES IDX 71 35 11 36 70 37 12 38 13 39 14 40 64 41 15 42 69 43 63 44
REMARK SMILES IDX 65 45 16 46 68 47 62 48 61 49 17 51 49 52 29 53 48 54 30 55
REMARK SMILES IDX 33 56 47 57 66 58 31 59 32 60 46 62 67 63 34 64 18 65 19 66
REMARK SMILES IDX 27 67 20 68 26 69 28 70 25 71 21 72 22 73 23 74 24 75 50 76
REMARK SMILES IDX 51 77 59 78 52 79 58 80 60 81 57 82 53 83 54 84 55 85 56 86
REMARK SMILES IDX 35 87 36 88 44 89 37 90 43 91 45 92 42 93 38 94 39 95 40 96
REMARK SMILES IDX 41 97
REMARK H PARENT 85 28 65 50 33 61
REMARK Flexibility Score: inf
ROOT
ATOM      1  C   UNL A   1      52.120  26.265  27.966  1.00  0.00     0.275 C 
ENDROOT
BRANCH   1   2
ATOM      2  O   UNL A   1      50.843  25.696  28.639  1.00  0.00    -0.459 OA
BRANCH   2   3
ATOM      3  C   UNL A   1      50.257  26.570  29.466  1.00  0.00     0.338 C 
ATOM      4  O   UNL A   1      50.377  26.718  30.653  1.00  0.00    -0.246 OA
BRANCH   3   5
ATOM      5  C   UNL A   1      49.231  26.954  28.528  1.00  0.00     0.087 C 
ATOM      6  C   UNL A   1      48.198  25.970  28.361  1.00  0.00     0.027 C 
ATOM      7  C   UNL A   1      49.004  28.739  29.190  1.00  0.00     0.316 C 
ATOM      8  C   UNL A   1      46.551  26.182  28.983  1.00  0.00     0.019 A 
ATOM      9  O   UNL A   1      47.243  28.950  30.010  1.00  0.00    -0.475 OA
ATOM     10  C   UNL A   1      45.733  25.099  28.823  1.00  0.00     0.032 A 
ATOM     11  C   UNL A   1      46.059  27.541  29.952  1.00  0.00     0.135 A 
ATOM     12  C   UNL A   1      44.525  25.182  29.501  1.00  0.00     0.042 A 
ATOM     13  C   UNL A   1      44.880  27.488  30.662  1.00  0.00     0.026 A 
ATOM     14  Cl  UNL A   1      43.447  23.834  29.361  1.00  0.00    -0.084 Cl
ATOM     15  C   UNL A   1      44.141  26.281  30.359  1.00  0.00     0.033 A 
BRANCH   7  16
ATOM     16  C   UNL A   1      49.745  29.140  27.781  1.00  0.00     0.430 C 
ATOM     17  F   UNL A   1      49.415  28.491  26.702  1.00  0.00    -0.167 F 
ATOM     18  F   UNL A   1      49.410  30.432  27.491  1.00  0.00    -0.167 F 
ATOM     19  F   UNL A   1      51.105  29.130  27.803  1.00  0.00    -0.167 F 
ENDBRANCH   7  16
BRANCH  13  20
ATOM     20  C   UNL A   1      44.340  28.308  31.740  1.00  0.00    -0.015 A 
ATOM     21  C   UNL A   1      43.162  27.868  32.390  1.00  0.00     0.009 A 
ATOM     22  C   UNL A   1      44.771  29.612  31.976  1.00  0.00     0.009 A 
ATOM     23  C   UNL A   1      42.415  28.717  33.206  1.00  0.00     0.007 A 
ATOM     24  C   UNL A   1      44.022  30.467  32.800  1.00  0.00     0.007 A 
ATOM     25  C   UNL A   1      42.832  30.033  33.408  1.00  0.00    -0.023 A 
BRANCH  25  26
ATOM     26  C   UNL A   1      41.991  30.962  34.244  1.00  0.00     0.191 C 
BRANCH  26  27
ATOM     27  O   UNL A   1      40.732  31.199  33.621  1.00  0.00    -0.392 OA
ATOM     28  H   UNL A   1      40.236  31.854  34.136  1.00  0.00     0.211 HD
ENDBRANCH  26  27
ENDBRANCH  25  26
ENDBRANCH  13  20
ENDBRANCH   3   5
ENDBRANCH   2   3
ENDBRANCH   1   2
BRANCH   1  29
ATOM     29  C   UNL A   1      52.442  26.598  25.844  1.00  0.00     0.275 C 
BRANCH  29  30
ATOM     30  O   UNL A   1      51.220  27.293  24.772  1.00  0.00    -0.458 OA
BRANCH  30  31
ATOM     31  C   UNL A   1      50.688  27.113  23.493  1.00  0.00     0.338 C 
ATOM     32  O   UNL A   1      51.277  27.022  22.430  1.00  0.00    -0.246 OA
BRANCH  31  33
ATOM     33  C   UNL A   1      49.235  26.712  23.628  1.00  0.00     0.060 A 
ATOM     34  C   UNL A   1      48.845  25.839  24.680  1.00  0.00     0.016 A 
ATOM     35  C   UNL A   1      48.282  27.548  23.049  1.00  0.00     0.016 A 
ATOM     36  C   UNL A   1      47.598  26.048  25.335  1.00  0.00     0.010 A 
ATOM     37  C   UNL A   1      47.047  27.727  23.685  1.00  0.00     0.010 A 
ATOM     38  C   UNL A   1      46.735  27.074  24.898  1.00  0.00    -0.014 A 
BRANCH  38  39
ATOM     39  C   UNL A   1      45.417  27.388  25.542  1.00  0.00     0.031 A 
ATOM     40  C   UNL A   1      45.364  28.707  26.249  1.00  0.00     0.074 A 
ATOM     41  C   UNL A   1      44.371  26.529  25.651  1.00  0.00     0.049 A 
ATOM     42  N   UNL A   1      44.490  29.169  27.099  1.00  0.00    -0.248 NA
ATOM     43  C   UNL A   1      46.503  29.602  25.993  1.00  0.00     0.031 C 
ATOM     44  C   UNL A   1      44.261  25.215  25.017  1.00  0.00     0.029 A 
ATOM     45  N   UNL A   1      43.191  26.625  26.373  1.00  0.00    -0.354 N 
ATOM     46  C   UNL A   1      44.997  30.395  27.509  1.00  0.00     0.074 A 
ATOM     47  C   UNL A   1      46.269  30.578  26.849  1.00  0.00     0.031 C 
ATOM     48  C   UNL A   1      43.101  24.630  25.383  1.00  0.00     0.029 A 
ATOM     49  C   UNL A   1      42.385  25.498  26.319  1.00  0.00     0.049 A 
ATOM     50  H   UNL A   1      42.944  27.430  26.882  1.00  0.00     0.167 HD
ATOM     51  C   UNL A   1      44.453  31.294  28.358  1.00  0.00     0.034 A 
ATOM     52  C   UNL A   1      41.230  25.195  26.967  1.00  0.00     0.034 A 
ATOM     53  C   UNL A   1      43.189  31.111  29.012  1.00  0.00     0.049 A 
ATOM     54  C   UNL A   1      40.667  26.207  27.960  1.00  0.00     0.074 A 
ATOM     55  C   UNL A   1      42.529  31.986  29.853  1.00  0.00     0.029 A 
ATOM     56  N   UNL A   1      42.406  29.971  28.915  1.00  0.00    -0.354 N 
ATOM     57  N   UNL A   1      41.126  27.396  28.280  1.00  0.00    -0.248 NA
ATOM     58  C   UNL A   1      39.437  25.837  28.684  1.00  0.00     0.031 C 
ATOM     59  C   UNL A   1      41.383  31.344  30.327  1.00  0.00     0.029 A 
ATOM     60  C   UNL A   1      41.286  30.103  29.714  1.00  0.00     0.049 A 
ATOM     61  H   UNL A   1      42.616  29.185  28.359  1.00  0.00     0.167 HD
ATOM     62  C   UNL A   1      40.222  27.921  29.206  1.00  0.00     0.074 A 
ATOM     63  C   UNL A   1      39.183  26.933  29.383  1.00  0.00     0.031 C 
ATOM     64  C   UNL A   1      40.249  29.111  29.858  1.00  0.00     0.034 A 
BRANCH  51  65
ATOM     65  C   UNL A   1      45.267  32.522  28.649  1.00  0.00     0.023 A 
ATOM     66  C   UNL A   1      45.100  33.705  27.909  1.00  0.00     0.031 A 
ATOM     67  C   UNL A   1      46.277  32.481  29.624  1.00  0.00     0.131 A 
ATOM     68  C   UNL A   1      45.990  34.769  28.095  1.00  0.00     0.055 A 
ATOM     69  C   UNL A   1      47.100  33.579  29.868  1.00  0.00     0.041 A 
ATOM     70  F   UNL A   1      46.499  31.364  30.333  1.00  0.00    -0.206 F 
ATOM     71  C   UNL A   1      46.970  34.727  29.089  1.00  0.00     0.022 A 
BRANCH  68  72
ATOM     72  S   UNL A   1      45.949  36.141  26.912  1.00  0.00     0.124 S 
ATOM     73  O   UNL A   1      46.330  35.471  25.670  1.00  0.00    -0.237 OA
ATOM     74  O   UNL A   1      44.563  36.590  26.994  1.00  0.00    -0.237 OA
ATOM     75  O   UNL A   1      46.941  37.077  27.438  1.00  0.00    -0.744 OA
ENDBRANCH  68  72
ENDBRANCH  51  65
BRANCH  52  76
ATOM     76  C   UNL A   1      40.519  23.873  26.805  1.00  0.00     0.023 A 
ATOM     77  C   UNL A   1      41.213  22.647  26.893  1.00  0.00     0.031 A 
ATOM     78  C   UNL A   1      39.174  23.815  26.394  1.00  0.00     0.131 A 
ATOM     79  C   UNL A   1      40.593  21.443  26.501  1.00  0.00     0.055 A 
ATOM     80  C   UNL A   1      38.542  22.608  26.070  1.00  0.00     0.041 A 
ATOM     81  F   UNL A   1      38.456  24.941  26.263  1.00  0.00    -0.206 F 
ATOM     82  C   UNL A   1      39.256  21.415  26.103  1.00  0.00     0.022 A 
BRANCH  79  83
ATOM     83  S   UNL A   1      41.600  19.932  26.363  1.00  0.00     0.124 S 
ATOM     84  O   UNL A   1      40.677  19.024  25.691  1.00  0.00    -0.237 OA
ATOM     85  O   UNL A   1      42.736  20.395  25.575  1.00  0.00    -0.237 OA
ATOM     86  O   UNL A   1      41.904  19.595  27.753  1.00  0.00    -0.744 OA
ENDBRANCH  79  83
ENDBRANCH  52  76
BRANCH  64  87
ATOM     87  C   UNL A   1      39.097  29.444  30.775  1.00  0.00     0.023 A 
ATOM     88  C   UNL A   1      38.165  30.448  30.463  1.00  0.00     0.031 A 
ATOM     89  C   UNL A   1      38.894  28.692  31.947  1.00  0.00     0.131 A 
ATOM     90  C   UNL A   1      37.087  30.691  31.327  1.00  0.00     0.055 A 
ATOM     91  C   UNL A   1      37.788  28.898  32.771  1.00  0.00     0.041 A 
ATOM     92  F   UNL A   1      39.754  27.720  32.293  1.00  0.00    -0.206 F 
ATOM     93  C   UNL A   1      36.879  29.906  32.466  1.00  0.00     0.022 A 
BRANCH  90  94
ATOM     94  S   UNL A   1      35.979  32.082  30.972  1.00  0.00     0.124 S 
ATOM     95  O   UNL A   1      35.165  31.552  29.884  1.00  0.00    -0.237 OA
ATOM     96  O   UNL A   1      35.293  32.271  32.247  1.00  0.00    -0.237 OA
ATOM     97  O   UNL A   1      36.891  33.160  30.596  1.00  0.00    -0.744 OA
ENDBRANCH  90  94
ENDBRANCH  64  87
ENDBRANCH  38  39
ENDBRANCH  31  33
ENDBRANCH  30  31
ENDBRANCH  29  30
ENDBRANCH   1  29
TORSDOF 18
ENDMDL
