MODEL 1
REMARK VINA RESULT:     -12.7      0.000      0.000
REMARK SMILES CC(=O)NS(=O)(=O)c1cc(-c2ccn(C(F)F)c(=O)c2)ccc1C(=O)OCCOC(=O)c1ccc(-c2c3nc(c(-c4cc(S(=O)(=O)[O-])ccc4F)c4ccc([nH]4)c(-c4cc(S(=O)(=O)[O-])ccc4F)c4nc(c(-c5cc(S(=O)(=O)[O-])ccc5F)c5ccc2[nH]5)C=C4)C=C3)cc1
REMARK SMILES IDX 28 1 27 2 26 3 24 4 25 5 23 6 8 7 9 8 10 9 22 10 21 11 5 12
REMARK SMILES IDX 6 13 7 14 4 15 1 16 2 17 3 18 11 20 12 21 20 22 13 23 18 24
REMARK SMILES IDX 14 25 19 26 15 27 16 28 17 29 29 30 30 31 31 32 32 33 33 34
REMARK SMILES IDX 94 35 34 36 93 37 35 38 36 39 37 40 87 41 38 42 92 43 86 44
REMARK SMILES IDX 88 45 39 46 91 47 85 48 84 49 40 51 72 52 52 53 71 54 53 55
REMARK SMILES IDX 56 56 70 57 89 58 54 59 55 60 69 62 90 63 57 64 41 65 42 66
REMARK SMILES IDX 50 67 43 68 49 69 51 70 48 71 44 72 45 73 46 74 47 75 73 76
REMARK SMILES IDX 74 77 82 78 75 79 81 80 83 81 80 82 76 83 77 84 78 85 79 86
REMARK SMILES IDX 58 87 59 88 67 89 60 90 66 91 68 92 65 93 61 94 62 95 63 96
REMARK SMILES IDX 64 97
REMARK H PARENT 4 19 88 50 56 61
REMARK Flexibility Score: inf
ROOT
ATOM      1  C   UNL A   1      36.643  20.485  24.966  1.00  0.00     0.275 C 
ENDROOT
BRANCH   1   2
ATOM      2  C   UNL A   1      35.500  21.101  25.771  1.00  0.00     0.275 C 
BRANCH   2   3
ATOM      3  O   UNL A   1      35.025  22.335  25.190  1.00  0.00    -0.458 OA
BRANCH   3   4
ATOM      4  C   UNL A   1      34.688  23.285  26.086  1.00  0.00     0.339 C 
ATOM      5  O   UNL A   1      35.028  23.344  27.258  1.00  0.00    -0.246 OA
BRANCH   4   6
ATOM      6  C   UNL A   1      33.780  24.297  25.528  1.00  0.00     0.080 A 
ATOM      7  C   UNL A   1      32.399  24.285  25.710  1.00  0.00     0.103 A 
ATOM      8  C   UNL A   1      31.627  25.410  25.337  1.00  0.00     0.032 A 
ATOM      9  C   UNL A   1      32.239  26.560  24.817  1.00  0.00    -0.017 A 
ATOM     10  C   UNL A   1      34.379  25.440  24.991  1.00  0.00     0.018 A 
ATOM     11  C   UNL A   1      33.627  26.561  24.658  1.00  0.00     0.010 A 
BRANCH   7  12
ATOM     12  S   UNL A   1      31.556  22.928  26.462  1.00  0.00     0.264 S 
ATOM     13  O   UNL A   1      30.145  23.155  26.268  1.00  0.00    -0.201 OA
ATOM     14  O   UNL A   1      32.104  22.757  27.793  1.00  0.00    -0.201 OA
BRANCH  12  15
ATOM     15  N   UNL A   1      31.931  21.564  25.614  1.00  0.00    -0.249 N 
ATOM     16  C   UNL A   1      31.555  22.371  23.274  1.00  0.00     0.115 C 
ATOM     17  C   UNL A   1      32.090  21.354  24.240  1.00  0.00     0.230 C 
ATOM     18  O   UNL A   1      32.594  20.302  23.871  1.00  0.00    -0.274 OA
ATOM     19  H   UNL A   1      32.064  20.763  26.169  1.00  0.00     0.183 HD
ENDBRANCH  12  15
ENDBRANCH   7  12
BRANCH   9  20
ATOM     20  C   UNL A   1      31.496  27.775  24.417  1.00  0.00    -0.011 A 
ATOM     21  C   UNL A   1      31.734  29.058  25.061  1.00  0.00     0.027 A 
ATOM     22  C   UNL A   1      30.512  27.689  23.504  1.00  0.00     0.080 A 
ATOM     23  C   UNL A   1      30.964  30.117  24.793  1.00  0.00     0.095 A 
ATOM     24  C   UNL A   1      29.677  28.878  23.155  1.00  0.00     0.255 A 
ATOM     25  N   UNL A   1      29.943  30.037  23.867  1.00  0.00    -0.258 N 
ATOM     26  O   UNL A   1      28.821  28.754  22.284  1.00  0.00    -0.269 OA
BRANCH  25  27
ATOM     27  C   UNL A   1      29.123  31.188  23.594  1.00  0.00     0.451 C 
ATOM     28  F   UNL A   1      29.223  31.554  22.291  1.00  0.00    -0.185 F 
ATOM     29  F   UNL A   1      27.818  30.937  23.857  1.00  0.00    -0.185 F 
ENDBRANCH  25  27
ENDBRANCH   9  20
ENDBRANCH   4   6
ENDBRANCH   3   4
ENDBRANCH   2   3
ENDBRANCH   1   2
BRANCH   1  30
ATOM     30  O   UNL A   1      37.774  21.372  24.901  1.00  0.00    -0.458 OA
BRANCH  30  31
ATOM     31  C   UNL A   1      38.806  21.021  25.699  1.00  0.00     0.338 C 
ATOM     32  O   UNL A   1      39.342  19.927  25.773  1.00  0.00    -0.246 OA
BRANCH  31  33
ATOM     33  C   UNL A   1      39.294  22.178  26.461  1.00  0.00     0.060 A 
ATOM     34  C   UNL A   1      38.824  23.444  26.127  1.00  0.00     0.016 A 
ATOM     35  C   UNL A   1      40.382  22.038  27.319  1.00  0.00     0.016 A 
ATOM     36  C   UNL A   1      39.546  24.571  26.502  1.00  0.00     0.010 A 
ATOM     37  C   UNL A   1      41.006  23.184  27.827  1.00  0.00     0.010 A 
ATOM     38  C   UNL A   1      40.632  24.464  27.381  1.00  0.00    -0.014 A 
BRANCH  38  39
ATOM     39  C   UNL A   1      41.386  25.679  27.812  1.00  0.00     0.031 A 
ATOM     40  C   UNL A   1      40.704  26.741  28.637  1.00  0.00     0.074 A 
ATOM     41  C   UNL A   1      42.682  25.836  27.468  1.00  0.00     0.049 A 
ATOM     42  N   UNL A   1      41.081  27.968  28.891  1.00  0.00    -0.248 NA
ATOM     43  C   UNL A   1      39.412  26.377  29.240  1.00  0.00     0.031 C 
ATOM     44  C   UNL A   1      43.492  24.862  26.733  1.00  0.00     0.029 A 
ATOM     45  N   UNL A   1      43.550  26.877  27.691  1.00  0.00    -0.354 N 
ATOM     46  C   UNL A   1      40.046  28.544  29.621  1.00  0.00     0.074 A 
ATOM     47  C   UNL A   1      39.022  27.530  29.763  1.00  0.00     0.031 C 
ATOM     48  C   UNL A   1      44.742  25.328  26.607  1.00  0.00     0.029 A 
ATOM     49  C   UNL A   1      44.791  26.686  27.127  1.00  0.00     0.049 A 
ATOM     50  H   UNL A   1      43.308  27.682  28.205  1.00  0.00     0.167 HD
ATOM     51  C   UNL A   1      39.960  29.805  30.118  1.00  0.00     0.034 A 
ATOM     52  C   UNL A   1      45.831  27.528  26.973  1.00  0.00     0.034 A 
ATOM     53  C   UNL A   1      41.017  30.783  29.998  1.00  0.00     0.049 A 
ATOM     54  C   UNL A   1      45.691  28.940  27.468  1.00  0.00     0.074 A 
ATOM     55  C   UNL A   1      41.047  32.088  30.462  1.00  0.00     0.029 A 
ATOM     56  N   UNL A   1      42.240  30.559  29.376  1.00  0.00    -0.354 N 
ATOM     57  N   UNL A   1      44.672  29.504  28.074  1.00  0.00    -0.248 NA
ATOM     58  C   UNL A   1      46.832  29.834  27.242  1.00  0.00     0.031 C 
ATOM     59  C   UNL A   1      42.259  32.668  30.069  1.00  0.00     0.029 A 
ATOM     60  C   UNL A   1      43.020  31.706  29.426  1.00  0.00     0.049 A 
ATOM     61  H   UNL A   1      42.515  29.709  28.962  1.00  0.00     0.167 HD
ATOM     62  C   UNL A   1      45.058  30.819  28.317  1.00  0.00     0.074 A 
ATOM     63  C   UNL A   1      46.410  30.954  27.809  1.00  0.00     0.031 C 
ATOM     64  C   UNL A   1      44.360  31.824  28.902  1.00  0.00     0.034 A 
BRANCH  51  65
ATOM     65  C   UNL A   1      38.659  30.214  30.771  1.00  0.00     0.023 A 
ATOM     66  C   UNL A   1      37.626  30.844  30.057  1.00  0.00     0.031 A 
ATOM     67  C   UNL A   1      38.466  30.003  32.150  1.00  0.00     0.131 A 
ATOM     68  C   UNL A   1      36.487  31.310  30.734  1.00  0.00     0.055 A 
ATOM     69  C   UNL A   1      37.294  30.392  32.802  1.00  0.00     0.041 A 
ATOM     70  F   UNL A   1      39.423  29.425  32.893  1.00  0.00    -0.206 F 
ATOM     71  C   UNL A   1      36.302  31.065  32.097  1.00  0.00     0.022 A 
BRANCH  68  72
ATOM     72  S   UNL A   1      35.324  32.376  29.838  1.00  0.00     0.124 S 
ATOM     73  O   UNL A   1      36.178  33.505  29.474  1.00  0.00    -0.237 OA
ATOM     74  O   UNL A   1      34.896  31.522  28.737  1.00  0.00    -0.237 OA
ATOM     75  O   UNL A   1      34.296  32.676  30.832  1.00  0.00    -0.744 OA
ENDBRANCH  68  72
ENDBRANCH  51  65
BRANCH  52  76
ATOM     76  C   UNL A   1      47.055  27.084  26.244  1.00  0.00     0.023 A 
ATOM     77  C   UNL A   1      48.092  26.417  26.913  1.00  0.00     0.031 A 
ATOM     78  C   UNL A   1      47.214  27.338  24.869  1.00  0.00     0.131 A 
ATOM     79  C   UNL A   1      49.254  26.055  26.214  1.00  0.00     0.055 A 
ATOM     80  C   UNL A   1      48.346  26.922  24.166  1.00  0.00     0.041 A 
ATOM     81  F   UNL A   1      46.254  27.976  24.180  1.00  0.00    -0.206 F 
ATOM     82  C   UNL A   1      49.380  26.287  24.842  1.00  0.00     0.022 A 
BRANCH  79  83
ATOM     83  S   UNL A   1      50.639  25.345  27.144  1.00  0.00     0.124 S 
ATOM     84  O   UNL A   1      51.034  26.466  27.989  1.00  0.00    -0.237 OA
ATOM     85  O   UNL A   1      50.003  24.222  27.824  1.00  0.00    -0.237 OA
ATOM     86  O   UNL A   1      51.596  24.979  26.103  1.00  0.00    -0.744 OA
ENDBRANCH  79  83
ENDBRANCH  52  76
BRANCH  64  87
ATOM     87  C   UNL A   1      45.078  33.139  29.065  1.00  0.00     0.023 A 
ATOM     88  C   UNL A   1      45.142  34.080  28.022  1.00  0.00     0.031 A 
ATOM     89  C   UNL A   1      45.732  33.441  30.272  1.00  0.00     0.131 A 
ATOM     90  C   UNL A   1      45.893  35.252  28.187  1.00  0.00     0.055 A 
ATOM     91  C   UNL A   1      46.427  34.637  30.451  1.00  0.00     0.041 A 
ATOM     92  F   UNL A   1      45.706  32.575  31.299  1.00  0.00    -0.206 F 
ATOM     93  C   UNL A   1      46.523  35.545  29.400  1.00  0.00     0.022 A 
BRANCH  90  94
ATOM     94  S   UNL A   1      46.117  36.349  26.760  1.00  0.00     0.124 S 
ATOM     95  O   UNL A   1      44.985  37.260  26.897  1.00  0.00    -0.237 OA
ATOM     96  O   UNL A   1      47.433  36.927  27.014  1.00  0.00    -0.237 OA
ATOM     97  O   UNL A   1      46.050  35.442  25.616  1.00  0.00    -0.744 OA
ENDBRANCH  90  94
ENDBRANCH  64  87
ENDBRANCH  38  39
ENDBRANCH  31  33
ENDBRANCH  30  31
ENDBRANCH   1  30
TORSDOF 18
ENDMDL
MODEL 2
REMARK VINA RESULT:     -12.6      5.068     10.006
REMARK SMILES CC(=O)NS(=O)(=O)c1cc(-c2ccn(C(F)F)c(=O)c2)ccc1C(=O)OCCOC(=O)c1ccc(-c2c3nc(c(-c4cc(S(=O)(=O)[O-])ccc4F)c4ccc([nH]4)c(-c4cc(S(=O)(=O)[O-])ccc4F)c4nc(c(-c5cc(S(=O)(=O)[O-])ccc5F)c5ccc2[nH]5)C=C4)C=C3)cc1
REMARK SMILES IDX 28 1 27 2 26 3 24 4 25 5 23 6 8 7 9 8 10 9 22 10 21 11 5 12
REMARK SMILES IDX 6 13 7 14 4 15 1 16 2 17 3 18 11 20 12 21 20 22 13 23 18 24
REMARK SMILES IDX 14 25 19 26 15 27 16 28 17 29 29 30 30 31 31 32 32 33 33 34
REMARK SMILES IDX 94 35 34 36 93 37 35 38 36 39 37 40 87 41 38 42 92 43 86 44
REMARK SMILES IDX 88 45 39 46 91 47 85 48 84 49 40 51 72 52 52 53 71 54 53 55
REMARK SMILES IDX 56 56 70 57 89 58 54 59 55 60 69 62 90 63 57 64 41 65 42 66
REMARK SMILES IDX 50 67 43 68 49 69 51 70 48 71 44 72 45 73 46 74 47 75 73 76
REMARK SMILES IDX 74 77 82 78 75 79 81 80 83 81 80 82 76 83 77 84 78 85 79 86
REMARK SMILES IDX 58 87 59 88 67 89 60 90 66 91 68 92 65 93 61 94 62 95 63 96
REMARK SMILES IDX 64 97
REMARK H PARENT 4 19 88 50 56 61
REMARK Flexibility Score: inf
ROOT
ATOM      1  C   UNL A   1      31.537  30.470  25.835  1.00  0.00     0.275 C 
ENDROOT
BRANCH   1   2
ATOM      2  C   UNL A   1      32.160  29.640  24.714  1.00  0.00     0.275 C 
BRANCH   2   3
ATOM      3  O   UNL A   1      32.230  28.236  25.046  1.00  0.00    -0.458 OA
BRANCH   3   4
ATOM      4  C   UNL A   1      33.426  27.660  24.808  1.00  0.00     0.339 C 
ATOM      5  O   UNL A   1      34.495  28.229  24.641  1.00  0.00    -0.246 OA
BRANCH   4   6
ATOM      6  C   UNL A   1      33.344  26.197  24.712  1.00  0.00     0.080 A 
ATOM      7  C   UNL A   1      33.185  25.505  23.513  1.00  0.00     0.103 A 
ATOM      8  C   UNL A   1      33.345  24.100  23.481  1.00  0.00     0.032 A 
ATOM      9  C   UNL A   1      33.699  23.391  24.638  1.00  0.00    -0.017 A 
ATOM     10  C   UNL A   1      33.677  25.480  25.865  1.00  0.00     0.018 A 
ATOM     11  C   UNL A   1      33.871  24.103  25.828  1.00  0.00     0.010 A 
BRANCH   7  12
ATOM     12  S   UNL A   1      32.853  26.325  21.985  1.00  0.00     0.264 S 
ATOM     13  O   UNL A   1      32.572  25.297  21.013  1.00  0.00    -0.201 OA
ATOM     14  O   UNL A   1      33.918  27.285  21.764  1.00  0.00    -0.201 OA
BRANCH  12  15
ATOM     15  N   UNL A   1      31.461  27.190  22.165  1.00  0.00    -0.249 N 
ATOM     16  C   UNL A   1      30.037  25.510  23.355  1.00  0.00     0.115 C 
ATOM     17  C   UNL A   1      30.297  26.915  22.891  1.00  0.00     0.230 C 
ATOM     18  O   UNL A   1      29.490  27.819  23.054  1.00  0.00    -0.274 OA
ATOM     19  H   UNL A   1      31.448  28.046  21.679  1.00  0.00     0.183 HD
ENDBRANCH  12  15
ENDBRANCH   7  12
BRANCH   9  20
ATOM     20  C   UNL A   1      33.892  21.925  24.676  1.00  0.00    -0.011 A 
ATOM     21  C   UNL A   1      35.164  21.336  25.064  1.00  0.00     0.027 A 
ATOM     22  C   UNL A   1      32.909  21.108  24.256  1.00  0.00     0.080 A 
ATOM     23  C   UNL A   1      35.375  20.020  24.961  1.00  0.00     0.095 A 
ATOM     24  C   UNL A   1      33.113  19.629  24.185  1.00  0.00     0.255 A 
ATOM     25  N   UNL A   1      34.377  19.174  24.520  1.00  0.00    -0.258 N 
ATOM     26  O   UNL A   1      32.168  18.927  23.836  1.00  0.00    -0.269 OA
BRANCH  25  27
ATOM     27  C   UNL A   1      34.625  17.759  24.413  1.00  0.00     0.451 C 
ATOM     28  F   UNL A   1      34.512  17.345  23.126  1.00  0.00    -0.185 F 
ATOM     29  F   UNL A   1      35.870  17.443  24.845  1.00  0.00    -0.185 F 
ENDBRANCH  25  27
ENDBRANCH   9  20
ENDBRANCH   4   6
ENDBRANCH   3   4
ENDBRANCH   2   3
ENDBRANCH   1   2
BRANCH   1  30
ATOM     30  O   UNL A   1      32.340  30.422  27.028  1.00  0.00    -0.458 OA
BRANCH  30  31
ATOM     31  C   UNL A   1      33.015  31.562  27.293  1.00  0.00     0.338 C 
ATOM     32  O   UNL A   1      32.564  32.695  27.326  1.00  0.00    -0.246 OA
BRANCH  31  33
ATOM     33  C   UNL A   1      34.416  31.273  27.627  1.00  0.00     0.060 A 
ATOM     34  C   UNL A   1      34.780  29.959  27.902  1.00  0.00     0.016 A 
ATOM     35  C   UNL A   1      35.294  32.317  27.907  1.00  0.00     0.016 A 
ATOM     36  C   UNL A   1      35.941  29.700  28.621  1.00  0.00     0.010 A 
ATOM     37  C   UNL A   1      36.537  32.032  28.484  1.00  0.00     0.010 A 
ATOM     38  C   UNL A   1      36.854  30.726  28.899  1.00  0.00    -0.014 A 
BRANCH  38  39
ATOM     39  C   UNL A   1      38.118  30.440  29.640  1.00  0.00     0.031 A 
ATOM     40  C   UNL A   1      39.167  29.543  29.032  1.00  0.00     0.074 A 
ATOM     41  C   UNL A   1      38.335  30.983  30.857  1.00  0.00     0.049 A 
ATOM     42  N   UNL A   1      40.195  28.963  29.596  1.00  0.00    -0.248 NA
ATOM     43  C   UNL A   1      39.024  29.241  27.599  1.00  0.00     0.031 C 
ATOM     44  C   UNL A   1      37.444  31.924  31.540  1.00  0.00     0.029 A 
ATOM     45  N   UNL A   1      39.374  30.821  31.741  1.00  0.00    -0.354 N 
ATOM     46  C   UNL A   1      40.781  28.175  28.609  1.00  0.00     0.074 A 
ATOM     47  C   UNL A   1      39.985  28.349  27.412  1.00  0.00     0.031 C 
ATOM     48  C   UNL A   1      37.992  32.289  32.707  1.00  0.00     0.029 A 
ATOM     49  C   UNL A   1      39.202  31.509  32.920  1.00  0.00     0.049 A 
ATOM     50  H   UNL A   1      40.165  30.267  31.548  1.00  0.00     0.167 HD
ATOM     51  C   UNL A   1      41.876  27.377  28.702  1.00  0.00     0.034 A 
ATOM     52  C   UNL A   1      39.891  31.466  34.077  1.00  0.00     0.034 A 
ATOM     53  C   UNL A   1      42.676  27.257  29.899  1.00  0.00     0.049 A 
ATOM     54  C   UNL A   1      41.059  30.525  34.183  1.00  0.00     0.074 A 
ATOM     55  C   UNL A   1      43.806  26.485  30.112  1.00  0.00     0.029 A 
ATOM     56  N   UNL A   1      42.436  27.938  31.087  1.00  0.00    -0.354 N 
ATOM     57  N   UNL A   1      41.548  29.713  33.274  1.00  0.00    -0.248 NA
ATOM     58  C   UNL A   1      41.755  30.480  35.474  1.00  0.00     0.031 C 
ATOM     59  C   UNL A   1      44.211  26.653  31.441  1.00  0.00     0.029 A 
ATOM     60  C   UNL A   1      43.382  27.588  32.039  1.00  0.00     0.049 A 
ATOM     61  H   UNL A   1      41.702  28.579  31.231  1.00  0.00     0.167 HD
ATOM     62  C   UNL A   1      42.623  29.071  33.882  1.00  0.00     0.074 A 
ATOM     63  C   UNL A   1      42.720  29.607  35.226  1.00  0.00     0.031 C 
ATOM     64  C   UNL A   1      43.453  28.124  33.378  1.00  0.00     0.034 A 
BRANCH  51  65
ATOM     65  C   UNL A   1      42.226  26.526  27.502  1.00  0.00     0.023 A 
ATOM     66  C   UNL A   1      41.794  25.194  27.375  1.00  0.00     0.031 A 
ATOM     67  C   UNL A   1      43.044  27.048  26.482  1.00  0.00     0.131 A 
ATOM     68  C   UNL A   1      42.244  24.411  26.300  1.00  0.00     0.055 A 
ATOM     69  C   UNL A   1      43.418  26.289  25.371  1.00  0.00     0.041 A 
ATOM     70  F   UNL A   1      43.507  28.306  26.555  1.00  0.00    -0.206 F 
ATOM     71  C   UNL A   1      43.032  24.956  25.284  1.00  0.00     0.022 A 
BRANCH  68  72
ATOM     72  S   UNL A   1      41.913  22.627  26.332  1.00  0.00     0.124 S 
ATOM     73  O   UNL A   1      42.636  22.170  25.147  1.00  0.00    -0.237 OA
ATOM     74  O   UNL A   1      42.475  22.224  27.616  1.00  0.00    -0.237 OA
ATOM     75  O   UNL A   1      40.457  22.546  26.235  1.00  0.00    -0.744 OA
ENDBRANCH  68  72
ENDBRANCH  51  65
BRANCH  52  76
ATOM     76  C   UNL A   1      39.441  32.271  35.250  1.00  0.00     0.023 A 
ATOM     77  C   UNL A   1      39.844  33.605  35.408  1.00  0.00     0.031 A 
ATOM     78  C   UNL A   1      38.616  31.710  36.243  1.00  0.00     0.131 A 
ATOM     79  C   UNL A   1      39.447  34.324  36.545  1.00  0.00     0.055 A 
ATOM     80  C   UNL A   1      38.174  32.448  37.341  1.00  0.00     0.041 A 
ATOM     81  F   UNL A   1      38.203  30.436  36.143  1.00  0.00    -0.206 F 
ATOM     82  C   UNL A   1      38.600  33.761  37.504  1.00  0.00     0.022 A 
BRANCH  79  83
ATOM     83  S   UNL A   1      40.120  35.989  36.798  1.00  0.00     0.124 S 
ATOM     84  O   UNL A   1      39.380  36.433  37.973  1.00  0.00    -0.237 OA
ATOM     85  O   UNL A   1      41.539  35.712  37.000  1.00  0.00    -0.237 OA
ATOM     86  O   UNL A   1      39.794  36.680  35.554  1.00  0.00    -0.744 OA
ENDBRANCH  79  83
ENDBRANCH  52  76
BRANCH  64  87
ATOM     87  C   UNL A   1      44.566  27.653  34.279  1.00  0.00     0.023 A 
ATOM     88  C   UNL A   1      45.814  28.300  34.310  1.00  0.00     0.031 A 
ATOM     89  C   UNL A   1      44.383  26.523  35.094  1.00  0.00     0.131 A 
ATOM     90  C   UNL A   1      46.850  27.776  35.098  1.00  0.00     0.055 A 
ATOM     91  C   UNL A   1      45.398  26.043  35.922  1.00  0.00     0.041 A 
ATOM     92  F   UNL A   1      43.211  25.866  35.099  1.00  0.00    -0.206 F 
ATOM     93  C   UNL A   1      46.645  26.662  35.916  1.00  0.00     0.022 A 
BRANCH  90  94
ATOM     94  S   UNL A   1      48.501  28.516  34.967  1.00  0.00     0.124 S 
ATOM     95  O   UNL A   1      49.366  27.380  35.268  1.00  0.00    -0.237 OA
ATOM     96  O   UNL A   1      48.524  28.986  33.586  1.00  0.00    -0.237 OA
ATOM     97  O   UNL A   1      48.485  29.570  35.980  1.00  0.00    -0.744 OA
ENDBRANCH  90  94
ENDBRANCH  64  87
ENDBRANCH  38  39
ENDBRANCH  31  33
ENDBRANCH  30  31
ENDBRANCH   1  30
TORSDOF 18
ENDMDL
MODEL 3
REMARK VINA RESULT:     -12.4      1.872      2.112
REMARK SMILES CC(=O)NS(=O)(=O)c1cc(-c2ccn(C(F)F)c(=O)c2)ccc1C(=O)OCCOC(=O)c1ccc(-c2c3nc(c(-c4cc(S(=O)(=O)[O-])ccc4F)c4ccc([nH]4)c(-c4cc(S(=O)(=O)[O-])ccc4F)c4nc(c(-c5cc(S(=O)(=O)[O-])ccc5F)c5ccc2[nH]5)C=C4)C=C3)cc1
REMARK SMILES IDX 28 1 27 2 26 3 24 4 25 5 23 6 8 7 9 8 10 9 22 10 21 11 5 12
REMARK SMILES IDX 6 13 7 14 4 15 1 16 2 17 3 18 11 20 12 21 20 22 13 23 18 24
REMARK SMILES IDX 14 25 19 26 15 27 16 28 17 29 29 30 30 31 31 32 32 33 33 34
REMARK SMILES IDX 94 35 34 36 93 37 35 38 36 39 37 40 87 41 38 42 92 43 86 44
REMARK SMILES IDX 88 45 39 46 91 47 85 48 84 49 40 51 72 52 52 53 71 54 53 55
REMARK SMILES IDX 56 56 70 57 89 58 54 59 55 60 69 62 90 63 57 64 41 65 42 66
REMARK SMILES IDX 50 67 43 68 49 69 51 70 48 71 44 72 45 73 46 74 47 75 73 76
REMARK SMILES IDX 74 77 82 78 75 79 81 80 83 81 80 82 76 83 77 84 78 85 79 86
REMARK SMILES IDX 58 87 59 88 67 89 60 90 66 91 68 92 65 93 61 94 62 95 63 96
REMARK SMILES IDX 64 97
REMARK H PARENT 4 19 88 50 56 61
REMARK Flexibility Score: inf
ROOT
ATOM      1  C   UNL A   1      36.898  20.714  24.921  1.00  0.00     0.275 C 
ENDROOT
BRANCH   1   2
ATOM      2  C   UNL A   1      35.592  21.053  25.639  1.00  0.00     0.275 C 
BRANCH   2   3
ATOM      3  O   UNL A   1      34.933  22.201  25.063  1.00  0.00    -0.458 OA
BRANCH   3   4
ATOM      4  C   UNL A   1      34.764  23.238  25.909  1.00  0.00     0.339 C 
ATOM      5  O   UNL A   1      35.268  23.373  27.014  1.00  0.00    -0.246 OA
BRANCH   4   6
ATOM      6  C   UNL A   1      33.832  24.248  25.393  1.00  0.00     0.080 A 
ATOM      7  C   UNL A   1      32.467  24.260  25.674  1.00  0.00     0.103 A 
ATOM      8  C   UNL A   1      31.685  25.387  25.330  1.00  0.00     0.032 A 
ATOM      9  C   UNL A   1      32.271  26.515  24.738  1.00  0.00    -0.017 A 
ATOM     10  C   UNL A   1      34.404  25.369  24.785  1.00  0.00     0.018 A 
ATOM     11  C   UNL A   1      33.644  26.493  24.479  1.00  0.00     0.010 A 
BRANCH   7  12
ATOM     12  S   UNL A   1      31.664  22.934  26.518  1.00  0.00     0.264 S 
ATOM     13  O   UNL A   1      30.246  23.183  26.431  1.00  0.00    -0.201 OA
ATOM     14  O   UNL A   1      32.313  22.780  27.806  1.00  0.00    -0.201 OA
BRANCH  12  15
ATOM     15  N   UNL A   1      31.948  21.547  25.673  1.00  0.00    -0.249 N 
ATOM     16  C   UNL A   1      31.471  22.333  23.344  1.00  0.00     0.115 C 
ATOM     17  C   UNL A   1      32.025  21.312  24.296  1.00  0.00     0.230 C 
ATOM     18  O   UNL A   1      32.474  20.239  23.917  1.00  0.00    -0.274 OA
ATOM     19  H   UNL A   1      32.086  20.750  26.233  1.00  0.00     0.183 HD
ENDBRANCH  12  15
ENDBRANCH   7  12
BRANCH   9  20
ATOM     20  C   UNL A   1      31.517  27.731  24.362  1.00  0.00    -0.011 A 
ATOM     21  C   UNL A   1      31.746  29.004  25.027  1.00  0.00     0.027 A 
ATOM     22  C   UNL A   1      30.530  27.653  23.451  1.00  0.00     0.080 A 
ATOM     23  C   UNL A   1      30.966  30.061  24.780  1.00  0.00     0.095 A 
ATOM     24  C   UNL A   1      29.683  28.840  23.127  1.00  0.00     0.255 A 
ATOM     25  N   UNL A   1      29.943  29.988  23.857  1.00  0.00    -0.258 N 
ATOM     26  O   UNL A   1      28.825  28.724  22.257  1.00  0.00    -0.269 OA
BRANCH  25  27
ATOM     27  C   UNL A   1      29.112  31.138  23.608  1.00  0.00     0.451 C 
ATOM     28  F   UNL A   1      29.255  31.568  22.329  1.00  0.00    -0.185 F 
ATOM     29  F   UNL A   1      27.802  30.851  23.806  1.00  0.00    -0.185 F 
ENDBRANCH  25  27
ENDBRANCH   9  20
ENDBRANCH   4   6
ENDBRANCH   3   4
ENDBRANCH   2   3
ENDBRANCH   1   2
BRANCH   1  30
ATOM     30  O   UNL A   1      37.865  21.769  25.070  1.00  0.00    -0.458 OA
BRANCH  30  31
ATOM     31  C   UNL A   1      38.923  21.451  25.849  1.00  0.00     0.338 C 
ATOM     32  O   UNL A   1      39.502  20.379  25.903  1.00  0.00    -0.246 OA
BRANCH  31  33
ATOM     33  C   UNL A   1      39.376  22.619  26.616  1.00  0.00     0.060 A 
ATOM     34  C   UNL A   1      38.906  23.878  26.255  1.00  0.00     0.016 A 
ATOM     35  C   UNL A   1      40.437  22.496  27.509  1.00  0.00     0.016 A 
ATOM     36  C   UNL A   1      39.607  25.014  26.643  1.00  0.00     0.010 A 
ATOM     37  C   UNL A   1      41.035  23.652  28.025  1.00  0.00     0.010 A 
ATOM     38  C   UNL A   1      40.665  24.925  27.557  1.00  0.00    -0.014 A 
BRANCH  38  39
ATOM     39  C   UNL A   1      41.395  26.150  28.000  1.00  0.00     0.031 A 
ATOM     40  C   UNL A   1      40.686  27.199  28.818  1.00  0.00     0.074 A 
ATOM     41  C   UNL A   1      42.693  26.327  27.674  1.00  0.00     0.049 A 
ATOM     42  N   UNL A   1      41.041  28.431  29.080  1.00  0.00    -0.248 NA
ATOM     43  C   UNL A   1      39.392  26.814  29.403  1.00  0.00     0.031 C 
ATOM     44  C   UNL A   1      43.527  25.367  26.947  1.00  0.00     0.029 A 
ATOM     45  N   UNL A   1      43.542  27.381  27.911  1.00  0.00    -0.354 N 
ATOM     46  C   UNL A   1      39.987  28.990  29.797  1.00  0.00     0.074 A 
ATOM     47  C   UNL A   1      38.977  27.960  29.924  1.00  0.00     0.031 C 
ATOM     48  C   UNL A   1      44.771  25.852  26.839  1.00  0.00     0.029 A 
ATOM     49  C   UNL A   1      44.792  27.210  27.363  1.00  0.00     0.049 A 
ATOM     50  H   UNL A   1      43.281  28.180  28.423  1.00  0.00     0.167 HD
ATOM     51  C   UNL A   1      39.876  30.248  30.296  1.00  0.00     0.034 A 
ATOM     52  C   UNL A   1      45.822  28.068  27.224  1.00  0.00     0.034 A 
ATOM     53  C   UNL A   1      40.919  31.243  30.192  1.00  0.00     0.049 A 
ATOM     54  C   UNL A   1      45.654  29.477  27.720  1.00  0.00     0.074 A 
ATOM     55  C   UNL A   1      40.923  32.546  30.659  1.00  0.00     0.029 A 
ATOM     56  N   UNL A   1      42.154  31.039  29.586  1.00  0.00    -0.354 N 
ATOM     57  N   UNL A   1      44.619  30.023  28.314  1.00  0.00    -0.248 NA
ATOM     58  C   UNL A   1      46.784  30.388  27.512  1.00  0.00     0.031 C 
ATOM     59  C   UNL A   1      42.131  33.146  30.284  1.00  0.00     0.029 A 
ATOM     60  C   UNL A   1      42.915  32.197  29.649  1.00  0.00     0.049 A 
ATOM     61  H   UNL A   1      42.447  30.194  29.174  1.00  0.00     0.167 HD
ATOM     62  C   UNL A   1      44.981  31.343  28.565  1.00  0.00     0.074 A 
ATOM     63  C   UNL A   1      46.338  31.500  28.076  1.00  0.00     0.031 C 
ATOM     64  C   UNL A   1      44.260  32.336  29.143  1.00  0.00     0.034 A 
BRANCH  51  65
ATOM     65  C   UNL A   1      38.560  30.636  30.932  1.00  0.00     0.023 A 
ATOM     66  C   UNL A   1      37.518  31.230  30.201  1.00  0.00     0.031 A 
ATOM     67  C   UNL A   1      38.361  30.441  32.313  1.00  0.00     0.131 A 
ATOM     68  C   UNL A   1      36.363  31.679  30.861  1.00  0.00     0.055 A 
ATOM     69  C   UNL A   1      37.174  30.812  32.949  1.00  0.00     0.041 A 
ATOM     70  F   UNL A   1      39.326  29.899  33.072  1.00  0.00    -0.206 F 
ATOM     71  C   UNL A   1      36.173  31.451  32.226  1.00  0.00     0.022 A 
BRANCH  68  72
ATOM     72  S   UNL A   1      35.182  32.702  29.940  1.00  0.00     0.124 S 
ATOM     73  O   UNL A   1      36.034  33.799  29.484  1.00  0.00    -0.237 OA
ATOM     74  O   UNL A   1      34.712  31.789  28.904  1.00  0.00    -0.237 OA
ATOM     75  O   UNL A   1      34.188  33.071  30.945  1.00  0.00    -0.744 OA
ENDBRANCH  68  72
ENDBRANCH  51  65
BRANCH  52  76
ATOM     76  C   UNL A   1      47.062  27.644  26.511  1.00  0.00     0.023 A 
ATOM     77  C   UNL A   1      47.213  27.859  25.133  1.00  0.00     0.031 A 
ATOM     78  C   UNL A   1      48.108  26.997  27.196  1.00  0.00     0.131 A 
ATOM     79  C   UNL A   1      48.369  27.405  24.478  1.00  0.00     0.055 A 
ATOM     80  C   UNL A   1      49.281  26.602  26.551  1.00  0.00     0.041 A 
ATOM     81  F   UNL A   1      48.015  26.763  28.514  1.00  0.00    -0.206 F 
ATOM     82  C   UNL A   1      49.411  26.795  25.181  1.00  0.00     0.022 A 
BRANCH  79  83
ATOM     83  S   UNL A   1      48.456  27.552  22.673  1.00  0.00     0.124 S 
ATOM     84  O   UNL A   1      48.429  26.154  22.260  1.00  0.00    -0.237 OA
ATOM     85  O   UNL A   1      47.259  28.332  22.376  1.00  0.00    -0.237 OA
ATOM     86  O   UNL A   1      49.721  28.247  22.450  1.00  0.00    -0.744 OA
ENDBRANCH  79  83
ENDBRANCH  52  76
BRANCH  64  87
ATOM     87  C   UNL A   1      44.956  33.662  29.319  1.00  0.00     0.023 A 
ATOM     88  C   UNL A   1      45.704  33.956  30.473  1.00  0.00     0.031 A 
ATOM     89  C   UNL A   1      44.843  34.654  28.329  1.00  0.00     0.131 A 
ATOM     90  C   UNL A   1      46.262  35.233  30.634  1.00  0.00     0.055 A 
ATOM     91  C   UNL A   1      45.452  35.901  28.468  1.00  0.00     0.041 A 
ATOM     92  F   UNL A   1      44.137  34.426  27.210  1.00  0.00    -0.206 F 
ATOM     93  C   UNL A   1      46.155  36.202  29.632  1.00  0.00     0.022 A 
BRANCH  90  94
ATOM     94  S   UNL A   1      47.051  35.644  32.214  1.00  0.00     0.124 S 
ATOM     95  O   UNL A   1      48.383  35.071  32.046  1.00  0.00    -0.237 OA
ATOM     96  O   UNL A   1      46.982  37.102  32.228  1.00  0.00    -0.237 OA
ATOM     97  O   UNL A   1      46.208  34.975  33.203  1.00  0.00    -0.744 OA
ENDBRANCH  90  94
ENDBRANCH  64  87
ENDBRANCH  38  39
ENDBRANCH  31  33
ENDBRANCH  30  31
ENDBRANCH   1  30
TORSDOF 18
ENDMDL
