MODEL 1
REMARK VINA RESULT:     -12.2      0.000      0.000
REMARK SMILES Cc1ccc(Nc2c(Cl)cccc2Cl)c(CC(=O)OCCOC(=O)c2ccc(-c3c4nc(c(-c5cc(S(=O)(=O)[O-])ccc5F)c5ccc([nH]5)c(-c5cc(S(=O)(=O)[O-])ccc5F)c5nc(c(-c6cc(S(=O)(=O)[O-])ccc6F)c6ccc3[nH]6)C=C5)C=C4)cc2)c1
REMARK SMILES IDX 20 1 19 2 17 3 18 4 16 5 15 6 1 7 2 8 3 9 88 10 4 11 5 12
REMARK SMILES IDX 6 13 7 15 8 16 13 17 9 18 10 19 12 20 14 21 11 22 21 23
REMARK SMILES IDX 22 24 23 25 24 26 25 27 26 28 87 29 27 30 86 31 28 32 29 33
REMARK SMILES IDX 30 34 80 35 31 36 85 37 79 38 81 39 32 40 84 41 78 42 77 43
REMARK SMILES IDX 33 45 65 46 45 47 64 48 46 49 49 50 63 51 82 52 47 53 48 54
REMARK SMILES IDX 62 56 83 57 50 58 34 59 35 60 43 61 36 62 42 63 44 64 41 65
REMARK SMILES IDX 37 66 38 67 39 68 40 69 66 70 67 71 75 72 68 73 74 74 76 75
REMARK SMILES IDX 73 76 69 77 70 78 71 79 72 80 51 81 52 82 60 83 53 84 59 85
REMARK SMILES IDX 61 86 58 87 54 88 55 89 56 90 57 91
REMARK H PARENT 6 14 81 44 49 55
REMARK Flexibility Score: inf
ROOT
ATOM      1  C   UNL A   1      36.860  22.358  24.432  1.00  0.00     0.274 C 
ENDROOT
BRANCH   1   2
ATOM      2  O   UNL A   1      36.535  23.740  24.374  1.00  0.00    -0.462 OA
BRANCH   2   3
ATOM      3  C   UNL A   1      35.228  24.096  24.260  1.00  0.00     0.310 C 
ATOM      4  O   UNL A   1      34.525  23.931  23.291  1.00  0.00    -0.252 OA
BRANCH   3   5
ATOM      5  C   UNL A   1      34.814  24.784  25.548  1.00  0.00     0.160 C 
BRANCH   5   6
ATOM      6  C   UNL A   1      33.583  25.608  25.278  1.00  0.00    -0.013 A 
ATOM      7  C   UNL A   1      33.143  29.290  24.472  1.00  0.00     0.044 C 
ATOM      8  C   UNL A   1      32.822  27.870  24.813  1.00  0.00    -0.051 A 
ATOM      9  C   UNL A   1      31.536  27.489  25.191  1.00  0.00     0.005 A 
ATOM     10  C   UNL A   1      33.834  26.918  24.832  1.00  0.00     0.009 A 
ATOM     11  C   UNL A   1      31.268  26.175  25.590  1.00  0.00     0.026 A 
ATOM     12  C   UNL A   1      32.279  25.211  25.658  1.00  0.00     0.042 A 
BRANCH  12  13
ATOM     13  N   UNL A   1      31.995  23.932  26.169  1.00  0.00    -0.353 N 
ATOM     14  H   UNL A   1      31.563  23.926  27.053  1.00  0.00     0.167 HD
BRANCH  13  15
ATOM     15  C   UNL A   1      32.232  22.646  25.614  1.00  0.00     0.076 A 
ATOM     16  C   UNL A   1      31.792  22.318  24.319  1.00  0.00     0.066 A 
ATOM     17  C   UNL A   1      33.114  21.738  26.235  1.00  0.00     0.066 A 
ATOM     18  Cl  UNL A   1      30.691  23.331  23.447  1.00  0.00    -0.082 Cl
ATOM     19  C   UNL A   1      32.221  21.144  23.681  1.00  0.00     0.023 A 
ATOM     20  C   UNL A   1      33.612  20.615  25.564  1.00  0.00     0.023 A 
ATOM     21  Cl  UNL A   1      33.476  21.840  27.919  1.00  0.00    -0.082 Cl
ATOM     22  C   UNL A   1      33.159  20.312  24.288  1.00  0.00     0.003 A 
ENDBRANCH  13  15
ENDBRANCH  12  13
ENDBRANCH   5   6
ENDBRANCH   3   5
ENDBRANCH   2   3
ENDBRANCH   1   2
BRANCH   1  23
ATOM     23  C   UNL A   1      37.868  22.148  25.572  1.00  0.00     0.275 C 
BRANCH  23  24
ATOM     24  O   UNL A   1      38.494  23.360  26.147  1.00  0.00    -0.458 OA
BRANCH  24  25
ATOM     25  C   UNL A   1      39.752  23.575  26.639  1.00  0.00     0.338 C 
ATOM     26  O   UNL A   1      40.699  22.853  26.341  1.00  0.00    -0.246 OA
BRANCH  25  27
ATOM     27  C   UNL A   1      39.997  24.844  27.336  1.00  0.00     0.060 A 
ATOM     28  C   UNL A   1      40.517  25.978  26.684  1.00  0.00     0.016 A 
ATOM     29  C   UNL A   1      39.489  24.940  28.606  1.00  0.00     0.016 A 
ATOM     30  C   UNL A   1      40.369  27.226  27.282  1.00  0.00     0.010 A 
ATOM     31  C   UNL A   1      39.015  26.150  28.997  1.00  0.00     0.010 A 
ATOM     32  C   UNL A   1      39.574  27.293  28.426  1.00  0.00    -0.014 A 
BRANCH  32  33
ATOM     33  C   UNL A   1      39.516  28.412  29.352  1.00  0.00     0.031 A 
ATOM     34  C   UNL A   1      38.539  29.484  29.160  1.00  0.00     0.074 A 
ATOM     35  C   UNL A   1      40.390  28.271  30.380  1.00  0.00     0.049 A 
ATOM     36  N   UNL A   1      38.818  30.739  29.171  1.00  0.00    -0.248 NA
ATOM     37  C   UNL A   1      37.129  29.213  28.870  1.00  0.00     0.031 C 
ATOM     38  C   UNL A   1      40.589  28.995  31.613  1.00  0.00     0.029 A 
ATOM     39  N   UNL A   1      41.440  27.347  30.391  1.00  0.00    -0.354 N 
ATOM     40  C   UNL A   1      37.606  31.376  29.350  1.00  0.00     0.074 A 
ATOM     41  C   UNL A   1      36.600  30.443  28.909  1.00  0.00     0.031 C 
ATOM     42  C   UNL A   1      41.830  28.716  32.073  1.00  0.00     0.029 A 
ATOM     43  C   UNL A   1      42.504  27.851  31.106  1.00  0.00     0.049 A 
ATOM     44  H   UNL A   1      41.421  26.466  29.952  1.00  0.00     0.167 HD
ATOM     45  C   UNL A   1      37.525  32.449  30.189  1.00  0.00     0.034 A 
ATOM     46  C   UNL A   1      43.627  28.105  30.371  1.00  0.00     0.034 A 
ATOM     47  C   UNL A   1      38.795  32.619  30.890  1.00  0.00     0.049 A 
ATOM     48  C   UNL A   1      43.750  29.596  30.178  1.00  0.00     0.074 A 
ATOM     49  C   UNL A   1      39.201  32.233  32.158  1.00  0.00     0.029 A 
ATOM     50  N   UNL A   1      39.951  32.884  30.171  1.00  0.00    -0.354 N 
ATOM     51  N   UNL A   1      42.742  30.425  30.232  1.00  0.00    -0.248 NA
ATOM     52  C   UNL A   1      45.030  30.266  30.017  1.00  0.00     0.031 C 
ATOM     53  C   UNL A   1      40.621  32.205  32.171  1.00  0.00     0.029 A 
ATOM     54  C   UNL A   1      41.070  32.568  30.915  1.00  0.00     0.049 A 
ATOM     55  H   UNL A   1      39.970  33.246  29.257  1.00  0.00     0.167 HD
ATOM     56  C   UNL A   1      43.210  31.709  30.217  1.00  0.00     0.074 A 
ATOM     57  C   UNL A   1      44.651  31.554  30.068  1.00  0.00     0.031 C 
ATOM     58  C   UNL A   1      42.393  32.798  30.361  1.00  0.00     0.034 A 
BRANCH  45  59
ATOM     59  C   UNL A   1      36.235  33.067  30.670  1.00  0.00     0.023 A 
ATOM     60  C   UNL A   1      35.509  33.916  29.810  1.00  0.00     0.031 A 
ATOM     61  C   UNL A   1      35.647  32.821  31.926  1.00  0.00     0.131 A 
ATOM     62  C   UNL A   1      34.312  34.529  30.212  1.00  0.00     0.055 A 
ATOM     63  C   UNL A   1      34.463  33.452  32.340  1.00  0.00     0.041 A 
ATOM     64  F   UNL A   1      36.180  31.937  32.784  1.00  0.00    -0.206 F 
ATOM     65  C   UNL A   1      33.789  34.315  31.483  1.00  0.00     0.022 A 
BRANCH  62  66
ATOM     66  S   UNL A   1      33.435  35.583  29.023  1.00  0.00     0.124 S 
ATOM     67  O   UNL A   1      32.809  36.572  29.893  1.00  0.00    -0.237 OA
ATOM     68  O   UNL A   1      34.519  36.065  28.174  1.00  0.00    -0.237 OA
ATOM     69  O   UNL A   1      32.507  34.660  28.371  1.00  0.00    -0.744 OA
ENDBRANCH  62  66
ENDBRANCH  45  59
BRANCH  46  70
ATOM     70  C   UNL A   1      43.927  27.033  29.343  1.00  0.00     0.023 A 
ATOM     71  C   UNL A   1      43.888  27.416  27.976  1.00  0.00     0.031 A 
ATOM     72  C   UNL A   1      44.545  25.807  29.633  1.00  0.00     0.131 A 
ATOM     73  C   UNL A   1      44.570  26.680  26.990  1.00  0.00     0.055 A 
ATOM     74  C   UNL A   1      45.158  25.032  28.629  1.00  0.00     0.041 A 
ATOM     75  F   UNL A   1      44.652  25.375  30.898  1.00  0.00    -0.206 F 
ATOM     76  C   UNL A   1      45.207  25.484  27.309  1.00  0.00     0.022 A 
BRANCH  73  77
ATOM     77  S   UNL A   1      44.877  27.456  25.370  1.00  0.00     0.124 S 
ATOM     78  O   UNL A   1      45.588  26.406  24.652  1.00  0.00    -0.237 OA
ATOM     79  O   UNL A   1      43.528  27.757  24.897  1.00  0.00    -0.237 OA
ATOM     80  O   UNL A   1      45.661  28.640  25.712  1.00  0.00    -0.744 OA
ENDBRANCH  73  77
ENDBRANCH  46  70
BRANCH  58  81
ATOM     81  C   UNL A   1      42.797  34.220  30.080  1.00  0.00     0.023 A 
ATOM     82  C   UNL A   1      42.709  34.775  28.804  1.00  0.00     0.031 A 
ATOM     83  C   UNL A   1      43.202  35.101  31.113  1.00  0.00     0.131 A 
ATOM     84  C   UNL A   1      43.142  36.081  28.558  1.00  0.00     0.055 A 
ATOM     85  C   UNL A   1      43.501  36.444  30.888  1.00  0.00     0.041 A 
ATOM     86  F   UNL A   1      43.321  34.704  32.389  1.00  0.00    -0.206 F 
ATOM     87  C   UNL A   1      43.503  36.936  29.594  1.00  0.00     0.022 A 
BRANCH  84  88
ATOM     88  S   UNL A   1      43.352  36.566  26.832  1.00  0.00     0.124 S 
ATOM     89  O   UNL A   1      42.636  35.497  26.137  1.00  0.00    -0.237 OA
ATOM     90  O   UNL A   1      42.717  37.878  26.793  1.00  0.00    -0.237 OA
ATOM     91  O   UNL A   1      44.801  36.565  26.649  1.00  0.00    -0.744 OA
ENDBRANCH  84  88
ENDBRANCH  58  81
ENDBRANCH  32  33
ENDBRANCH  25  27
ENDBRANCH  24  25
ENDBRANCH  23  24
ENDBRANCH   1  23
TORSDOF 17
ENDMDL
MODEL 2
REMARK VINA RESULT:     -12.0      4.163      9.708
REMARK SMILES Cc1ccc(Nc2c(Cl)cccc2Cl)c(CC(=O)OCCOC(=O)c2ccc(-c3c4nc(c(-c5cc(S(=O)(=O)[O-])ccc5F)c5ccc([nH]5)c(-c5cc(S(=O)(=O)[O-])ccc5F)c5nc(c(-c6cc(S(=O)(=O)[O-])ccc6F)c6ccc3[nH]6)C=C5)C=C4)cc2)c1
REMARK SMILES IDX 20 1 19 2 17 3 18 4 16 5 15 6 1 7 2 8 3 9 88 10 4 11 5 12
REMARK SMILES IDX 6 13 7 15 8 16 13 17 9 18 10 19 12 20 14 21 11 22 21 23
REMARK SMILES IDX 22 24 23 25 24 26 25 27 26 28 87 29 27 30 86 31 28 32 29 33
REMARK SMILES IDX 30 34 80 35 31 36 85 37 79 38 81 39 32 40 84 41 78 42 77 43
REMARK SMILES IDX 33 45 65 46 45 47 64 48 46 49 49 50 63 51 82 52 47 53 48 54
REMARK SMILES IDX 62 56 83 57 50 58 34 59 35 60 43 61 36 62 42 63 44 64 41 65
REMARK SMILES IDX 37 66 38 67 39 68 40 69 66 70 67 71 75 72 68 73 74 74 76 75
REMARK SMILES IDX 73 76 69 77 70 78 71 79 72 80 51 81 52 82 60 83 53 84 59 85
REMARK SMILES IDX 61 86 58 87 54 88 55 89 56 90 57 91
REMARK H PARENT 6 14 81 44 49 55
REMARK Flexibility Score: inf
ROOT
ATOM      1  C   UNL A   1      32.174  29.358  27.115  1.00  0.00     0.274 C 
ENDROOT
BRANCH   1   2
ATOM      2  O   UNL A   1      32.413  28.034  27.568  1.00  0.00    -0.462 OA
BRANCH   2   3
ATOM      3  C   UNL A   1      32.145  27.000  26.727  1.00  0.00     0.310 C 
ATOM      4  O   UNL A   1      31.063  26.496  26.539  1.00  0.00    -0.252 OA
BRANCH   3   5
ATOM      5  C   UNL A   1      33.453  26.553  26.099  1.00  0.00     0.160 C 
BRANCH   5   6
ATOM      6  C   UNL A   1      33.308  25.121  25.657  1.00  0.00    -0.013 A 
ATOM      7  C   UNL A   1      34.033  21.850  27.438  1.00  0.00     0.044 C 
ATOM      8  C   UNL A   1      33.683  22.824  26.359  1.00  0.00    -0.051 A 
ATOM      9  C   UNL A   1      33.602  22.429  25.025  1.00  0.00     0.005 A 
ATOM     10  C   UNL A   1      33.507  24.166  26.670  1.00  0.00     0.009 A 
ATOM     11  C   UNL A   1      33.357  23.367  24.016  1.00  0.00     0.026 A 
ATOM     12  C   UNL A   1      33.220  24.728  24.300  1.00  0.00     0.042 A 
BRANCH  12  13
ATOM     13  N   UNL A   1      33.085  25.654  23.250  1.00  0.00    -0.353 N 
ATOM     14  H   UNL A   1      33.806  25.629  22.582  1.00  0.00     0.167 HD
BRANCH  13  15
ATOM     15  C   UNL A   1      32.075  26.621  23.000  1.00  0.00     0.076 A 
ATOM     16  C   UNL A   1      30.713  26.312  23.163  1.00  0.00     0.066 A 
ATOM     17  C   UNL A   1      32.401  27.980  22.813  1.00  0.00     0.066 A 
ATOM     18  Cl  UNL A   1      30.168  24.683  23.381  1.00  0.00    -0.082 Cl
ATOM     19  C   UNL A   1      29.732  27.316  23.145  1.00  0.00     0.023 A 
ATOM     20  C   UNL A   1      31.433  28.989  22.885  1.00  0.00     0.023 A 
ATOM     21  Cl  UNL A   1      33.968  28.468  22.282  1.00  0.00    -0.082 Cl
ATOM     22  C   UNL A   1      30.095  28.657  23.044  1.00  0.00     0.003 A 
ENDBRANCH  13  15
ENDBRANCH  12  13
ENDBRANCH   5   6
ENDBRANCH   3   5
ENDBRANCH   2   3
ENDBRANCH   1   2
BRANCH   1  23
ATOM     23  C   UNL A   1      33.529  30.019  26.819  1.00  0.00     0.275 C 
BRANCH  23  24
ATOM     24  O   UNL A   1      34.640  29.718  27.750  1.00  0.00    -0.458 OA
BRANCH  24  25
ATOM     25  C   UNL A   1      35.547  30.537  28.364  1.00  0.00     0.338 C 
ATOM     26  O   UNL A   1      35.215  31.600  28.882  1.00  0.00    -0.246 OA
BRANCH  25  27
ATOM     27  C   UNL A   1      36.889  29.996  28.610  1.00  0.00     0.060 A 
ATOM     28  C   UNL A   1      37.202  29.240  29.756  1.00  0.00     0.016 A 
ATOM     29  C   UNL A   1      37.770  30.075  27.563  1.00  0.00     0.016 A 
ATOM     30  C   UNL A   1      38.349  28.450  29.749  1.00  0.00     0.010 A 
ATOM     31  C   UNL A   1      38.646  29.050  27.407  1.00  0.00     0.010 A 
ATOM     32  C   UNL A   1      39.037  28.338  28.542  1.00  0.00    -0.014 A 
BRANCH  32  33
ATOM     33  C   UNL A   1      40.381  27.811  28.380  1.00  0.00     0.031 A 
ATOM     34  C   UNL A   1      40.593  26.386  28.125  1.00  0.00     0.074 A 
ATOM     35  C   UNL A   1      41.322  28.786  28.422  1.00  0.00     0.049 A 
ATOM     36  N   UNL A   1      41.419  25.641  28.771  1.00  0.00    -0.248 NA
ATOM     37  C   UNL A   1      39.818  25.647  27.124  1.00  0.00     0.031 C 
ATOM     38  C   UNL A   1      42.740  28.804  28.146  1.00  0.00     0.029 A 
ATOM     39  N   UNL A   1      41.081  30.084  28.884  1.00  0.00    -0.354 N 
ATOM     40  C   UNL A   1      41.590  24.522  27.981  1.00  0.00     0.074 A 
ATOM     41  C   UNL A   1      40.424  24.452  27.136  1.00  0.00     0.031 C 
ATOM     42  C   UNL A   1      43.273  29.901  28.732  1.00  0.00     0.029 A 
ATOM     43  C   UNL A   1      42.219  30.595  29.471  1.00  0.00     0.049 A 
ATOM     44  H   UNL A   1      40.225  30.563  28.803  1.00  0.00     0.167 HD
ATOM     45  C   UNL A   1      42.835  23.984  27.833  1.00  0.00     0.034 A 
ATOM     46  C   UNL A   1      42.126  30.821  30.815  1.00  0.00     0.034 A 
ATOM     47  C   UNL A   1      43.823  24.855  28.465  1.00  0.00     0.049 A 
ATOM     48  C   UNL A   1      42.892  29.742  31.539  1.00  0.00     0.074 A 
ATOM     49  C   UNL A   1      44.670  25.814  27.936  1.00  0.00     0.029 A 
ATOM     50  N   UNL A   1      43.757  25.097  29.829  1.00  0.00    -0.354 N 
ATOM     51  N   UNL A   1      43.138  28.560  31.040  1.00  0.00    -0.248 NA
ATOM     52  C   UNL A   1      43.523  29.956  32.831  1.00  0.00     0.031 C 
ATOM     53  C   UNL A   1      45.062  26.680  28.991  1.00  0.00     0.029 A 
ATOM     54  C   UNL A   1      44.449  26.247  30.153  1.00  0.00     0.049 A 
ATOM     55  H   UNL A   1      43.282  24.528  30.476  1.00  0.00     0.167 HD
ATOM     56  C   UNL A   1      44.014  27.897  31.853  1.00  0.00     0.074 A 
ATOM     57  C   UNL A   1      44.213  28.812  32.969  1.00  0.00     0.031 C 
ATOM     58  C   UNL A   1      44.535  26.671  31.539  1.00  0.00     0.034 A 
BRANCH  45  59
ATOM     59  C   UNL A   1      43.202  22.937  26.810  1.00  0.00     0.023 A 
ATOM     60  C   UNL A   1      42.759  21.610  26.985  1.00  0.00     0.031 A 
ATOM     61  C   UNL A   1      43.929  23.188  25.630  1.00  0.00     0.131 A 
ATOM     62  C   UNL A   1      43.084  20.594  26.072  1.00  0.00     0.055 A 
ATOM     63  C   UNL A   1      44.277  22.169  24.728  1.00  0.00     0.041 A 
ATOM     64  F   UNL A   1      44.299  24.433  25.292  1.00  0.00    -0.206 F 
ATOM     65  C   UNL A   1      43.858  20.862  24.948  1.00  0.00     0.022 A 
BRANCH  62  66
ATOM     66  S   UNL A   1      42.443  18.923  26.370  1.00  0.00     0.124 S 
ATOM     67  O   UNL A   1      42.451  18.846  27.827  1.00  0.00    -0.237 OA
ATOM     68  O   UNL A   1      41.130  18.974  25.735  1.00  0.00    -0.237 OA
ATOM     69  O   UNL A   1      43.417  18.061  25.701  1.00  0.00    -0.744 OA
ENDBRANCH  62  66
ENDBRANCH  45  59
BRANCH  46  70
ATOM     70  C   UNL A   1      40.800  31.423  31.232  1.00  0.00     0.023 A 
ATOM     71  C   UNL A   1      39.998  30.667  32.129  1.00  0.00     0.031 A 
ATOM     72  C   UNL A   1      40.455  32.773  31.069  1.00  0.00     0.131 A 
ATOM     73  C   UNL A   1      39.014  31.280  32.925  1.00  0.00     0.055 A 
ATOM     74  C   UNL A   1      39.415  33.366  31.811  1.00  0.00     0.041 A 
ATOM     75  F   UNL A   1      41.171  33.571  30.264  1.00  0.00    -0.206 F 
ATOM     76  C   UNL A   1      38.714  32.631  32.770  1.00  0.00     0.022 A 
BRANCH  73  77
ATOM     77  S   UNL A   1      38.358  30.375  34.364  1.00  0.00     0.124 S 
ATOM     78  O   UNL A   1      37.678  29.247  33.739  1.00  0.00    -0.237 OA
ATOM     79  O   UNL A   1      39.567  30.057  35.121  1.00  0.00    -0.237 OA
ATOM     80  O   UNL A   1      37.497  31.360  35.013  1.00  0.00    -0.744 OA
ENDBRANCH  73  77
ENDBRANCH  46  70
BRANCH  58  81
ATOM     81  C   UNL A   1      45.272  25.778  32.500  1.00  0.00     0.023 A 
ATOM     82  C   UNL A   1      44.647  24.715  33.149  1.00  0.00     0.031 A 
ATOM     83  C   UNL A   1      46.664  25.912  32.729  1.00  0.00     0.131 A 
ATOM     84  C   UNL A   1      45.339  23.933  34.079  1.00  0.00     0.055 A 
ATOM     85  C   UNL A   1      47.383  25.045  33.551  1.00  0.00     0.041 A 
ATOM     86  F   UNL A   1      47.394  26.886  32.162  1.00  0.00    -0.206 F 
ATOM     87  C   UNL A   1      46.713  24.063  34.260  1.00  0.00     0.022 A 
BRANCH  84  88
ATOM     88  S   UNL A   1      44.356  22.851  35.137  1.00  0.00     0.124 S 
ATOM     89  O   UNL A   1      44.639  21.538  34.559  1.00  0.00    -0.237 OA
ATOM     90  O   UNL A   1      44.928  23.095  36.456  1.00  0.00    -0.237 OA
ATOM     91  O   UNL A   1      42.991  23.334  34.947  1.00  0.00    -0.744 OA
ENDBRANCH  84  88
ENDBRANCH  58  81
ENDBRANCH  32  33
ENDBRANCH  25  27
ENDBRANCH  24  25
ENDBRANCH  23  24
ENDBRANCH   1  23
TORSDOF 17
ENDMDL
MODEL 3
REMARK VINA RESULT:     -12.0      4.071      9.452
REMARK SMILES Cc1ccc(Nc2c(Cl)cccc2Cl)c(CC(=O)OCCOC(=O)c2ccc(-c3c4nc(c(-c5cc(S(=O)(=O)[O-])ccc5F)c5ccc([nH]5)c(-c5cc(S(=O)(=O)[O-])ccc5F)c5nc(c(-c6cc(S(=O)(=O)[O-])ccc6F)c6ccc3[nH]6)C=C5)C=C4)cc2)c1
REMARK SMILES IDX 20 1 19 2 17 3 18 4 16 5 15 6 1 7 2 8 3 9 88 10 4 11 5 12
REMARK SMILES IDX 6 13 7 15 8 16 13 17 9 18 10 19 12 20 14 21 11 22 21 23
REMARK SMILES IDX 22 24 23 25 24 26 25 27 26 28 87 29 27 30 86 31 28 32 29 33
REMARK SMILES IDX 30 34 80 35 31 36 85 37 79 38 81 39 32 40 84 41 78 42 77 43
REMARK SMILES IDX 33 45 65 46 45 47 64 48 46 49 49 50 63 51 82 52 47 53 48 54
REMARK SMILES IDX 62 56 83 57 50 58 34 59 35 60 43 61 36 62 42 63 44 64 41 65
REMARK SMILES IDX 37 66 38 67 39 68 40 69 66 70 67 71 75 72 68 73 74 74 76 75
REMARK SMILES IDX 73 76 69 77 70 78 71 79 72 80 51 81 52 82 60 83 53 84 59 85
REMARK SMILES IDX 61 86 58 87 54 88 55 89 56 90 57 91
REMARK H PARENT 6 14 81 44 49 55
REMARK Flexibility Score: inf
ROOT
ATOM      1  C   UNL A   1      33.396  28.712  26.287  1.00  0.00     0.274 C 
ENDROOT
BRANCH   1   2
ATOM      2  O   UNL A   1      32.791  27.459  26.573  1.00  0.00    -0.462 OA
BRANCH   2   3
ATOM      3  C   UNL A   1      31.516  27.445  27.044  1.00  0.00     0.310 C 
ATOM      4  O   UNL A   1      31.084  28.117  27.951  1.00  0.00    -0.252 OA
BRANCH   3   5
ATOM      5  C   UNL A   1      30.738  26.401  26.265  1.00  0.00     0.160 C 
BRANCH   5   6
ATOM      6  C   UNL A   1      31.074  26.542  24.804  1.00  0.00    -0.013 A 
ATOM      7  C   UNL A   1      30.247  29.253  22.280  1.00  0.00     0.044 C 
ATOM      8  C   UNL A   1      30.736  27.965  22.862  1.00  0.00    -0.051 A 
ATOM      9  C   UNL A   1      31.113  26.899  22.046  1.00  0.00     0.005 A 
ATOM     10  C   UNL A   1      30.746  27.788  24.239  1.00  0.00     0.009 A 
ATOM     11  C   UNL A   1      31.487  25.671  22.603  1.00  0.00     0.026 A 
ATOM     12  C   UNL A   1      31.463  25.457  23.984  1.00  0.00     0.042 A 
BRANCH  12  13
ATOM     13  N   UNL A   1      31.739  24.178  24.500  1.00  0.00    -0.353 N 
ATOM     14  H   UNL A   1      31.326  23.435  24.005  1.00  0.00     0.167 HD
BRANCH  13  15
ATOM     15  C   UNL A   1      32.517  23.786  25.622  1.00  0.00     0.076 A 
ATOM     16  C   UNL A   1      31.949  23.066  26.688  1.00  0.00     0.066 A 
ATOM     17  C   UNL A   1      33.923  23.892  25.603  1.00  0.00     0.066 A 
ATOM     18  Cl  UNL A   1      30.236  22.874  26.848  1.00  0.00    -0.082 Cl
ATOM     19  C   UNL A   1      32.752  22.479  27.678  1.00  0.00     0.023 A 
ATOM     20  C   UNL A   1      34.726  23.231  26.539  1.00  0.00     0.023 A 
ATOM     21  Cl  UNL A   1      34.731  25.001  24.557  1.00  0.00    -0.082 Cl
ATOM     22  C   UNL A   1      34.141  22.529  27.583  1.00  0.00     0.003 A 
ENDBRANCH  13  15
ENDBRANCH  12  13
ENDBRANCH   5   6
ENDBRANCH   3   5
ENDBRANCH   2   3
ENDBRANCH   1   2
BRANCH   1  23
ATOM     23  C   UNL A   1      34.596  28.894  27.228  1.00  0.00     0.275 C 
BRANCH  23  24
ATOM     24  O   UNL A   1      34.950  30.281  27.605  1.00  0.00    -0.458 OA
BRANCH  24  25
ATOM     25  C   UNL A   1      35.777  30.766  28.580  1.00  0.00     0.338 C 
ATOM     26  O   UNL A   1      35.402  31.609  29.389  1.00  0.00    -0.246 OA
BRANCH  25  27
ATOM     27  C   UNL A   1      37.051  30.068  28.794  1.00  0.00     0.060 A 
ATOM     28  C   UNL A   1      37.281  29.234  29.904  1.00  0.00     0.016 A 
ATOM     29  C   UNL A   1      37.934  30.094  27.744  1.00  0.00     0.016 A 
ATOM     30  C   UNL A   1      38.332  28.322  29.856  1.00  0.00     0.010 A 
ATOM     31  C   UNL A   1      38.689  28.985  27.539  1.00  0.00     0.010 A 
ATOM     32  C   UNL A   1      39.001  28.187  28.640  1.00  0.00    -0.014 A 
BRANCH  32  33
ATOM     33  C   UNL A   1      40.278  27.520  28.446  1.00  0.00     0.031 A 
ATOM     34  C   UNL A   1      40.347  26.061  28.362  1.00  0.00     0.074 A 
ATOM     35  C   UNL A   1      41.296  28.401  28.291  1.00  0.00     0.049 A 
ATOM     36  N   UNL A   1      41.161  25.327  29.035  1.00  0.00    -0.248 NA
ATOM     37  C   UNL A   1      39.430  25.281  27.527  1.00  0.00     0.031 C 
ATOM     38  C   UNL A   1      42.681  28.253  27.908  1.00  0.00     0.029 A 
ATOM     39  N   UNL A   1      41.205  29.763  28.598  1.00  0.00    -0.354 N 
ATOM     40  C   UNL A   1      41.170  24.109  28.386  1.00  0.00     0.074 A 
ATOM     41  C   UNL A   1      39.933  24.046  27.647  1.00  0.00     0.031 C 
ATOM     42  C   UNL A   1      43.352  29.359  28.305  1.00  0.00     0.029 A 
ATOM     43  C   UNL A   1      42.428  30.233  29.026  1.00  0.00     0.049 A 
ATOM     44  H   UNL A   1      40.387  30.305  28.520  1.00  0.00     0.167 HD
ATOM     45  C   UNL A   1      42.348  23.443  28.215  1.00  0.00     0.034 A 
ATOM     46  C   UNL A   1      42.470  30.629  30.332  1.00  0.00     0.034 A 
ATOM     47  C   UNL A   1      43.456  24.289  28.653  1.00  0.00     0.049 A 
ATOM     48  C   UNL A   1      43.204  29.580  31.130  1.00  0.00     0.074 A 
ATOM     49  C   UNL A   1      44.331  25.093  27.941  1.00  0.00     0.029 A 
ATOM     50  N   UNL A   1      43.529  24.701  29.975  1.00  0.00    -0.354 N 
ATOM     51  N   UNL A   1      43.307  28.328  30.771  1.00  0.00    -0.248 NA
ATOM     52  C   UNL A   1      43.961  29.890  32.332  1.00  0.00     0.031 C 
ATOM     53  C   UNL A   1      44.883  26.041  28.843  1.00  0.00     0.029 A 
ATOM     54  C   UNL A   1      44.340  25.812  30.094  1.00  0.00     0.049 A 
ATOM     55  H   UNL A   1      43.067  24.262  30.724  1.00  0.00     0.167 HD
ATOM     56  C   UNL A   1      44.192  27.691  31.594  1.00  0.00     0.074 A 
ATOM     57  C   UNL A   1      44.564  28.712  32.565  1.00  0.00     0.031 C 
ATOM     58  C   UNL A   1      44.581  26.392  31.403  1.00  0.00     0.034 A 
BRANCH  45  59
ATOM     59  C   UNL A   1      42.537  22.249  27.311  1.00  0.00     0.023 A 
ATOM     60  C   UNL A   1      43.593  22.246  26.377  1.00  0.00     0.031 A 
ATOM     61  C   UNL A   1      41.755  21.079  27.353  1.00  0.00     0.131 A 
ATOM     62  C   UNL A   1      43.804  21.169  25.502  1.00  0.00     0.055 A 
ATOM     63  C   UNL A   1      41.948  20.011  26.463  1.00  0.00     0.041 A 
ATOM     64  F   UNL A   1      40.798  20.914  28.280  1.00  0.00    -0.206 F 
ATOM     65  C   UNL A   1      42.975  20.053  25.526  1.00  0.00     0.022 A 
BRANCH  62  66
ATOM     66  S   UNL A   1      45.209  21.246  24.355  1.00  0.00     0.124 S 
ATOM     67  O   UNL A   1      45.378  19.845  23.983  1.00  0.00    -0.237 OA
ATOM     68  O   UNL A   1      44.712  22.134  23.311  1.00  0.00    -0.237 OA
ATOM     69  O   UNL A   1      46.286  21.800  25.175  1.00  0.00    -0.744 OA
ENDBRANCH  62  66
ENDBRANCH  45  59
BRANCH  46  70
ATOM     70  C   UNL A   1      41.240  31.398  30.768  1.00  0.00     0.023 A 
ATOM     71  C   UNL A   1      40.352  30.747  31.664  1.00  0.00     0.031 A 
ATOM     72  C   UNL A   1      41.079  32.784  30.621  1.00  0.00     0.131 A 
ATOM     73  C   UNL A   1      39.464  31.478  32.474  1.00  0.00     0.055 A 
ATOM     74  C   UNL A   1      40.133  33.503  31.378  1.00  0.00     0.041 A 
ATOM     75  F   UNL A   1      41.888  33.488  29.817  1.00  0.00    -0.206 F 
ATOM     76  C   UNL A   1      39.347  32.858  32.336  1.00  0.00     0.022 A 
BRANCH  73  77
ATOM     77  S   UNL A   1      38.704  30.653  33.911  1.00  0.00     0.124 S 
ATOM     78  O   UNL A   1      37.434  31.356  34.038  1.00  0.00    -0.237 OA
ATOM     79  O   UNL A   1      38.626  29.259  33.476  1.00  0.00    -0.237 OA
ATOM     80  O   UNL A   1      39.673  30.885  34.979  1.00  0.00    -0.744 OA
ENDBRANCH  73  77
ENDBRANCH  46  70
BRANCH  58  81
ATOM     81  C   UNL A   1      45.322  25.559  32.412  1.00  0.00     0.023 A 
ATOM     82  C   UNL A   1      44.704  24.524  33.114  1.00  0.00     0.031 A 
ATOM     83  C   UNL A   1      46.712  25.718  32.640  1.00  0.00     0.131 A 
ATOM     84  C   UNL A   1      45.400  23.800  34.086  1.00  0.00     0.055 A 
ATOM     85  C   UNL A   1      47.434  24.902  33.510  1.00  0.00     0.041 A 
ATOM     86  F   UNL A   1      47.434  26.668  32.026  1.00  0.00    -0.206 F 
ATOM     87  C   UNL A   1      46.771  23.952  34.266  1.00  0.00     0.022 A 
BRANCH  84  88
ATOM     88  S   UNL A   1      44.422  22.765  35.196  1.00  0.00     0.124 S 
ATOM     89  O   UNL A   1      44.927  23.176  36.504  1.00  0.00    -0.237 OA
ATOM     90  O   UNL A   1      43.057  23.175  34.890  1.00  0.00    -0.237 OA
ATOM     91  O   UNL A   1      44.773  21.405  34.793  1.00  0.00    -0.744 OA
ENDBRANCH  84  88
ENDBRANCH  58  81
ENDBRANCH  32  33
ENDBRANCH  25  27
ENDBRANCH  24  25
ENDBRANCH  23  24
ENDBRANCH   1  23
TORSDOF 17
ENDMDL
