MODEL 1
REMARK VINA RESULT:     -12.6      0.000      0.000
REMARK SMILES O=C(OCCOC(=O)[C@H]1[C@H]2CC[C@H](C2)[C@@H]1C(=O)N[C@H]1CCCc2ccccc21)c1ccc(-c2c3nc(c(-c4cc(S(=O)(=O)[O-])ccc4F)c4ccc([nH]4)c(-c4cc(S(=O)(=O)[O-])ccc4F)c4nc(c(-c5cc(S(=O)(=O)[O-])ccc5F)c5ccc2[nH]5)C=C4)C=C3)cc1
REMARK SMILES IDX 4 1 3 2 2 3 1 4 29 5 30 6 91 7 31 8 90 9 32 10 33 11 34 12
REMARK SMILES IDX 84 13 35 14 89 15 83 16 85 17 36 18 88 19 82 20 81 21 37 23
REMARK SMILES IDX 69 24 49 25 68 26 50 27 53 28 67 29 86 30 51 31 52 32 66 34
REMARK SMILES IDX 87 35 54 36 38 37 39 38 47 39 40 40 46 41 48 42 45 43 41 44
REMARK SMILES IDX 42 45 43 46 44 47 70 48 71 49 79 50 72 51 78 52 80 53 77 54
REMARK SMILES IDX 73 55 74 56 75 57 76 58 55 59 56 60 64 61 57 62 63 63 65 64
REMARK SMILES IDX 62 65 58 66 59 67 60 68 61 69 5 70 6 71 7 72 8 73 9 74 10 75
REMARK SMILES IDX 15 76 11 77 14 78 13 79 12 80 16 81 17 82 18 83 19 85 20 86
REMARK SMILES IDX 28 87 21 88 23 89 27 90 22 91 24 92 26 93 25 94
REMARK H PARENT 85 22 53 33 18 84
REMARK Flexibility Score: inf
ROOT
ATOM      1  C   UNL A   1      36.417  23.937  25.753  1.00  0.00     0.275 C 
ENDROOT
BRANCH   1   2
ATOM      2  O   UNL A   1      37.148  22.740  25.993  1.00  0.00    -0.458 OA
BRANCH   2   3
ATOM      3  C   UNL A   1      38.489  22.643  26.154  1.00  0.00     0.338 C 
ATOM      4  O   UNL A   1      38.984  21.529  25.994  1.00  0.00    -0.246 OA
BRANCH   3   5
ATOM      5  C   UNL A   1      39.399  23.788  26.570  1.00  0.00     0.060 A 
ATOM      6  C   UNL A   1      40.158  24.646  25.764  1.00  0.00     0.016 A 
ATOM      7  C   UNL A   1      39.361  24.129  27.921  1.00  0.00     0.016 A 
ATOM      8  C   UNL A   1      40.725  25.847  26.246  1.00  0.00     0.010 A 
ATOM      9  C   UNL A   1      39.734  25.422  28.343  1.00  0.00     0.010 A 
ATOM     10  C   UNL A   1      40.281  26.376  27.452  1.00  0.00    -0.014 A 
BRANCH  10  11
ATOM     11  C   UNL A   1      40.311  27.932  27.793  1.00  0.00     0.031 A 
ATOM     12  C   UNL A   1      41.750  28.374  27.833  1.00  0.00     0.074 A 
ATOM     13  C   UNL A   1      39.271  28.864  28.205  1.00  0.00     0.049 A 
ATOM     14  N   UNL A   1      42.291  29.478  28.262  1.00  0.00    -0.248 NA
ATOM     15  C   UNL A   1      42.734  27.343  27.417  1.00  0.00     0.031 C 
ATOM     16  C   UNL A   1      37.176  28.928  28.619  1.00  0.00     0.029 A 
ATOM     17  N   UNL A   1      39.736  30.607  28.773  1.00  0.00    -0.354 N 
ATOM     18  C   UNL A   1      43.649  29.257  28.123  1.00  0.00     0.074 A 
ATOM     19  C   UNL A   1      43.851  27.855  27.876  1.00  0.00     0.031 C 
ATOM     20  C   UNL A   1      36.738  30.389  29.255  1.00  0.00     0.029 A 
ATOM     21  C   UNL A   1      38.253  31.523  29.397  1.00  0.00     0.049 A 
ATOM     22  H   UNL A   1      40.648  30.978  28.742  1.00  0.00     0.167 HD
ATOM     23  C   UNL A   1      44.647  30.154  28.040  1.00  0.00     0.034 A 
ATOM     24  C   UNL A   1      38.063  32.743  29.938  1.00  0.00     0.034 A 
ATOM     25  C   UNL A   1      44.485  31.536  28.364  1.00  0.00     0.049 A 
ATOM     26  C   UNL A   1      39.284  33.557  30.023  1.00  0.00     0.074 A 
ATOM     27  C   UNL A   1      45.454  32.510  28.344  1.00  0.00     0.029 A 
ATOM     28  N   UNL A   1      43.315  32.121  28.849  1.00  0.00    -0.354 N 
ATOM     29  N   UNL A   1      40.503  33.175  29.733  1.00  0.00    -0.248 NA
ATOM     30  C   UNL A   1      39.138  34.939  30.463  1.00  0.00     0.031 C 
ATOM     31  C   UNL A   1      44.911  33.647  28.935  1.00  0.00     0.029 A 
ATOM     32  C   UNL A   1      43.556  33.444  29.174  1.00  0.00     0.049 A 
ATOM     33  H   UNL A   1      42.449  31.662  28.946  1.00  0.00     0.167 HD
ATOM     34  C   UNL A   1      41.285  34.293  29.889  1.00  0.00     0.074 A 
ATOM     35  C   UNL A   1      40.391  35.358  30.334  1.00  0.00     0.031 C 
ATOM     36  C   UNL A   1      42.609  34.431  29.646  1.00  0.00     0.034 A 
BRANCH  23  37
ATOM     37  C   UNL A   1      45.981  29.574  27.638  1.00  0.00     0.023 A 
ATOM     38  C   UNL A   1      46.271  29.273  26.286  1.00  0.00     0.031 A 
ATOM     39  C   UNL A   1      46.835  29.078  28.631  1.00  0.00     0.131 A 
ATOM     40  C   UNL A   1      47.292  28.359  25.990  1.00  0.00     0.055 A 
ATOM     41  C   UNL A   1      47.929  28.278  28.311  1.00  0.00     0.041 A 
ATOM     42  F   UNL A   1      46.562  29.283  29.928  1.00  0.00    -0.206 F 
ATOM     43  C   UNL A   1      48.145  27.888  26.990  1.00  0.00     0.022 A 
BRANCH  40  44
ATOM     44  S   UNL A   1      47.292  27.557  24.355  1.00  0.00     0.124 S 
ATOM     45  O   UNL A   1      46.889  28.659  23.484  1.00  0.00    -0.237 OA
ATOM     46  O   UNL A   1      48.673  27.110  24.217  1.00  0.00    -0.237 OA
ATOM     47  O   UNL A   1      46.302  26.492  24.497  1.00  0.00    -0.744 OA
ENDBRANCH  40  44
ENDBRANCH  23  37
BRANCH  24  48
ATOM     48  C   UNL A   1      36.700  33.138  30.427  1.00  0.00     0.023 A 
ATOM     49  C   UNL A   1      35.812  33.858  29.615  1.00  0.00     0.031 A 
ATOM     50  C   UNL A   1      36.203  32.714  31.685  1.00  0.00     0.131 A 
ATOM     51  C   UNL A   1      34.498  34.125  30.056  1.00  0.00     0.055 A 
ATOM     52  C   UNL A   1      34.879  32.925  32.091  1.00  0.00     0.041 A 
ATOM     53  F   UNL A   1      36.977  32.024  32.534  1.00  0.00    -0.206 F 
ATOM     54  C   UNL A   1      34.017  33.639  31.273  1.00  0.00     0.022 A 
BRANCH  51  55
ATOM     55  S   UNL A   1      33.441  35.209  29.056  1.00  0.00     0.124 S 
ATOM     56  O   UNL A   1      32.782  36.007  30.082  1.00  0.00    -0.237 OA
ATOM     57  O   UNL A   1      34.419  35.905  28.227  1.00  0.00    -0.237 OA
ATOM     58  O   UNL A   1      32.572  34.274  28.341  1.00  0.00    -0.744 OA
ENDBRANCH  51  55
ENDBRANCH  24  48
BRANCH  36  59
ATOM     59  C   UNL A   1      43.134  35.815  29.807  1.00  0.00     0.023 A 
ATOM     60  C   UNL A   1      43.035  36.754  28.776  1.00  0.00     0.031 A 
ATOM     61  C   UNL A   1      43.706  36.191  31.034  1.00  0.00     0.131 A 
ATOM     62  C   UNL A   1      43.553  38.031  28.979  1.00  0.00     0.055 A 
ATOM     63  C   UNL A   1      44.117  37.495  31.264  1.00  0.00     0.041 A 
ATOM     64  F   UNL A   1      43.835  35.300  32.030  1.00  0.00    -0.206 F 
ATOM     65  C   UNL A   1      44.052  38.423  30.227  1.00  0.00     0.022 A 
BRANCH  62  66
ATOM     66  S   UNL A   1      43.688  39.124  27.547  1.00  0.00     0.124 S 
ATOM     67  O   UNL A   1      42.619  38.620  26.689  1.00  0.00    -0.237 OA
ATOM     68  O   UNL A   1      43.466  40.441  28.133  1.00  0.00    -0.237 OA
ATOM     69  O   UNL A   1      45.044  38.878  27.062  1.00  0.00    -0.744 OA
ENDBRANCH  62  66
ENDBRANCH  36  59
ENDBRANCH  10  11
ENDBRANCH   3   5
ENDBRANCH   2   3
ENDBRANCH   1   2
BRANCH   1  70
ATOM     70  C   UNL A   1      35.877  24.023  24.315  1.00  0.00     0.274 C 
BRANCH  70  71
ATOM     71  O   UNL A   1      34.478  24.397  24.222  1.00  0.00    -0.462 OA
BRANCH  71  72
ATOM     72  C   UNL A   1      33.645  23.710  23.363  1.00  0.00     0.310 C 
ATOM     73  O   UNL A   1      33.668  23.828  22.149  1.00  0.00    -0.252 OA
BRANCH  72  74
ATOM     74  C   UNL A   1      32.668  22.835  24.169  1.00  0.00     0.115 C 
ATOM     75  C   UNL A   1      32.867  21.310  23.983  1.00  0.00     0.004 C 
ATOM     76  C   UNL A   1      32.554  23.034  25.713  1.00  0.00     0.096 C 
ATOM     77  C   UNL A   1      34.205  20.839  24.506  1.00  0.00     0.005 C 
ATOM     78  C   UNL A   1      31.973  20.744  25.070  1.00  0.00     0.009 C 
ATOM     79  C   UNL A   1      32.637  21.566  26.187  1.00  0.00     0.002 C 
ATOM     80  C   UNL A   1      34.102  21.127  26.013  1.00  0.00     0.005 C 
BRANCH  76  81
ATOM     81  C   UNL A   1      31.479  23.775  26.571  1.00  0.00     0.224 C 
ATOM     82  O   UNL A   1      30.871  23.144  27.448  1.00  0.00    -0.275 OA
ATOM     83  N   UNL A   1      31.009  25.032  26.392  1.00  0.00    -0.349 N 
ATOM     84  H   UNL A   1      30.490  25.389  27.148  1.00  0.00     0.164 HD
BRANCH  83  85
ATOM     85  C   UNL A   1      31.145  25.923  25.284  1.00  0.00     0.112 C 
ATOM     86  C   UNL A   1      29.889  25.967  24.423  1.00  0.00     0.030 C 
ATOM     87  C   UNL A   1      31.725  27.249  25.665  1.00  0.00    -0.022 A 
ATOM     88  C   UNL A   1      30.156  26.926  23.283  1.00  0.00     0.007 C 
ATOM     89  C   UNL A   1      31.256  28.738  24.872  1.00  0.00    -0.043 A 
ATOM     90  C   UNL A   1      32.850  27.454  26.944  1.00  0.00     0.006 A 
ATOM     91  C   UNL A   1      30.064  28.348  23.825  1.00  0.00     0.036 C 
ATOM     92  C   UNL A   1      32.074  30.496  25.660  1.00  0.00     0.004 A 
ATOM     93  C   UNL A   1      33.550  28.959  27.541  1.00  0.00     0.000 A 
ATOM     94  C   UNL A   1      33.168  30.452  26.976  1.00  0.00     0.000 A 
ENDBRANCH  83  85
ENDBRANCH  76  81
ENDBRANCH  72  74
ENDBRANCH  71  72
ENDBRANCH  70  71
ENDBRANCH   1  70
TORSDOF 16
ENDMDL
MODEL 2
REMARK VINA RESULT:     -12.5      5.234      7.528
REMARK SMILES O=C(OCCOC(=O)[C@H]1[C@H]2CC[C@H](C2)[C@@H]1C(=O)N[C@H]1CCCc2ccccc21)c1ccc(-c2c3nc(c(-c4cc(S(=O)(=O)[O-])ccc4F)c4ccc([nH]4)c(-c4cc(S(=O)(=O)[O-])ccc4F)c4nc(c(-c5cc(S(=O)(=O)[O-])ccc5F)c5ccc2[nH]5)C=C4)C=C3)cc1
REMARK SMILES IDX 4 1 3 2 2 3 1 4 29 5 30 6 91 7 31 8 90 9 32 10 33 11 34 12
REMARK SMILES IDX 84 13 35 14 89 15 83 16 85 17 36 18 88 19 82 20 81 21 37 23
REMARK SMILES IDX 69 24 49 25 68 26 50 27 53 28 67 29 86 30 51 31 52 32 66 34
REMARK SMILES IDX 87 35 54 36 38 37 39 38 47 39 40 40 46 41 48 42 45 43 41 44
REMARK SMILES IDX 42 45 43 46 44 47 70 48 71 49 79 50 72 51 78 52 80 53 77 54
REMARK SMILES IDX 73 55 74 56 75 57 76 58 55 59 56 60 64 61 57 62 63 63 65 64
REMARK SMILES IDX 62 65 58 66 59 67 60 68 61 69 5 70 6 71 7 72 8 73 9 74 10 75
REMARK SMILES IDX 15 76 11 77 14 78 13 79 12 80 16 81 17 82 18 83 19 85 20 86
REMARK SMILES IDX 28 87 21 88 23 89 27 90 22 91 24 92 26 93 25 94
REMARK H PARENT 85 22 53 33 18 84
REMARK Flexibility Score: inf
ROOT
ATOM      1  C   UNL A   1      31.459  27.888  27.344  1.00  0.00     0.275 C 
ENDROOT
BRANCH   1   2
ATOM      2  O   UNL A   1      31.697  28.983  26.468  1.00  0.00    -0.458 OA
BRANCH   2   3
ATOM      3  C   UNL A   1      32.200  30.191  26.817  1.00  0.00     0.338 C 
ATOM      4  O   UNL A   1      31.402  31.124  26.875  1.00  0.00    -0.246 OA
BRANCH   3   5
ATOM      5  C   UNL A   1      33.670  30.475  27.082  1.00  0.00     0.060 A 
ATOM      6  C   UNL A   1      34.273  31.664  27.511  1.00  0.00     0.016 A 
ATOM      7  C   UNL A   1      34.517  29.368  27.036  1.00  0.00     0.016 A 
ATOM      8  C   UNL A   1      35.598  31.718  28.001  1.00  0.00     0.010 A 
ATOM      9  C   UNL A   1      35.748  29.382  27.725  1.00  0.00     0.010 A 
ATOM     10  C   UNL A   1      36.237  30.541  28.372  1.00  0.00    -0.014 A 
BRANCH  10  11
ATOM     11  C   UNL A   1      37.377  30.473  29.483  1.00  0.00     0.031 A 
ATOM     12  C   UNL A   1      38.390  29.448  29.051  1.00  0.00     0.074 A 
ATOM     13  C   UNL A   1      37.487  31.066  30.809  1.00  0.00     0.049 A 
ATOM     14  N   UNL A   1      39.374  28.894  29.701  1.00  0.00    -0.248 NA
ATOM     15  C   UNL A   1      38.174  28.887  27.693  1.00  0.00     0.031 C 
ATOM     16  C   UNL A   1      36.406  32.325  32.154  1.00  0.00     0.029 A 
ATOM     17  N   UNL A   1      38.898  30.550  31.958  1.00  0.00    -0.354 N 
ATOM     18  C   UNL A   1      39.882  27.970  28.807  1.00  0.00     0.074 A 
ATOM     19  C   UNL A   1      38.941  27.823  27.730  1.00  0.00     0.031 C 
ATOM     20  C   UNL A   1      37.142  32.390  33.633  1.00  0.00     0.029 A 
ATOM     21  C   UNL A   1      38.711  31.321  33.631  1.00  0.00     0.049 A 
ATOM     22  H   UNL A   1      39.634  29.949  31.701  1.00  0.00     0.167 HD
ATOM     23  C   UNL A   1      41.101  27.402  28.780  1.00  0.00     0.034 A 
ATOM     24  C   UNL A   1      39.404  31.240  34.784  1.00  0.00     0.034 A 
ATOM     25  C   UNL A   1      42.017  27.466  29.874  1.00  0.00     0.049 A 
ATOM     26  C   UNL A   1      40.599  30.387  34.706  1.00  0.00     0.074 A 
ATOM     27  C   UNL A   1      43.262  26.888  29.947  1.00  0.00     0.029 A 
ATOM     28  N   UNL A   1      41.761  28.064  31.109  1.00  0.00    -0.354 N 
ATOM     29  N   UNL A   1      40.968  29.647  33.690  1.00  0.00    -0.248 NA
ATOM     30  C   UNL A   1      41.480  30.361  35.866  1.00  0.00     0.031 C 
ATOM     31  C   UNL A   1      43.704  27.020  31.260  1.00  0.00     0.029 A 
ATOM     32  C   UNL A   1      42.819  27.825  31.969  1.00  0.00     0.049 A 
ATOM     33  H   UNL A   1      40.952  28.577  31.334  1.00  0.00     0.167 HD
ATOM     34  C   UNL A   1      42.176  29.103  34.053  1.00  0.00     0.074 A 
ATOM     35  C   UNL A   1      42.450  29.582  35.404  1.00  0.00     0.031 C 
ATOM     36  C   UNL A   1      42.996  28.315  33.319  1.00  0.00     0.034 A 
BRANCH  23  37
ATOM     37  C   UNL A   1      41.407  26.631  27.520  1.00  0.00     0.023 A 
ATOM     38  C   UNL A   1      41.143  25.244  27.428  1.00  0.00     0.031 A 
ATOM     39  C   UNL A   1      42.204  27.226  26.534  1.00  0.00     0.131 A 
ATOM     40  C   UNL A   1      41.813  24.479  26.463  1.00  0.00     0.055 A 
ATOM     41  C   UNL A   1      42.758  26.475  25.500  1.00  0.00     0.041 A 
ATOM     42  F   UNL A   1      42.535  28.523  26.618  1.00  0.00    -0.206 F 
ATOM     43  C   UNL A   1      42.591  25.091  25.477  1.00  0.00     0.022 A 
BRANCH  40  44
ATOM     44  S   UNL A   1      41.915  22.676  26.700  1.00  0.00     0.124 S 
ATOM     45  O   UNL A   1      40.552  22.356  27.120  1.00  0.00    -0.237 OA
ATOM     46  O   UNL A   1      42.302  22.201  25.377  1.00  0.00    -0.237 OA
ATOM     47  O   UNL A   1      42.930  22.526  27.740  1.00  0.00    -0.744 OA
ENDBRANCH  40  44
ENDBRANCH  23  37
BRANCH  24  48
ATOM     48  C   UNL A   1      38.904  31.953  36.007  1.00  0.00     0.023 A 
ATOM     49  C   UNL A   1      38.130  31.293  36.972  1.00  0.00     0.031 A 
ATOM     50  C   UNL A   1      39.278  33.288  36.302  1.00  0.00     0.131 A 
ATOM     51  C   UNL A   1      37.761  31.953  38.165  1.00  0.00     0.055 A 
ATOM     52  C   UNL A   1      38.965  33.915  37.515  1.00  0.00     0.041 A 
ATOM     53  F   UNL A   1      40.015  34.003  35.441  1.00  0.00    -0.206 F 
ATOM     54  C   UNL A   1      38.198  33.246  38.455  1.00  0.00     0.022 A 
BRANCH  51  55
ATOM     55  S   UNL A   1      36.612  31.129  39.302  1.00  0.00     0.124 S 
ATOM     56  O   UNL A   1      35.539  32.112  39.399  1.00  0.00    -0.237 OA
ATOM     57  O   UNL A   1      36.298  29.901  38.580  1.00  0.00    -0.237 OA
ATOM     58  O   UNL A   1      37.404  30.951  40.518  1.00  0.00    -0.744 OA
ENDBRANCH  51  55
ENDBRANCH  24  48
BRANCH  36  59
ATOM     59  C   UNL A   1      44.295  27.987  33.969  1.00  0.00     0.023 A 
ATOM     60  C   UNL A   1      44.445  26.842  34.756  1.00  0.00     0.031 A 
ATOM     61  C   UNL A   1      45.399  28.829  33.754  1.00  0.00     0.131 A 
ATOM     62  C   UNL A   1      45.680  26.591  35.349  1.00  0.00     0.055 A 
ATOM     63  C   UNL A   1      46.652  28.511  34.256  1.00  0.00     0.041 A 
ATOM     64  F   UNL A   1      45.273  29.948  33.023  1.00  0.00    -0.206 F 
ATOM     65  C   UNL A   1      46.795  27.390  35.070  1.00  0.00     0.022 A 
BRANCH  62  66
ATOM     66  S   UNL A   1      45.769  25.286  36.594  1.00  0.00     0.124 S 
ATOM     67  O   UNL A   1      46.721  25.851  37.546  1.00  0.00    -0.237 OA
ATOM     68  O   UNL A   1      44.388  25.194  37.054  1.00  0.00    -0.237 OA
ATOM     69  O   UNL A   1      46.253  24.132  35.839  1.00  0.00    -0.744 OA
ENDBRANCH  62  66
ENDBRANCH  36  59
ENDBRANCH  10  11
ENDBRANCH   3   5
ENDBRANCH   2   3
ENDBRANCH   1   2
BRANCH   1  70
ATOM     70  C   UNL A   1      32.041  26.566  26.813  1.00  0.00     0.274 C 
BRANCH  70  71
ATOM     71  O   UNL A   1      31.104  25.459  26.809  1.00  0.00    -0.462 OA
BRANCH  71  72
ATOM     72  C   UNL A   1      31.579  24.165  26.877  1.00  0.00     0.310 C 
ATOM     73  O   UNL A   1      31.132  23.311  27.625  1.00  0.00    -0.252 OA
BRANCH  72  74
ATOM     74  C   UNL A   1      32.770  23.994  25.918  1.00  0.00     0.115 C 
ATOM     75  C   UNL A   1      34.072  23.495  26.593  1.00  0.00     0.004 C 
ATOM     76  C   UNL A   1      32.613  23.096  24.651  1.00  0.00     0.096 C 
ATOM     77  C   UNL A   1      33.927  22.099  27.157  1.00  0.00     0.005 C 
ATOM     78  C   UNL A   1      34.944  23.179  25.394  1.00  0.00     0.009 C 
ATOM     79  C   UNL A   1      33.902  22.250  24.750  1.00  0.00     0.002 C 
ATOM     80  C   UNL A   1      33.685  21.248  25.899  1.00  0.00     0.005 C 
BRANCH  76  81
ATOM     81  C   UNL A   1      32.380  23.475  23.153  1.00  0.00     0.224 C 
ATOM     82  O   UNL A   1      32.468  22.590  22.289  1.00  0.00    -0.275 OA
ATOM     83  N   UNL A   1      32.216  24.715  22.635  1.00  0.00    -0.349 N 
ATOM     84  H   UNL A   1      31.881  24.734  21.710  1.00  0.00     0.164 HD
BRANCH  83  85
ATOM     85  C   UNL A   1      32.448  25.999  23.216  1.00  0.00     0.112 C 
ATOM     86  C   UNL A   1      33.688  26.674  22.643  1.00  0.00     0.030 C 
ATOM     87  C   UNL A   1      31.215  26.845  23.285  1.00  0.00    -0.022 A 
ATOM     88  C   UNL A   1      33.838  28.010  23.339  1.00  0.00     0.007 C 
ATOM     89  C   UNL A   1      31.262  28.585  23.104  1.00  0.00    -0.043 A 
ATOM     90  C   UNL A   1      29.639  26.197  23.484  1.00  0.00     0.006 A 
ATOM     91  C   UNL A   1      32.810  28.971  22.751  1.00  0.00     0.036 C 
ATOM     92  C   UNL A   1      29.409  29.557  23.081  1.00  0.00     0.004 A 
ATOM     93  C   UNL A   1      28.105  27.068  23.507  1.00  0.00     0.000 A 
ATOM     94  C   UNL A   1      27.948  28.685  23.273  1.00  0.00     0.000 A 
ENDBRANCH  83  85
ENDBRANCH  76  81
ENDBRANCH  72  74
ENDBRANCH  71  72
ENDBRANCH  70  71
ENDBRANCH   1  70
TORSDOF 16
ENDMDL
MODEL 3
REMARK VINA RESULT:     -12.2      5.113     10.484
REMARK SMILES O=C(OCCOC(=O)[C@H]1[C@H]2CC[C@H](C2)[C@@H]1C(=O)N[C@H]1CCCc2ccccc21)c1ccc(-c2c3nc(c(-c4cc(S(=O)(=O)[O-])ccc4F)c4ccc([nH]4)c(-c4cc(S(=O)(=O)[O-])ccc4F)c4nc(c(-c5cc(S(=O)(=O)[O-])ccc5F)c5ccc2[nH]5)C=C4)C=C3)cc1
REMARK SMILES IDX 4 1 3 2 2 3 1 4 29 5 30 6 91 7 31 8 90 9 32 10 33 11 34 12
REMARK SMILES IDX 84 13 35 14 89 15 83 16 85 17 36 18 88 19 82 20 81 21 37 23
REMARK SMILES IDX 69 24 49 25 68 26 50 27 53 28 67 29 86 30 51 31 52 32 66 34
REMARK SMILES IDX 87 35 54 36 38 37 39 38 47 39 40 40 46 41 48 42 45 43 41 44
REMARK SMILES IDX 42 45 43 46 44 47 70 48 71 49 79 50 72 51 78 52 80 53 77 54
REMARK SMILES IDX 73 55 74 56 75 57 76 58 55 59 56 60 64 61 57 62 63 63 65 64
REMARK SMILES IDX 62 65 58 66 59 67 60 68 61 69 5 70 6 71 7 72 8 73 9 74 10 75
REMARK SMILES IDX 15 76 11 77 14 78 13 79 12 80 16 81 17 82 18 83 19 85 20 86
REMARK SMILES IDX 28 87 21 88 23 89 27 90 22 91 24 92 26 93 25 94
REMARK H PARENT 85 22 53 33 18 84
REMARK Flexibility Score: inf
ROOT
ATOM      1  C   UNL A   1      33.542  28.189  26.976  1.00  0.00     0.275 C 
ENDROOT
BRANCH   1   2
ATOM      2  O   UNL A   1      33.541  29.583  26.688  1.00  0.00    -0.458 OA
BRANCH   2   3
ATOM      3  C   UNL A   1      34.090  30.556  27.454  1.00  0.00     0.338 C 
ATOM      4  O   UNL A   1      33.506  31.638  27.471  1.00  0.00    -0.246 OA
BRANCH   3   5
ATOM      5  C   UNL A   1      35.388  30.419  28.233  1.00  0.00     0.060 A 
ATOM      6  C   UNL A   1      35.576  30.061  29.574  1.00  0.00     0.016 A 
ATOM      7  C   UNL A   1      36.557  30.519  27.480  1.00  0.00     0.016 A 
ATOM      8  C   UNL A   1      36.834  29.684  30.097  1.00  0.00     0.010 A 
ATOM      9  C   UNL A   1      37.756  29.936  27.942  1.00  0.00     0.010 A 
ATOM     10  C   UNL A   1      37.863  29.350  29.225  1.00  0.00    -0.014 A 
BRANCH  10  11
ATOM     11  C   UNL A   1      39.035  28.337  29.598  1.00  0.00     0.031 A 
ATOM     12  C   UNL A   1      39.757  28.880  30.802  1.00  0.00     0.074 A 
ATOM     13  C   UNL A   1      39.575  27.171  28.914  1.00  0.00     0.049 A 
ATOM     14  N   UNL A   1      40.887  28.533  31.349  1.00  0.00    -0.248 NA
ATOM     15  C   UNL A   1      39.139  30.086  31.412  1.00  0.00     0.031 C 
ATOM     16  C   UNL A   1      39.293  26.015  27.140  1.00  0.00     0.029 A 
ATOM     17  N   UNL A   1      41.160  26.354  29.548  1.00  0.00    -0.354 N 
ATOM     18  C   UNL A   1      41.063  29.456  32.363  1.00  0.00     0.074 A 
ATOM     19  C   UNL A   1      40.121  30.524  32.164  1.00  0.00     0.031 C 
ATOM     20  C   UNL A   1      40.492  24.891  26.962  1.00  0.00     0.029 A 
ATOM     21  C   UNL A   1      41.717  25.006  28.408  1.00  0.00     0.049 A 
ATOM     22  H   UNL A   1      41.627  26.613  30.375  1.00  0.00     0.167 HD
ATOM     23  C   UNL A   1      41.824  29.364  33.467  1.00  0.00     0.034 A 
ATOM     24  C   UNL A   1      42.778  24.175  28.386  1.00  0.00     0.034 A 
ATOM     25  C   UNL A   1      42.824  28.360  33.645  1.00  0.00     0.049 A 
ATOM     26  C   UNL A   1      43.685  24.331  29.532  1.00  0.00     0.074 A 
ATOM     27  C   UNL A   1      43.668  28.213  34.720  1.00  0.00     0.029 A 
ATOM     28  N   UNL A   1      43.177  27.394  32.702  1.00  0.00    -0.354 N 
ATOM     29  N   UNL A   1      43.610  25.241  30.472  1.00  0.00    -0.248 NA
ATOM     30  C   UNL A   1      44.777  23.374  29.657  1.00  0.00     0.031 C 
ATOM     31  C   UNL A   1      44.612  27.250  34.377  1.00  0.00     0.029 A 
ATOM     32  C   UNL A   1      44.266  26.673  33.160  1.00  0.00     0.049 A 
ATOM     33  H   UNL A   1      42.722  27.248  31.842  1.00  0.00     0.167 HD
ATOM     34  C   UNL A   1      44.614  24.936  31.358  1.00  0.00     0.074 A 
ATOM     35  C   UNL A   1      45.301  23.769  30.811  1.00  0.00     0.031 C 
ATOM     36  C   UNL A   1      44.911  25.541  32.531  1.00  0.00     0.034 A 
BRANCH  23  37
ATOM     37  C   UNL A   1      41.584  30.450  34.488  1.00  0.00     0.023 A 
ATOM     38  C   UNL A   1      40.509  30.370  35.404  1.00  0.00     0.031 A 
ATOM     39  C   UNL A   1      42.259  31.669  34.355  1.00  0.00     0.131 A 
ATOM     40  C   UNL A   1      40.044  31.539  36.021  1.00  0.00     0.055 A 
ATOM     41  C   UNL A   1      41.870  32.795  35.076  1.00  0.00     0.041 A 
ATOM     42  F   UNL A   1      43.240  31.809  33.450  1.00  0.00    -0.206 F 
ATOM     43  C   UNL A   1      40.740  32.744  35.891  1.00  0.00     0.022 A 
BRANCH  40  44
ATOM     44  S   UNL A   1      38.366  31.541  36.728  1.00  0.00     0.124 S 
ATOM     45  O   UNL A   1      38.070  30.110  36.792  1.00  0.00    -0.237 OA
ATOM     46  O   UNL A   1      38.557  32.209  38.009  1.00  0.00    -0.237 OA
ATOM     47  O   UNL A   1      37.583  32.286  35.745  1.00  0.00    -0.744 OA
ENDBRANCH  40  44
ENDBRANCH  23  37
BRANCH  24  48
ATOM     48  C   UNL A   1      42.967  23.236  27.230  1.00  0.00     0.023 A 
ATOM     49  C   UNL A   1      42.486  21.919  27.272  1.00  0.00     0.031 A 
ATOM     50  C   UNL A   1      43.538  23.661  26.004  1.00  0.00     0.131 A 
ATOM     51  C   UNL A   1      42.580  21.088  26.134  1.00  0.00     0.055 A 
ATOM     52  C   UNL A   1      43.569  22.855  24.859  1.00  0.00     0.041 A 
ATOM     53  F   UNL A   1      44.027  24.901  25.866  1.00  0.00    -0.206 F 
ATOM     54  C   UNL A   1      43.089  21.556  24.921  1.00  0.00     0.022 A 
BRANCH  51  55
ATOM     55  S   UNL A   1      42.113  19.342  26.284  1.00  0.00     0.124 S 
ATOM     56  O   UNL A   1      42.196  19.137  27.725  1.00  0.00    -0.237 OA
ATOM     57  O   UNL A   1      40.773  19.335  25.708  1.00  0.00    -0.237 OA
ATOM     58  O   UNL A   1      43.132  18.647  25.498  1.00  0.00    -0.744 OA
ENDBRANCH  51  55
ENDBRANCH  24  48
BRANCH  36  59
ATOM     59  C   UNL A   1      45.997  24.889  33.314  1.00  0.00     0.023 A 
ATOM     60  C   UNL A   1      47.338  25.238  33.127  1.00  0.00     0.031 A 
ATOM     61  C   UNL A   1      45.660  23.931  34.284  1.00  0.00     0.131 A 
ATOM     62  C   UNL A   1      48.313  24.588  33.880  1.00  0.00     0.055 A 
ATOM     63  C   UNL A   1      46.627  23.371  35.106  1.00  0.00     0.041 A 
ATOM     64  F   UNL A   1      44.382  23.560  34.464  1.00  0.00    -0.206 F 
ATOM     65  C   UNL A   1      47.966  23.691  34.897  1.00  0.00     0.022 A 
BRANCH  62  66
ATOM     66  S   UNL A   1      50.041  24.832  33.414  1.00  0.00     0.124 S 
ATOM     67  O   UNL A   1      50.316  23.616  32.654  1.00  0.00    -0.237 OA
ATOM     68  O   UNL A   1      49.988  26.068  32.641  1.00  0.00    -0.237 OA
ATOM     69  O   UNL A   1      50.727  24.930  34.701  1.00  0.00    -0.744 OA
ENDBRANCH  62  66
ENDBRANCH  36  59
ENDBRANCH  10  11
ENDBRANCH   3   5
ENDBRANCH   2   3
ENDBRANCH   1   2
BRANCH   1  70
ATOM     70  C   UNL A   1      33.962  27.335  25.767  1.00  0.00     0.274 C 
BRANCH  70  71
ATOM     71  O   UNL A   1      33.314  26.038  25.697  1.00  0.00    -0.462 OA
BRANCH  71  72
ATOM     72  C   UNL A   1      31.937  25.965  25.678  1.00  0.00     0.310 C 
ATOM     73  O   UNL A   1      31.251  25.742  26.663  1.00  0.00    -0.252 OA
BRANCH  72  74
ATOM     74  C   UNL A   1      31.422  26.149  24.240  1.00  0.00     0.115 C 
ATOM     75  C   UNL A   1      30.348  27.254  24.077  1.00  0.00     0.004 C 
ATOM     76  C   UNL A   1      32.443  26.418  23.088  1.00  0.00     0.096 C 
ATOM     77  C   UNL A   1      30.890  28.631  24.390  1.00  0.00     0.005 C 
ATOM     78  C   UNL A   1      30.249  27.373  22.569  1.00  0.00     0.009 C 
ATOM     79  C   UNL A   1      31.757  27.610  22.385  1.00  0.00     0.002 C 
ATOM     80  C   UNL A   1      31.953  28.834  23.297  1.00  0.00     0.005 C 
BRANCH  76  81
ATOM     81  C   UNL A   1      33.026  25.463  21.998  1.00  0.00     0.224 C 
ATOM     82  O   UNL A   1      33.061  25.847  20.819  1.00  0.00    -0.275 OA
ATOM     83  N   UNL A   1      33.394  24.169  22.151  1.00  0.00    -0.349 N 
ATOM     84  H   UNL A   1      33.923  23.800  21.407  1.00  0.00     0.164 HD
BRANCH  83  85
ATOM     85  C   UNL A   1      33.140  23.253  23.217  1.00  0.00     0.112 C 
ATOM     86  C   UNL A   1      32.243  22.100  22.784  1.00  0.00     0.030 C 
ATOM     87  C   UNL A   1      34.375  22.875  23.973  1.00  0.00    -0.022 A 
ATOM     88  C   UNL A   1      32.036  21.211  23.991  1.00  0.00     0.007 C 
ATOM     89  C   UNL A   1      34.596  21.283  24.667  1.00  0.00    -0.043 A 
ATOM     90  C   UNL A   1      35.711  23.929  24.183  1.00  0.00     0.006 A 
ATOM     91  C   UNL A   1      33.305  20.394  24.206  1.00  0.00     0.036 C 
ATOM     92  C   UNL A   1      36.457  20.917  25.551  1.00  0.00     0.004 A 
ATOM     93  C   UNL A   1      37.246  23.587  24.982  1.00  0.00     0.000 A 
ATOM     94  C   UNL A   1      37.662  22.132  25.617  1.00  0.00     0.000 A 
ENDBRANCH  83  85
ENDBRANCH  76  81
ENDBRANCH  72  74
ENDBRANCH  71  72
ENDBRANCH  70  71
ENDBRANCH   1  70
TORSDOF 16
ENDMDL
