MODEL 1
REMARK VINA RESULT:     -12.5      0.000      0.000
REMARK SMILES O=C(OCCOC(=O)c1ccc(-c2c3nc(c(-c4cc(S(=O)(=O)[O-])ccc4F)c4ccc([nH]4)c(-c4cc(S(=O)(=O)[O-])ccc4F)c4nc(c(-c5cc(S(=O)(=O)[O-])ccc5F)c5ccc2[nH]5)C=C4)C=C3)cc1)c1ccc(NS(=O)(=O)C2=Cc3ccccc3CC2)cc1
REMARK SMILES IDX 4 1 3 2 2 3 1 4 72 5 73 6 91 7 74 8 90 9 75 10 76 11 77 13
REMARK SMILES IDX 78 14 79 15 80 16 81 17 89 18 82 19 88 20 83 21 87 22 84 23
REMARK SMILES IDX 86 24 85 25 5 26 6 27 7 28 8 29 9 30 10 31 71 32 11 33 70 34
REMARK SMILES IDX 12 35 13 36 14 37 64 38 15 39 69 40 63 41 65 42 16 43 68 44
REMARK SMILES IDX 62 45 61 46 17 48 49 49 29 50 48 51 30 52 33 53 47 54 66 55
REMARK SMILES IDX 31 56 32 57 46 59 67 60 34 61 18 62 19 63 27 64 20 65 26 66
REMARK SMILES IDX 28 67 25 68 21 69 22 70 23 71 24 72 50 73 51 74 59 75 52 76
REMARK SMILES IDX 58 77 60 78 57 79 53 80 54 81 55 82 56 83 35 84 36 85 44 86
REMARK SMILES IDX 37 87 43 88 45 89 42 90 38 91 39 92 40 93 41 94
REMARK H PARENT 76 12 65 47 33 58
REMARK Flexibility Score: inf
ROOT
ATOM      1  C   UNL A   1      31.444  30.442  25.436  1.00  0.00     0.275 C 
ENDROOT
BRANCH   1   2
ATOM      2  O   UNL A   1      32.531  29.602  24.990  1.00  0.00    -0.458 OA
BRANCH   2   3
ATOM      3  C   UNL A   1      32.612  28.812  23.888  1.00  0.00     0.338 C 
ATOM      4  O   UNL A   1      33.246  29.180  22.904  1.00  0.00    -0.246 OA
BRANCH   3   5
ATOM      5  C   UNL A   1      31.795  27.578  23.779  1.00  0.00     0.060 A 
ATOM      6  C   UNL A   1      31.868  26.676  22.721  1.00  0.00     0.018 A 
ATOM      7  C   UNL A   1      30.871  27.328  24.794  1.00  0.00     0.018 A 
ATOM      8  C   UNL A   1      31.247  25.426  22.828  1.00  0.00     0.027 A 
ATOM      9  C   UNL A   1      30.272  26.071  24.890  1.00  0.00     0.027 A 
ATOM     10  C   UNL A   1      30.576  25.066  23.983  1.00  0.00     0.049 A 
BRANCH  10  11
ATOM     11  N   UNL A   1      30.387  23.732  24.437  1.00  0.00    -0.280 N 
ATOM     12  H   UNL A   1      29.475  23.366  24.367  1.00  0.00     0.180 HD
BRANCH  11  13
ATOM     13  S   UNL A   1      31.552  22.719  25.079  1.00  0.00     0.258 S 
ATOM     14  O   UNL A   1      32.514  23.639  25.659  1.00  0.00    -0.202 OA
ATOM     15  O   UNL A   1      30.846  21.787  25.933  1.00  0.00    -0.202 OA
BRANCH  13  16
ATOM     16  C   UNL A   1      32.348  21.834  23.727  1.00  0.00     0.066 C 
ATOM     17  C   UNL A   1      33.382  22.500  23.153  1.00  0.00     0.026 C 
ATOM     18  C   UNL A   1      32.704  20.383  23.997  1.00  0.00     0.055 C 
ATOM     19  C   UNL A   1      34.680  22.357  23.890  1.00  0.00    -0.021 A 
ATOM     20  C   UNL A   1      33.790  20.289  25.075  1.00  0.00     0.041 C 
ATOM     21  C   UNL A   1      35.738  23.224  23.612  1.00  0.00     0.008 A 
ATOM     22  C   UNL A   1      34.846  21.352  24.871  1.00  0.00    -0.040 A 
ATOM     23  C   UNL A   1      36.910  23.157  24.368  1.00  0.00     0.001 A 
ATOM     24  C   UNL A   1      35.995  21.338  25.667  1.00  0.00     0.004 A 
ATOM     25  C   UNL A   1      37.022  22.244  25.417  1.00  0.00     0.000 A 
ENDBRANCH  13  16
ENDBRANCH  11  13
ENDBRANCH  10  11
ENDBRANCH   3   5
ENDBRANCH   2   3
ENDBRANCH   1   2
BRANCH   1  26
ATOM     26  C   UNL A   1      31.781  31.395  26.583  1.00  0.00     0.275 C 
BRANCH  26  27
ATOM     27  O   UNL A   1      32.966  31.005  27.290  1.00  0.00    -0.458 OA
BRANCH  27  28
ATOM     28  C   UNL A   1      33.736  32.056  27.689  1.00  0.00     0.338 C 
ATOM     29  O   UNL A   1      33.392  33.218  27.743  1.00  0.00    -0.246 OA
BRANCH  28  30
ATOM     30  C   UNL A   1      35.053  31.581  28.174  1.00  0.00     0.060 A 
ATOM     31  C   UNL A   1      35.113  30.279  28.681  1.00  0.00     0.016 A 
ATOM     32  C   UNL A   1      36.202  32.377  28.147  1.00  0.00     0.016 A 
ATOM     33  C   UNL A   1      36.318  29.768  29.164  1.00  0.00     0.010 A 
ATOM     34  C   UNL A   1      37.414  31.857  28.625  1.00  0.00     0.010 A 
ATOM     35  C   UNL A   1      37.479  30.551  29.147  1.00  0.00    -0.014 A 
BRANCH  35  36
ATOM     36  C   UNL A   1      38.730  30.018  29.750  1.00  0.00     0.031 A 
ATOM     37  C   UNL A   1      39.210  30.567  31.064  1.00  0.00     0.074 A 
ATOM     38  C   UNL A   1      39.418  29.022  29.157  1.00  0.00     0.049 A 
ATOM     39  N   UNL A   1      40.209  30.166  31.806  1.00  0.00    -0.248 NA
ATOM     40  C   UNL A   1      38.451  31.693  31.627  1.00  0.00     0.031 C 
ATOM     41  C   UNL A   1      39.031  28.345  27.923  1.00  0.00     0.029 A 
ATOM     42  N   UNL A   1      40.593  28.404  29.508  1.00  0.00    -0.354 N 
ATOM     43  C   UNL A   1      40.162  30.946  32.953  1.00  0.00     0.074 A 
ATOM     44  C   UNL A   1      39.097  31.908  32.763  1.00  0.00     0.031 C 
ATOM     45  C   UNL A   1      39.992  27.481  27.563  1.00  0.00     0.029 A 
ATOM     46  C   UNL A   1      41.034  27.487  28.582  1.00  0.00     0.049 A 
ATOM     47  H   UNL A   1      41.075  28.601  30.343  1.00  0.00     0.167 HD
ATOM     48  C   UNL A   1      40.907  30.839  34.081  1.00  0.00     0.034 A 
ATOM     49  C   UNL A   1      42.134  26.710  28.564  1.00  0.00     0.034 A 
ATOM     50  C   UNL A   1      41.996  29.906  34.245  1.00  0.00     0.049 A 
ATOM     51  C   UNL A   1      43.021  26.685  29.781  1.00  0.00     0.074 A 
ATOM     52  C   UNL A   1      42.812  29.716  35.347  1.00  0.00     0.029 A 
ATOM     53  N   UNL A   1      42.440  29.020  33.270  1.00  0.00    -0.354 N 
ATOM     54  N   UNL A   1      42.913  27.375  30.892  1.00  0.00    -0.248 NA
ATOM     55  C   UNL A   1      44.136  25.733  29.764  1.00  0.00     0.031 C 
ATOM     56  C   UNL A   1      43.787  28.767  35.016  1.00  0.00     0.029 A 
ATOM     57  C   UNL A   1      43.538  28.308  33.734  1.00  0.00     0.049 A 
ATOM     58  H   UNL A   1      42.034  28.913  32.380  1.00  0.00     0.167 HD
ATOM     59  C   UNL A   1      43.922  26.903  31.726  1.00  0.00     0.074 A 
ATOM     60  C   UNL A   1      44.614  25.864  30.992  1.00  0.00     0.031 C 
ATOM     61  C   UNL A   1      44.239  27.287  32.989  1.00  0.00     0.034 A 
BRANCH  48  62
ATOM     62  C   UNL A   1      40.564  31.772  35.215  1.00  0.00     0.023 A 
ATOM     63  C   UNL A   1      39.546  31.457  36.135  1.00  0.00     0.031 A 
ATOM     64  C   UNL A   1      41.233  32.996  35.367  1.00  0.00     0.131 A 
ATOM     65  C   UNL A   1      39.183  32.383  37.123  1.00  0.00     0.055 A 
ATOM     66  C   UNL A   1      40.916  33.883  36.398  1.00  0.00     0.041 A 
ATOM     67  F   UNL A   1      42.196  33.361  34.506  1.00  0.00    -0.206 F 
ATOM     68  C   UNL A   1      39.877  33.584  37.276  1.00  0.00     0.022 A 
BRANCH  65  69
ATOM     69  S   UNL A   1      37.703  32.054  38.119  1.00  0.00     0.124 S 
ATOM     70  O   UNL A   1      38.226  32.181  39.477  1.00  0.00    -0.237 OA
ATOM     71  O   UNL A   1      36.789  33.104  37.684  1.00  0.00    -0.237 OA
ATOM     72  O   UNL A   1      37.322  30.697  37.731  1.00  0.00    -0.744 OA
ENDBRANCH  65  69
ENDBRANCH  48  62
BRANCH  49  73
ATOM     73  C   UNL A   1      42.448  25.872  27.373  1.00  0.00     0.023 A 
ATOM     74  C   UNL A   1      42.046  24.531  27.292  1.00  0.00     0.031 A 
ATOM     75  C   UNL A   1      43.219  26.396  26.321  1.00  0.00     0.131 A 
ATOM     76  C   UNL A   1      42.470  23.738  26.213  1.00  0.00     0.055 A 
ATOM     77  C   UNL A   1      43.600  25.617  25.227  1.00  0.00     0.041 A 
ATOM     78  F   UNL A   1      43.617  27.678  26.344  1.00  0.00    -0.206 F 
ATOM     79  C   UNL A   1      43.239  24.274  25.177  1.00  0.00     0.022 A 
BRANCH  76  80
ATOM     80  S   UNL A   1      42.080  21.967  26.233  1.00  0.00     0.124 S 
ATOM     81  O   UNL A   1      42.926  21.462  25.158  1.00  0.00    -0.237 OA
ATOM     82  O   UNL A   1      42.469  21.590  27.588  1.00  0.00    -0.237 OA
ATOM     83  O   UNL A   1      40.643  21.932  25.966  1.00  0.00    -0.744 OA
ENDBRANCH  76  80
ENDBRANCH  49  73
BRANCH  61  84
ATOM     84  C   UNL A   1      45.369  26.546  33.662  1.00  0.00     0.023 A 
ATOM     85  C   UNL A   1      45.169  25.299  34.282  1.00  0.00     0.031 A 
ATOM     86  C   UNL A   1      46.654  27.113  33.722  1.00  0.00     0.131 A 
ATOM     87  C   UNL A   1      46.215  24.697  34.997  1.00  0.00     0.055 A 
ATOM     88  C   UNL A   1      47.710  26.476  34.376  1.00  0.00     0.041 A 
ATOM     89  F   UNL A   1      46.904  28.303  33.151  1.00  0.00    -0.206 F 
ATOM     90  C   UNL A   1      47.489  25.269  35.035  1.00  0.00     0.022 A 
BRANCH  87  91
ATOM     91  S   UNL A   1      45.856  23.213  35.977  1.00  0.00     0.124 S 
ATOM     92  O   UNL A   1      45.197  23.776  37.151  1.00  0.00    -0.237 OA
ATOM     93  O   UNL A   1      45.005  22.443  35.075  1.00  0.00    -0.237 OA
ATOM     94  O   UNL A   1      47.177  22.637  36.224  1.00  0.00    -0.744 OA
ENDBRANCH  87  91
ENDBRANCH  61  84
ENDBRANCH  35  36
ENDBRANCH  28  30
ENDBRANCH  27  28
ENDBRANCH  26  27
ENDBRANCH   1  26
TORSDOF 17
ENDMDL
MODEL 2
REMARK VINA RESULT:     -12.5      4.656     10.204
REMARK SMILES O=C(OCCOC(=O)c1ccc(-c2c3nc(c(-c4cc(S(=O)(=O)[O-])ccc4F)c4ccc([nH]4)c(-c4cc(S(=O)(=O)[O-])ccc4F)c4nc(c(-c5cc(S(=O)(=O)[O-])ccc5F)c5ccc2[nH]5)C=C4)C=C3)cc1)c1ccc(NS(=O)(=O)C2=Cc3ccccc3CC2)cc1
REMARK SMILES IDX 4 1 3 2 2 3 1 4 72 5 73 6 91 7 74 8 90 9 75 10 76 11 77 13
REMARK SMILES IDX 78 14 79 15 80 16 81 17 89 18 82 19 88 20 83 21 87 22 84 23
REMARK SMILES IDX 86 24 85 25 5 26 6 27 7 28 8 29 9 30 10 31 71 32 11 33 70 34
REMARK SMILES IDX 12 35 13 36 14 37 64 38 15 39 69 40 63 41 65 42 16 43 68 44
REMARK SMILES IDX 62 45 61 46 17 48 49 49 29 50 48 51 30 52 33 53 47 54 66 55
REMARK SMILES IDX 31 56 32 57 46 59 67 60 34 61 18 62 19 63 27 64 20 65 26 66
REMARK SMILES IDX 28 67 25 68 21 69 22 70 23 71 24 72 50 73 51 74 59 75 52 76
REMARK SMILES IDX 58 77 60 78 57 79 53 80 54 81 55 82 56 83 35 84 36 85 44 86
REMARK SMILES IDX 37 87 43 88 45 89 42 90 38 91 39 92 40 93 41 94
REMARK H PARENT 76 12 65 47 33 58
REMARK Flexibility Score: inf
ROOT
ATOM      1  C   UNL A   1      35.721  20.848  25.186  1.00  0.00     0.275 C 
ENDROOT
BRANCH   1   2
ATOM      2  O   UNL A   1      34.895  19.665  25.099  1.00  0.00    -0.458 OA
BRANCH   2   3
ATOM      3  C   UNL A   1      33.541  19.560  25.094  1.00  0.00     0.338 C 
ATOM      4  O   UNL A   1      32.998  18.508  25.420  1.00  0.00    -0.246 OA
BRANCH   3   5
ATOM      5  C   UNL A   1      32.699  20.642  24.529  1.00  0.00     0.060 A 
ATOM      6  C   UNL A   1      32.152  21.685  25.273  1.00  0.00     0.018 A 
ATOM      7  C   UNL A   1      32.413  20.587  23.165  1.00  0.00     0.018 A 
ATOM      8  C   UNL A   1      31.587  22.785  24.618  1.00  0.00     0.027 A 
ATOM      9  C   UNL A   1      31.860  21.699  22.529  1.00  0.00     0.027 A 
ATOM     10  C   UNL A   1      31.581  22.860  23.236  1.00  0.00     0.049 A 
BRANCH  10  11
ATOM     11  N   UNL A   1      31.558  24.065  22.483  1.00  0.00    -0.280 N 
ATOM     12  H   UNL A   1      31.372  23.980  21.519  1.00  0.00     0.180 HD
BRANCH  11  13
ATOM     13  S   UNL A   1      31.814  25.613  23.062  1.00  0.00     0.258 S 
ATOM     14  O   UNL A   1      32.879  25.436  24.033  1.00  0.00    -0.202 OA
ATOM     15  O   UNL A   1      32.035  26.444  21.898  1.00  0.00    -0.202 OA
BRANCH  13  16
ATOM     16  C   UNL A   1      30.330  26.150  23.931  1.00  0.00     0.066 C 
ATOM     17  C   UNL A   1      30.464  26.221  25.280  1.00  0.00     0.026 C 
ATOM     18  C   UNL A   1      29.643  27.386  23.376  1.00  0.00     0.055 C 
ATOM     19  C   UNL A   1      31.098  27.493  25.761  1.00  0.00    -0.021 A 
ATOM     20  C   UNL A   1      30.537  28.620  23.550  1.00  0.00     0.041 C 
ATOM     21  C   UNL A   1      31.587  27.576  27.065  1.00  0.00     0.008 A 
ATOM     22  C   UNL A   1      31.208  28.613  24.905  1.00  0.00    -0.040 A 
ATOM     23  C   UNL A   1      32.267  28.723  27.481  1.00  0.00     0.001 A 
ATOM     24  C   UNL A   1      31.949  29.727  25.308  1.00  0.00     0.004 A 
ATOM     25  C   UNL A   1      32.482  29.777  26.593  1.00  0.00     0.000 A 
ENDBRANCH  13  16
ENDBRANCH  11  13
ENDBRANCH  10  11
ENDBRANCH   3   5
ENDBRANCH   2   3
ENDBRANCH   1   2
BRANCH   1  26
ATOM     26  C   UNL A   1      37.219  20.615  24.999  1.00  0.00     0.275 C 
BRANCH  26  27
ATOM     27  O   UNL A   1      37.999  21.780  25.302  1.00  0.00    -0.458 OA
BRANCH  27  28
ATOM     28  C   UNL A   1      39.121  21.515  26.028  1.00  0.00     0.338 C 
ATOM     29  O   UNL A   1      39.669  20.438  26.134  1.00  0.00    -0.246 OA
BRANCH  28  30
ATOM     30  C   UNL A   1      39.676  22.763  26.602  1.00  0.00     0.060 A 
ATOM     31  C   UNL A   1      39.177  23.970  26.101  1.00  0.00     0.016 A 
ATOM     32  C   UNL A   1      40.660  22.768  27.595  1.00  0.00     0.016 A 
ATOM     33  C   UNL A   1      39.660  25.185  26.588  1.00  0.00     0.010 A 
ATOM     34  C   UNL A   1      41.137  23.991  28.089  1.00  0.00     0.010 A 
ATOM     35  C   UNL A   1      40.648  25.210  27.580  1.00  0.00    -0.014 A 
BRANCH  35  36
ATOM     36  C   UNL A   1      41.212  26.515  28.019  1.00  0.00     0.031 A 
ATOM     37  C   UNL A   1      42.669  26.805  27.789  1.00  0.00     0.074 A 
ATOM     38  C   UNL A   1      40.429  27.457  28.581  1.00  0.00     0.049 A 
ATOM     39  N   UNL A   1      43.327  27.916  27.996  1.00  0.00    -0.248 NA
ATOM     40  C   UNL A   1      43.480  25.715  27.230  1.00  0.00     0.031 C 
ATOM     41  C   UNL A   1      38.991  27.343  28.797  1.00  0.00     0.029 A 
ATOM     42  N   UNL A   1      40.732  28.699  29.082  1.00  0.00    -0.354 N 
ATOM     43  C   UNL A   1      44.615  27.681  27.533  1.00  0.00     0.074 A 
ATOM     44  C   UNL A   1      44.668  26.292  27.127  1.00  0.00     0.031 C 
ATOM     45  C   UNL A   1      38.549  28.415  29.472  1.00  0.00     0.029 A 
ATOM     46  C   UNL A   1      39.663  29.333  29.674  1.00  0.00     0.049 A 
ATOM     47  H   UNL A   1      41.629  29.099  29.024  1.00  0.00     0.167 HD
ATOM     48  C   UNL A   1      45.644  28.555  27.413  1.00  0.00     0.034 A 
ATOM     49  C   UNL A   1      39.574  30.531  30.283  1.00  0.00     0.034 A 
ATOM     50  C   UNL A   1      45.597  29.926  27.861  1.00  0.00     0.049 A 
ATOM     51  C   UNL A   1      40.765  31.451  30.244  1.00  0.00     0.074 A 
ATOM     52  C   UNL A   1      46.583  30.894  27.785  1.00  0.00     0.029 A 
ATOM     53  N   UNL A   1      44.510  30.521  28.493  1.00  0.00    -0.354 N 
ATOM     54  N   UNL A   1      41.953  31.239  29.728  1.00  0.00    -0.248 NA
ATOM     55  C   UNL A   1      40.581  32.791  30.811  1.00  0.00     0.031 C 
ATOM     56  C   UNL A   1      46.120  32.048  28.427  1.00  0.00     0.029 A 
ATOM     57  C   UNL A   1      44.816  31.829  28.841  1.00  0.00     0.049 A 
ATOM     58  H   UNL A   1      43.649  30.078  28.668  1.00  0.00     0.167 HD
ATOM     59  C   UNL A   1      42.643  32.439  29.868  1.00  0.00     0.074 A 
ATOM     60  C   UNL A   1      41.731  33.369  30.502  1.00  0.00     0.031 C 
ATOM     61  C   UNL A   1      43.911  32.747  29.494  1.00  0.00     0.034 A 
BRANCH  48  62
ATOM     62  C   UNL A   1      46.910  28.034  26.780  1.00  0.00     0.023 A 
ATOM     63  C   UNL A   1      47.126  28.136  25.392  1.00  0.00     0.031 A 
ATOM     64  C   UNL A   1      47.897  27.405  27.555  1.00  0.00     0.131 A 
ATOM     65  C   UNL A   1      48.266  27.560  24.816  1.00  0.00     0.055 A 
ATOM     66  C   UNL A   1      49.067  26.898  26.985  1.00  0.00     0.041 A 
ATOM     67  F   UNL A   1      47.734  27.258  28.880  1.00  0.00    -0.206 F 
ATOM     68  C   UNL A   1      49.250  26.962  25.606  1.00  0.00     0.022 A 
BRANCH  65  69
ATOM     69  S   UNL A   1      48.381  27.485  23.008  1.00  0.00     0.124 S 
ATOM     70  O   UNL A   1      47.198  28.241  22.604  1.00  0.00    -0.237 OA
ATOM     71  O   UNL A   1      49.668  28.121  22.745  1.00  0.00    -0.237 OA
ATOM     72  O   UNL A   1      48.324  26.053  22.720  1.00  0.00    -0.744 OA
ENDBRANCH  65  69
ENDBRANCH  48  62
BRANCH  49  73
ATOM     73  C   UNL A   1      38.311  30.944  30.956  1.00  0.00     0.023 A 
ATOM     74  C   UNL A   1      37.285  31.595  30.255  1.00  0.00     0.031 A 
ATOM     75  C   UNL A   1      38.146  30.746  32.338  1.00  0.00     0.131 A 
ATOM     76  C   UNL A   1      36.165  32.082  30.950  1.00  0.00     0.055 A 
ATOM     77  C   UNL A   1      37.010  31.192  33.017  1.00  0.00     0.041 A 
ATOM     78  F   UNL A   1      39.093  30.116  33.051  1.00  0.00    -0.206 F 
ATOM     79  C   UNL A   1      36.019  31.880  32.324  1.00  0.00     0.022 A 
BRANCH  76  80
ATOM     80  S   UNL A   1      34.947  33.073  30.042  1.00  0.00     0.124 S 
ATOM     81  O   UNL A   1      34.390  32.090  29.119  1.00  0.00    -0.237 OA
ATOM     82  O   UNL A   1      34.064  33.520  31.114  1.00  0.00    -0.237 OA
ATOM     83  O   UNL A   1      35.755  34.122  29.423  1.00  0.00    -0.744 OA
ENDBRANCH  76  80
ENDBRANCH  49  73
BRANCH  61  84
ATOM     84  C   UNL A   1      44.367  34.166  29.737  1.00  0.00     0.023 A 
ATOM     85  C   UNL A   1      44.109  35.193  28.811  1.00  0.00     0.031 A 
ATOM     86  C   UNL A   1      45.105  34.486  30.889  1.00  0.00     0.131 A 
ATOM     87  C   UNL A   1      44.649  36.471  29.016  1.00  0.00     0.055 A 
ATOM     88  C   UNL A   1      45.582  35.778  31.122  1.00  0.00     0.041 A 
ATOM     89  F   UNL A   1      45.385  33.547  31.807  1.00  0.00    -0.206 F 
ATOM     90  C   UNL A   1      45.370  36.775  30.174  1.00  0.00     0.022 A 
BRANCH  87  91
ATOM     91  S   UNL A   1      44.496  37.702  27.692  1.00  0.00     0.124 S 
ATOM     92  O   UNL A   1      43.349  37.201  26.943  1.00  0.00    -0.237 OA
ATOM     93  O   UNL A   1      44.280  38.937  28.439  1.00  0.00    -0.237 OA
ATOM     94  O   UNL A   1      45.778  37.617  26.995  1.00  0.00    -0.744 OA
ENDBRANCH  87  91
ENDBRANCH  61  84
ENDBRANCH  35  36
ENDBRANCH  28  30
ENDBRANCH  27  28
ENDBRANCH  26  27
ENDBRANCH   1  26
TORSDOF 17
ENDMDL
MODEL 3
REMARK VINA RESULT:     -12.3      1.785      2.249
REMARK SMILES O=C(OCCOC(=O)c1ccc(-c2c3nc(c(-c4cc(S(=O)(=O)[O-])ccc4F)c4ccc([nH]4)c(-c4cc(S(=O)(=O)[O-])ccc4F)c4nc(c(-c5cc(S(=O)(=O)[O-])ccc5F)c5ccc2[nH]5)C=C4)C=C3)cc1)c1ccc(NS(=O)(=O)C2=Cc3ccccc3CC2)cc1
REMARK SMILES IDX 4 1 3 2 2 3 1 4 72 5 73 6 91 7 74 8 90 9 75 10 76 11 77 13
REMARK SMILES IDX 78 14 79 15 80 16 81 17 89 18 82 19 88 20 83 21 87 22 84 23
REMARK SMILES IDX 86 24 85 25 5 26 6 27 7 28 8 29 9 30 10 31 71 32 11 33 70 34
REMARK SMILES IDX 12 35 13 36 14 37 64 38 15 39 69 40 63 41 65 42 16 43 68 44
REMARK SMILES IDX 62 45 61 46 17 48 49 49 29 50 48 51 30 52 33 53 47 54 66 55
REMARK SMILES IDX 31 56 32 57 46 59 67 60 34 61 18 62 19 63 27 64 20 65 26 66
REMARK SMILES IDX 28 67 25 68 21 69 22 70 23 71 24 72 50 73 51 74 59 75 52 76
REMARK SMILES IDX 58 77 60 78 57 79 53 80 54 81 55 82 56 83 35 84 36 85 44 86
REMARK SMILES IDX 37 87 43 88 45 89 42 90 38 91 39 92 40 93 41 94
REMARK H PARENT 76 12 65 47 33 58
REMARK Flexibility Score: inf
ROOT
ATOM      1  C   UNL A   1      31.262  29.402  24.872  1.00  0.00     0.275 C 
ENDROOT
BRANCH   1   2
ATOM      2  O   UNL A   1      30.982  27.998  25.070  1.00  0.00    -0.458 OA
BRANCH   2   3
ATOM      3  C   UNL A   1      30.329  27.128  24.256  1.00  0.00     0.338 C 
ATOM      4  O   UNL A   1      29.546  27.540  23.405  1.00  0.00    -0.246 OA
BRANCH   3   5
ATOM      5  C   UNL A   1      30.407  25.666  24.492  1.00  0.00     0.060 A 
ATOM      6  C   UNL A   1      30.638  24.718  23.499  1.00  0.00     0.018 A 
ATOM      7  C   UNL A   1      30.204  25.214  25.797  1.00  0.00     0.018 A 
ATOM      8  C   UNL A   1      30.942  23.399  23.852  1.00  0.00     0.027 A 
ATOM      9  C   UNL A   1      30.524  23.898  26.131  1.00  0.00     0.027 A 
ATOM     10  C   UNL A   1      31.036  23.026  25.182  1.00  0.00     0.049 A 
BRANCH  10  11
ATOM     11  N   UNL A   1      31.825  21.951  25.676  1.00  0.00    -0.280 N 
ATOM     12  H   UNL A   1      31.902  21.873  26.654  1.00  0.00     0.180 HD
BRANCH  11  13
ATOM     13  S   UNL A   1      32.636  20.805  24.767  1.00  0.00     0.258 S 
ATOM     14  O   UNL A   1      32.477  19.588  25.542  1.00  0.00    -0.202 OA
ATOM     15  O   UNL A   1      32.079  20.884  23.433  1.00  0.00    -0.202 OA
BRANCH  13  16
ATOM     16  C   UNL A   1      34.385  21.238  24.731  1.00  0.00     0.066 C 
ATOM     17  C   UNL A   1      34.705  22.204  23.833  1.00  0.00     0.026 C 
ATOM     18  C   UNL A   1      35.036  21.497  26.079  1.00  0.00     0.055 C 
ATOM     19  C   UNL A   1      34.462  23.598  24.327  1.00  0.00    -0.021 A 
ATOM     20  C   UNL A   1      34.445  22.754  26.727  1.00  0.00     0.041 C 
ATOM     21  C   UNL A   1      34.437  24.662  23.425  1.00  0.00     0.008 A 
ATOM     22  C   UNL A   1      34.253  23.850  25.703  1.00  0.00    -0.040 A 
ATOM     23  C   UNL A   1      34.110  25.945  23.870  1.00  0.00     0.001 A 
ATOM     24  C   UNL A   1      33.860  25.122  26.127  1.00  0.00     0.004 A 
ATOM     25  C   UNL A   1      33.785  26.166  25.209  1.00  0.00     0.000 A 
ENDBRANCH  13  16
ENDBRANCH  11  13
ENDBRANCH  10  11
ENDBRANCH   3   5
ENDBRANCH   2   3
ENDBRANCH   1   2
BRANCH   1  26
ATOM     26  C   UNL A   1      32.588  29.892  25.450  1.00  0.00     0.275 C 
BRANCH  26  27
ATOM     27  O   UNL A   1      32.502  30.184  26.852  1.00  0.00    -0.458 OA
BRANCH  27  28
ATOM     28  C   UNL A   1      33.135  31.335  27.212  1.00  0.00     0.338 C 
ATOM     29  O   UNL A   1      32.678  32.457  27.145  1.00  0.00    -0.246 OA
BRANCH  28  30
ATOM     30  C   UNL A   1      34.453  31.037  27.820  1.00  0.00     0.060 A 
ATOM     31  C   UNL A   1      34.674  29.722  28.244  1.00  0.00     0.016 A 
ATOM     32  C   UNL A   1      35.448  32.004  27.985  1.00  0.00     0.016 A 
ATOM     33  C   UNL A   1      35.888  29.370  28.834  1.00  0.00     0.010 A 
ATOM     34  C   UNL A   1      36.671  31.645  28.571  1.00  0.00     0.010 A 
ATOM     35  C   UNL A   1      36.896  30.326  29.010  1.00  0.00    -0.014 A 
BRANCH  35  36
ATOM     36  C   UNL A   1      38.146  29.949  29.723  1.00  0.00     0.031 A 
ATOM     37  C   UNL A   1      38.448  30.565  31.061  1.00  0.00     0.074 A 
ATOM     38  C   UNL A   1      38.992  29.035  29.208  1.00  0.00     0.049 A 
ATOM     39  N   UNL A   1      39.421  30.290  31.890  1.00  0.00    -0.248 NA
ATOM     40  C   UNL A   1      37.519  31.600  31.538  1.00  0.00     0.031 C 
ATOM     41  C   UNL A   1      38.791  28.305  27.961  1.00  0.00     0.029 A 
ATOM     42  N   UNL A   1      40.197  28.563  29.667  1.00  0.00    -0.354 N 
ATOM     43  C   UNL A   1      39.188  31.071  33.015  1.00  0.00     0.074 A 
ATOM     44  C   UNL A   1      38.038  31.900  32.719  1.00  0.00     0.031 C 
ATOM     45  C   UNL A   1      39.872  27.557  27.697  1.00  0.00     0.029 A 
ATOM     46  C   UNL A   1      40.818  27.695  28.798  1.00  0.00     0.049 A 
ATOM     47  H   UNL A   1      40.582  28.823  30.534  1.00  0.00     0.167 HD
ATOM     48  C   UNL A   1      39.844  31.063  34.201  1.00  0.00     0.034 A 
ATOM     49  C   UNL A   1      41.998  27.052  28.886  1.00  0.00     0.034 A 
ATOM     50  C   UNL A   1      41.016  30.267  34.472  1.00  0.00     0.049 A 
ATOM     51  C   UNL A   1      42.777  27.144  30.171  1.00  0.00     0.074 A 
ATOM     52  C   UNL A   1      41.753  30.184  35.640  1.00  0.00     0.029 A 
ATOM     53  N   UNL A   1      41.639  29.429  33.554  1.00  0.00    -0.354 N 
ATOM     54  N   UNL A   1      42.497  27.827  31.256  1.00  0.00    -0.248 NA
ATOM     55  C   UNL A   1      43.993  26.329  30.264  1.00  0.00     0.031 C 
ATOM     56  C   UNL A   1      42.856  29.353  35.410  1.00  0.00     0.029 A 
ATOM     57  C   UNL A   1      42.770  28.855  34.120  1.00  0.00     0.049 A 
ATOM     58  H   UNL A   1      41.325  29.266  32.636  1.00  0.00     0.167 HD
ATOM     59  C   UNL A   1      43.481  27.485  32.179  1.00  0.00     0.074 A 
ATOM     60  C   UNL A   1      44.348  26.527  31.524  1.00  0.00     0.031 C 
ATOM     61  C   UNL A   1      43.644  27.916  33.456  1.00  0.00     0.034 A 
BRANCH  48  62
ATOM     62  C   UNL A   1      39.301  31.961  35.285  1.00  0.00     0.023 A 
ATOM     63  C   UNL A   1      39.763  33.282  35.435  1.00  0.00     0.031 A 
ATOM     64  C   UNL A   1      38.339  31.492  36.193  1.00  0.00     0.131 A 
ATOM     65  C   UNL A   1      39.312  34.064  36.508  1.00  0.00     0.055 A 
ATOM     66  C   UNL A   1      37.838  32.301  37.216  1.00  0.00     0.041 A 
ATOM     67  F   UNL A   1      37.879  30.233  36.113  1.00  0.00    -0.206 F 
ATOM     68  C   UNL A   1      38.335  33.591  37.386  1.00  0.00     0.022 A 
BRANCH  65  69
ATOM     69  S   UNL A   1      40.119  35.659  36.819  1.00  0.00     0.124 S 
ATOM     70  O   UNL A   1      39.653  36.453  35.684  1.00  0.00    -0.237 OA
ATOM     71  O   UNL A   1      39.586  36.034  38.124  1.00  0.00    -0.237 OA
ATOM     72  O   UNL A   1      41.543  35.333  36.798  1.00  0.00    -0.744 OA
ENDBRANCH  65  69
ENDBRANCH  48  62
BRANCH  49  73
ATOM     73  C   UNL A   1      42.506  26.245  27.741  1.00  0.00     0.023 A 
ATOM     74  C   UNL A   1      42.047  24.942  27.501  1.00  0.00     0.031 A 
ATOM     75  C   UNL A   1      43.516  26.756  26.906  1.00  0.00     0.131 A 
ATOM     76  C   UNL A   1      42.641  24.167  26.491  1.00  0.00     0.055 A 
ATOM     77  C   UNL A   1      44.071  25.998  25.873  1.00  0.00     0.041 A 
ATOM     78  F   UNL A   1      43.979  28.002  27.086  1.00  0.00    -0.206 F 
ATOM     79  C   UNL A   1      43.645  24.689  25.672  1.00  0.00     0.022 A 
BRANCH  76  80
ATOM     80  S   UNL A   1      42.145  22.430  26.327  1.00  0.00     0.124 S 
ATOM     81  O   UNL A   1      42.653  22.098  25.001  1.00  0.00    -0.237 OA
ATOM     82  O   UNL A   1      42.838  21.813  27.453  1.00  0.00    -0.237 OA
ATOM     83  O   UNL A   1      40.689  22.480  26.445  1.00  0.00    -0.744 OA
ENDBRANCH  76  80
ENDBRANCH  49  73
BRANCH  61  84
ATOM     84  C   UNL A   1      44.793  27.319  34.234  1.00  0.00     0.023 A 
ATOM     85  C   UNL A   1      44.629  26.168  35.025  1.00  0.00     0.031 A 
ATOM     86  C   UNL A   1      46.057  27.934  34.217  1.00  0.00     0.131 A 
ATOM     87  C   UNL A   1      45.688  25.712  35.824  1.00  0.00     0.055 A 
ATOM     88  C   UNL A   1      47.128  27.435  34.961  1.00  0.00     0.041 A 
ATOM     89  F   UNL A   1      46.272  29.038  33.482  1.00  0.00    -0.206 F 
ATOM     90  C   UNL A   1      46.942  26.328  35.785  1.00  0.00     0.022 A 
BRANCH  87  91
ATOM     91  S   UNL A   1      45.372  24.372  37.005  1.00  0.00     0.124 S 
ATOM     92  O   UNL A   1      45.124  23.239  36.120  1.00  0.00    -0.237 OA
ATOM     93  O   UNL A   1      46.617  24.328  37.766  1.00  0.00    -0.237 OA
ATOM     94  O   UNL A   1      44.207  24.841  37.753  1.00  0.00    -0.744 OA
ENDBRANCH  87  91
ENDBRANCH  61  84
ENDBRANCH  35  36
ENDBRANCH  28  30
ENDBRANCH  27  28
ENDBRANCH  26  27
ENDBRANCH   1  26
TORSDOF 17
ENDMDL
