MODEL 1
REMARK VINA RESULT:     -13.3      0.000      0.000
REMARK SMILES Cc1ccc(C)c(-c2cc(C(=O)OCCOC(=O)c3ccc(-c4c5nc(c(-c6cc(S(=O)(=O)[O-])ccc6F)c6ccc([nH]6)c(-c6cc(S(=O)(=O)[O-])ccc6F)c6nc(c(-c7cc(S(=O)(=O)[O-])ccc7F)c7ccc4[nH]7)C=C6)C=C5)cc3)c3cc(C)ccc3n2)c1
REMARK SMILES IDX 15 1 14 2 13 3 11 4 12 5 10 6 8 7 9 8 89 9 88 10 82 11 87 12
REMARK SMILES IDX 83 13 86 14 84 15 85 16 7 17 1 18 2 19 3 20 90 21 4 22 5 23
REMARK SMILES IDX 6 24 16 25 17 26 18 27 19 28 20 29 81 30 21 31 80 32 22 33
REMARK SMILES IDX 23 34 24 35 74 36 25 37 79 38 73 39 75 40 26 41 78 42 72 43
REMARK SMILES IDX 71 44 27 46 59 47 39 48 58 49 40 50 43 51 57 52 76 53 41 54
REMARK SMILES IDX 42 55 56 57 77 58 44 59 28 60 29 61 37 62 30 63 36 64 38 65
REMARK SMILES IDX 35 66 31 67 32 68 33 69 34 70 60 71 61 72 69 73 62 74 68 75
REMARK SMILES IDX 70 76 67 77 63 78 64 79 65 80 66 81 45 82 46 83 54 84 47 85
REMARK SMILES IDX 53 86 55 87 52 88 48 89 49 90 50 91 51 92
REMARK H PARENT 75 45 43 56
REMARK Flexibility Score: inf
ROOT
ATOM      1  C   UNL A   1      40.649  24.358  26.947  1.00  0.00     0.275 C 
ENDROOT
BRANCH   1   2
ATOM      2  C   UNL A   1      39.218  23.930  26.619  1.00  0.00     0.275 C 
BRANCH   2   3
ATOM      3  O   UNL A   1      39.212  22.499  26.590  1.00  0.00    -0.458 OA
BRANCH   3   4
ATOM      4  C   UNL A   1      38.169  21.830  25.733  1.00  0.00     0.339 C 
ATOM      5  O   UNL A   1      38.896  20.927  25.228  1.00  0.00    -0.246 OA
BRANCH   4   6
ATOM      6  C   UNL A   1      36.077  22.355  25.586  1.00  0.00     0.071 A 
ATOM      7  C   UNL A   1      34.268  24.317  25.130  1.00  0.00     0.072 A 
ATOM      8  C   UNL A   1      35.444  23.788  25.723  1.00  0.00     0.045 A 
ATOM      9  N   UNL A   1      33.382  23.525  24.551  1.00  0.00    -0.248 NA
ATOM     10  C   UNL A   1      33.549  22.222  24.591  1.00  0.00     0.072 A 
ATOM     11  C   UNL A   1      34.733  21.500  25.036  1.00  0.00     0.015 A 
ATOM     12  C   UNL A   1      32.379  21.650  24.084  1.00  0.00     0.029 A 
ATOM     13  C   UNL A   1      34.389  20.063  24.816  1.00  0.00     0.014 A 
ATOM     14  C   UNL A   1      32.178  20.291  23.939  1.00  0.00     0.005 A 
ATOM     15  C   UNL A   1      33.203  19.469  24.312  1.00  0.00    -0.050 A 
ATOM     16  C   UNL A   1      33.112  17.979  24.170  1.00  0.00     0.044 C 
BRANCH   7  17
ATOM     17  C   UNL A   1      33.934  25.774  24.963  1.00  0.00     0.003 A 
ATOM     18  C   UNL A   1      33.898  28.986  27.138  1.00  0.00     0.044 C 
ATOM     19  C   UNL A   1      33.792  28.050  25.966  1.00  0.00    -0.050 A 
ATOM     20  C   UNL A   1      33.439  28.582  24.728  1.00  0.00     0.004 A 
ATOM     21  C   UNL A   1      34.026  26.657  26.075  1.00  0.00     0.014 A 
ATOM     22  C   UNL A   1      33.389  27.757  23.613  1.00  0.00     0.004 A 
ATOM     23  C   UNL A   1      33.670  26.373  23.706  1.00  0.00    -0.042 A 
ATOM     24  C   UNL A   1      33.685  25.620  22.403  1.00  0.00     0.045 C 
ENDBRANCH   7  17
ENDBRANCH   4   6
ENDBRANCH   3   4
ENDBRANCH   2   3
ENDBRANCH   1   2
BRANCH   1  25
ATOM     25  O   UNL A   1      41.040  25.672  26.440  1.00  0.00    -0.458 OA
BRANCH  25  26
ATOM     26  C   UNL A   1      40.660  26.825  27.064  1.00  0.00     0.338 C 
ATOM     27  O   UNL A   1      40.472  27.891  26.504  1.00  0.00    -0.246 OA
BRANCH  26  28
ATOM     28  C   UNL A   1      40.737  26.728  28.539  1.00  0.00     0.060 A 
ATOM     29  C   UNL A   1      39.153  26.566  29.417  1.00  0.00     0.016 A 
ATOM     30  C   UNL A   1      42.066  27.707  29.259  1.00  0.00     0.016 A 
ATOM     31  C   UNL A   1      38.891  27.459  31.023  1.00  0.00     0.010 A 
ATOM     32  C   UNL A   1      41.749  28.648  30.820  1.00  0.00     0.010 A 
ATOM     33  C   UNL A   1      40.154  28.579  31.657  1.00  0.00    -0.014 A 
BRANCH  33  34
ATOM     34  C   UNL A   1      39.899  29.897  32.408  1.00  0.00     0.031 A 
ATOM     35  C   UNL A   1      38.951  30.688  31.586  1.00  0.00     0.074 A 
ATOM     36  C   UNL A   1      40.081  30.326  33.709  1.00  0.00     0.049 A 
ATOM     37  N   UNL A   1      39.282  31.484  30.621  1.00  0.00    -0.248 NA
ATOM     38  C   UNL A   1      37.515  30.345  31.601  1.00  0.00     0.031 C 
ATOM     39  C   UNL A   1      40.717  29.673  34.862  1.00  0.00     0.029 A 
ATOM     40  N   UNL A   1      39.655  31.514  34.314  1.00  0.00    -0.354 N 
ATOM     41  C   UNL A   1      38.071  31.925  30.116  1.00  0.00     0.074 A 
ATOM     42  C   UNL A   1      37.127  30.902  30.452  1.00  0.00     0.031 C 
ATOM     43  C   UNL A   1      40.465  30.351  36.021  1.00  0.00     0.029 A 
ATOM     44  C   UNL A   1      39.752  31.590  35.733  1.00  0.00     0.049 A 
ATOM     45  H   UNL A   1      39.303  32.264  33.783  1.00  0.00     0.167 HD
ATOM     46  C   UNL A   1      37.844  33.238  29.842  1.00  0.00     0.034 A 
ATOM     47  C   UNL A   1      39.367  32.607  36.598  1.00  0.00     0.034 A 
ATOM     48  C   UNL A   1      39.074  34.000  29.926  1.00  0.00     0.049 A 
ATOM     49  C   UNL A   1      39.314  33.838  35.778  1.00  0.00     0.074 A 
ATOM     50  C   UNL A   1      40.325  33.887  29.347  1.00  0.00     0.029 A 
ATOM     51  N   UNL A   1      39.259  34.797  31.036  1.00  0.00    -0.354 N 
ATOM     52  N   UNL A   1      40.371  34.379  35.245  1.00  0.00    -0.248 NA
ATOM     53  C   UNL A   1      38.051  34.149  35.130  1.00  0.00     0.031 C 
ATOM     54  C   UNL A   1      41.245  34.164  30.401  1.00  0.00     0.029 A 
ATOM     55  C   UNL A   1      40.520  34.550  31.528  1.00  0.00     0.049 A 
ATOM     56  H   UNL A   1      38.604  35.429  31.411  1.00  0.00     0.167 HD
ATOM     57  C   UNL A   1      39.986  34.675  33.950  1.00  0.00     0.074 A 
ATOM     58  C   UNL A   1      38.524  34.579  33.956  1.00  0.00     0.031 C 
ATOM     59  C   UNL A   1      40.888  34.662  32.927  1.00  0.00     0.034 A 
BRANCH  46  60
ATOM     60  C   UNL A   1      36.484  33.902  29.873  1.00  0.00     0.023 A 
ATOM     61  C   UNL A   1      35.990  34.262  31.137  1.00  0.00     0.031 A 
ATOM     62  C   UNL A   1      35.560  34.004  28.804  1.00  0.00     0.131 A 
ATOM     63  C   UNL A   1      34.642  34.617  31.311  1.00  0.00     0.055 A 
ATOM     64  C   UNL A   1      34.242  34.435  28.969  1.00  0.00     0.041 A 
ATOM     65  F   UNL A   1      35.829  33.605  27.556  1.00  0.00    -0.206 F 
ATOM     66  C   UNL A   1      33.766  34.716  30.235  1.00  0.00     0.022 A 
BRANCH  63  67
ATOM     67  S   UNL A   1      34.015  34.778  32.998  1.00  0.00     0.124 S 
ATOM     68  O   UNL A   1      34.763  35.934  33.479  1.00  0.00    -0.237 OA
ATOM     69  O   UNL A   1      32.589  34.982  32.768  1.00  0.00    -0.237 OA
ATOM     70  O   UNL A   1      34.372  33.502  33.613  1.00  0.00    -0.744 OA
ENDBRANCH  63  67
ENDBRANCH  46  60
BRANCH  47  71
ATOM     71  C   UNL A   1      38.750  32.617  38.002  1.00  0.00     0.023 A 
ATOM     72  C   UNL A   1      38.942  33.622  39.017  1.00  0.00     0.031 A 
ATOM     73  C   UNL A   1      37.671  31.741  38.233  1.00  0.00     0.131 A 
ATOM     74  C   UNL A   1      38.083  33.694  40.167  1.00  0.00     0.055 A 
ATOM     75  C   UNL A   1      36.823  31.834  39.348  1.00  0.00     0.041 A 
ATOM     76  F   UNL A   1      37.341  30.816  37.321  1.00  0.00    -0.206 F 
ATOM     77  C   UNL A   1      37.018  32.808  40.314  1.00  0.00     0.022 A 
BRANCH  74  78
ATOM     78  S   UNL A   1      38.262  34.968  41.497  1.00  0.00     0.124 S 
ATOM     79  O   UNL A   1      39.376  34.455  42.285  1.00  0.00    -0.237 OA
ATOM     80  O   UNL A   1      38.506  36.192  40.744  1.00  0.00    -0.237 OA
ATOM     81  O   UNL A   1      36.970  34.935  42.188  1.00  0.00    -0.744 OA
ENDBRANCH  74  78
ENDBRANCH  47  71
BRANCH  59  82
ATOM     82  C   UNL A   1      42.369  34.573  33.267  1.00  0.00     0.023 A 
ATOM     83  C   UNL A   1      43.160  33.399  33.206  1.00  0.00     0.031 A 
ATOM     84  C   UNL A   1      43.029  35.782  33.545  1.00  0.00     0.131 A 
ATOM     85  C   UNL A   1      44.555  33.473  33.416  1.00  0.00     0.055 A 
ATOM     86  C   UNL A   1      44.409  35.856  33.721  1.00  0.00     0.041 A 
ATOM     87  F   UNL A   1      42.337  36.932  33.609  1.00  0.00    -0.206 F 
ATOM     88  C   UNL A   1      45.178  34.701  33.659  1.00  0.00     0.022 A 
BRANCH  85  89
ATOM     89  S   UNL A   1      45.592  31.971  33.382  1.00  0.00     0.124 S 
ATOM     90  O   UNL A   1      45.004  31.183  32.305  1.00  0.00    -0.237 OA
ATOM     91  O   UNL A   1      46.926  32.510  33.130  1.00  0.00    -0.237 OA
ATOM     92  O   UNL A   1      45.414  31.401  34.719  1.00  0.00    -0.744 OA
ENDBRANCH  85  89
ENDBRANCH  59  82
ENDBRANCH  33  34
ENDBRANCH  26  28
ENDBRANCH  25  26
ENDBRANCH   1  25
TORSDOF 15
ENDMDL
MODEL 2
REMARK VINA RESULT:     -13.1      4.876      8.099
REMARK SMILES Cc1ccc(C)c(-c2cc(C(=O)OCCOC(=O)c3ccc(-c4c5nc(c(-c6cc(S(=O)(=O)[O-])ccc6F)c6ccc([nH]6)c(-c6cc(S(=O)(=O)[O-])ccc6F)c6nc(c(-c7cc(S(=O)(=O)[O-])ccc7F)c7ccc4[nH]7)C=C6)C=C5)cc3)c3cc(C)ccc3n2)c1
REMARK SMILES IDX 15 1 14 2 13 3 11 4 12 5 10 6 8 7 9 8 89 9 88 10 82 11 87 12
REMARK SMILES IDX 83 13 86 14 84 15 85 16 7 17 1 18 2 19 3 20 90 21 4 22 5 23
REMARK SMILES IDX 6 24 16 25 17 26 18 27 19 28 20 29 81 30 21 31 80 32 22 33
REMARK SMILES IDX 23 34 24 35 74 36 25 37 79 38 73 39 75 40 26 41 78 42 72 43
REMARK SMILES IDX 71 44 27 46 59 47 39 48 58 49 40 50 43 51 57 52 76 53 41 54
REMARK SMILES IDX 42 55 56 57 77 58 44 59 28 60 29 61 37 62 30 63 36 64 38 65
REMARK SMILES IDX 35 66 31 67 32 68 33 69 34 70 60 71 61 72 69 73 62 74 68 75
REMARK SMILES IDX 70 76 67 77 63 78 64 79 65 80 66 81 45 82 46 83 54 84 47 85
REMARK SMILES IDX 53 86 55 87 52 88 48 89 49 90 50 91 51 92
REMARK H PARENT 75 45 43 56
REMARK Flexibility Score: inf
ROOT
ATOM      1  C   UNL A   1      41.154  20.551  26.117  1.00  0.00     0.275 C 
ENDROOT
BRANCH   1   2
ATOM      2  C   UNL A   1      40.293  21.695  26.653  1.00  0.00     0.275 C 
BRANCH   2   3
ATOM      3  O   UNL A   1      39.025  21.599  25.996  1.00  0.00    -0.458 OA
BRANCH   3   4
ATOM      4  C   UNL A   1      38.095  22.778  26.113  1.00  0.00     0.339 C 
ATOM      5  O   UNL A   1      38.959  23.674  26.340  1.00  0.00    -0.246 OA
BRANCH   4   6
ATOM      6  C   UNL A   1      35.947  22.769  25.869  1.00  0.00     0.071 A 
ATOM      7  C   UNL A   1      33.726  24.229  25.356  1.00  0.00     0.072 A 
ATOM      8  C   UNL A   1      34.969  23.994  25.998  1.00  0.00     0.045 A 
ATOM      9  N   UNL A   1      33.094  23.259  24.718  1.00  0.00    -0.248 NA
ATOM     10  C   UNL A   1      33.580  22.038  24.744  1.00  0.00     0.072 A 
ATOM     11  C   UNL A   1      34.887  21.622  25.236  1.00  0.00     0.015 A 
ATOM     12  C   UNL A   1      32.615  21.208  24.168  1.00  0.00     0.029 A 
ATOM     13  C   UNL A   1      34.924  20.152  24.974  1.00  0.00     0.014 A 
ATOM     14  C   UNL A   1      32.768  19.847  23.989  1.00  0.00     0.005 A 
ATOM     15  C   UNL A   1      33.949  19.295  24.399  1.00  0.00    -0.050 A 
ATOM     16  C   UNL A   1      34.240  17.835  24.226  1.00  0.00     0.044 C 
BRANCH   7  17
ATOM     17  C   UNL A   1      33.045  25.561  25.199  1.00  0.00     0.003 A 
ATOM     18  C   UNL A   1      31.491  28.287  27.479  1.00  0.00     0.044 C 
ATOM     19  C   UNL A   1      31.984  27.546  26.268  1.00  0.00    -0.050 A 
ATOM     20  C   UNL A   1      31.845  28.153  25.022  1.00  0.00     0.004 A 
ATOM     21  C   UNL A   1      32.570  26.258  26.345  1.00  0.00     0.014 A 
ATOM     22  C   UNL A   1      32.343  27.523  23.890  1.00  0.00     0.004 A 
ATOM     23  C   UNL A   1      32.974  26.258  23.966  1.00  0.00    -0.042 A 
ATOM     24  C   UNL A   1      33.561  25.742  22.681  1.00  0.00     0.045 C 
ENDBRANCH   7  17
ENDBRANCH   4   6
ENDBRANCH   3   4
ENDBRANCH   2   3
ENDBRANCH   1   2
BRANCH   1  25
ATOM     25  O   UNL A   1      42.587  20.673  26.379  1.00  0.00    -0.458 OA
BRANCH  25  26
ATOM     26  C   UNL A   1      43.507  20.639  25.371  1.00  0.00     0.338 C 
ATOM     27  O   UNL A   1      43.830  19.637  24.755  1.00  0.00    -0.246 OA
BRANCH  26  28
ATOM     28  C   UNL A   1      44.272  21.900  25.253  1.00  0.00     0.060 A 
ATOM     29  C   UNL A   1      45.528  22.199  26.534  1.00  0.00     0.016 A 
ATOM     30  C   UNL A   1      43.306  23.275  24.607  1.00  0.00     0.016 A 
ATOM     31  C   UNL A   1      45.768  23.910  27.213  1.00  0.00     0.010 A 
ATOM     32  C   UNL A   1      43.511  24.953  25.357  1.00  0.00     0.010 A 
ATOM     33  C   UNL A   1      44.682  25.254  26.694  1.00  0.00    -0.014 A 
BRANCH  33  34
ATOM     34  C   UNL A   1      44.179  26.403  27.583  1.00  0.00     0.031 A 
ATOM     35  C   UNL A   1      45.086  27.556  27.357  1.00  0.00     0.074 A 
ATOM     36  C   UNL A   1      42.993  26.683  28.234  1.00  0.00     0.049 A 
ATOM     37  N   UNL A   1      46.198  27.766  27.984  1.00  0.00    -0.248 NA
ATOM     38  C   UNL A   1      44.935  28.369  26.134  1.00  0.00     0.031 C 
ATOM     39  C   UNL A   1      41.771  25.882  28.401  1.00  0.00     0.029 A 
ATOM     40  N   UNL A   1      42.599  27.855  28.889  1.00  0.00    -0.354 N 
ATOM     41  C   UNL A   1      46.715  28.900  27.383  1.00  0.00     0.074 A 
ATOM     42  C   UNL A   1      46.147  28.924  26.068  1.00  0.00     0.031 C 
ATOM     43  C   UNL A   1      40.748  26.633  28.908  1.00  0.00     0.029 A 
ATOM     44  C   UNL A   1      41.227  27.967  29.251  1.00  0.00     0.049 A 
ATOM     45  H   UNL A   1      43.243  28.572  29.091  1.00  0.00     0.167 HD
ATOM     46  C   UNL A   1      47.219  29.932  28.113  1.00  0.00     0.034 A 
ATOM     47  C   UNL A   1      40.549  29.018  29.857  1.00  0.00     0.034 A 
ATOM     48  C   UNL A   1      47.341  29.562  29.509  1.00  0.00     0.049 A 
ATOM     49  C   UNL A   1      41.581  29.817  30.555  1.00  0.00     0.074 A 
ATOM     50  C   UNL A   1      47.951  28.520  30.185  1.00  0.00     0.029 A 
ATOM     51  N   UNL A   1      46.410  30.070  30.390  1.00  0.00    -0.354 N 
ATOM     52  N   UNL A   1      42.259  29.365  31.571  1.00  0.00    -0.248 NA
ATOM     53  C   UNL A   1      42.212  30.888  29.802  1.00  0.00     0.031 C 
ATOM     54  C   UNL A   1      47.014  28.136  31.190  1.00  0.00     0.029 A 
ATOM     55  C   UNL A   1      45.944  29.030  31.161  1.00  0.00     0.049 A 
ATOM     56  H   UNL A   1      46.128  31.012  30.455  1.00  0.00     0.167 HD
ATOM     57  C   UNL A   1      43.565  29.727  31.297  1.00  0.00     0.074 A 
ATOM     58  C   UNL A   1      43.468  30.727  30.230  1.00  0.00     0.031 C 
ATOM     59  C   UNL A   1      44.612  28.967  31.730  1.00  0.00     0.034 A 
BRANCH  46  60
ATOM     60  C   UNL A   1      47.244  31.376  27.660  1.00  0.00     0.023 A 
ATOM     61  C   UNL A   1      46.041  31.898  27.157  1.00  0.00     0.031 A 
ATOM     62  C   UNL A   1      48.387  32.194  27.481  1.00  0.00     0.131 A 
ATOM     63  C   UNL A   1      46.020  33.114  26.455  1.00  0.00     0.055 A 
ATOM     64  C   UNL A   1      48.346  33.440  26.852  1.00  0.00     0.041 A 
ATOM     65  F   UNL A   1      49.627  31.810  27.804  1.00  0.00    -0.206 F 
ATOM     66  C   UNL A   1      47.162  33.895  26.308  1.00  0.00     0.022 A 
BRANCH  63  67
ATOM     67  S   UNL A   1      44.501  33.571  25.589  1.00  0.00     0.124 S 
ATOM     68  O   UNL A   1      45.029  34.121  24.344  1.00  0.00    -0.237 OA
ATOM     69  O   UNL A   1      43.817  32.287  25.488  1.00  0.00    -0.237 OA
ATOM     70  O   UNL A   1      43.880  34.541  26.487  1.00  0.00    -0.744 OA
ENDBRANCH  63  67
ENDBRANCH  46  60
BRANCH  47  71
ATOM     71  C   UNL A   1      39.143  29.603  29.682  1.00  0.00     0.023 A 
ATOM     72  C   UNL A   1      38.388  30.336  30.668  1.00  0.00     0.031 A 
ATOM     73  C   UNL A   1      38.652  29.706  28.366  1.00  0.00     0.131 A 
ATOM     74  C   UNL A   1      37.227  31.099  30.303  1.00  0.00     0.055 A 
ATOM     75  C   UNL A   1      37.529  30.473  28.014  1.00  0.00     0.041 A 
ATOM     76  F   UNL A   1      39.314  29.137  27.349  1.00  0.00    -0.206 F 
ATOM     77  C   UNL A   1      36.816  31.174  28.973  1.00  0.00     0.022 A 
BRANCH  74  78
ATOM     78  S   UNL A   1      36.223  32.075  31.514  1.00  0.00     0.124 S 
ATOM     79  O   UNL A   1      36.218  31.216  32.692  1.00  0.00    -0.237 OA
ATOM     80  O   UNL A   1      36.968  33.323  31.620  1.00  0.00    -0.237 OA
ATOM     81  O   UNL A   1      34.919  32.207  30.859  1.00  0.00    -0.744 OA
ENDBRANCH  74  78
ENDBRANCH  47  71
BRANCH  59  82
ATOM     82  C   UNL A   1      44.336  27.859  32.737  1.00  0.00     0.023 A 
ATOM     83  C   UNL A   1      44.394  26.469  32.470  1.00  0.00     0.031 A 
ATOM     84  C   UNL A   1      44.128  28.253  34.070  1.00  0.00     0.131 A 
ATOM     85  C   UNL A   1      44.249  25.539  33.523  1.00  0.00     0.055 A 
ATOM     86  C   UNL A   1      44.016  27.333  35.111  1.00  0.00     0.041 A 
ATOM     87  F   UNL A   1      44.071  29.556  34.391  1.00  0.00    -0.206 F 
ATOM     88  C   UNL A   1      44.075  25.972  34.841  1.00  0.00     0.022 A 
BRANCH  85  89
ATOM     89  S   UNL A   1      44.280  23.742  33.202  1.00  0.00     0.124 S 
ATOM     90  O   UNL A   1      44.123  23.658  31.755  1.00  0.00    -0.237 OA
ATOM     91  O   UNL A   1      45.582  23.346  33.732  1.00  0.00    -0.237 OA
ATOM     92  O   UNL A   1      43.138  23.238  33.968  1.00  0.00    -0.744 OA
ENDBRANCH  85  89
ENDBRANCH  59  82
ENDBRANCH  33  34
ENDBRANCH  26  28
ENDBRANCH  25  26
ENDBRANCH   1  25
TORSDOF 15
ENDMDL
MODEL 3
REMARK VINA RESULT:     -13.1      3.376      4.238
REMARK SMILES Cc1ccc(C)c(-c2cc(C(=O)OCCOC(=O)c3ccc(-c4c5nc(c(-c6cc(S(=O)(=O)[O-])ccc6F)c6ccc([nH]6)c(-c6cc(S(=O)(=O)[O-])ccc6F)c6nc(c(-c7cc(S(=O)(=O)[O-])ccc7F)c7ccc4[nH]7)C=C6)C=C5)cc3)c3cc(C)ccc3n2)c1
REMARK SMILES IDX 15 1 14 2 13 3 11 4 12 5 10 6 8 7 9 8 89 9 88 10 82 11 87 12
REMARK SMILES IDX 83 13 86 14 84 15 85 16 7 17 1 18 2 19 3 20 90 21 4 22 5 23
REMARK SMILES IDX 6 24 16 25 17 26 18 27 19 28 20 29 81 30 21 31 80 32 22 33
REMARK SMILES IDX 23 34 24 35 74 36 25 37 79 38 73 39 75 40 26 41 78 42 72 43
REMARK SMILES IDX 71 44 27 46 59 47 39 48 58 49 40 50 43 51 57 52 76 53 41 54
REMARK SMILES IDX 42 55 56 57 77 58 44 59 28 60 29 61 37 62 30 63 36 64 38 65
REMARK SMILES IDX 35 66 31 67 32 68 33 69 34 70 60 71 61 72 69 73 62 74 68 75
REMARK SMILES IDX 70 76 67 77 63 78 64 79 65 80 66 81 45 82 46 83 54 84 47 85
REMARK SMILES IDX 53 86 55 87 52 88 48 89 49 90 50 91 51 92
REMARK H PARENT 75 45 43 56
REMARK Flexibility Score: inf
ROOT
ATOM      1  C   UNL A   1      41.629  22.186  26.033  1.00  0.00     0.275 C 
ENDROOT
BRANCH   1   2
ATOM      2  C   UNL A   1      40.501  21.208  26.367  1.00  0.00     0.275 C 
BRANCH   2   3
ATOM      3  O   UNL A   1      39.312  21.732  25.768  1.00  0.00    -0.458 OA
BRANCH   3   4
ATOM      4  C   UNL A   1      38.217  20.752  25.435  1.00  0.00     0.339 C 
ATOM      5  O   UNL A   1      38.927  19.710  25.328  1.00  0.00    -0.246 OA
BRANCH   4   6
ATOM      6  C   UNL A   1      36.101  21.168  25.287  1.00  0.00     0.071 A 
ATOM      7  C   UNL A   1      34.194  23.020  24.773  1.00  0.00     0.072 A 
ATOM      8  C   UNL A   1      35.399  22.573  25.374  1.00  0.00     0.045 A 
ATOM      9  N   UNL A   1      33.344  22.164  24.233  1.00  0.00    -0.248 NA
ATOM     10  C   UNL A   1      33.575  20.873  24.323  1.00  0.00     0.072 A 
ATOM     11  C   UNL A   1      34.796  20.228  24.785  1.00  0.00     0.015 A 
ATOM     12  C   UNL A   1      32.430  20.225  23.851  1.00  0.00     0.029 A 
ATOM     13  C   UNL A   1      34.521  18.768  24.625  1.00  0.00     0.014 A 
ATOM     14  C   UNL A   1      32.294  18.854  23.762  1.00  0.00     0.005 A 
ATOM     15  C   UNL A   1      33.361  18.097  24.156  1.00  0.00    -0.050 A 
ATOM     16  C   UNL A   1      33.342  16.600  24.074  1.00  0.00     0.044 C 
BRANCH   7  17
ATOM     17  C   UNL A   1      33.788  24.451  24.552  1.00  0.00     0.003 A 
ATOM     18  C   UNL A   1      33.850  27.796  26.515  1.00  0.00     0.044 C 
ATOM     19  C   UNL A   1      33.660  26.783  25.421  1.00  0.00    -0.050 A 
ATOM     20  C   UNL A   1      33.161  27.221  24.197  1.00  0.00     0.004 A 
ATOM     21  C   UNL A   1      33.959  25.408  25.591  1.00  0.00     0.014 A 
ATOM     22  C   UNL A   1      33.030  26.323  23.146  1.00  0.00     0.004 A 
ATOM     23  C   UNL A   1      33.373  24.958  23.295  1.00  0.00    -0.042 A 
ATOM     24  C   UNL A   1      33.284  24.122  22.047  1.00  0.00     0.045 C 
ENDBRANCH   7  17
ENDBRANCH   4   6
ENDBRANCH   3   4
ENDBRANCH   2   3
ENDBRANCH   1   2
BRANCH   1  25
ATOM     25  O   UNL A   1      41.585  23.458  26.750  1.00  0.00    -0.458 OA
BRANCH  25  26
ATOM     26  C   UNL A   1      41.892  24.639  26.137  1.00  0.00     0.338 C 
ATOM     27  O   UNL A   1      42.966  24.898  25.621  1.00  0.00    -0.246 OA
BRANCH  26  28
ATOM     28  C   UNL A   1      40.874  25.687  26.373  1.00  0.00     0.060 A 
ATOM     29  C   UNL A   1      41.276  27.350  25.760  1.00  0.00     0.016 A 
ATOM     30  C   UNL A   1      39.986  25.495  27.928  1.00  0.00     0.016 A 
ATOM     31  C   UNL A   1      40.825  28.842  26.767  1.00  0.00     0.010 A 
ATOM     32  C   UNL A   1      39.619  26.993  28.948  1.00  0.00     0.010 A 
ATOM     33  C   UNL A   1      40.094  28.646  28.405  1.00  0.00    -0.014 A 
BRANCH  33  34
ATOM     34  C   UNL A   1      40.358  29.543  29.626  1.00  0.00     0.031 A 
ATOM     35  C   UNL A   1      39.090  30.253  29.925  1.00  0.00     0.074 A 
ATOM     36  C   UNL A   1      41.325  29.585  30.612  1.00  0.00     0.049 A 
ATOM     37  N   UNL A   1      38.710  31.365  29.384  1.00  0.00    -0.248 NA
ATOM     38  C   UNL A   1      38.004  29.536  30.623  1.00  0.00     0.031 C 
ATOM     39  C   UNL A   1      42.564  28.813  30.783  1.00  0.00     0.029 A 
ATOM     40  N   UNL A   1      41.366  30.361  31.776  1.00  0.00    -0.354 N 
ATOM     41  C   UNL A   1      37.450  31.585  29.913  1.00  0.00     0.074 A 
ATOM     42  C   UNL A   1      36.960  30.288  30.272  1.00  0.00     0.031 C 
ATOM     43  C   UNL A   1      43.102  29.004  32.025  1.00  0.00     0.029 A 
ATOM     44  C   UNL A   1      42.350  30.022  32.748  1.00  0.00     0.049 A 
ATOM     45  H   UNL A   1      40.742  31.110  31.917  1.00  0.00     0.167 HD
ATOM     46  C   UNL A   1      37.077  32.801  30.395  1.00  0.00     0.034 A 
ATOM     47  C   UNL A   1      42.591  30.574  33.999  1.00  0.00     0.034 A 
ATOM     48  C   UNL A   1      38.061  33.811  30.057  1.00  0.00     0.049 A 
ATOM     49  C   UNL A   1      42.003  31.932  33.963  1.00  0.00     0.074 A 
ATOM     50  C   UNL A   1      38.650  34.234  28.880  1.00  0.00     0.029 A 
ATOM     51  N   UNL A   1      38.901  34.247  31.061  1.00  0.00    -0.354 N 
ATOM     52  N   UNL A   1      42.462  32.882  33.201  1.00  0.00    -0.248 NA
ATOM     53  C   UNL A   1      40.613  32.063  34.368  1.00  0.00     0.031 C 
ATOM     54  C   UNL A   1      40.027  34.418  29.203  1.00  0.00     0.029 A 
ATOM     55  C   UNL A   1      40.188  34.221  30.574  1.00  0.00     0.049 A 
ATOM     56  H   UNL A   1      38.628  34.525  31.965  1.00  0.00     0.167 HD
ATOM     57  C   UNL A   1      41.330  33.442  32.637  1.00  0.00     0.074 A 
ATOM     58  C   UNL A   1      40.215  32.946  33.447  1.00  0.00     0.031 C 
ATOM     59  C   UNL A   1      41.366  33.996  31.390  1.00  0.00     0.034 A 
BRANCH  46  60
ATOM     60  C   UNL A   1      36.043  33.018  31.479  1.00  0.00     0.023 A 
ATOM     61  C   UNL A   1      34.942  33.823  31.144  1.00  0.00     0.031 A 
ATOM     62  C   UNL A   1      36.163  32.688  32.851  1.00  0.00     0.131 A 
ATOM     63  C   UNL A   1      34.082  34.318  32.138  1.00  0.00     0.055 A 
ATOM     64  C   UNL A   1      35.259  33.117  33.825  1.00  0.00     0.041 A 
ATOM     65  F   UNL A   1      37.204  32.019  33.360  1.00  0.00    -0.206 F 
ATOM     66  C   UNL A   1      34.226  33.964  33.475  1.00  0.00     0.022 A 
BRANCH  63  67
ATOM     67  S   UNL A   1      32.874  35.578  31.667  1.00  0.00     0.124 S 
ATOM     68  O   UNL A   1      31.778  35.288  32.586  1.00  0.00    -0.237 OA
ATOM     69  O   UNL A   1      33.615  36.809  31.914  1.00  0.00    -0.237 OA
ATOM     70  O   UNL A   1      32.606  35.279  30.262  1.00  0.00    -0.744 OA
ENDBRANCH  63  67
ENDBRANCH  46  60
BRANCH  47  71
ATOM     71  C   UNL A   1      43.020  29.980  35.347  1.00  0.00     0.023 A 
ATOM     72  C   UNL A   1      42.753  28.645  35.820  1.00  0.00     0.031 A 
ATOM     73  C   UNL A   1      44.010  30.676  36.067  1.00  0.00     0.131 A 
ATOM     74  C   UNL A   1      43.458  28.099  36.947  1.00  0.00     0.055 A 
ATOM     75  C   UNL A   1      44.710  30.126  37.153  1.00  0.00     0.041 A 
ATOM     76  F   UNL A   1      44.404  31.895  35.673  1.00  0.00    -0.206 F 
ATOM     77  C   UNL A   1      44.445  28.839  37.594  1.00  0.00     0.022 A 
BRANCH  74  78
ATOM     78  S   UNL A   1      43.178  26.388  37.595  1.00  0.00     0.124 S 
ATOM     79  O   UNL A   1      41.730  26.341  37.761  1.00  0.00    -0.237 OA
ATOM     80  O   UNL A   1      43.742  25.547  36.547  1.00  0.00    -0.237 OA
ATOM     81  O   UNL A   1      43.929  26.365  38.854  1.00  0.00    -0.744 OA
ENDBRANCH  74  78
ENDBRANCH  47  71
BRANCH  59  82
ATOM     82  C   UNL A   1      42.721  34.221  30.735  1.00  0.00     0.023 A 
ATOM     83  C   UNL A   1      43.281  33.429  29.703  1.00  0.00     0.031 A 
ATOM     84  C   UNL A   1      43.415  35.387  31.103  1.00  0.00     0.131 A 
ATOM     85  C   UNL A   1      44.488  33.821  29.084  1.00  0.00     0.055 A 
ATOM     86  C   UNL A   1      44.590  35.787  30.469  1.00  0.00     0.041 A 
ATOM     87  F   UNL A   1      42.934  36.186  32.069  1.00  0.00    -0.206 F 
ATOM     88  C   UNL A   1      45.132  35.005  29.457  1.00  0.00     0.022 A 
BRANCH  85  89
ATOM     89  S   UNL A   1      45.251  32.798  27.779  1.00  0.00     0.124 S 
ATOM     90  O   UNL A   1      46.660  33.169  27.844  1.00  0.00    -0.237 OA
ATOM     91  O   UNL A   1      44.924  31.440  28.204  1.00  0.00    -0.237 OA
ATOM     92  O   UNL A   1      44.565  33.231  26.560  1.00  0.00    -0.744 OA
ENDBRANCH  85  89
ENDBRANCH  59  82
ENDBRANCH  33  34
ENDBRANCH  26  28
ENDBRANCH  25  26
ENDBRANCH   1  25
TORSDOF 15
ENDMDL
