MODEL 1
REMARK VINA RESULT:     -12.1      0.000      0.000
REMARK SMILES Cc1ccc(NC(=O)C[NH+]2CCC(C(=O)OCCOC(=O)c3ccc(-c4c5nc(c(-c6cc(S(=O)(=O)[O-])ccc6F)c6ccc([nH]6)c(-c6cc(S(=O)(=O)[O-])ccc6F)c6nc(c(-c7cc(S(=O)(=O)[O-])ccc7F)c7ccc4[nH]7)C=C6)C=C5)cc3)CC2)cc1Cl
REMARK SMILES IDX 17 1 16 2 14 3 15 4 13 5 10 6 11 7 86 8 12 10 85 11 9 12
REMARK SMILES IDX 7 13 6 14 8 16 5 17 1 18 2 19 3 20 88 21 4 22 87 23 89 24
REMARK SMILES IDX 18 25 19 26 20 27 21 28 22 29 23 30 84 31 24 32 83 33 25 34
REMARK SMILES IDX 26 35 27 36 77 37 28 38 82 39 76 40 78 41 29 42 81 43 75 44
REMARK SMILES IDX 74 45 30 47 62 48 42 49 61 50 43 51 46 52 60 53 79 54 44 55
REMARK SMILES IDX 45 56 59 58 80 59 47 60 31 61 32 62 40 63 33 64 39 65 41 66
REMARK SMILES IDX 38 67 34 68 35 69 36 70 37 71 63 72 64 73 72 74 65 75 71 76
REMARK SMILES IDX 73 77 70 78 66 79 67 80 68 81 69 82 48 83 49 84 57 85 50 86
REMARK SMILES IDX 56 87 58 88 55 89 51 90 52 91 53 92 54 93
REMARK H PARENT 10 9 6 15 78 46 46 57
REMARK Flexibility Score: inf
ROOT
ATOM      1  C   UNL A   1      31.840  28.894  24.906  1.00  0.00     0.274 C 
ENDROOT
BRANCH   1   2
ATOM      2  O   UNL A   1      30.970  29.255  23.818  1.00  0.00    -0.462 OA
BRANCH   2   3
ATOM      3  C   UNL A   1      30.500  28.206  23.103  1.00  0.00     0.309 C 
ATOM      4  O   UNL A   1      29.970  28.295  21.999  1.00  0.00    -0.252 OA
BRANCH   3   5
ATOM      5  C   UNL A   1      30.593  26.888  23.822  1.00  0.00     0.110 C 
ATOM      6  N   UNL A   1      30.354  24.089  24.543  1.00  0.00    -0.327 N 
ATOM      7  C   UNL A   1      29.776  25.130  25.408  1.00  0.00     0.263 C 
ATOM      8  C   UNL A   1      31.387  24.578  23.637  1.00  0.00     0.263 C 
ATOM      9  H   UNL A   1      29.578  23.800  23.947  1.00  0.00     0.348 HD
ATOM     10  C   UNL A   1      29.386  26.399  24.620  1.00  0.00     0.077 C 
ATOM     11  C   UNL A   1      30.992  25.805  22.838  1.00  0.00     0.077 C 
BRANCH   6  12
ATOM     12  C   UNL A   1      30.783  22.870  25.284  1.00  0.00     0.363 C 
BRANCH  12  13
ATOM     13  C   UNL A   1      31.227  23.061  26.746  1.00  0.00     0.279 C 
ATOM     14  N   UNL A   1      32.529  23.117  27.168  1.00  0.00    -0.321 N 
ATOM     15  H   UNL A   1      32.628  23.217  28.142  1.00  0.00     0.170 HD
ATOM     16  O   UNL A   1      30.365  23.220  27.622  1.00  0.00    -0.268 OA
BRANCH  14  17
ATOM     17  C   UNL A   1      33.749  23.059  26.475  1.00  0.00     0.042 A 
ATOM     18  C   UNL A   1      36.651  22.924  23.304  1.00  0.00     0.046 C 
ATOM     19  C   UNL A   1      35.782  22.984  24.528  1.00  0.00    -0.032 A 
ATOM     20  C   UNL A   1      35.144  24.190  24.849  1.00  0.00     0.007 A 
ATOM     21  C   UNL A   1      35.481  21.851  25.298  1.00  0.00     0.046 A 
ATOM     22  C   UNL A   1      34.156  24.234  25.836  1.00  0.00     0.026 A 
ATOM     23  C   UNL A   1      34.487  21.895  26.285  1.00  0.00     0.047 A 
ATOM     24  Cl  UNL A   1      36.233  20.324  24.990  1.00  0.00    -0.084 Cl
ENDBRANCH  14  17
ENDBRANCH  12  13
ENDBRANCH   6  12
ENDBRANCH   3   5
ENDBRANCH   2   3
ENDBRANCH   1   2
BRANCH   1  25
ATOM     25  C   UNL A   1      32.692  30.075  25.382  1.00  0.00     0.275 C 
BRANCH  25  26
ATOM     26  O   UNL A   1      32.461  30.405  26.764  1.00  0.00    -0.458 OA
BRANCH  26  27
ATOM     27  C   UNL A   1      33.075  31.533  27.190  1.00  0.00     0.338 C 
ATOM     28  O   UNL A   1      32.605  32.663  27.205  1.00  0.00    -0.246 OA
BRANCH  27  29
ATOM     29  C   UNL A   1      34.396  31.215  27.747  1.00  0.00     0.060 A 
ATOM     30  C   UNL A   1      34.663  29.899  28.133  1.00  0.00     0.016 A 
ATOM     31  C   UNL A   1      35.324  32.228  27.995  1.00  0.00     0.016 A 
ATOM     32  C   UNL A   1      35.855  29.586  28.783  1.00  0.00     0.010 A 
ATOM     33  C   UNL A   1      36.522  31.912  28.644  1.00  0.00     0.010 A 
ATOM     34  C   UNL A   1      36.789  30.593  29.056  1.00  0.00    -0.014 A 
BRANCH  34  35
ATOM     35  C   UNL A   1      38.013  30.283  29.835  1.00  0.00     0.031 A 
ATOM     36  C   UNL A   1      39.040  29.347  29.261  1.00  0.00     0.074 A 
ATOM     37  C   UNL A   1      38.202  30.838  31.047  1.00  0.00     0.049 A 
ATOM     38  N   UNL A   1      40.101  28.833  29.825  1.00  0.00    -0.248 NA
ATOM     39  C   UNL A   1      38.834  28.931  27.866  1.00  0.00     0.031 C 
ATOM     40  C   UNL A   1      37.306  31.806  31.681  1.00  0.00     0.029 A 
ATOM     41  N   UNL A   1      39.205  30.659  31.966  1.00  0.00    -0.354 N 
ATOM     42  C   UNL A   1      40.678  28.007  28.865  1.00  0.00     0.074 A 
ATOM     43  C   UNL A   1      39.837  28.082  27.688  1.00  0.00     0.031 C 
ATOM     44  C   UNL A   1      37.798  32.130  32.888  1.00  0.00     0.029 A 
ATOM     45  C   UNL A   1      39.008  31.351  33.138  1.00  0.00     0.049 A 
ATOM     46  H   UNL A   1      39.991  30.088  31.803  1.00  0.00     0.167 HD
ATOM     47  C   UNL A   1      41.801  27.254  28.964  1.00  0.00     0.034 A 
ATOM     48  C   UNL A   1      39.701  31.328  34.293  1.00  0.00     0.034 A 
ATOM     49  C   UNL A   1      42.634  27.202  30.142  1.00  0.00     0.049 A 
ATOM     50  C   UNL A   1      40.906  30.428  34.402  1.00  0.00     0.074 A 
ATOM     51  C   UNL A   1      43.802  26.489  30.343  1.00  0.00     0.029 A 
ATOM     52  N   UNL A   1      42.380  27.888  31.323  1.00  0.00    -0.354 N 
ATOM     53  N   UNL A   1      41.425  29.628  33.500  1.00  0.00    -0.248 NA
ATOM     54  C   UNL A   1      41.613  30.425  35.690  1.00  0.00     0.031 C 
ATOM     55  C   UNL A   1      44.223  26.696  31.662  1.00  0.00     0.029 A 
ATOM     56  C   UNL A   1      43.354  27.591  32.265  1.00  0.00     0.049 A 
ATOM     57  H   UNL A   1      41.621  28.496  31.470  1.00  0.00     0.167 HD
ATOM     58  C   UNL A   1      42.535  29.044  34.104  1.00  0.00     0.074 A 
ATOM     59  C   UNL A   1      42.615  29.594  35.442  1.00  0.00     0.031 C 
ATOM     60  C   UNL A   1      43.411  28.139  33.600  1.00  0.00     0.034 A 
BRANCH  47  61
ATOM     61  C   UNL A   1      42.151  26.375  27.787  1.00  0.00     0.023 A 
ATOM     62  C   UNL A   1      41.708  25.045  27.689  1.00  0.00     0.031 A 
ATOM     63  C   UNL A   1      42.972  26.874  26.760  1.00  0.00     0.131 A 
ATOM     64  C   UNL A   1      42.140  24.242  26.622  1.00  0.00     0.055 A 
ATOM     65  C   UNL A   1      43.341  26.092  25.665  1.00  0.00     0.041 A 
ATOM     66  F   UNL A   1      43.443  28.130  26.811  1.00  0.00    -0.206 F 
ATOM     67  C   UNL A   1      42.936  24.762  25.598  1.00  0.00     0.022 A 
BRANCH  64  68
ATOM     68  S   UNL A   1      41.757  22.469  26.657  1.00  0.00     0.124 S 
ATOM     69  O   UNL A   1      42.542  22.020  27.804  1.00  0.00    -0.237 OA
ATOM     70  O   UNL A   1      40.309  22.462  26.830  1.00  0.00    -0.237 OA
ATOM     71  O   UNL A   1      42.232  21.989  25.360  1.00  0.00    -0.744 OA
ENDBRANCH  64  68
ENDBRANCH  47  61
BRANCH  48  72
ATOM     72  C   UNL A   1      39.246  32.130  35.463  1.00  0.00     0.023 A 
ATOM     73  C   UNL A   1      39.685  33.450  35.653  1.00  0.00     0.031 A 
ATOM     74  C   UNL A   1      38.402  31.568  36.439  1.00  0.00     0.131 A 
ATOM     75  C   UNL A   1      39.310  34.152  36.809  1.00  0.00     0.055 A 
ATOM     76  C   UNL A   1      37.993  32.287  37.563  1.00  0.00     0.041 A 
ATOM     77  F   UNL A   1      37.955  30.310  36.306  1.00  0.00    -0.206 F 
ATOM     78  C   UNL A   1      38.458  33.583  37.759  1.00  0.00     0.022 A 
BRANCH  75  79
ATOM     79  S   UNL A   1      40.017  35.797  37.093  1.00  0.00     0.124 S 
ATOM     80  O   UNL A   1      41.431  35.488  37.269  1.00  0.00    -0.237 OA
ATOM     81  O   UNL A   1      39.662  36.495  35.862  1.00  0.00    -0.237 OA
ATOM     82  O   UNL A   1      39.325  36.262  38.293  1.00  0.00    -0.744 OA
ENDBRANCH  75  79
ENDBRANCH  48  72
BRANCH  60  83
ATOM     83  C   UNL A   1      44.554  27.730  34.494  1.00  0.00     0.023 A 
ATOM     84  C   UNL A   1      44.423  26.693  35.433  1.00  0.00     0.031 A 
ATOM     85  C   UNL A   1      45.785  28.405  34.416  1.00  0.00     0.131 A 
ATOM     86  C   UNL A   1      45.489  26.395  36.296  1.00  0.00     0.055 A 
ATOM     87  C   UNL A   1      46.859  28.068  35.240  1.00  0.00     0.041 A 
ATOM     88  F   UNL A   1      45.962  29.404  33.536  1.00  0.00    -0.206 F 
ATOM     89  C   UNL A   1      46.711  27.067  36.196  1.00  0.00     0.022 A 
BRANCH  86  90
ATOM     90  S   UNL A   1      45.232  25.172  37.611  1.00  0.00     0.124 S 
ATOM     91  O   UNL A   1      46.369  25.427  38.489  1.00  0.00    -0.237 OA
ATOM     92  O   UNL A   1      43.924  25.549  38.137  1.00  0.00    -0.237 OA
ATOM     93  O   UNL A   1      45.270  23.894  36.904  1.00  0.00    -0.744 OA
ENDBRANCH  86  90
ENDBRANCH  60  83
ENDBRANCH  34  35
ENDBRANCH  27  29
ENDBRANCH  26  27
ENDBRANCH  25  26
ENDBRANCH   1  25
TORSDOF 17
ENDMDL
MODEL 2
REMARK VINA RESULT:     -11.8      1.946      2.636
REMARK SMILES Cc1ccc(NC(=O)C[NH+]2CCC(C(=O)OCCOC(=O)c3ccc(-c4c5nc(c(-c6cc(S(=O)(=O)[O-])ccc6F)c6ccc([nH]6)c(-c6cc(S(=O)(=O)[O-])ccc6F)c6nc(c(-c7cc(S(=O)(=O)[O-])ccc7F)c7ccc4[nH]7)C=C6)C=C5)cc3)CC2)cc1Cl
REMARK SMILES IDX 17 1 16 2 14 3 15 4 13 5 10 6 11 7 86 8 12 10 85 11 9 12
REMARK SMILES IDX 7 13 6 14 8 16 5 17 1 18 2 19 3 20 88 21 4 22 87 23 89 24
REMARK SMILES IDX 18 25 19 26 20 27 21 28 22 29 23 30 84 31 24 32 83 33 25 34
REMARK SMILES IDX 26 35 27 36 77 37 28 38 82 39 76 40 78 41 29 42 81 43 75 44
REMARK SMILES IDX 74 45 30 47 62 48 42 49 61 50 43 51 46 52 60 53 79 54 44 55
REMARK SMILES IDX 45 56 59 58 80 59 47 60 31 61 32 62 40 63 33 64 39 65 41 66
REMARK SMILES IDX 38 67 34 68 35 69 36 70 37 71 63 72 64 73 72 74 65 75 71 76
REMARK SMILES IDX 73 77 70 78 66 79 67 80 68 81 69 82 48 83 49 84 57 85 50 86
REMARK SMILES IDX 56 87 58 88 55 89 51 90 52 91 53 92 54 93
REMARK H PARENT 10 9 6 15 78 46 46 57
REMARK Flexibility Score: inf
ROOT
ATOM      1  C   UNL A   1      31.524  29.280  24.622  1.00  0.00     0.274 C 
ENDROOT
BRANCH   1   2
ATOM      2  O   UNL A   1      31.719  29.174  23.200  1.00  0.00    -0.462 OA
BRANCH   2   3
ATOM      3  C   UNL A   1      31.134  28.094  22.631  1.00  0.00     0.309 C 
ATOM      4  O   UNL A   1      30.059  28.112  22.038  1.00  0.00    -0.252 OA
BRANCH   3   5
ATOM      5  C   UNL A   1      31.875  26.805  22.867  1.00  0.00     0.110 C 
ATOM      6  N   UNL A   1      33.520  24.441  22.531  1.00  0.00    -0.327 N 
ATOM      7  C   UNL A   1      32.098  24.312  22.887  1.00  0.00     0.263 C 
ATOM      8  C   UNL A   1      34.086  25.753  22.824  1.00  0.00     0.263 C 
ATOM      9  H   UNL A   1      33.532  24.355  21.515  1.00  0.00     0.348 HD
ATOM     10  C   UNL A   1      31.254  25.500  22.378  1.00  0.00     0.077 C 
ATOM     11  C   UNL A   1      33.276  26.919  22.295  1.00  0.00     0.077 C 
BRANCH   6  12
ATOM     12  C   UNL A   1      34.367  23.330  23.051  1.00  0.00     0.363 C 
BRANCH  12  13
ATOM     13  C   UNL A   1      35.332  23.668  24.202  1.00  0.00     0.279 C 
ATOM     14  N   UNL A   1      34.955  23.906  25.497  1.00  0.00    -0.321 N 
ATOM     15  H   UNL A   1      35.703  24.133  26.095  1.00  0.00     0.170 HD
ATOM     16  O   UNL A   1      36.552  23.695  23.977  1.00  0.00    -0.268 OA
BRANCH  14  17
ATOM     17  C   UNL A   1      33.704  23.886  26.134  1.00  0.00     0.042 A 
ATOM     18  C   UNL A   1      29.589  23.031  27.043  1.00  0.00     0.046 C 
ATOM     19  C   UNL A   1      31.033  23.416  26.891  1.00  0.00    -0.032 A 
ATOM     20  C   UNL A   1      32.021  22.449  27.120  1.00  0.00     0.007 A 
ATOM     21  C   UNL A   1      31.434  24.670  26.408  1.00  0.00     0.046 A 
ATOM     22  C   UNL A   1      33.352  22.693  26.772  1.00  0.00     0.026 A 
ATOM     23  C   UNL A   1      32.768  24.912  26.055  1.00  0.00     0.047 A 
ATOM     24  Cl  UNL A   1      30.289  25.934  26.113  1.00  0.00    -0.084 Cl
ENDBRANCH  14  17
ENDBRANCH  12  13
ENDBRANCH   6  12
ENDBRANCH   3   5
ENDBRANCH   2   3
ENDBRANCH   1   2
BRANCH   1  25
ATOM     25  C   UNL A   1      32.756  29.845  25.335  1.00  0.00     0.275 C 
BRANCH  25  26
ATOM     26  O   UNL A   1      32.508  30.136  26.723  1.00  0.00    -0.458 OA
BRANCH  26  27
ATOM     27  C   UNL A   1      33.087  31.273  27.178  1.00  0.00     0.338 C 
ATOM     28  O   UNL A   1      32.586  32.389  27.208  1.00  0.00    -0.246 OA
BRANCH  27  29
ATOM     29  C   UNL A   1      34.410  30.980  27.743  1.00  0.00     0.060 A 
ATOM     30  C   UNL A   1      34.701  29.668  28.127  1.00  0.00     0.016 A 
ATOM     31  C   UNL A   1      35.315  32.010  28.001  1.00  0.00     0.016 A 
ATOM     32  C   UNL A   1      35.895  29.378  28.785  1.00  0.00     0.010 A 
ATOM     33  C   UNL A   1      36.516  31.718  28.657  1.00  0.00     0.010 A 
ATOM     34  C   UNL A   1      36.806  30.403  29.067  1.00  0.00    -0.014 A 
BRANCH  34  35
ATOM     35  C   UNL A   1      38.030  30.115  29.854  1.00  0.00     0.031 A 
ATOM     36  C   UNL A   1      39.070  29.186  29.294  1.00  0.00     0.074 A 
ATOM     37  C   UNL A   1      38.208  30.685  31.061  1.00  0.00     0.049 A 
ATOM     38  N   UNL A   1      40.135  28.691  29.867  1.00  0.00    -0.248 NA
ATOM     39  C   UNL A   1      38.875  28.753  27.902  1.00  0.00     0.031 C 
ATOM     40  C   UNL A   1      37.298  31.649  31.681  1.00  0.00     0.029 A 
ATOM     41  N   UNL A   1      39.209  30.528  31.985  1.00  0.00    -0.354 N 
ATOM     42  C   UNL A   1      40.726  27.862  28.919  1.00  0.00     0.074 A 
ATOM     43  C   UNL A   1      39.889  27.915  27.737  1.00  0.00     0.031 C 
ATOM     44  C   UNL A   1      37.781  31.992  32.887  1.00  0.00     0.029 A 
ATOM     45  C   UNL A   1      38.999  31.230  33.149  1.00  0.00     0.049 A 
ATOM     46  H   UNL A   1      40.003  29.965  31.831  1.00  0.00     0.167 HD
ATOM     47  C   UNL A   1      41.857  27.122  29.029  1.00  0.00     0.034 A 
ATOM     48  C   UNL A   1      39.688  31.228  34.307  1.00  0.00     0.034 A 
ATOM     49  C   UNL A   1      42.686  27.093  30.211  1.00  0.00     0.049 A 
ATOM     50  C   UNL A   1      40.903  30.343  34.431  1.00  0.00     0.074 A 
ATOM     51  C   UNL A   1      43.862  26.396  30.424  1.00  0.00     0.029 A 
ATOM     52  N   UNL A   1      42.420  27.788  31.384  1.00  0.00    -0.354 N 
ATOM     53  N   UNL A   1      41.435  29.540  33.539  1.00  0.00    -0.248 NA
ATOM     54  C   UNL A   1      41.605  30.362  35.721  1.00  0.00     0.031 C 
ATOM     55  C   UNL A   1      44.275  26.622  31.743  1.00  0.00     0.029 A 
ATOM     56  C   UNL A   1      43.393  27.513  32.333  1.00  0.00     0.049 A 
ATOM     57  H   UNL A   1      41.653  28.389  31.522  1.00  0.00     0.167 HD
ATOM     58  C   UNL A   1      42.549  28.976  34.154  1.00  0.00     0.074 A 
ATOM     59  C   UNL A   1      42.618  29.540  35.486  1.00  0.00     0.031 C 
ATOM     60  C   UNL A   1      43.438  28.076  33.662  1.00  0.00     0.034 A 
BRANCH  47  61
ATOM     61  C   UNL A   1      42.222  26.236  27.864  1.00  0.00     0.023 A 
ATOM     62  C   UNL A   1      41.746  24.918  27.748  1.00  0.00     0.031 A 
ATOM     63  C   UNL A   1      43.091  26.713  26.865  1.00  0.00     0.131 A 
ATOM     64  C   UNL A   1      42.191  24.105  26.695  1.00  0.00     0.055 A 
ATOM     65  C   UNL A   1      43.475  25.922  25.782  1.00  0.00     0.041 A 
ATOM     66  F   UNL A   1      43.595  27.956  26.935  1.00  0.00    -0.206 F 
ATOM     67  C   UNL A   1      43.035  24.604  25.699  1.00  0.00     0.022 A 
BRANCH  64  68
ATOM     68  S   UNL A   1      41.759  22.343  26.713  1.00  0.00     0.124 S 
ATOM     69  O   UNL A   1      42.170  21.925  25.376  1.00  0.00    -0.237 OA
ATOM     70  O   UNL A   1      42.561  21.833  27.819  1.00  0.00    -0.237 OA
ATOM     71  O   UNL A   1      40.314  22.347  26.940  1.00  0.00    -0.744 OA
ENDBRANCH  64  68
ENDBRANCH  47  61
BRANCH  48  72
ATOM     72  C   UNL A   1      39.219  32.037  35.467  1.00  0.00     0.023 A 
ATOM     73  C   UNL A   1      38.538  31.440  36.540  1.00  0.00     0.031 A 
ATOM     74  C   UNL A   1      39.403  33.431  35.496  1.00  0.00     0.131 A 
ATOM     75  C   UNL A   1      38.031  32.238  37.577  1.00  0.00     0.055 A 
ATOM     76  C   UNL A   1      38.940  34.215  36.553  1.00  0.00     0.041 A 
ATOM     77  F   UNL A   1      40.047  34.052  34.494  1.00  0.00    -0.206 F 
ATOM     78  C   UNL A   1      38.238  33.619  37.596  1.00  0.00     0.022 A 
BRANCH  75  79
ATOM     79  S   UNL A   1      37.028  31.452  38.866  1.00  0.00     0.124 S 
ATOM     80  O   UNL A   1      37.895  31.570  40.032  1.00  0.00    -0.237 OA
ATOM     81  O   UNL A   1      35.831  32.287  38.869  1.00  0.00    -0.237 OA
ATOM     82  O   UNL A   1      36.835  30.092  38.365  1.00  0.00    -0.744 OA
ENDBRANCH  75  79
ENDBRANCH  48  72
BRANCH  60  83
ATOM     83  C   UNL A   1      44.583  27.689  34.564  1.00  0.00     0.023 A 
ATOM     84  C   UNL A   1      44.494  26.598  35.445  1.00  0.00     0.031 A 
ATOM     85  C   UNL A   1      45.771  28.441  34.555  1.00  0.00     0.131 A 
ATOM     86  C   UNL A   1      45.554  26.320  36.320  1.00  0.00     0.055 A 
ATOM     87  C   UNL A   1      46.844  28.126  35.390  1.00  0.00     0.041 A 
ATOM     88  F   UNL A   1      45.907  29.494  33.733  1.00  0.00    -0.206 F 
ATOM     89  C   UNL A   1      46.735  27.069  36.288  1.00  0.00     0.022 A 
BRANCH  86  90
ATOM     90  S   UNL A   1      45.342  25.015  37.563  1.00  0.00     0.124 S 
ATOM     91  O   UNL A   1      44.997  23.862  36.737  1.00  0.00    -0.237 OA
ATOM     92  O   UNL A   1      46.655  24.973  38.198  1.00  0.00    -0.237 OA
ATOM     93  O   UNL A   1      44.262  25.518  38.408  1.00  0.00    -0.744 OA
ENDBRANCH  86  90
ENDBRANCH  60  83
ENDBRANCH  34  35
ENDBRANCH  27  29
ENDBRANCH  26  27
ENDBRANCH  25  26
ENDBRANCH   1  25
TORSDOF 17
ENDMDL
MODEL 3
REMARK VINA RESULT:     -11.8      4.834     10.100
REMARK SMILES Cc1ccc(NC(=O)C[NH+]2CCC(C(=O)OCCOC(=O)c3ccc(-c4c5nc(c(-c6cc(S(=O)(=O)[O-])ccc6F)c6ccc([nH]6)c(-c6cc(S(=O)(=O)[O-])ccc6F)c6nc(c(-c7cc(S(=O)(=O)[O-])ccc7F)c7ccc4[nH]7)C=C6)C=C5)cc3)CC2)cc1Cl
REMARK SMILES IDX 17 1 16 2 14 3 15 4 13 5 10 6 11 7 86 8 12 10 85 11 9 12
REMARK SMILES IDX 7 13 6 14 8 16 5 17 1 18 2 19 3 20 88 21 4 22 87 23 89 24
REMARK SMILES IDX 18 25 19 26 20 27 21 28 22 29 23 30 84 31 24 32 83 33 25 34
REMARK SMILES IDX 26 35 27 36 77 37 28 38 82 39 76 40 78 41 29 42 81 43 75 44
REMARK SMILES IDX 74 45 30 47 62 48 42 49 61 50 43 51 46 52 60 53 79 54 44 55
REMARK SMILES IDX 45 56 59 58 80 59 47 60 31 61 32 62 40 63 33 64 39 65 41 66
REMARK SMILES IDX 38 67 34 68 35 69 36 70 37 71 63 72 64 73 72 74 65 75 71 76
REMARK SMILES IDX 73 77 70 78 66 79 67 80 68 81 69 82 48 83 49 84 57 85 50 86
REMARK SMILES IDX 56 87 58 88 55 89 51 90 52 91 53 92 54 93
REMARK H PARENT 10 9 6 15 78 46 46 57
REMARK Flexibility Score: inf
ROOT
ATOM      1  C   UNL A   1      35.200  21.256  25.724  1.00  0.00     0.274 C 
ENDROOT
BRANCH   1   2
ATOM      2  O   UNL A   1      34.139  21.353  24.757  1.00  0.00    -0.462 OA
BRANCH   2   3
ATOM      3  C   UNL A   1      33.125  22.175  25.116  1.00  0.00     0.309 C 
ATOM      4  O   UNL A   1      32.246  21.888  25.925  1.00  0.00    -0.252 OA
BRANCH   3   5
ATOM      5  C   UNL A   1      33.095  23.474  24.357  1.00  0.00     0.110 C 
ATOM      6  N   UNL A   1      33.804  25.740  22.693  1.00  0.00    -0.327 N 
ATOM      7  C   UNL A   1      33.452  25.940  24.108  1.00  0.00     0.263 C 
ATOM      8  C   UNL A   1      33.327  24.480  22.136  1.00  0.00     0.263 C 
ATOM      9  H   UNL A   1      34.822  25.673  22.696  1.00  0.00     0.348 HD
ATOM     10  C   UNL A   1      33.765  24.700  24.972  1.00  0.00     0.077 C 
ATOM     11  C   UNL A   1      33.664  23.258  22.967  1.00  0.00     0.077 C 
BRANCH   6  12
ATOM     12  C   UNL A   1      33.469  26.905  21.826  1.00  0.00     0.363 C 
BRANCH  12  13
ATOM     13  C   UNL A   1      33.485  28.295  22.487  1.00  0.00     0.279 C 
ATOM     14  N   UNL A   1      32.370  29.023  22.807  1.00  0.00    -0.321 N 
ATOM     15  H   UNL A   1      32.568  29.904  23.200  1.00  0.00     0.170 HD
ATOM     16  O   UNL A   1      34.573  28.801  22.800  1.00  0.00    -0.268 OA
BRANCH  14  17
ATOM     17  C   UNL A   1      30.998  28.753  22.683  1.00  0.00     0.042 A 
ATOM     18  C   UNL A   1      26.739  28.851  23.267  1.00  0.00     0.046 C 
ATOM     19  C   UNL A   1      28.193  28.703  22.919  1.00  0.00    -0.032 A 
ATOM     20  C   UNL A   1      28.832  29.736  22.222  1.00  0.00     0.007 A 
ATOM     21  C   UNL A   1      28.972  27.627  23.371  1.00  0.00     0.046 A 
ATOM     22  C   UNL A   1      30.222  29.746  22.079  1.00  0.00     0.026 A 
ATOM     23  C   UNL A   1      30.366  27.641  23.230  1.00  0.00     0.047 A 
ATOM     24  Cl  UNL A   1      28.268  26.296  24.223  1.00  0.00    -0.084 Cl
ENDBRANCH  14  17
ENDBRANCH  12  13
ENDBRANCH   6  12
ENDBRANCH   3   5
ENDBRANCH   2   3
ENDBRANCH   1   2
BRANCH   1  25
ATOM     25  C   UNL A   1      36.481  20.671  25.122  1.00  0.00     0.275 C 
BRANCH  25  26
ATOM     26  O   UNL A   1      37.566  21.617  25.099  1.00  0.00    -0.458 OA
BRANCH  26  27
ATOM     27  C   UNL A   1      38.671  21.232  25.780  1.00  0.00     0.338 C 
ATOM     28  O   UNL A   1      39.153  20.108  25.821  1.00  0.00    -0.246 OA
BRANCH  27  29
ATOM     29  C   UNL A   1      39.307  22.393  26.418  1.00  0.00     0.060 A 
ATOM     30  C   UNL A   1      38.890  23.674  26.047  1.00  0.00     0.016 A 
ATOM     31  C   UNL A   1      40.386  22.223  27.286  1.00  0.00     0.016 A 
ATOM     32  C   UNL A   1      39.557  24.797  26.532  1.00  0.00     0.010 A 
ATOM     33  C   UNL A   1      41.052  23.351  27.776  1.00  0.00     0.010 A 
ATOM     34  C   UNL A   1      40.653  24.644  27.390  1.00  0.00    -0.014 A 
BRANCH  34  35
ATOM     35  C   UNL A   1      41.427  25.831  27.829  1.00  0.00     0.031 A 
ATOM     36  C   UNL A   1      40.753  26.893  28.653  1.00  0.00     0.074 A 
ATOM     37  C   UNL A   1      42.725  25.955  27.493  1.00  0.00     0.049 A 
ATOM     38  N   UNL A   1      41.197  28.066  29.018  1.00  0.00    -0.248 NA
ATOM     39  C   UNL A   1      39.392  26.589  29.118  1.00  0.00     0.031 C 
ATOM     40  C   UNL A   1      43.502  24.962  26.750  1.00  0.00     0.029 A 
ATOM     41  N   UNL A   1      43.616  26.971  27.724  1.00  0.00    -0.354 N 
ATOM     42  C   UNL A   1      40.161  28.659  29.732  1.00  0.00     0.074 A 
ATOM     43  C   UNL A   1      39.062  27.715  29.736  1.00  0.00     0.031 C 
ATOM     44  C   UNL A   1      44.752  25.424  26.581  1.00  0.00     0.029 A 
ATOM     45  C   UNL A   1      44.848  26.764  27.150  1.00  0.00     0.049 A 
ATOM     46  H   UNL A   1      43.394  27.774  28.250  1.00  0.00     0.167 HD
ATOM     47  C   UNL A   1      40.132  29.879  30.323  1.00  0.00     0.034 A 
ATOM     48  C   UNL A   1      45.918  27.579  27.059  1.00  0.00     0.034 A 
ATOM     49  C   UNL A   1      41.243  30.800  30.321  1.00  0.00     0.049 A 
ATOM     50  C   UNL A   1      45.836  28.959  27.664  1.00  0.00     0.074 A 
ATOM     51  C   UNL A   1      41.328  32.052  30.905  1.00  0.00     0.029 A 
ATOM     52  N   UNL A   1      42.462  30.571  29.696  1.00  0.00    -0.354 N 
ATOM     53  N   UNL A   1      44.841  29.521  28.310  1.00  0.00    -0.248 NA
ATOM     54  C   UNL A   1      47.021  29.815  27.519  1.00  0.00     0.031 C 
ATOM     55  C   UNL A   1      42.575  32.603  30.584  1.00  0.00     0.029 A 
ATOM     56  C   UNL A   1      43.294  31.669  29.855  1.00  0.00     0.049 A 
ATOM     57  H   UNL A   1      42.702  29.749  29.211  1.00  0.00     0.167 HD
ATOM     58  C   UNL A   1      45.290  30.788  28.669  1.00  0.00     0.074 A 
ATOM     59  C   UNL A   1      46.648  30.902  28.179  1.00  0.00     0.031 C 
ATOM     60  C   UNL A   1      44.642  31.769  29.347  1.00  0.00     0.034 A 
BRANCH  47  61
ATOM     61  C   UNL A   1      38.833  30.308  30.962  1.00  0.00     0.023 A 
ATOM     62  C   UNL A   1      37.851  31.020  30.252  1.00  0.00     0.031 A 
ATOM     63  C   UNL A   1      38.591  30.024  32.318  1.00  0.00     0.131 A 
ATOM     64  C   UNL A   1      36.703  31.478  30.918  1.00  0.00     0.055 A 
ATOM     65  C   UNL A   1      37.416  30.421  32.957  1.00  0.00     0.041 A 
ATOM     66  F   UNL A   1      39.503  29.366  33.052  1.00  0.00    -0.206 F 
ATOM     67  C   UNL A   1      36.469  31.166  32.259  1.00  0.00     0.022 A 
BRANCH  64  68
ATOM     68  S   UNL A   1      35.580  32.603  30.042  1.00  0.00     0.124 S 
ATOM     69  O   UNL A   1      34.378  32.521  30.869  1.00  0.00    -0.237 OA
ATOM     70  O   UNL A   1      36.303  33.868  30.087  1.00  0.00    -0.237 OA
ATOM     71  O   UNL A   1      35.457  32.001  28.715  1.00  0.00    -0.744 OA
ENDBRANCH  64  68
ENDBRANCH  47  61
BRANCH  48  72
ATOM     72  C   UNL A   1      47.136  27.148  26.319  1.00  0.00     0.023 A 
ATOM     73  C   UNL A   1      48.160  26.434  26.961  1.00  0.00     0.031 A 
ATOM     74  C   UNL A   1      47.316  27.489  24.966  1.00  0.00     0.131 A 
ATOM     75  C   UNL A   1      49.335  26.117  26.262  1.00  0.00     0.055 A 
ATOM     76  C   UNL A   1      48.466  27.129  24.261  1.00  0.00     0.041 A 
ATOM     77  F   UNL A   1      46.369  28.173  24.306  1.00  0.00    -0.206 F 
ATOM     78  C   UNL A   1      49.490  26.449  24.914  1.00  0.00     0.022 A 
BRANCH  75  79
ATOM     79  S   UNL A   1      50.696  25.328  27.165  1.00  0.00     0.124 S 
ATOM     80  O   UNL A   1      50.001  24.266  27.882  1.00  0.00    -0.237 OA
ATOM     81  O   UNL A   1      51.572  24.901  26.078  1.00  0.00    -0.237 OA
ATOM     82  O   UNL A   1      51.220  26.407  27.999  1.00  0.00    -0.744 OA
ENDBRANCH  75  79
ENDBRANCH  48  72
BRANCH  60  83
ATOM     83  C   UNL A   1      45.422  33.029  29.630  1.00  0.00     0.023 A 
ATOM     84  C   UNL A   1      45.407  34.122  28.747  1.00  0.00     0.031 A 
ATOM     85  C   UNL A   1      46.209  33.123  30.792  1.00  0.00     0.131 A 
ATOM     86  C   UNL A   1      46.206  35.244  29.013  1.00  0.00     0.055 A 
ATOM     87  C   UNL A   1      46.960  34.263  31.078  1.00  0.00     0.041 A 
ATOM     88  F   UNL A   1      46.259  32.106  31.667  1.00  0.00    -0.206 F 
ATOM     89  C   UNL A   1      46.972  35.327  30.180  1.00  0.00     0.022 A 
BRANCH  86  90
ATOM     90  S   UNL A   1      46.299  36.564  27.772  1.00  0.00     0.124 S 
ATOM     91  O   UNL A   1      45.565  35.981  26.653  1.00  0.00    -0.237 OA
ATOM     92  O   UNL A   1      45.644  37.677  28.451  1.00  0.00    -0.237 OA
ATOM     93  O   UNL A   1      47.734  36.730  27.553  1.00  0.00    -0.744 OA
ENDBRANCH  86  90
ENDBRANCH  60  83
ENDBRANCH  34  35
ENDBRANCH  27  29
ENDBRANCH  26  27
ENDBRANCH  25  26
ENDBRANCH   1  25
TORSDOF 17
ENDMDL
