MODEL 1
REMARK VINA RESULT:     -12.6      0.000      0.000
REMARK SMILES Cc1cc2cc(-c3ccc([C@@H](C)C(=O)OCCOC(=O)c4ccc(-c5c6nc(c(-c7cc(S(=O)(=O)[O-])ccc7F)c7ccc([nH]7)c(-c7cc(S(=O)(=O)[O-])ccc7F)c7nc(c(-c8cc(S(=O)(=O)[O-])ccc8F)c8ccc5[nH]8)C=C7)C=C6)cc4)cc3)ccc2[nH]1
REMARK SMILES IDX 17 1 16 2 15 3 13 4 14 5 11 6 12 7 10 8 7 9 8 10 85 11 9 12
REMARK SMILES IDX 84 13 6 14 1 15 2 16 3 17 89 18 4 19 88 20 5 22 87 23 86 24
REMARK SMILES IDX 18 25 19 26 20 27 21 28 22 29 83 30 23 31 82 32 24 33 25 34
REMARK SMILES IDX 26 35 76 36 27 37 81 38 75 39 77 40 28 41 80 42 74 43 73 44
REMARK SMILES IDX 29 46 61 47 41 48 60 49 42 50 45 51 59 52 78 53 43 54 44 55
REMARK SMILES IDX 58 57 79 58 46 59 30 60 31 61 39 62 32 63 38 64 40 65 37 66
REMARK SMILES IDX 33 67 34 68 35 69 36 70 62 71 63 72 71 73 64 74 70 75 72 76
REMARK SMILES IDX 69 77 65 78 66 79 67 80 68 81 47 82 48 83 56 84 49 85 55 86
REMARK SMILES IDX 57 87 54 88 50 89 51 90 52 91 53 92
REMARK H PARENT 89 21 77 45 45 56
REMARK Flexibility Score: inf
ROOT
ATOM      1  C   UNL A   1      38.248  19.967  25.101  1.00  0.00     0.275 C 
ENDROOT
BRANCH   1   2
ATOM      2  C   UNL A   1      36.732  19.894  24.913  1.00  0.00     0.274 C 
BRANCH   2   3
ATOM      3  O   UNL A   1      36.152  21.210  24.862  1.00  0.00    -0.462 OA
BRANCH   3   4
ATOM      4  C   UNL A   1      34.866  21.333  25.286  1.00  0.00     0.313 C 
ATOM      5  O   UNL A   1      33.911  20.777  24.750  1.00  0.00    -0.252 OA
BRANCH   4   6
ATOM      6  C   UNL A   1      34.693  22.288  26.461  1.00  0.00     0.126 C 
ATOM      7  C   UNL A   1      34.029  21.553  27.626  1.00  0.00     0.025 C 
BRANCH   6   8
ATOM      8  C   UNL A   1      34.005  23.609  26.152  1.00  0.00    -0.034 A 
ATOM      9  C   UNL A   1      32.662  26.029  25.510  1.00  0.00    -0.018 A 
ATOM     10  C   UNL A   1      34.027  25.857  25.231  1.00  0.00     0.009 A 
ATOM     11  C   UNL A   1      31.986  24.982  26.147  1.00  0.00     0.009 A 
ATOM     12  C   UNL A   1      34.688  24.666  25.540  1.00  0.00     0.005 A 
ATOM     13  C   UNL A   1      32.646  23.787  26.459  1.00  0.00     0.005 A 
BRANCH   9  14
ATOM     14  C   UNL A   1      31.970  27.258  25.093  1.00  0.00    -0.018 A 
ATOM     15  C   UNL A   1      28.029  30.738  21.952  1.00  0.00     0.064 C 
ATOM     16  C   UNL A   1      28.992  29.943  22.747  1.00  0.00     0.013 A 
ATOM     17  C   UNL A   1      29.219  28.582  22.783  1.00  0.00     0.031 A 
ATOM     18  N   UNL A   1      29.861  30.524  23.641  1.00  0.00    -0.359 N 
ATOM     19  C   UNL A   1      30.268  28.338  23.708  1.00  0.00     0.000 A 
ATOM     20  C   UNL A   1      30.656  29.567  24.232  1.00  0.00     0.046 A 
ATOM     21  H   UNL A   1      29.909  31.488  23.831  1.00  0.00     0.166 HD
ATOM     22  C   UNL A   1      30.926  27.177  24.149  1.00  0.00     0.019 A 
ATOM     23  C   UNL A   1      31.672  29.690  25.186  1.00  0.00     0.027 A 
ATOM     24  C   UNL A   1      32.319  28.517  25.602  1.00  0.00     0.011 A 
ENDBRANCH   9  14
ENDBRANCH   6   8
ENDBRANCH   4   6
ENDBRANCH   3   4
ENDBRANCH   2   3
ENDBRANCH   1   2
BRANCH   1  25
ATOM     25  O   UNL A   1      38.632  21.206  25.723  1.00  0.00    -0.458 OA
BRANCH  25  26
ATOM     26  C   UNL A   1      39.742  21.136  26.494  1.00  0.00     0.338 C 
ATOM     27  O   UNL A   1      40.434  20.157  26.705  1.00  0.00    -0.246 OA
BRANCH  26  28
ATOM     28  C   UNL A   1      40.082  22.479  26.986  1.00  0.00     0.060 A 
ATOM     29  C   UNL A   1      39.463  23.575  26.385  1.00  0.00     0.016 A 
ATOM     30  C   UNL A   1      41.070  22.661  27.954  1.00  0.00     0.016 A 
ATOM     31  C   UNL A   1      39.845  24.869  26.728  1.00  0.00     0.010 A 
ATOM     32  C   UNL A   1      41.445  23.962  28.308  1.00  0.00     0.010 A 
ATOM     33  C   UNL A   1      40.851  25.072  27.681  1.00  0.00    -0.014 A 
BRANCH  33  34
ATOM     34  C   UNL A   1      41.329  26.449  27.955  1.00  0.00     0.031 A 
ATOM     35  C   UNL A   1      42.717  26.848  27.537  1.00  0.00     0.074 A 
ATOM     36  C   UNL A   1      40.512  27.342  28.542  1.00  0.00     0.049 A 
ATOM     37  N   UNL A   1      43.352  27.974  27.733  1.00  0.00    -0.248 NA
ATOM     38  C   UNL A   1      43.493  25.838  26.802  1.00  0.00     0.031 C 
ATOM     39  C   UNL A   1      39.130  27.080  28.948  1.00  0.00     0.029 A 
ATOM     40  N   UNL A   1      40.724  28.650  28.897  1.00  0.00    -0.354 N 
ATOM     41  C   UNL A   1      44.610  27.804  27.163  1.00  0.00     0.074 A 
ATOM     42  C   UNL A   1      44.652  26.456  26.637  1.00  0.00     0.031 C 
ATOM     43  C   UNL A   1      38.618  28.193  29.497  1.00  0.00     0.029 A 
ATOM     44  C   UNL A   1      39.645  29.231  29.523  1.00  0.00     0.049 A 
ATOM     45  H   UNL A   1      41.566  29.126  28.722  1.00  0.00     0.167 HD
ATOM     46  C   UNL A   1      45.630  28.695  27.084  1.00  0.00     0.034 A 
ATOM     47  C   UNL A   1      39.513  30.452  30.077  1.00  0.00     0.034 A 
ATOM     48  C   UNL A   1      45.569  30.036  27.615  1.00  0.00     0.049 A 
ATOM     49  C   UNL A   1      40.678  31.407  30.023  1.00  0.00     0.074 A 
ATOM     50  C   UNL A   1      46.543  31.019  27.596  1.00  0.00     0.029 A 
ATOM     51  N   UNL A   1      44.470  30.583  28.268  1.00  0.00    -0.354 N 
ATOM     52  N   UNL A   1      41.870  31.227  29.504  1.00  0.00    -0.248 NA
ATOM     53  C   UNL A   1      40.476  32.730  30.627  1.00  0.00     0.031 C 
ATOM     54  C   UNL A   1      46.054  32.138  28.284  1.00  0.00     0.029 A 
ATOM     55  C   UNL A   1      44.749  31.879  28.673  1.00  0.00     0.049 A 
ATOM     56  H   UNL A   1      43.615  30.117  28.418  1.00  0.00     0.167 HD
ATOM     57  C   UNL A   1      42.554  32.425  29.698  1.00  0.00     0.074 A 
ATOM     58  C   UNL A   1      41.633  33.322  30.367  1.00  0.00     0.031 C 
ATOM     59  C   UNL A   1      43.824  32.755  29.353  1.00  0.00     0.034 A 
BRANCH  46  60
ATOM     60  C   UNL A   1      46.915  28.216  26.453  1.00  0.00     0.023 A 
ATOM     61  C   UNL A   1      47.111  28.232  25.060  1.00  0.00     0.031 A 
ATOM     62  C   UNL A   1      47.942  27.690  27.256  1.00  0.00     0.131 A 
ATOM     63  C   UNL A   1      48.272  27.669  24.510  1.00  0.00     0.055 A 
ATOM     64  C   UNL A   1      49.129  27.200  26.707  1.00  0.00     0.041 A 
ATOM     65  F   UNL A   1      47.803  27.626  28.590  1.00  0.00    -0.206 F 
ATOM     66  C   UNL A   1      49.293  27.174  25.325  1.00  0.00     0.022 A 
BRANCH  63  67
ATOM     67  S   UNL A   1      48.371  27.463  22.710  1.00  0.00     0.124 S 
ATOM     68  O   UNL A   1      47.177  28.177  22.265  1.00  0.00    -0.237 OA
ATOM     69  O   UNL A   1      49.648  28.090  22.391  1.00  0.00    -0.237 OA
ATOM     70  O   UNL A   1      48.325  26.013  22.527  1.00  0.00    -0.744 OA
ENDBRANCH  63  67
ENDBRANCH  46  60
BRANCH  47  71
ATOM     71  C   UNL A   1      38.250  30.830  30.771  1.00  0.00     0.023 A 
ATOM     72  C   UNL A   1      37.248  31.562  30.115  1.00  0.00     0.031 A 
ATOM     73  C   UNL A   1      38.046  30.496  32.122  1.00  0.00     0.131 A 
ATOM     74  C   UNL A   1      36.105  31.970  30.820  1.00  0.00     0.055 A 
ATOM     75  C   UNL A   1      36.887  30.863  32.807  1.00  0.00     0.041 A 
ATOM     76  F   UNL A   1      38.973  29.795  32.796  1.00  0.00    -0.206 F 
ATOM     77  C   UNL A   1      35.912  31.615  32.158  1.00  0.00     0.022 A 
BRANCH  74  78
ATOM     78  S   UNL A   1      34.903  33.039  29.984  1.00  0.00     0.124 S 
ATOM     79  O   UNL A   1      34.028  33.424  31.086  1.00  0.00    -0.237 OA
ATOM     80  O   UNL A   1      35.757  34.092  29.446  1.00  0.00    -0.237 OA
ATOM     81  O   UNL A   1      34.299  32.158  28.986  1.00  0.00    -0.744 OA
ENDBRANCH  74  78
ENDBRANCH  47  71
BRANCH  59  82
ATOM     82  C   UNL A   1      44.266  34.164  29.662  1.00  0.00     0.023 A 
ATOM     83  C   UNL A   1      44.087  35.214  28.744  1.00  0.00     0.031 A 
ATOM     84  C   UNL A   1      44.903  34.452  30.883  1.00  0.00     0.131 A 
ATOM     85  C   UNL A   1      44.592  36.490  29.036  1.00  0.00     0.055 A 
ATOM     86  C   UNL A   1      45.354  35.736  31.190  1.00  0.00     0.041 A 
ATOM     87  F   UNL A   1      45.100  33.486  31.794  1.00  0.00    -0.206 F 
ATOM     88  C   UNL A   1      45.212  36.760  30.258  1.00  0.00     0.022 A 
BRANCH  85  89
ATOM     89  S   UNL A   1      44.511  37.773  27.755  1.00  0.00     0.124 S 
ATOM     90  O   UNL A   1      45.803  37.624  27.092  1.00  0.00    -0.237 OA
ATOM     91  O   UNL A   1      43.345  37.365  26.978  1.00  0.00    -0.237 OA
ATOM     92  O   UNL A   1      44.345  39.009  28.518  1.00  0.00    -0.744 OA
ENDBRANCH  85  89
ENDBRANCH  59  82
ENDBRANCH  33  34
ENDBRANCH  26  28
ENDBRANCH  25  26
ENDBRANCH   1  25
TORSDOF 16
ENDMDL
MODEL 2
REMARK VINA RESULT:     -12.6      1.053      7.579
REMARK SMILES Cc1cc2cc(-c3ccc([C@@H](C)C(=O)OCCOC(=O)c4ccc(-c5c6nc(c(-c7cc(S(=O)(=O)[O-])ccc7F)c7ccc([nH]7)c(-c7cc(S(=O)(=O)[O-])ccc7F)c7nc(c(-c8cc(S(=O)(=O)[O-])ccc8F)c8ccc5[nH]8)C=C7)C=C6)cc4)cc3)ccc2[nH]1
REMARK SMILES IDX 17 1 16 2 15 3 13 4 14 5 11 6 12 7 10 8 7 9 8 10 85 11 9 12
REMARK SMILES IDX 84 13 6 14 1 15 2 16 3 17 89 18 4 19 88 20 5 22 87 23 86 24
REMARK SMILES IDX 18 25 19 26 20 27 21 28 22 29 83 30 23 31 82 32 24 33 25 34
REMARK SMILES IDX 26 35 76 36 27 37 81 38 75 39 77 40 28 41 80 42 74 43 73 44
REMARK SMILES IDX 29 46 61 47 41 48 60 49 42 50 45 51 59 52 78 53 43 54 44 55
REMARK SMILES IDX 58 57 79 58 46 59 30 60 31 61 39 62 32 63 38 64 40 65 37 66
REMARK SMILES IDX 33 67 34 68 35 69 36 70 62 71 63 72 71 73 64 74 70 75 72 76
REMARK SMILES IDX 69 77 65 78 66 79 67 80 68 81 47 82 48 83 56 84 49 85 55 86
REMARK SMILES IDX 57 87 54 88 50 89 51 90 52 91 53 92
REMARK H PARENT 89 21 77 45 45 56
REMARK Flexibility Score: inf
ROOT
ATOM      1  C   UNL A   1      37.347  20.098  24.890  1.00  0.00     0.275 C 
ENDROOT
BRANCH   1   2
ATOM      2  C   UNL A   1      35.825  20.191  25.003  1.00  0.00     0.274 C 
BRANCH   2   3
ATOM      3  O   UNL A   1      35.433  21.300  25.832  1.00  0.00    -0.462 OA
BRANCH   3   4
ATOM      4  C   UNL A   1      34.251  21.902  25.534  1.00  0.00     0.313 C 
ATOM      5  O   UNL A   1      33.515  21.552  24.617  1.00  0.00    -0.252 OA
BRANCH   4   6
ATOM      6  C   UNL A   1      33.940  23.113  26.406  1.00  0.00     0.126 C 
ATOM      7  C   UNL A   1      33.521  22.647  27.801  1.00  0.00     0.025 C 
BRANCH   6   8
ATOM      8  C   UNL A   1      32.964  24.124  25.823  1.00  0.00    -0.034 A 
ATOM      9  C   UNL A   1      31.083  25.936  24.706  1.00  0.00    -0.018 A 
ATOM     10  C   UNL A   1      32.384  25.826  24.190  1.00  0.00     0.009 A 
ATOM     11  C   UNL A   1      30.748  25.146  25.813  1.00  0.00     0.009 A 
ATOM     12  C   UNL A   1      33.309  24.932  24.734  1.00  0.00     0.005 A 
ATOM     13  C   UNL A   1      31.673  24.250  26.360  1.00  0.00     0.005 A 
BRANCH   9  14
ATOM     14  C   UNL A   1      30.101  26.819  24.058  1.00  0.00    -0.018 A 
ATOM     15  C   UNL A   1      28.069  31.633  20.864  1.00  0.00     0.064 C 
ATOM     16  C   UNL A   1      28.506  30.446  21.633  1.00  0.00     0.013 A 
ATOM     17  C   UNL A   1      29.772  29.998  21.949  1.00  0.00     0.031 A 
ATOM     18  N   UNL A   1      27.611  29.553  22.175  1.00  0.00    -0.359 N 
ATOM     19  C   UNL A   1      29.637  28.813  22.720  1.00  0.00     0.000 A 
ATOM     20  C   UNL A   1      28.276  28.554  22.850  1.00  0.00     0.046 A 
ATOM     21  H   UNL A   1      26.633  29.619  22.091  1.00  0.00     0.166 HD
ATOM     22  C   UNL A   1      30.553  27.934  23.323  1.00  0.00     0.019 A 
ATOM     23  C   UNL A   1      27.785  27.447  23.553  1.00  0.00     0.027 A 
ATOM     24  C   UNL A   1      28.720  26.591  24.152  1.00  0.00     0.011 A 
ENDBRANCH   9  14
ENDBRANCH   6   8
ENDBRANCH   4   6
ENDBRANCH   3   4
ENDBRANCH   2   3
ENDBRANCH   1   2
BRANCH   1  25
ATOM     25  O   UNL A   1      37.979  21.254  25.468  1.00  0.00    -0.458 OA
BRANCH  25  26
ATOM     26  C   UNL A   1      39.154  21.009  26.095  1.00  0.00     0.338 C 
ATOM     27  O   UNL A   1      39.751  19.950  26.153  1.00  0.00    -0.246 OA
BRANCH  26  28
ATOM     28  C   UNL A   1      39.694  22.265  26.633  1.00  0.00     0.060 A 
ATOM     29  C   UNL A   1      39.206  23.466  26.116  1.00  0.00     0.016 A 
ATOM     30  C   UNL A   1      40.736  22.261  27.559  1.00  0.00     0.016 A 
ATOM     31  C   UNL A   1      39.774  24.676  26.501  1.00  0.00     0.010 A 
ATOM     32  C   UNL A   1      41.301  23.479  27.956  1.00  0.00     0.010 A 
ATOM     33  C   UNL A   1      40.837  24.690  27.413  1.00  0.00    -0.014 A 
BRANCH  33  34
ATOM     34  C   UNL A   1      41.510  25.974  27.728  1.00  0.00     0.031 A 
ATOM     35  C   UNL A   1      40.775  27.021  28.517  1.00  0.00     0.074 A 
ATOM     36  C   UNL A   1      42.782  26.182  27.339  1.00  0.00     0.049 A 
ATOM     37  N   UNL A   1      41.152  28.230  28.846  1.00  0.00    -0.248 NA
ATOM     38  C   UNL A   1      39.432  26.657  28.993  1.00  0.00     0.031 C 
ATOM     39  C   UNL A   1      43.608  25.219  26.610  1.00  0.00     0.029 A 
ATOM     40  N   UNL A   1      43.601  27.269  27.504  1.00  0.00    -0.354 N 
ATOM     41  C   UNL A   1      40.087  28.779  29.554  1.00  0.00     0.074 A 
ATOM     42  C   UNL A   1      39.042  27.778  29.580  1.00  0.00     0.031 C 
ATOM     43  C   UNL A   1      44.817  25.759  26.391  1.00  0.00     0.029 A 
ATOM     44  C   UNL A   1      44.839  27.119  26.922  1.00  0.00     0.049 A 
ATOM     45  H   UNL A   1      43.330  28.080  27.992  1.00  0.00     0.167 HD
ATOM     46  C   UNL A   1      39.997  30.005  30.130  1.00  0.00     0.034 A 
ATOM     47  C   UNL A   1      45.860  27.990  26.809  1.00  0.00     0.034 A 
ATOM     48  C   UNL A   1      41.051  30.990  30.092  1.00  0.00     0.049 A 
ATOM     49  C   UNL A   1      45.716  29.364  27.411  1.00  0.00     0.074 A 
ATOM     50  C   UNL A   1      41.065  32.263  30.636  1.00  0.00     0.029 A 
ATOM     51  N   UNL A   1      42.281  30.814  29.470  1.00  0.00    -0.354 N 
ATOM     52  N   UNL A   1      44.696  29.881  28.056  1.00  0.00    -0.248 NA
ATOM     53  C   UNL A   1      46.864  30.269  27.274  1.00  0.00     0.031 C 
ATOM     54  C   UNL A   1      42.279  32.875  30.295  1.00  0.00     0.029 A 
ATOM     55  C   UNL A   1      43.051  31.960  29.598  1.00  0.00     0.049 A 
ATOM     56  H   UNL A   1      42.566  29.992  29.006  1.00  0.00     0.167 HD
ATOM     57  C   UNL A   1      45.090  31.166  28.421  1.00  0.00     0.074 A 
ATOM     58  C   UNL A   1      46.446  31.335  27.939  1.00  0.00     0.031 C 
ATOM     59  C   UNL A   1      44.397  32.117  29.097  1.00  0.00     0.034 A 
BRANCH  46  60
ATOM     60  C   UNL A   1      38.687  30.358  30.791  1.00  0.00     0.023 A 
ATOM     61  C   UNL A   1      37.645  30.989  30.087  1.00  0.00     0.031 A 
ATOM     62  C   UNL A   1      38.495  30.102  32.160  1.00  0.00     0.131 A 
ATOM     63  C   UNL A   1      36.491  31.405  30.769  1.00  0.00     0.055 A 
ATOM     64  C   UNL A   1      37.313  30.450  32.816  1.00  0.00     0.041 A 
ATOM     65  F   UNL A   1      39.462  29.523  32.889  1.00  0.00    -0.206 F 
ATOM     66  C   UNL A   1      36.308  31.119  32.124  1.00  0.00     0.022 A 
BRANCH  63  67
ATOM     67  S   UNL A   1      35.292  32.449  29.895  1.00  0.00     0.124 S 
ATOM     68  O   UNL A   1      34.320  32.729  30.949  1.00  0.00    -0.237 OA
ATOM     69  O   UNL A   1      36.110  33.576  29.463  1.00  0.00    -0.237 OA
ATOM     70  O   UNL A   1      34.803  31.585  28.821  1.00  0.00    -0.744 OA
ENDBRANCH  63  67
ENDBRANCH  46  60
BRANCH  47  71
ATOM     71  C   UNL A   1      47.090  27.612  26.058  1.00  0.00     0.023 A 
ATOM     72  C   UNL A   1      47.212  27.864  24.683  1.00  0.00     0.031 A 
ATOM     73  C   UNL A   1      48.150  26.951  26.705  1.00  0.00     0.131 A 
ATOM     74  C   UNL A   1      48.350  27.424  23.990  1.00  0.00     0.055 A 
ATOM     75  C   UNL A   1      49.301  26.557  26.021  1.00  0.00     0.041 A 
ATOM     76  F   UNL A   1      48.085  26.687  28.020  1.00  0.00    -0.206 F 
ATOM     77  C   UNL A   1      49.401  26.783  24.652  1.00  0.00     0.022 A 
BRANCH  74  78
ATOM     78  S   UNL A   1      48.408  27.634  22.190  1.00  0.00     0.124 S 
ATOM     79  O   UNL A   1      47.097  28.211  21.914  1.00  0.00    -0.237 OA
ATOM     80  O   UNL A   1      49.549  28.528  22.026  1.00  0.00    -0.237 OA
ATOM     81  O   UNL A   1      48.608  26.274  21.694  1.00  0.00    -0.744 OA
ENDBRANCH  74  78
ENDBRANCH  47  71
BRANCH  59  82
ATOM     82  C   UNL A   1      45.122  33.409  29.384  1.00  0.00     0.023 A 
ATOM     83  C   UNL A   1      45.069  34.500  28.498  1.00  0.00     0.031 A 
ATOM     84  C   UNL A   1      45.901  33.537  30.548  1.00  0.00     0.131 A 
ATOM     85  C   UNL A   1      45.829  35.649  28.761  1.00  0.00     0.055 A 
ATOM     86  C   UNL A   1      46.611  34.704  30.831  1.00  0.00     0.041 A 
ATOM     87  F   UNL A   1      45.986  32.526  31.426  1.00  0.00    -0.206 F 
ATOM     88  C   UNL A   1      46.589  35.763  29.928  1.00  0.00     0.022 A 
BRANCH  85  89
ATOM     89  S   UNL A   1      45.887  36.961  27.508  1.00  0.00     0.124 S 
ATOM     90  O   UNL A   1      47.065  37.720  27.914  1.00  0.00    -0.237 OA
ATOM     91  O   UNL A   1      46.014  36.202  26.268  1.00  0.00    -0.237 OA
ATOM     92  O   UNL A   1      44.612  37.656  27.679  1.00  0.00    -0.744 OA
ENDBRANCH  85  89
ENDBRANCH  59  82
ENDBRANCH  33  34
ENDBRANCH  26  28
ENDBRANCH  25  26
ENDBRANCH   1  25
TORSDOF 16
ENDMDL
MODEL 3
REMARK VINA RESULT:     -12.5      1.678      2.016
REMARK SMILES Cc1cc2cc(-c3ccc([C@@H](C)C(=O)OCCOC(=O)c4ccc(-c5c6nc(c(-c7cc(S(=O)(=O)[O-])ccc7F)c7ccc([nH]7)c(-c7cc(S(=O)(=O)[O-])ccc7F)c7nc(c(-c8cc(S(=O)(=O)[O-])ccc8F)c8ccc5[nH]8)C=C7)C=C6)cc4)cc3)ccc2[nH]1
REMARK SMILES IDX 17 1 16 2 15 3 13 4 14 5 11 6 12 7 10 8 7 9 8 10 85 11 9 12
REMARK SMILES IDX 84 13 6 14 1 15 2 16 3 17 89 18 4 19 88 20 5 22 87 23 86 24
REMARK SMILES IDX 18 25 19 26 20 27 21 28 22 29 83 30 23 31 82 32 24 33 25 34
REMARK SMILES IDX 26 35 76 36 27 37 81 38 75 39 77 40 28 41 80 42 74 43 73 44
REMARK SMILES IDX 29 46 61 47 41 48 60 49 42 50 45 51 59 52 78 53 43 54 44 55
REMARK SMILES IDX 58 57 79 58 46 59 30 60 31 61 39 62 32 63 38 64 40 65 37 66
REMARK SMILES IDX 33 67 34 68 35 69 36 70 62 71 63 72 71 73 64 74 70 75 72 76
REMARK SMILES IDX 69 77 65 78 66 79 67 80 68 81 47 82 48 83 56 84 49 85 55 86
REMARK SMILES IDX 57 87 54 88 50 89 51 90 52 91 53 92
REMARK H PARENT 89 21 77 45 45 56
REMARK Flexibility Score: inf
ROOT
ATOM      1  C   UNL A   1      37.862  19.750  24.981  1.00  0.00     0.275 C 
ENDROOT
BRANCH   1   2
ATOM      2  C   UNL A   1      36.338  19.856  24.928  1.00  0.00     0.274 C 
BRANCH   2   3
ATOM      3  O   UNL A   1      35.905  21.213  25.133  1.00  0.00    -0.462 OA
BRANCH   3   4
ATOM      4  C   UNL A   1      34.814  21.623  24.433  1.00  0.00     0.313 C 
ATOM      5  O   UNL A   1      33.709  21.096  24.514  1.00  0.00    -0.252 OA
BRANCH   4   6
ATOM      6  C   UNL A   1      35.097  22.769  23.469  1.00  0.00     0.126 C 
ATOM      7  C   UNL A   1      36.587  23.115  23.506  1.00  0.00     0.025 C 
BRANCH   6   8
ATOM      8  C   UNL A   1      34.220  24.002  23.621  1.00  0.00    -0.034 A 
ATOM      9  C   UNL A   1      32.616  26.339  23.817  1.00  0.00    -0.018 A 
ATOM     10  C   UNL A   1      33.650  26.087  24.731  1.00  0.00     0.009 A 
ATOM     11  C   UNL A   1      32.375  25.386  22.820  1.00  0.00     0.009 A 
ATOM     12  C   UNL A   1      34.444  24.942  24.634  1.00  0.00     0.005 A 
ATOM     13  C   UNL A   1      33.168  24.237  22.721  1.00  0.00     0.005 A 
BRANCH   9  14
ATOM     14  C   UNL A   1      31.854  27.596  23.888  1.00  0.00    -0.018 A 
ATOM     15  C   UNL A   1      28.160  32.085  21.960  1.00  0.00     0.064 C 
ATOM     16  C   UNL A   1      29.051  31.022  22.480  1.00  0.00     0.013 A 
ATOM     17  C   UNL A   1      29.453  29.831  21.912  1.00  0.00     0.031 A 
ATOM     18  N   UNL A   1      29.637  31.100  23.722  1.00  0.00    -0.359 N 
ATOM     19  C   UNL A   1      30.324  29.182  22.828  1.00  0.00     0.000 A 
ATOM     20  C   UNL A   1      30.425  29.995  23.953  1.00  0.00     0.046 A 
ATOM     21  H   UNL A   1      29.511  31.841  24.356  1.00  0.00     0.166 HD
ATOM     22  C   UNL A   1      31.038  27.972  22.801  1.00  0.00     0.019 A 
ATOM     23  C   UNL A   1      31.207  29.649  25.061  1.00  0.00     0.027 A 
ATOM     24  C   UNL A   1      31.917  28.441  25.005  1.00  0.00     0.011 A 
ENDBRANCH   9  14
ENDBRANCH   6   8
ENDBRANCH   4   6
ENDBRANCH   3   4
ENDBRANCH   2   3
ENDBRANCH   1   2
BRANCH   1  25
ATOM     25  O   UNL A   1      38.450  20.978  25.444  1.00  0.00    -0.458 OA
BRANCH  25  26
ATOM     26  C   UNL A   1      39.549  20.828  26.219  1.00  0.00     0.338 C 
ATOM     27  O   UNL A   1      40.178  19.805  26.416  1.00  0.00    -0.246 OA
BRANCH  26  28
ATOM     28  C   UNL A   1      39.967  22.138  26.736  1.00  0.00     0.060 A 
ATOM     29  C   UNL A   1      39.372  23.279  26.196  1.00  0.00     0.016 A 
ATOM     30  C   UNL A   1      41.000  22.248  27.667  1.00  0.00     0.016 A 
ATOM     31  C   UNL A   1      39.823  24.544  26.561  1.00  0.00     0.010 A 
ATOM     32  C   UNL A   1      41.446  23.521  28.044  1.00  0.00     0.010 A 
ATOM     33  C   UNL A   1      40.875  24.673  27.476  1.00  0.00    -0.014 A 
BRANCH  33  34
ATOM     34  C   UNL A   1      41.423  26.020  27.771  1.00  0.00     0.031 A 
ATOM     35  C   UNL A   1      42.796  26.385  27.278  1.00  0.00     0.074 A 
ATOM     36  C   UNL A   1      40.680  26.917  28.445  1.00  0.00     0.049 A 
ATOM     37  N   UNL A   1      43.485  27.478  27.476  1.00  0.00    -0.248 NA
ATOM     38  C   UNL A   1      43.482  25.378  26.455  1.00  0.00     0.031 C 
ATOM     39  C   UNL A   1      39.319  26.689  28.931  1.00  0.00     0.029 A 
ATOM     40  N   UNL A   1      40.966  28.201  28.835  1.00  0.00    -0.354 N 
ATOM     41  C   UNL A   1      44.696  27.286  26.818  1.00  0.00     0.074 A 
ATOM     42  C   UNL A   1      44.652  25.960  26.239  1.00  0.00     0.031 C 
ATOM     43  C   UNL A   1      38.887  27.797  29.555  1.00  0.00     0.029 A 
ATOM     44  C   UNL A   1      39.953  28.795  29.553  1.00  0.00     0.049 A 
ATOM     45  H   UNL A   1      41.813  28.653  28.623  1.00  0.00     0.167 HD
ATOM     46  C   UNL A   1      45.744  28.142  26.707  1.00  0.00     0.034 A 
ATOM     47  C   UNL A   1      39.905  29.996  30.161  1.00  0.00     0.034 A 
ATOM     48  C   UNL A   1      45.769  29.461  27.292  1.00  0.00     0.049 A 
ATOM     49  C   UNL A   1      41.100  30.909  30.068  1.00  0.00     0.074 A 
ATOM     50  C   UNL A   1      46.777  30.408  27.247  1.00  0.00     0.029 A 
ATOM     51  N   UNL A   1      44.736  30.020  28.036  1.00  0.00    -0.354 N 
ATOM     52  N   UNL A   1      42.249  30.707  29.464  1.00  0.00    -0.248 NA
ATOM     53  C   UNL A   1      40.990  32.213  30.734  1.00  0.00     0.031 C 
ATOM     54  C   UNL A   1      46.378  31.515  28.008  1.00  0.00     0.029 A 
ATOM     55  C   UNL A   1      45.091  31.287  28.472  1.00  0.00     0.049 A 
ATOM     56  H   UNL A   1      43.875  29.580  28.224  1.00  0.00     0.167 HD
ATOM     57  C   UNL A   1      42.989  31.870  29.660  1.00  0.00     0.074 A 
ATOM     58  C   UNL A   1      42.149  32.772  30.422  1.00  0.00     0.031 C 
ATOM     59  C   UNL A   1      44.247  32.168  29.245  1.00  0.00     0.034 A 
BRANCH  46  60
ATOM     60  C   UNL A   1      46.966  27.642  25.975  1.00  0.00     0.023 A 
ATOM     61  C   UNL A   1      47.202  27.953  24.623  1.00  0.00     0.031 A 
ATOM     62  C   UNL A   1      47.885  26.802  26.627  1.00  0.00     0.131 A 
ATOM     63  C   UNL A   1      48.288  27.371  23.951  1.00  0.00     0.055 A 
ATOM     64  C   UNL A   1      49.006  26.287  25.973  1.00  0.00     0.041 A 
ATOM     65  F   UNL A   1      47.700  26.451  27.910  1.00  0.00    -0.206 F 
ATOM     66  C   UNL A   1      49.204  26.559  24.623  1.00  0.00     0.022 A 
BRANCH  63  67
ATOM     67  S   UNL A   1      48.409  27.577  22.152  1.00  0.00     0.124 S 
ATOM     68  O   UNL A   1      49.551  28.481  22.034  1.00  0.00    -0.237 OA
ATOM     69  O   UNL A   1      48.625  26.210  21.693  1.00  0.00    -0.237 OA
ATOM     70  O   UNL A   1      47.120  28.162  21.786  1.00  0.00    -0.744 OA
ENDBRANCH  63  67
ENDBRANCH  46  60
BRANCH  47  71
ATOM     71  C   UNL A   1      38.704  30.391  30.951  1.00  0.00     0.023 A 
ATOM     72  C   UNL A   1      37.645  31.098  30.362  1.00  0.00     0.031 A 
ATOM     73  C   UNL A   1      38.622  30.099  32.324  1.00  0.00     0.131 A 
ATOM     74  C   UNL A   1      36.565  31.524  31.151  1.00  0.00     0.055 A 
ATOM     75  C   UNL A   1      37.524  30.483  33.096  1.00  0.00     0.041 A 
ATOM     76  F   UNL A   1      39.608  29.423  32.936  1.00  0.00    -0.206 F 
ATOM     77  C   UNL A   1      36.492  31.211  32.511  1.00  0.00     0.022 A 
BRANCH  74  78
ATOM     78  S   UNL A   1      35.287  32.562  30.391  1.00  0.00     0.124 S 
ATOM     79  O   UNL A   1      34.905  31.764  29.231  1.00  0.00    -0.237 OA
ATOM     80  O   UNL A   1      34.298  32.656  31.459  1.00  0.00    -0.237 OA
ATOM     81  O   UNL A   1      35.994  33.805  30.087  1.00  0.00    -0.744 OA
ENDBRANCH  74  78
ENDBRANCH  47  71
BRANCH  59  82
ATOM     82  C   UNL A   1      44.763  33.546  29.578  1.00  0.00     0.023 A 
ATOM     83  C   UNL A   1      45.422  33.816  30.790  1.00  0.00     0.031 A 
ATOM     84  C   UNL A   1      44.564  34.610  28.680  1.00  0.00     0.131 A 
ATOM     85  C   UNL A   1      45.806  35.130  31.097  1.00  0.00     0.055 A 
ATOM     86  C   UNL A   1      44.998  35.904  28.968  1.00  0.00     0.041 A 
ATOM     87  F   UNL A   1      43.939  34.407  27.509  1.00  0.00    -0.206 F 
ATOM     88  C   UNL A   1      45.611  36.173  30.189  1.00  0.00     0.022 A 
BRANCH  85  89
ATOM     89  S   UNL A   1      46.483  35.477  32.746  1.00  0.00     0.124 S 
ATOM     90  O   UNL A   1      47.337  34.317  32.976  1.00  0.00    -0.237 OA
ATOM     91  O   UNL A   1      47.172  36.746  32.539  1.00  0.00    -0.237 OA
ATOM     92  O   UNL A   1      45.295  35.550  33.595  1.00  0.00    -0.744 OA
ENDBRANCH  85  89
ENDBRANCH  59  82
ENDBRANCH  33  34
ENDBRANCH  26  28
ENDBRANCH  25  26
ENDBRANCH   1  25
TORSDOF 16
ENDMDL
