MODEL 1
REMARK VINA RESULT:     -12.8      0.000      0.000
REMARK SMILES Cc1n[nH]c2c1[C@@]1(C(=O)N([C@@H](C)C(=O)OCCOC(=O)c3ccc(-c4c5nc(c(-c6cc(S(=O)(=O)[O-])ccc6F)c6ccc([nH]6)c(-c6cc(S(=O)(=O)[O-])ccc6F)c6nc(c(-c7cc(S(=O)(=O)[O-])ccc7F)c7ccc4[nH]7)C=C6)C=C5)cc3)c3ccccc31)C(C#N)=C(N)O2
REMARK SMILES IDX 17 1 16 2 15 3 13 4 14 5 11 6 12 7 10 8 1 9 2 10 3 11 6 12
REMARK SMILES IDX 4 13 5 14 7 15 95 17 8 18 89 19 90 20 93 21 9 22 84 23 88 24
REMARK SMILES IDX 85 25 87 26 86 27 91 28 92 29 94 30 18 33 19 34 20 35 21 36
REMARK SMILES IDX 22 37 83 38 23 39 82 40 24 41 25 42 26 43 76 44 27 45 81 46
REMARK SMILES IDX 75 47 77 48 28 49 80 50 74 51 73 52 29 54 61 55 41 56 60 57
REMARK SMILES IDX 42 58 45 59 59 60 78 61 43 62 44 63 58 65 79 66 46 67 30 68
REMARK SMILES IDX 31 69 39 70 32 71 38 72 40 73 37 74 33 75 34 76 35 77 36 78
REMARK SMILES IDX 62 79 63 80 71 81 64 82 70 83 72 84 69 85 65 86 66 87 67 88
REMARK SMILES IDX 68 89 47 90 48 91 56 92 49 93 55 94 57 95 54 96 50 97 51 98
REMARK SMILES IDX 52 99 53 100
REMARK H PARENT 4 16 94 31 94 32 77 53 45 64
REMARK Flexibility Score: inf
ROOT
ATOM      1  C   UNL A   1      39.631  24.680  26.464  1.00  0.00     0.275 C 
ENDROOT
BRANCH   1   2
ATOM      2  C   UNL A   1      38.688  23.470  26.504  1.00  0.00     0.274 C 
BRANCH   2   3
ATOM      3  O   UNL A   1      37.353  23.890  26.147  1.00  0.00    -0.461 OA
BRANCH   3   4
ATOM      4  C   UNL A   1      36.447  22.905  25.907  1.00  0.00     0.329 C 
ATOM      5  O   UNL A   1      36.729  21.908  25.249  1.00  0.00    -0.250 OA
BRANCH   4   6
ATOM      6  C   UNL A   1      35.005  23.174  26.511  1.00  0.00     0.197 C 
ATOM      7  C   UNL A   1      34.857  22.257  27.686  1.00  0.00     0.044 C 
BRANCH   6   8
ATOM      8  N   UNL A   1      33.884  23.298  25.588  1.00  0.00    -0.297 N 
ATOM      9  C   UNL A   1      35.119  24.814  22.885  1.00  0.00     0.069 C 
ATOM     10  C   UNL A   1      33.798  25.458  22.634  1.00  0.00     0.068 A 
ATOM     11  N   UNL A   1      33.653  26.460  21.752  1.00  0.00    -0.177 NA
ATOM     12  C   UNL A   1      32.571  25.208  23.294  1.00  0.00     0.063 A 
ATOM     13  N   UNL A   1      32.366  26.841  21.879  1.00  0.00    -0.246 N 
ATOM     14  C   UNL A   1      31.685  26.120  22.807  1.00  0.00     0.222 A 
ATOM     15  C   UNL A   1      32.177  24.343  24.419  1.00  0.00     0.149 C 
ATOM     16  H   UNL A   1      31.961  27.570  21.354  1.00  0.00     0.193 HD
ATOM     17  O   UNL A   1      30.437  26.326  23.218  1.00  0.00    -0.422 OA
ATOM     18  C   UNL A   1      33.206  24.495  25.501  1.00  0.00     0.248 C 
ATOM     19  C   UNL A   1      32.298  22.939  23.938  1.00  0.00     0.002 A 
ATOM     20  C   UNL A   1      30.822  24.645  24.945  1.00  0.00     0.114 C 
ATOM     21  C   UNL A   1      30.022  25.583  24.351  1.00  0.00     0.208 C 
ATOM     22  O   UNL A   1      33.426  25.541  26.153  1.00  0.00    -0.273 OA
ATOM     23  C   UNL A   1      33.321  22.331  24.659  1.00  0.00     0.050 A 
ATOM     24  C   UNL A   1      31.540  22.295  22.946  1.00  0.00     0.008 A 
ATOM     25  C   UNL A   1      33.579  21.002  24.351  1.00  0.00     0.027 A 
ATOM     26  C   UNL A   1      31.780  20.954  22.693  1.00  0.00     0.001 A 
ATOM     27  C   UNL A   1      32.783  20.304  23.410  1.00  0.00     0.002 A 
BRANCH  20  28
ATOM     28  C   UNL A   1      30.295  23.976  26.204  1.00  0.00     0.102 C 
ATOM     29  N   UNL A   1      29.857  23.420  27.248  1.00  0.00    -0.193 NA
ENDBRANCH  20  28
BRANCH  21  30
ATOM     30  N   UNL A   1      28.765  25.913  24.774  1.00  0.00    -0.369 N 
ATOM     31  H   UNL A   1      28.419  26.823  24.629  1.00  0.00     0.159 HD
ATOM     32  H   UNL A   1      28.205  25.240  25.226  1.00  0.00     0.159 HD
ENDBRANCH  21  30
ENDBRANCH   6   8
ENDBRANCH   4   6
ENDBRANCH   3   4
ENDBRANCH   2   3
ENDBRANCH   1   2
BRANCH   1  33
ATOM     33  O   UNL A   1      39.087  25.813  27.199  1.00  0.00    -0.458 OA
BRANCH  33  34
ATOM     34  C   UNL A   1      39.975  26.734  27.621  1.00  0.00     0.338 C 
ATOM     35  O   UNL A   1      40.450  27.633  26.912  1.00  0.00    -0.246 OA
BRANCH  34  36
ATOM     36  C   UNL A   1      39.952  26.924  29.106  1.00  0.00     0.060 A 
ATOM     37  C   UNL A   1      39.117  26.523  30.122  1.00  0.00     0.016 A 
ATOM     38  C   UNL A   1      40.527  28.120  29.392  1.00  0.00     0.016 A 
ATOM     39  C   UNL A   1      38.643  27.549  31.094  1.00  0.00     0.010 A 
ATOM     40  C   UNL A   1      40.249  28.866  30.531  1.00  0.00     0.010 A 
ATOM     41  C   UNL A   1      38.948  28.946  30.964  1.00  0.00    -0.014 A 
BRANCH  41  42
ATOM     42  C   UNL A   1      38.708  30.291  31.926  1.00  0.00     0.031 A 
ATOM     43  C   UNL A   1      37.679  31.082  30.836  1.00  0.00     0.074 A 
ATOM     44  C   UNL A   1      39.152  30.702  33.327  1.00  0.00     0.049 A 
ATOM     45  N   UNL A   1      38.121  31.870  29.883  1.00  0.00    -0.248 NA
ATOM     46  C   UNL A   1      36.268  30.639  30.352  1.00  0.00     0.031 C 
ATOM     47  C   UNL A   1      39.996  30.106  34.538  1.00  0.00     0.029 A 
ATOM     48  N   UNL A   1      38.950  31.929  34.094  1.00  0.00    -0.354 N 
ATOM     49  C   UNL A   1      36.972  32.426  29.291  1.00  0.00     0.074 A 
ATOM     50  C   UNL A   1      35.981  31.436  29.313  1.00  0.00     0.031 C 
ATOM     51  C   UNL A   1      39.761  30.694  35.779  1.00  0.00     0.029 A 
ATOM     52  C   UNL A   1      38.995  31.904  35.596  1.00  0.00     0.049 A 
ATOM     53  H   UNL A   1      38.784  32.778  33.623  1.00  0.00     0.167 HD
ATOM     54  C   UNL A   1      36.758  33.764  29.371  1.00  0.00     0.034 A 
ATOM     55  C   UNL A   1      38.700  32.907  36.560  1.00  0.00     0.034 A 
ATOM     56  C   UNL A   1      38.012  34.363  29.721  1.00  0.00     0.049 A 
ATOM     57  C   UNL A   1      38.450  34.126  35.751  1.00  0.00     0.074 A 
ATOM     58  C   UNL A   1      39.262  34.351  29.136  1.00  0.00     0.029 A 
ATOM     59  N   UNL A   1      38.195  34.402  31.071  1.00  0.00    -0.354 N 
ATOM     60  N   UNL A   1      39.429  34.719  35.124  1.00  0.00    -0.248 NA
ATOM     61  C   UNL A   1      37.133  34.090  35.111  1.00  0.00     0.031 C 
ATOM     62  C   UNL A   1      40.194  34.200  30.200  1.00  0.00     0.029 A 
ATOM     63  C   UNL A   1      39.513  34.342  31.405  1.00  0.00     0.049 A 
ATOM     64  H   UNL A   1      37.464  34.467  31.727  1.00  0.00     0.167 HD
ATOM     65  C   UNL A   1      39.036  34.631  33.801  1.00  0.00     0.074 A 
ATOM     66  C   UNL A   1      37.588  34.239  33.860  1.00  0.00     0.031 C 
ATOM     67  C   UNL A   1      39.938  34.451  32.776  1.00  0.00     0.034 A 
BRANCH  54  68
ATOM     68  C   UNL A   1      35.411  34.414  29.650  1.00  0.00     0.023 A 
ATOM     69  C   UNL A   1      34.938  34.910  30.898  1.00  0.00     0.031 A 
ATOM     70  C   UNL A   1      34.599  34.673  28.534  1.00  0.00     0.131 A 
ATOM     71  C   UNL A   1      33.666  35.515  30.999  1.00  0.00     0.055 A 
ATOM     72  C   UNL A   1      33.386  35.358  28.627  1.00  0.00     0.041 A 
ATOM     73  F   UNL A   1      34.970  34.259  27.314  1.00  0.00    -0.206 F 
ATOM     74  C   UNL A   1      32.900  35.755  29.864  1.00  0.00     0.022 A 
BRANCH  71  75
ATOM     75  S   UNL A   1      32.920  35.920  32.616  1.00  0.00     0.124 S 
ATOM     76  O   UNL A   1      33.969  35.492  33.557  1.00  0.00    -0.237 OA
ATOM     77  O   UNL A   1      32.763  37.376  32.505  1.00  0.00    -0.237 OA
ATOM     78  O   UNL A   1      31.693  35.166  32.642  1.00  0.00    -0.744 OA
ENDBRANCH  71  75
ENDBRANCH  54  68
BRANCH  55  79
ATOM     79  C   UNL A   1      37.952  32.808  37.931  1.00  0.00     0.023 A 
ATOM     80  C   UNL A   1      38.266  33.879  38.763  1.00  0.00     0.031 A 
ATOM     81  C   UNL A   1      37.341  31.699  38.621  1.00  0.00     0.131 A 
ATOM     82  C   UNL A   1      38.172  33.814  40.163  1.00  0.00     0.055 A 
ATOM     83  C   UNL A   1      37.141  31.679  40.042  1.00  0.00     0.041 A 
ATOM     84  F   UNL A   1      36.939  30.591  37.974  1.00  0.00    -0.206 F 
ATOM     85  C   UNL A   1      37.614  32.725  40.826  1.00  0.00     0.022 A 
BRANCH  82  86
ATOM     86  S   UNL A   1      38.970  35.129  41.117  1.00  0.00     0.124 S 
ATOM     87  O   UNL A   1      37.823  35.816  41.703  1.00  0.00    -0.237 OA
ATOM     88  O   UNL A   1      39.791  34.353  42.044  1.00  0.00    -0.237 OA
ATOM     89  O   UNL A   1      39.700  35.880  40.104  1.00  0.00    -0.744 OA
ENDBRANCH  82  86
ENDBRANCH  55  79
BRANCH  67  90
ATOM     90  C   UNL A   1      41.456  34.449  32.979  1.00  0.00     0.023 A 
ATOM     91  C   UNL A   1      42.004  35.717  33.208  1.00  0.00     0.031 A 
ATOM     92  C   UNL A   1      42.381  33.423  32.669  1.00  0.00     0.131 A 
ATOM     93  C   UNL A   1      43.382  35.944  33.115  1.00  0.00     0.055 A 
ATOM     94  C   UNL A   1      43.778  33.630  32.677  1.00  0.00     0.041 A 
ATOM     95  F   UNL A   1      41.976  32.220  32.241  1.00  0.00    -0.206 F 
ATOM     96  C   UNL A   1      44.283  34.905  32.892  1.00  0.00     0.022 A 
BRANCH  93  97
ATOM     97  S   UNL A   1      44.003  37.639  33.147  1.00  0.00     0.124 S 
ATOM     98  O   UNL A   1      42.829  38.377  33.611  1.00  0.00    -0.237 OA
ATOM     99  O   UNL A   1      45.103  37.545  34.108  1.00  0.00    -0.237 OA
ATOM    100  O   UNL A   1      44.402  37.897  31.773  1.00  0.00    -0.744 OA
ENDBRANCH  93  97
ENDBRANCH  67  90
ENDBRANCH  41  42
ENDBRANCH  34  36
ENDBRANCH  33  34
ENDBRANCH   1  33
TORSDOF 17
ENDMDL
MODEL 2
REMARK VINA RESULT:     -12.4      3.537      6.801
REMARK SMILES Cc1n[nH]c2c1[C@@]1(C(=O)N([C@@H](C)C(=O)OCCOC(=O)c3ccc(-c4c5nc(c(-c6cc(S(=O)(=O)[O-])ccc6F)c6ccc([nH]6)c(-c6cc(S(=O)(=O)[O-])ccc6F)c6nc(c(-c7cc(S(=O)(=O)[O-])ccc7F)c7ccc4[nH]7)C=C6)C=C5)cc3)c3ccccc31)C(C#N)=C(N)O2
REMARK SMILES IDX 17 1 16 2 15 3 13 4 14 5 11 6 12 7 10 8 1 9 2 10 3 11 6 12
REMARK SMILES IDX 4 13 5 14 7 15 95 17 8 18 89 19 90 20 93 21 9 22 84 23 88 24
REMARK SMILES IDX 85 25 87 26 86 27 91 28 92 29 94 30 18 33 19 34 20 35 21 36
REMARK SMILES IDX 22 37 83 38 23 39 82 40 24 41 25 42 26 43 76 44 27 45 81 46
REMARK SMILES IDX 75 47 77 48 28 49 80 50 74 51 73 52 29 54 61 55 41 56 60 57
REMARK SMILES IDX 42 58 45 59 59 60 78 61 43 62 44 63 58 65 79 66 46 67 30 68
REMARK SMILES IDX 31 69 39 70 32 71 38 72 40 73 37 74 33 75 34 76 35 77 36 78
REMARK SMILES IDX 62 79 63 80 71 81 64 82 70 83 72 84 69 85 65 86 66 87 67 88
REMARK SMILES IDX 68 89 47 90 48 91 56 92 49 93 55 94 57 95 54 96 50 97 51 98
REMARK SMILES IDX 52 99 53 100
REMARK H PARENT 4 16 94 31 94 32 77 53 45 64
REMARK Flexibility Score: inf
ROOT
ATOM      1  C   UNL A   1      38.411  21.574  25.403  1.00  0.00     0.275 C 
ENDROOT
BRANCH   1   2
ATOM      2  C   UNL A   1      37.001  20.972  25.486  1.00  0.00     0.274 C 
BRANCH   2   3
ATOM      3  O   UNL A   1      36.032  21.961  25.075  1.00  0.00    -0.461 OA
BRANCH   3   4
ATOM      4  C   UNL A   1      34.788  21.858  25.614  1.00  0.00     0.329 C 
ATOM      5  O   UNL A   1      34.074  20.879  25.418  1.00  0.00    -0.250 OA
BRANCH   4   6
ATOM      6  C   UNL A   1      34.335  23.113  26.470  1.00  0.00     0.197 C 
ATOM      7  C   UNL A   1      33.851  22.581  27.784  1.00  0.00     0.044 C 
BRANCH   6   8
ATOM      8  N   UNL A   1      33.544  24.146  25.813  1.00  0.00    -0.297 N 
ATOM      9  C   UNL A   1      32.879  22.957  22.768  1.00  0.00     0.069 C 
ATOM     10  C   UNL A   1      32.879  24.344  22.219  1.00  0.00     0.068 A 
ATOM     11  N   UNL A   1      32.898  24.584  20.898  1.00  0.00    -0.177 NA
ATOM     12  C   UNL A   1      32.944  25.561  22.937  1.00  0.00     0.063 A 
ATOM     13  N   UNL A   1      32.998  25.925  20.797  1.00  0.00    -0.246 N 
ATOM     14  C   UNL A   1      33.041  26.548  22.003  1.00  0.00     0.222 A 
ATOM     15  C   UNL A   1      33.086  25.897  24.365  1.00  0.00     0.149 C 
ATOM     16  H   UNL A   1      33.037  26.403  19.938  1.00  0.00     0.193 HD
ATOM     17  O   UNL A   1      33.232  27.846  22.223  1.00  0.00    -0.422 OA
ATOM     18  C   UNL A   1      34.158  25.019  24.940  1.00  0.00     0.248 C 
ATOM     19  C   UNL A   1      31.820  25.480  25.026  1.00  0.00     0.002 A 
ATOM     20  C   UNL A   1      33.404  27.328  24.602  1.00  0.00     0.114 C 
ATOM     21  C   UNL A   1      33.458  28.224  23.570  1.00  0.00     0.208 C 
ATOM     22  O   UNL A   1      35.371  25.054  24.630  1.00  0.00    -0.273 OA
ATOM     23  C   UNL A   1      32.121  24.436  25.896  1.00  0.00     0.050 A 
ATOM     24  C   UNL A   1      30.532  26.012  24.848  1.00  0.00     0.008 A 
ATOM     25  C   UNL A   1      31.054  23.914  26.617  1.00  0.00     0.027 A 
ATOM     26  C   UNL A   1      29.493  25.511  25.616  1.00  0.00     0.001 A 
ATOM     27  C   UNL A   1      29.760  24.479  26.514  1.00  0.00     0.002 A 
BRANCH  20  28
ATOM     28  C   UNL A   1      33.747  27.841  25.990  1.00  0.00     0.102 C 
ATOM     29  N   UNL A   1      34.032  28.267  27.143  1.00  0.00    -0.193 NA
ENDBRANCH  20  28
BRANCH  21  30
ATOM     30  N   UNL A   1      33.740  29.554  23.710  1.00  0.00    -0.369 N 
ATOM     31  H   UNL A   1      33.842  30.123  22.913  1.00  0.00     0.159 HD
ATOM     32  H   UNL A   1      33.840  29.944  24.609  1.00  0.00     0.159 HD
ENDBRANCH  21  30
ENDBRANCH   6   8
ENDBRANCH   4   6
ENDBRANCH   3   4
ENDBRANCH   2   3
ENDBRANCH   1   2
BRANCH   1  33
ATOM     33  O   UNL A   1      38.534  22.775  26.217  1.00  0.00    -0.458 OA
BRANCH  33  34
ATOM     34  C   UNL A   1      39.636  22.865  26.985  1.00  0.00     0.338 C 
ATOM     35  O   UNL A   1      40.277  21.895  27.417  1.00  0.00    -0.246 OA
BRANCH  34  36
ATOM     36  C   UNL A   1      40.331  24.184  26.850  1.00  0.00     0.060 A 
ATOM     37  C   UNL A   1      41.594  24.649  27.131  1.00  0.00     0.016 A 
ATOM     38  C   UNL A   1      39.407  25.170  26.993  1.00  0.00     0.016 A 
ATOM     39  C   UNL A   1      41.725  25.910  27.915  1.00  0.00     0.010 A 
ATOM     40  C   UNL A   1      39.700  26.455  27.433  1.00  0.00     0.010 A 
ATOM     41  C   UNL A   1      40.597  26.610  28.461  1.00  0.00    -0.014 A 
BRANCH  41  42
ATOM     42  C   UNL A   1      40.391  28.078  29.233  1.00  0.00     0.031 A 
ATOM     43  C   UNL A   1      41.646  28.865  28.407  1.00  0.00     0.074 A 
ATOM     44  C   UNL A   1      39.404  28.621  30.262  1.00  0.00     0.049 A 
ATOM     45  N   UNL A   1      42.892  28.846  28.821  1.00  0.00    -0.248 NA
ATOM     46  C   UNL A   1      41.744  29.186  26.889  1.00  0.00     0.031 C 
ATOM     47  C   UNL A   1      38.125  28.127  31.070  1.00  0.00     0.029 A 
ATOM     48  N   UNL A   1      39.316  29.911  30.942  1.00  0.00    -0.354 N 
ATOM     49  C   UNL A   1      43.588  29.709  27.955  1.00  0.00     0.074 A 
ATOM     50  C   UNL A   1      43.013  29.566  26.685  1.00  0.00     0.031 C 
ATOM     51  C   UNL A   1      37.310  29.136  31.579  1.00  0.00     0.029 A 
ATOM     52  C   UNL A   1      37.998  30.401  31.473  1.00  0.00     0.049 A 
ATOM     53  H   UNL A   1      40.124  30.461  31.054  1.00  0.00     0.167 HD
ATOM     54  C   UNL A   1      44.150  30.842  28.447  1.00  0.00     0.034 A 
ATOM     55  C   UNL A   1      37.621  31.651  32.039  1.00  0.00     0.034 A 
ATOM     56  C   UNL A   1      44.233  30.679  29.868  1.00  0.00     0.049 A 
ATOM     57  C   UNL A   1      38.898  32.401  32.144  1.00  0.00     0.074 A 
ATOM     58  C   UNL A   1      44.832  29.738  30.679  1.00  0.00     0.029 A 
ATOM     59  N   UNL A   1      43.089  31.083  30.491  1.00  0.00    -0.354 N 
ATOM     60  N   UNL A   1      39.807  32.045  33.011  1.00  0.00    -0.248 NA
ATOM     61  C   UNL A   1      39.336  32.910  30.843  1.00  0.00     0.031 C 
ATOM     62  C   UNL A   1      43.905  29.467  31.722  1.00  0.00     0.029 A 
ATOM     63  C   UNL A   1      42.871  30.394  31.644  1.00  0.00     0.049 A 
ATOM     64  H   UNL A   1      42.493  31.788  30.150  1.00  0.00     0.167 HD
ATOM     65  C   UNL A   1      40.886  31.737  32.203  1.00  0.00     0.074 A 
ATOM     66  C   UNL A   1      40.533  32.309  30.861  1.00  0.00     0.031 C 
ATOM     67  C   UNL A   1      41.762  30.717  32.504  1.00  0.00     0.034 A 
BRANCH  54  68
ATOM     68  C   UNL A   1      44.119  32.198  27.758  1.00  0.00     0.023 A 
ATOM     69  C   UNL A   1      43.467  33.379  28.215  1.00  0.00     0.031 A 
ATOM     70  C   UNL A   1      44.926  32.341  26.618  1.00  0.00     0.131 A 
ATOM     71  C   UNL A   1      43.546  34.580  27.476  1.00  0.00     0.055 A 
ATOM     72  C   UNL A   1      45.077  33.555  25.947  1.00  0.00     0.041 A 
ATOM     73  F   UNL A   1      45.593  31.287  26.124  1.00  0.00    -0.206 F 
ATOM     74  C   UNL A   1      44.364  34.673  26.356  1.00  0.00     0.022 A 
BRANCH  71  75
ATOM     75  S   UNL A   1      42.517  36.031  27.886  1.00  0.00     0.124 S 
ATOM     76  O   UNL A   1      42.473  36.752  26.602  1.00  0.00    -0.237 OA
ATOM     77  O   UNL A   1      41.250  35.390  28.264  1.00  0.00    -0.237 OA
ATOM     78  O   UNL A   1      43.225  36.680  28.958  1.00  0.00    -0.744 OA
ENDBRANCH  71  75
ENDBRANCH  54  68
BRANCH  55  79
ATOM     79  C   UNL A   1      36.321  32.500  31.847  1.00  0.00     0.023 A 
ATOM     80  C   UNL A   1      35.710  32.230  30.627  1.00  0.00     0.031 A 
ATOM     81  C   UNL A   1      35.862  33.719  32.467  1.00  0.00     0.131 A 
ATOM     82  C   UNL A   1      34.868  33.146  29.972  1.00  0.00     0.055 A 
ATOM     83  C   UNL A   1      34.915  34.602  31.847  1.00  0.00     0.041 A 
ATOM     84  F   UNL A   1      36.316  34.124  33.666  1.00  0.00    -0.206 F 
ATOM     85  C   UNL A   1      34.458  34.338  30.560  1.00  0.00     0.022 A 
BRANCH  82  86
ATOM     86  S   UNL A   1      34.464  32.818  28.239  1.00  0.00     0.124 S 
ATOM     87  O   UNL A   1      34.262  31.372  28.244  1.00  0.00    -0.237 OA
ATOM     88  O   UNL A   1      33.261  33.630  28.066  1.00  0.00    -0.237 OA
ATOM     89  O   UNL A   1      35.646  33.283  27.526  1.00  0.00    -0.744 OA
ENDBRANCH  82  86
ENDBRANCH  55  79
BRANCH  67  90
ATOM     90  C   UNL A   1      41.701  29.908  33.802  1.00  0.00     0.023 A 
ATOM     91  C   UNL A   1      42.291  30.544  34.901  1.00  0.00     0.031 A 
ATOM     92  C   UNL A   1      41.418  28.530  33.965  1.00  0.00     0.131 A 
ATOM     93  C   UNL A   1      42.594  29.845  36.075  1.00  0.00     0.055 A 
ATOM     94  C   UNL A   1      41.630  27.849  35.185  1.00  0.00     0.041 A 
ATOM     95  F   UNL A   1      41.037  27.766  32.934  1.00  0.00    -0.206 F 
ATOM     96  C   UNL A   1      42.232  28.510  36.246  1.00  0.00     0.022 A 
BRANCH  93  97
ATOM     97  S   UNL A   1      43.598  30.642  37.346  1.00  0.00     0.124 S 
ATOM     98  O   UNL A   1      44.406  31.566  36.550  1.00  0.00    -0.237 OA
ATOM     99  O   UNL A   1      42.582  31.269  38.192  1.00  0.00    -0.237 OA
ATOM    100  O   UNL A   1      44.326  29.545  37.963  1.00  0.00    -0.744 OA
ENDBRANCH  93  97
ENDBRANCH  67  90
ENDBRANCH  41  42
ENDBRANCH  34  36
ENDBRANCH  33  34
ENDBRANCH   1  33
TORSDOF 17
ENDMDL
MODEL 3
REMARK VINA RESULT:     -12.3      5.528     10.267
REMARK SMILES Cc1n[nH]c2c1[C@@]1(C(=O)N([C@@H](C)C(=O)OCCOC(=O)c3ccc(-c4c5nc(c(-c6cc(S(=O)(=O)[O-])ccc6F)c6ccc([nH]6)c(-c6cc(S(=O)(=O)[O-])ccc6F)c6nc(c(-c7cc(S(=O)(=O)[O-])ccc7F)c7ccc4[nH]7)C=C6)C=C5)cc3)c3ccccc31)C(C#N)=C(N)O2
REMARK SMILES IDX 17 1 16 2 15 3 13 4 14 5 11 6 12 7 10 8 1 9 2 10 3 11 6 12
REMARK SMILES IDX 4 13 5 14 7 15 95 17 8 18 89 19 90 20 93 21 9 22 84 23 88 24
REMARK SMILES IDX 85 25 87 26 86 27 91 28 92 29 94 30 18 33 19 34 20 35 21 36
REMARK SMILES IDX 22 37 83 38 23 39 82 40 24 41 25 42 26 43 76 44 27 45 81 46
REMARK SMILES IDX 75 47 77 48 28 49 80 50 74 51 73 52 29 54 61 55 41 56 60 57
REMARK SMILES IDX 42 58 45 59 59 60 78 61 43 62 44 63 58 65 79 66 46 67 30 68
REMARK SMILES IDX 31 69 39 70 32 71 38 72 40 73 37 74 33 75 34 76 35 77 36 78
REMARK SMILES IDX 62 79 63 80 71 81 64 82 70 83 72 84 69 85 65 86 66 87 67 88
REMARK SMILES IDX 68 89 47 90 48 91 56 92 49 93 55 94 57 95 54 96 50 97 51 98
REMARK SMILES IDX 52 99 53 100
REMARK H PARENT 4 16 94 31 94 32 77 53 45 64
REMARK Flexibility Score: inf
ROOT
ATOM      1  C   UNL A   1      33.468  30.227  27.517  1.00  0.00     0.275 C 
ENDROOT
BRANCH   1   2
ATOM      2  C   UNL A   1      32.395  30.243  26.420  1.00  0.00     0.274 C 
BRANCH   2   3
ATOM      3  O   UNL A   1      33.022  30.050  25.134  1.00  0.00    -0.461 OA
BRANCH   3   4
ATOM      4  C   UNL A   1      32.566  29.014  24.380  1.00  0.00     0.329 C 
ATOM      5  O   UNL A   1      31.378  28.892  24.097  1.00  0.00    -0.250 OA
BRANCH   4   6
ATOM      6  C   UNL A   1      33.680  27.976  23.941  1.00  0.00     0.197 C 
ATOM      7  C   UNL A   1      34.143  28.397  22.580  1.00  0.00     0.044 C 
BRANCH   6   8
ATOM      8  N   UNL A   1      33.432  26.559  24.176  1.00  0.00    -0.297 N 
ATOM      9  C   UNL A   1      30.165  26.317  24.803  1.00  0.00     0.069 C 
ATOM     10  C   UNL A   1      30.417  25.158  25.706  1.00  0.00     0.068 A 
ATOM     11  N   UNL A   1      29.471  24.683  26.532  1.00  0.00    -0.177 NA
ATOM     12  C   UNL A   1      31.632  24.460  25.904  1.00  0.00     0.063 A 
ATOM     13  N   UNL A   1      30.094  23.724  27.247  1.00  0.00    -0.246 N 
ATOM     14  C   UNL A   1      31.399  23.568  26.907  1.00  0.00     0.222 A 
ATOM     15  C   UNL A   1      33.002  24.632  25.390  1.00  0.00     0.149 C 
ATOM     16  H   UNL A   1      29.648  23.192  27.945  1.00  0.00     0.193 HD
ATOM     17  O   UNL A   1      32.287  22.773  27.497  1.00  0.00    -0.422 OA
ATOM     18  C   UNL A   1      33.345  26.091  25.470  1.00  0.00     0.248 C 
ATOM     19  C   UNL A   1      32.955  24.304  23.939  1.00  0.00     0.002 A 
ATOM     20  C   UNL A   1      34.009  23.821  26.120  1.00  0.00     0.114 C 
ATOM     21  C   UNL A   1      33.638  22.947  27.106  1.00  0.00     0.208 C 
ATOM     22  O   UNL A   1      33.470  26.751  26.526  1.00  0.00    -0.273 OA
ATOM     23  C   UNL A   1      33.225  25.472  23.232  1.00  0.00     0.050 A 
ATOM     24  C   UNL A   1      32.697  23.060  23.339  1.00  0.00     0.008 A 
ATOM     25  C   UNL A   1      33.232  25.361  21.848  1.00  0.00     0.027 A 
ATOM     26  C   UNL A   1      32.761  22.962  21.958  1.00  0.00     0.001 A 
ATOM     27  C   UNL A   1      33.050  24.106  21.217  1.00  0.00     0.002 A 
BRANCH  20  28
ATOM     28  C   UNL A   1      35.496  23.978  25.851  1.00  0.00     0.102 C 
ATOM     29  N   UNL A   1      36.731  24.107  25.628  1.00  0.00    -0.193 NA
ENDBRANCH  20  28
BRANCH  21  30
ATOM     30  N   UNL A   1      34.505  22.167  27.818  1.00  0.00    -0.369 N 
ATOM     31  H   UNL A   1      35.135  22.581  28.450  1.00  0.00     0.159 HD
ATOM     32  H   UNL A   1      34.499  21.189  27.699  1.00  0.00     0.159 HD
ENDBRANCH  21  30
ENDBRANCH   6   8
ENDBRANCH   4   6
ENDBRANCH   3   4
ENDBRANCH   2   3
ENDBRANCH   1   2
BRANCH   1  33
ATOM     33  O   UNL A   1      33.989  31.561  27.782  1.00  0.00    -0.458 OA
BRANCH  33  34
ATOM     34  C   UNL A   1      35.329  31.674  27.861  1.00  0.00     0.338 C 
ATOM     35  O   UNL A   1      35.966  32.708  27.615  1.00  0.00    -0.246 OA
BRANCH  34  36
ATOM     36  C   UNL A   1      35.945  30.644  28.757  1.00  0.00     0.060 A 
ATOM     37  C   UNL A   1      36.497  30.658  30.015  1.00  0.00     0.016 A 
ATOM     38  C   UNL A   1      36.534  29.699  27.978  1.00  0.00     0.016 A 
ATOM     39  C   UNL A   1      37.832  30.024  30.210  1.00  0.00     0.010 A 
ATOM     40  C   UNL A   1      37.599  28.905  28.387  1.00  0.00     0.010 A 
ATOM     41  C   UNL A   1      38.602  29.480  29.127  1.00  0.00    -0.014 A 
BRANCH  41  42
ATOM     42  C   UNL A   1      40.018  28.598  29.025  1.00  0.00     0.031 A 
ATOM     43  C   UNL A   1      40.248  28.478  30.701  1.00  0.00     0.074 A 
ATOM     44  C   UNL A   1      40.832  28.004  27.879  1.00  0.00     0.049 A 
ATOM     45  N   UNL A   1      40.890  29.387  31.397  1.00  0.00    -0.248 NA
ATOM     46  C   UNL A   1      39.356  27.746  31.743  1.00  0.00     0.031 C 
ATOM     47  C   UNL A   1      40.763  27.893  26.293  1.00  0.00     0.029 A 
ATOM     48  N   UNL A   1      42.103  27.284  27.858  1.00  0.00    -0.354 N 
ATOM     49  C   UNL A   1      40.981  28.866  32.701  1.00  0.00     0.074 A 
ATOM     50  C   UNL A   1      39.797  28.155  32.940  1.00  0.00     0.031 C 
ATOM     51  C   UNL A   1      41.531  26.877  25.728  1.00  0.00     0.029 A 
ATOM     52  C   UNL A   1      42.426  26.346  26.729  1.00  0.00     0.049 A 
ATOM     53  H   UNL A   1      42.752  27.414  28.587  1.00  0.00     0.167 HD
ATOM     54  C   UNL A   1      42.199  28.575  33.224  1.00  0.00     0.034 A 
ATOM     55  C   UNL A   1      43.507  25.440  26.542  1.00  0.00     0.034 A 
ATOM     56  C   UNL A   1      43.167  29.267  32.425  1.00  0.00     0.049 A 
ATOM     57  C   UNL A   1      44.406  25.705  27.693  1.00  0.00     0.074 A 
ATOM     58  C   UNL A   1      43.351  30.595  32.101  1.00  0.00     0.029 A 
ATOM     59  N   UNL A   1      43.553  28.529  31.345  1.00  0.00    -0.354 N 
ATOM     60  N   UNL A   1      45.079  26.822  27.767  1.00  0.00    -0.248 NA
ATOM     61  C   UNL A   1      43.886  25.121  28.932  1.00  0.00     0.031 C 
ATOM     62  C   UNL A   1      43.691  30.623  30.720  1.00  0.00     0.029 A 
ATOM     63  C   UNL A   1      43.915  29.317  30.297  1.00  0.00     0.049 A 
ATOM     64  H   UNL A   1      43.570  27.545  31.327  1.00  0.00     0.167 HD
ATOM     65  C   UNL A   1      44.598  27.385  28.934  1.00  0.00     0.074 A 
ATOM     66  C   UNL A   1      43.864  26.269  29.622  1.00  0.00     0.031 C 
ATOM     67  C   UNL A   1      44.435  28.744  29.082  1.00  0.00     0.034 A 
BRANCH  54  68
ATOM     68  C   UNL A   1      42.521  27.335  34.044  1.00  0.00     0.023 A 
ATOM     69  C   UNL A   1      43.332  26.232  33.653  1.00  0.00     0.031 A 
ATOM     70  C   UNL A   1      42.080  27.334  35.377  1.00  0.00     0.131 A 
ATOM     71  C   UNL A   1      43.563  25.155  34.536  1.00  0.00     0.055 A 
ATOM     72  C   UNL A   1      42.392  26.312  36.274  1.00  0.00     0.041 A 
ATOM     73  F   UNL A   1      41.323  28.340  35.841  1.00  0.00    -0.206 F 
ATOM     74  C   UNL A   1      43.109  25.204  35.850  1.00  0.00     0.022 A 
BRANCH  71  75
ATOM     75  S   UNL A   1      44.371  23.614  33.984  1.00  0.00     0.124 S 
ATOM     76  O   UNL A   1      44.105  23.627  32.535  1.00  0.00    -0.237 OA
ATOM     77  O   UNL A   1      45.771  23.876  34.346  1.00  0.00    -0.237 OA
ATOM     78  O   UNL A   1      43.720  22.578  34.743  1.00  0.00    -0.744 OA
ENDBRANCH  71  75
ENDBRANCH  54  68
BRANCH  55  79
ATOM     79  C   UNL A   1      43.525  23.989  25.956  1.00  0.00     0.023 A 
ATOM     80  C   UNL A   1      42.291  23.365  26.100  1.00  0.00     0.031 A 
ATOM     81  C   UNL A   1      44.604  23.077  25.664  1.00  0.00     0.131 A 
ATOM     82  C   UNL A   1      42.139  21.968  26.145  1.00  0.00     0.055 A 
ATOM     83  C   UNL A   1      44.428  21.655  25.598  1.00  0.00     0.041 A 
ATOM     84  F   UNL A   1      45.863  23.504  25.458  1.00  0.00    -0.206 F 
ATOM     85  C   UNL A   1      43.191  21.093  25.899  1.00  0.00     0.022 A 
BRANCH  82  86
ATOM     86  S   UNL A   1      40.550  21.318  26.717  1.00  0.00     0.124 S 
ATOM     87  O   UNL A   1      40.529  19.991  26.108  1.00  0.00    -0.237 OA
ATOM     88  O   UNL A   1      40.730  21.351  28.167  1.00  0.00    -0.237 OA
ATOM     89  O   UNL A   1      39.586  22.269  26.180  1.00  0.00    -0.744 OA
ENDBRANCH  82  86
ENDBRANCH  55  79
BRANCH  67  90
ATOM     90  C   UNL A   1      44.875  29.766  28.030  1.00  0.00     0.023 A 
ATOM     91  C   UNL A   1      46.226  30.123  28.108  1.00  0.00     0.031 A 
ATOM     92  C   UNL A   1      44.062  30.597  27.220  1.00  0.00     0.131 A 
ATOM     93  C   UNL A   1      46.725  31.245  27.437  1.00  0.00     0.055 A 
ATOM     94  C   UNL A   1      44.586  31.668  26.462  1.00  0.00     0.041 A 
ATOM     95  F   UNL A   1      42.728  30.482  27.216  1.00  0.00    -0.206 F 
ATOM     96  C   UNL A   1      45.928  32.001  26.579  1.00  0.00     0.022 A 
BRANCH  93  97
ATOM     97  S   UNL A   1      48.401  31.815  27.791  1.00  0.00     0.124 S 
ATOM     98  O   UNL A   1      48.155  32.860  28.784  1.00  0.00    -0.237 OA
ATOM     99  O   UNL A   1      49.036  30.602  28.306  1.00  0.00    -0.237 OA
ATOM    100  O   UNL A   1      48.898  32.277  26.505  1.00  0.00    -0.744 OA
ENDBRANCH  93  97
ENDBRANCH  67  90
ENDBRANCH  41  42
ENDBRANCH  34  36
ENDBRANCH  33  34
ENDBRANCH   1  33
TORSDOF 17
ENDMDL
