MODEL 1
REMARK VINA RESULT:     -12.5      0.000      0.000
REMARK SMILES Cn1nc(-c2cccs2)cc1C(=O)N1CC[C@@H](c2ccccc2C(=O)OCCOC(=O)c2ccc(-c3c4nc(c(-c5cc(S(=O)(=O)[O-])ccc5F)c5ccc([nH]5)c(-c5cc(S(=O)(=O)[O-])ccc5F)c5nc(c(-c6cc(S(=O)(=O)[O-])ccc6F)c6ccc3[nH]6)C=C5)C=C4)cc2)C1
REMARK SMILES IDX 27 1 26 2 24 3 25 4 23 5 18 6 19 7 20 8 22 9 21 10 17 11
REMARK SMILES IDX 14 12 15 13 95 14 16 15 12 16 13 17 11 18 1 19 2 20 3 21
REMARK SMILES IDX 4 22 10 23 5 24 6 25 9 26 7 27 8 28 28 29 29 30 30 31 31 32
REMARK SMILES IDX 32 33 33 34 94 35 34 36 93 37 35 38 36 39 37 40 87 41 38 42
REMARK SMILES IDX 92 43 86 44 88 45 39 46 91 47 85 48 84 49 40 51 72 52 52 53
REMARK SMILES IDX 71 54 53 55 56 56 70 57 89 58 54 59 55 60 69 62 90 63 57 64
REMARK SMILES IDX 41 65 42 66 50 67 43 68 49 69 51 70 48 71 44 72 45 73 46 74
REMARK SMILES IDX 47 75 73 76 74 77 82 78 75 79 81 80 83 81 80 82 76 83 77 84
REMARK SMILES IDX 78 85 79 86 58 87 59 88 67 89 60 90 66 91 68 92 65 93 61 94
REMARK SMILES IDX 62 95 63 96 64 97
REMARK H PARENT 88 50 56 61
REMARK Flexibility Score: inf
ROOT
ATOM      1  C   UNL A   1      36.564  19.274  24.926  1.00  0.00     0.275 C 
ENDROOT
BRANCH   1   2
ATOM      2  O   UNL A   1      35.734  20.459  24.879  1.00  0.00    -0.458 OA
BRANCH   2   3
ATOM      3  C   UNL A   1      34.413  20.259  25.121  1.00  0.00     0.338 C 
ATOM      4  O   UNL A   1      33.797  19.239  24.876  1.00  0.00    -0.246 OA
BRANCH   3   5
ATOM      5  C   UNL A   1      33.736  21.423  25.765  1.00  0.00     0.063 A 
ATOM      6  C   UNL A   1      33.028  22.420  25.069  1.00  0.00    -0.029 A 
ATOM      7  C   UNL A   1      32.161  23.252  25.813  1.00  0.00     0.005 A 
ATOM      8  C   UNL A   1      32.117  23.213  27.205  1.00  0.00     0.000 A 
ATOM      9  C   UNL A   1      33.666  21.390  27.171  1.00  0.00     0.016 A 
ATOM     10  C   UNL A   1      32.910  22.311  27.889  1.00  0.00     0.001 A 
BRANCH   6  11
ATOM     11  C   UNL A   1      33.256  22.719  23.601  1.00  0.00     0.041 C 
ATOM     12  N   UNL A   1      33.518  24.919  22.724  1.00  0.00    -0.337 N 
ATOM     13  C   UNL A   1      34.781  24.581  23.349  1.00  0.00     0.120 C 
ATOM     14  C   UNL A   1      32.500  23.928  23.033  1.00  0.00     0.128 C 
ATOM     15  C   UNL A   1      34.748  23.062  23.372  1.00  0.00     0.032 C 
BRANCH  12  16
ATOM     16  C   UNL A   1      33.161  26.082  22.084  1.00  0.00     0.272 C 
ATOM     17  O   UNL A   1      33.198  26.134  20.854  1.00  0.00    -0.267 OA
BRANCH  16  18
ATOM     18  C   UNL A   1      32.860  27.264  22.861  1.00  0.00     0.126 A 
ATOM     19  C   UNL A   1      30.344  27.614  22.554  1.00  0.00     0.174 C 
ATOM     20  N   UNL A   1      31.647  27.858  23.126  1.00  0.00    -0.262 N 
ATOM     21  N   UNL A   1      31.686  28.717  24.163  1.00  0.00    -0.172 NA
ATOM     22  C   UNL A   1      32.960  28.719  24.554  1.00  0.00     0.103 A 
ATOM     23  C   UNL A   1      33.745  27.894  23.726  1.00  0.00     0.065 A 
BRANCH  22  24
ATOM     24  C   UNL A   1      33.417  29.454  25.775  1.00  0.00     0.055 A 
ATOM     25  C   UNL A   1      34.586  29.197  26.459  1.00  0.00     0.022 A 
ATOM     26  S   UNL A   1      32.509  30.702  26.515  1.00  0.00    -0.142 S 
ATOM     27  C   UNL A   1      34.730  30.030  27.609  1.00  0.00     0.012 A 
ATOM     28  C   UNL A   1      33.646  30.862  27.781  1.00  0.00     0.065 A 
ENDBRANCH  22  24
ENDBRANCH  16  18
ENDBRANCH  12  16
ENDBRANCH   6  11
ENDBRANCH   3   5
ENDBRANCH   2   3
ENDBRANCH   1   2
BRANCH   1  29
ATOM     29  C   UNL A   1      38.046  19.624  24.818  1.00  0.00     0.275 C 
BRANCH  29  30
ATOM     30  O   UNL A   1      38.343  20.748  25.661  1.00  0.00    -0.458 OA
BRANCH  30  31
ATOM     31  C   UNL A   1      39.550  20.697  26.263  1.00  0.00     0.338 C 
ATOM     32  O   UNL A   1      40.316  19.743  26.312  1.00  0.00    -0.246 OA
BRANCH  31  33
ATOM     33  C   UNL A   1      39.895  22.018  26.795  1.00  0.00     0.060 A 
ATOM     34  C   UNL A   1      39.203  23.118  26.306  1.00  0.00     0.016 A 
ATOM     35  C   UNL A   1      41.007  22.198  27.610  1.00  0.00     0.016 A 
ATOM     36  C   UNL A   1      39.706  24.401  26.494  1.00  0.00     0.010 A 
ATOM     37  C   UNL A   1      41.424  23.498  27.921  1.00  0.00     0.010 A 
ATOM     38  C   UNL A   1      40.814  24.619  27.324  1.00  0.00    -0.014 A 
BRANCH  38  39
ATOM     39  C   UNL A   1      41.354  25.999  27.526  1.00  0.00     0.031 A 
ATOM     40  C   UNL A   1      42.677  26.392  26.909  1.00  0.00     0.074 A 
ATOM     41  C   UNL A   1      40.667  26.912  28.243  1.00  0.00     0.049 A 
ATOM     42  N   UNL A   1      43.427  27.439  27.147  1.00  0.00    -0.248 NA
ATOM     43  C   UNL A   1      43.240  25.472  25.909  1.00  0.00     0.031 C 
ATOM     44  C   UNL A   1      39.346  26.703  28.846  1.00  0.00     0.029 A 
ATOM     45  N   UNL A   1      40.974  28.208  28.584  1.00  0.00    -0.354 N 
ATOM     46  C   UNL A   1      44.580  27.267  26.384  1.00  0.00     0.074 A 
ATOM     47  C   UNL A   1      44.431  26.008  25.685  1.00  0.00     0.031 C 
ATOM     48  C   UNL A   1      38.938  27.839  29.429  1.00  0.00     0.029 A 
ATOM     49  C   UNL A   1      40.016  28.817  29.363  1.00  0.00     0.049 A 
ATOM     50  H   UNL A   1      41.802  28.658  28.299  1.00  0.00     0.167 HD
ATOM     51  C   UNL A   1      45.659  28.084  26.282  1.00  0.00     0.034 A 
ATOM     52  C   UNL A   1      40.017  29.999  30.011  1.00  0.00     0.034 A 
ATOM     53  C   UNL A   1      45.761  29.363  26.945  1.00  0.00     0.049 A 
ATOM     54  C   UNL A   1      41.248  30.862  29.932  1.00  0.00     0.074 A 
ATOM     55  C   UNL A   1      46.799  30.278  26.902  1.00  0.00     0.029 A 
ATOM     56  N   UNL A   1      44.784  29.916  27.765  1.00  0.00    -0.354 N 
ATOM     57  N   UNL A   1      42.366  30.648  29.276  1.00  0.00    -0.248 NA
ATOM     58  C   UNL A   1      41.224  32.116  30.694  1.00  0.00     0.031 C 
ATOM     59  C   UNL A   1      46.480  31.349  27.744  1.00  0.00     0.029 A 
ATOM     60  C   UNL A   1      45.207  31.145  28.251  1.00  0.00     0.049 A 
ATOM     61  H   UNL A   1      43.918  29.497  27.971  1.00  0.00     0.167 HD
ATOM     62  C   UNL A   1      43.170  31.753  29.534  1.00  0.00     0.074 A 
ATOM     63  C   UNL A   1      42.401  32.639  30.384  1.00  0.00     0.031 C 
ATOM     64  C   UNL A   1      44.434  32.012  29.108  1.00  0.00     0.034 A 
BRANCH  51  65
ATOM     65  C   UNL A   1      46.841  27.588  25.477  1.00  0.00     0.023 A 
ATOM     66  C   UNL A   1      47.084  28.006  24.158  1.00  0.00     0.031 A 
ATOM     67  C   UNL A   1      47.732  26.656  26.044  1.00  0.00     0.131 A 
ATOM     68  C   UNL A   1      48.141  27.440  23.427  1.00  0.00     0.055 A 
ATOM     69  C   UNL A   1      48.831  26.160  25.339  1.00  0.00     0.041 A 
ATOM     70  F   UNL A   1      47.543  26.200  27.292  1.00  0.00    -0.206 F 
ATOM     71  C   UNL A   1      49.033  26.540  24.016  1.00  0.00     0.022 A 
BRANCH  68  72
ATOM     72  S   UNL A   1      48.251  27.785  21.648  1.00  0.00     0.124 S 
ATOM     73  O   UNL A   1      48.537  26.458  21.108  1.00  0.00    -0.237 OA
ATOM     74  O   UNL A   1      46.930  28.326  21.350  1.00  0.00    -0.237 OA
ATOM     75  O   UNL A   1      49.353  28.740  21.551  1.00  0.00    -0.744 OA
ENDBRANCH  68  72
ENDBRANCH  51  65
BRANCH  52  76
ATOM     76  C   UNL A   1      38.855  30.398  30.859  1.00  0.00     0.023 A 
ATOM     77  C   UNL A   1      37.909  31.327  30.399  1.00  0.00     0.031 A 
ATOM     78  C   UNL A   1      38.691  29.879  32.157  1.00  0.00     0.131 A 
ATOM     79  C   UNL A   1      36.862  31.734  31.243  1.00  0.00     0.055 A 
ATOM     80  C   UNL A   1      37.612  30.237  32.967  1.00  0.00     0.041 A 
ATOM     81  F   UNL A   1      39.570  28.993  32.652  1.00  0.00    -0.206 F 
ATOM     82  C   UNL A   1      36.697  31.181  32.515  1.00  0.00     0.022 A 
BRANCH  79  83
ATOM     83  S   UNL A   1      35.767  33.067  30.685  1.00  0.00     0.124 S 
ATOM     84  O   UNL A   1      36.057  34.116  31.656  1.00  0.00    -0.237 OA
ATOM     85  O   UNL A   1      36.243  33.301  29.326  1.00  0.00    -0.237 OA
ATOM     86  O   UNL A   1      34.434  32.476  30.784  1.00  0.00    -0.744 OA
ENDBRANCH  79  83
ENDBRANCH  52  76
BRANCH  64  87
ATOM     87  C   UNL A   1      45.030  33.335  29.520  1.00  0.00     0.023 A 
ATOM     88  C   UNL A   1      44.881  34.491  28.735  1.00  0.00     0.031 A 
ATOM     89  C   UNL A   1      45.782  33.430  30.704  1.00  0.00     0.131 A 
ATOM     90  C   UNL A   1      45.529  35.677  29.110  1.00  0.00     0.055 A 
ATOM     91  C   UNL A   1      46.372  34.629  31.105  1.00  0.00     0.041 A 
ATOM     92  F   UNL A   1      45.960  32.355  31.490  1.00  0.00    -0.206 F 
ATOM     93  C   UNL A   1      46.259  35.758  30.298  1.00  0.00     0.022 A 
BRANCH  90  94
ATOM     94  S   UNL A   1      45.492  37.087  27.969  1.00  0.00     0.124 S 
ATOM     95  O   UNL A   1      45.444  38.219  28.889  1.00  0.00    -0.237 OA
ATOM     96  O   UNL A   1      46.737  36.920  27.226  1.00  0.00    -0.237 OA
ATOM     97  O   UNL A   1      44.273  36.868  27.193  1.00  0.00    -0.744 OA
ENDBRANCH  90  94
ENDBRANCH  64  87
ENDBRANCH  38  39
ENDBRANCH  31  33
ENDBRANCH  30  31
ENDBRANCH  29  30
ENDBRANCH   1  29
TORSDOF 18
ENDMDL
MODEL 2
REMARK VINA RESULT:     -12.3      1.490      2.322
REMARK SMILES Cn1nc(-c2cccs2)cc1C(=O)N1CC[C@@H](c2ccccc2C(=O)OCCOC(=O)c2ccc(-c3c4nc(c(-c5cc(S(=O)(=O)[O-])ccc5F)c5ccc([nH]5)c(-c5cc(S(=O)(=O)[O-])ccc5F)c5nc(c(-c6cc(S(=O)(=O)[O-])ccc6F)c6ccc3[nH]6)C=C5)C=C4)cc2)C1
REMARK SMILES IDX 27 1 26 2 24 3 25 4 23 5 18 6 19 7 20 8 22 9 21 10 17 11
REMARK SMILES IDX 14 12 15 13 95 14 16 15 12 16 13 17 11 18 1 19 2 20 3 21
REMARK SMILES IDX 4 22 10 23 5 24 6 25 9 26 7 27 8 28 28 29 29 30 30 31 31 32
REMARK SMILES IDX 32 33 33 34 94 35 34 36 93 37 35 38 36 39 37 40 87 41 38 42
REMARK SMILES IDX 92 43 86 44 88 45 39 46 91 47 85 48 84 49 40 51 72 52 52 53
REMARK SMILES IDX 71 54 53 55 56 56 70 57 89 58 54 59 55 60 69 62 90 63 57 64
REMARK SMILES IDX 41 65 42 66 50 67 43 68 49 69 51 70 48 71 44 72 45 73 46 74
REMARK SMILES IDX 47 75 73 76 74 77 82 78 75 79 81 80 83 81 80 82 76 83 77 84
REMARK SMILES IDX 78 85 79 86 58 87 59 88 67 89 60 90 66 91 68 92 65 93 61 94
REMARK SMILES IDX 62 95 63 96 64 97
REMARK H PARENT 88 50 56 61
REMARK Flexibility Score: inf
ROOT
ATOM      1  C   UNL A   1      36.218  20.982  24.631  1.00  0.00     0.275 C 
ENDROOT
BRANCH   1   2
ATOM      2  O   UNL A   1      35.146  20.147  25.130  1.00  0.00    -0.458 OA
BRANCH   2   3
ATOM      3  C   UNL A   1      34.078  20.809  25.644  1.00  0.00     0.338 C 
ATOM      4  O   UNL A   1      33.734  20.797  26.811  1.00  0.00    -0.246 OA
BRANCH   3   5
ATOM      5  C   UNL A   1      33.330  21.618  24.636  1.00  0.00     0.063 A 
ATOM      6  C   UNL A   1      33.407  23.018  24.520  1.00  0.00    -0.029 A 
ATOM      7  C   UNL A   1      32.931  23.606  23.326  1.00  0.00     0.005 A 
ATOM      8  C   UNL A   1      32.258  22.866  22.358  1.00  0.00     0.000 A 
ATOM      9  C   UNL A   1      32.660  20.885  23.638  1.00  0.00     0.016 A 
ATOM     10  C   UNL A   1      32.079  21.507  22.537  1.00  0.00     0.001 A 
BRANCH   6  11
ATOM     11  C   UNL A   1      33.849  23.915  25.658  1.00  0.00     0.041 C 
ATOM     12  N   UNL A   1      33.310  26.231  25.803  1.00  0.00    -0.337 N 
ATOM     13  C   UNL A   1      32.111  25.515  26.190  1.00  0.00     0.120 C 
ATOM     14  C   UNL A   1      34.312  25.324  25.267  1.00  0.00     0.128 C 
ATOM     15  C   UNL A   1      32.654  24.159  26.613  1.00  0.00     0.032 C 
BRANCH  12  16
ATOM     16  C   UNL A   1      33.507  27.589  25.715  1.00  0.00     0.272 C 
ATOM     17  O   UNL A   1      34.229  28.152  26.539  1.00  0.00    -0.267 OA
BRANCH  16  18
ATOM     18  C   UNL A   1      32.776  28.358  24.732  1.00  0.00     0.126 A 
ATOM     19  C   UNL A   1      33.833  27.714  22.493  1.00  0.00     0.174 C 
ATOM     20  N   UNL A   1      32.862  28.340  23.358  1.00  0.00    -0.262 N 
ATOM     21  N   UNL A   1      31.803  28.904  22.748  1.00  0.00    -0.172 NA
ATOM     22  C   UNL A   1      31.031  29.341  23.743  1.00  0.00     0.103 A 
ATOM     23  C   UNL A   1      31.630  29.097  24.993  1.00  0.00     0.065 A 
BRANCH  22  24
ATOM     24  C   UNL A   1      29.675  29.927  23.500  1.00  0.00     0.055 A 
ATOM     25  C   UNL A   1      29.274  31.182  23.906  1.00  0.00     0.022 A 
ATOM     26  S   UNL A   1      28.414  29.082  22.709  1.00  0.00    -0.142 S 
ATOM     27  C   UNL A   1      27.912  31.445  23.571  1.00  0.00     0.012 A 
ATOM     28  C   UNL A   1      27.314  30.366  22.958  1.00  0.00     0.065 A 
ENDBRANCH  22  24
ENDBRANCH  16  18
ENDBRANCH  12  16
ENDBRANCH   6  11
ENDBRANCH   3   5
ENDBRANCH   2   3
ENDBRANCH   1   2
BRANCH   1  29
ATOM     29  C   UNL A   1      37.588  20.393  24.961  1.00  0.00     0.275 C 
BRANCH  29  30
ATOM     30  O   UNL A   1      38.069  20.946  26.196  1.00  0.00    -0.458 OA
BRANCH  30  31
ATOM     31  C   UNL A   1      39.414  21.013  26.296  1.00  0.00     0.338 C 
ATOM     32  O   UNL A   1      40.228  20.176  25.927  1.00  0.00    -0.246 OA
BRANCH  31  33
ATOM     33  C   UNL A   1      39.807  22.318  26.836  1.00  0.00     0.060 A 
ATOM     34  C   UNL A   1      39.087  23.434  26.429  1.00  0.00     0.016 A 
ATOM     35  C   UNL A   1      40.977  22.470  27.570  1.00  0.00     0.016 A 
ATOM     36  C   UNL A   1      39.612  24.708  26.614  1.00  0.00     0.010 A 
ATOM     37  C   UNL A   1      41.424  23.759  27.884  1.00  0.00     0.010 A 
ATOM     38  C   UNL A   1      40.779  24.898  27.365  1.00  0.00    -0.014 A 
BRANCH  38  39
ATOM     39  C   UNL A   1      41.342  26.270  27.564  1.00  0.00     0.031 A 
ATOM     40  C   UNL A   1      42.683  26.632  26.966  1.00  0.00     0.074 A 
ATOM     41  C   UNL A   1      40.660  27.203  28.260  1.00  0.00     0.049 A 
ATOM     42  N   UNL A   1      43.448  27.666  27.206  1.00  0.00    -0.248 NA
ATOM     43  C   UNL A   1      43.244  25.692  25.984  1.00  0.00     0.031 C 
ATOM     44  C   UNL A   1      39.326  27.025  28.843  1.00  0.00     0.029 A 
ATOM     45  N   UNL A   1      40.987  28.496  28.595  1.00  0.00    -0.354 N 
ATOM     46  C   UNL A   1      44.610  27.466  26.464  1.00  0.00     0.074 A 
ATOM     47  C   UNL A   1      44.449  26.203  25.774  1.00  0.00     0.031 C 
ATOM     48  C   UNL A   1      38.930  28.173  29.408  1.00  0.00     0.029 A 
ATOM     49  C   UNL A   1      40.027  29.130  29.351  1.00  0.00     0.049 A 
ATOM     50  H   UNL A   1      41.828  28.927  28.320  1.00  0.00     0.167 HD
ATOM     51  C   UNL A   1      45.706  28.261  26.373  1.00  0.00     0.034 A 
ATOM     52  C   UNL A   1      40.040  30.318  29.988  1.00  0.00     0.034 A 
ATOM     53  C   UNL A   1      45.822  29.544  27.026  1.00  0.00     0.049 A 
ATOM     54  C   UNL A   1      41.289  31.156  29.922  1.00  0.00     0.074 A 
ATOM     55  C   UNL A   1      46.877  30.439  26.992  1.00  0.00     0.029 A 
ATOM     56  N   UNL A   1      44.842  30.123  27.824  1.00  0.00    -0.354 N 
ATOM     57  N   UNL A   1      42.412  30.915  29.288  1.00  0.00    -0.248 NA
ATOM     58  C   UNL A   1      41.276  32.418  30.672  1.00  0.00     0.031 C 
ATOM     59  C   UNL A   1      46.565  31.524  27.819  1.00  0.00     0.029 A 
ATOM     60  C   UNL A   1      45.280  31.348  28.306  1.00  0.00     0.049 A 
ATOM     61  H   UNL A   1      43.965  29.723  28.019  1.00  0.00     0.167 HD
ATOM     62  C   UNL A   1      43.234  32.007  29.549  1.00  0.00     0.074 A 
ATOM     63  C   UNL A   1      42.467  32.916  30.377  1.00  0.00     0.031 C 
ATOM     64  C   UNL A   1      44.509  32.238  29.142  1.00  0.00     0.034 A 
BRANCH  51  65
ATOM     65  C   UNL A   1      46.892  27.735  25.594  1.00  0.00     0.023 A 
ATOM     66  C   UNL A   1      47.139  28.100  24.260  1.00  0.00     0.031 A 
ATOM     67  C   UNL A   1      47.782  26.829  26.200  1.00  0.00     0.131 A 
ATOM     68  C   UNL A   1      48.200  27.507  23.556  1.00  0.00     0.055 A 
ATOM     69  C   UNL A   1      48.885  26.307  25.520  1.00  0.00     0.041 A 
ATOM     70  F   UNL A   1      47.590  26.423  27.465  1.00  0.00    -0.206 F 
ATOM     71  C   UNL A   1      49.091  26.633  24.184  1.00  0.00     0.022 A 
BRANCH  68  72
ATOM     72  S   UNL A   1      48.315  27.780  21.765  1.00  0.00     0.124 S 
ATOM     73  O   UNL A   1      49.367  28.791  21.688  1.00  0.00    -0.237 OA
ATOM     74  O   UNL A   1      48.664  26.455  21.265  1.00  0.00    -0.237 OA
ATOM     75  O   UNL A   1      46.980  28.252  21.403  1.00  0.00    -0.744 OA
ENDBRANCH  68  72
ENDBRANCH  51  65
BRANCH  52  76
ATOM     76  C   UNL A   1      38.872  30.747  30.813  1.00  0.00     0.023 A 
ATOM     77  C   UNL A   1      37.739  31.324  30.218  1.00  0.00     0.031 A 
ATOM     78  C   UNL A   1      38.884  30.616  32.214  1.00  0.00     0.131 A 
ATOM     79  C   UNL A   1      36.682  31.779  31.023  1.00  0.00     0.055 A 
ATOM     80  C   UNL A   1      37.803  31.009  33.004  1.00  0.00     0.041 A 
ATOM     81  F   UNL A   1      39.944  30.078  32.838  1.00  0.00    -0.206 F 
ATOM     82  C   UNL A   1      36.698  31.607  32.409  1.00  0.00     0.022 A 
BRANCH  79  83
ATOM     83  S   UNL A   1      35.320  32.682  30.238  1.00  0.00     0.124 S 
ATOM     84  O   UNL A   1      34.897  31.742  29.205  1.00  0.00    -0.237 OA
ATOM     85  O   UNL A   1      34.397  32.869  31.353  1.00  0.00    -0.237 OA
ATOM     86  O   UNL A   1      35.958  33.902  29.749  1.00  0.00    -0.744 OA
ENDBRANCH  79  83
ENDBRANCH  52  76
BRANCH  64  87
ATOM     87  C   UNL A   1      45.123  33.553  29.552  1.00  0.00     0.023 A 
ATOM     88  C   UNL A   1      45.045  34.694  28.734  1.00  0.00     0.031 A 
ATOM     89  C   UNL A   1      45.820  33.657  30.768  1.00  0.00     0.131 A 
ATOM     90  C   UNL A   1      45.709  35.871  29.113  1.00  0.00     0.055 A 
ATOM     91  C   UNL A   1      46.426  34.848  31.170  1.00  0.00     0.041 A 
ATOM     92  F   UNL A   1      45.929  32.597  31.587  1.00  0.00    -0.206 F 
ATOM     93  C   UNL A   1      46.384  35.960  30.332  1.00  0.00     0.022 A 
BRANCH  90  94
ATOM     94  S   UNL A   1      45.769  37.252  27.939  1.00  0.00     0.124 S 
ATOM     95  O   UNL A   1      44.573  38.008  28.301  1.00  0.00    -0.237 OA
ATOM     96  O   UNL A   1      47.044  37.883  28.263  1.00  0.00    -0.237 OA
ATOM     97  O   UNL A   1      45.716  36.596  26.634  1.00  0.00    -0.744 OA
ENDBRANCH  90  94
ENDBRANCH  64  87
ENDBRANCH  38  39
ENDBRANCH  31  33
ENDBRANCH  30  31
ENDBRANCH  29  30
ENDBRANCH   1  29
TORSDOF 18
ENDMDL
MODEL 3
REMARK VINA RESULT:     -12.2      4.986      8.257
REMARK SMILES Cn1nc(-c2cccs2)cc1C(=O)N1CC[C@@H](c2ccccc2C(=O)OCCOC(=O)c2ccc(-c3c4nc(c(-c5cc(S(=O)(=O)[O-])ccc5F)c5ccc([nH]5)c(-c5cc(S(=O)(=O)[O-])ccc5F)c5nc(c(-c6cc(S(=O)(=O)[O-])ccc6F)c6ccc3[nH]6)C=C5)C=C4)cc2)C1
REMARK SMILES IDX 27 1 26 2 24 3 25 4 23 5 18 6 19 7 20 8 22 9 21 10 17 11
REMARK SMILES IDX 14 12 15 13 95 14 16 15 12 16 13 17 11 18 1 19 2 20 3 21
REMARK SMILES IDX 4 22 10 23 5 24 6 25 9 26 7 27 8 28 28 29 29 30 30 31 31 32
REMARK SMILES IDX 32 33 33 34 94 35 34 36 93 37 35 38 36 39 37 40 87 41 38 42
REMARK SMILES IDX 92 43 86 44 88 45 39 46 91 47 85 48 84 49 40 51 72 52 52 53
REMARK SMILES IDX 71 54 53 55 56 56 70 57 89 58 54 59 55 60 69 62 90 63 57 64
REMARK SMILES IDX 41 65 42 66 50 67 43 68 49 69 51 70 48 71 44 72 45 73 46 74
REMARK SMILES IDX 47 75 73 76 74 77 82 78 75 79 81 80 83 81 80 82 76 83 77 84
REMARK SMILES IDX 78 85 79 86 58 87 59 88 67 89 60 90 66 91 68 92 65 93 61 94
REMARK SMILES IDX 62 95 63 96 64 97
REMARK H PARENT 88 50 56 61
REMARK Flexibility Score: inf
ROOT
ATOM      1  C   UNL A   1      31.149  30.358  24.787  1.00  0.00     0.275 C 
ENDROOT
BRANCH   1   2
ATOM      2  O   UNL A   1      30.120  29.504  24.233  1.00  0.00    -0.458 OA
BRANCH   2   3
ATOM      3  C   UNL A   1      30.387  28.985  23.007  1.00  0.00     0.338 C 
ATOM      4  O   UNL A   1      29.751  29.205  21.993  1.00  0.00    -0.246 OA
BRANCH   3   5
ATOM      5  C   UNL A   1      31.590  28.102  22.977  1.00  0.00     0.063 A 
ATOM      6  C   UNL A   1      31.585  26.735  23.311  1.00  0.00    -0.029 A 
ATOM      7  C   UNL A   1      32.695  25.956  22.910  1.00  0.00     0.005 A 
ATOM      8  C   UNL A   1      33.834  26.530  22.351  1.00  0.00     0.000 A 
ATOM      9  C   UNL A   1      32.745  28.660  22.396  1.00  0.00     0.016 A 
ATOM     10  C   UNL A   1      33.878  27.894  22.137  1.00  0.00     0.001 A 
BRANCH   6  11
ATOM     11  C   UNL A   1      30.520  26.104  24.185  1.00  0.00     0.041 C 
ATOM     12  N   UNL A   1      30.897  24.201  25.566  1.00  0.00    -0.337 N 
ATOM     13  C   UNL A   1      31.488  25.327  26.262  1.00  0.00     0.120 C 
ATOM     14  C   UNL A   1      30.495  24.571  24.219  1.00  0.00     0.128 C 
ATOM     15  C   UNL A   1      30.756  26.514  25.659  1.00  0.00     0.032 C 
BRANCH  12  16
ATOM     16  C   UNL A   1      30.860  22.881  25.948  1.00  0.00     0.272 C 
ATOM     17  O   UNL A   1      29.910  22.469  26.616  1.00  0.00    -0.267 OA
BRANCH  16  18
ATOM     18  C   UNL A   1      31.986  22.020  25.662  1.00  0.00     0.126 A 
ATOM     19  C   UNL A   1      33.585  22.375  27.628  1.00  0.00     0.174 C 
ATOM     20  N   UNL A   1      33.100  21.744  26.423  1.00  0.00    -0.262 N 
ATOM     21  N   UNL A   1      33.760  20.640  26.026  1.00  0.00    -0.172 NA
ATOM     22  C   UNL A   1      33.092  20.211  24.956  1.00  0.00     0.103 A 
ATOM     23  C   UNL A   1      32.029  21.078  24.642  1.00  0.00     0.065 A 
BRANCH  22  24
ATOM     24  C   UNL A   1      33.424  18.920  24.275  1.00  0.00     0.055 A 
ATOM     25  C   UNL A   1      32.691  18.357  23.252  1.00  0.00     0.022 A 
ATOM     26  S   UNL A   1      34.756  17.940  24.716  1.00  0.00    -0.142 S 
ATOM     27  C   UNL A   1      33.228  17.102  22.834  1.00  0.00     0.012 A 
ATOM     28  C   UNL A   1      34.325  16.737  23.582  1.00  0.00     0.065 A 
ENDBRANCH  22  24
ENDBRANCH  16  18
ENDBRANCH  12  16
ENDBRANCH   6  11
ENDBRANCH   3   5
ENDBRANCH   2   3
ENDBRANCH   1   2
BRANCH   1  29
ATOM     29  C   UNL A   1      31.371  30.079  26.272  1.00  0.00     0.275 C 
BRANCH  29  30
ATOM     30  O   UNL A   1      32.778  30.063  26.557  1.00  0.00    -0.458 OA
BRANCH  30  31
ATOM     31  C   UNL A   1      33.255  31.206  27.095  1.00  0.00     0.338 C 
ATOM     32  O   UNL A   1      32.643  32.249  27.286  1.00  0.00    -0.246 OA
BRANCH  31  33
ATOM     33  C   UNL A   1      34.639  31.006  27.537  1.00  0.00     0.060 A 
ATOM     34  C   UNL A   1      35.077  29.703  27.734  1.00  0.00     0.016 A 
ATOM     35  C   UNL A   1      35.428  32.079  27.937  1.00  0.00     0.016 A 
ATOM     36  C   UNL A   1      36.229  29.459  28.474  1.00  0.00     0.010 A 
ATOM     37  C   UNL A   1      36.662  31.828  28.549  1.00  0.00     0.010 A 
ATOM     38  C   UNL A   1      37.057  30.515  28.877  1.00  0.00    -0.014 A 
BRANCH  38  39
ATOM     39  C   UNL A   1      38.297  30.252  29.672  1.00  0.00     0.031 A 
ATOM     40  C   UNL A   1      39.398  29.391  29.096  1.00  0.00     0.074 A 
ATOM     41  C   UNL A   1      38.458  30.788  30.900  1.00  0.00     0.049 A 
ATOM     42  N   UNL A   1      40.432  28.854  29.692  1.00  0.00    -0.248 NA
ATOM     43  C   UNL A   1      39.307  29.074  27.662  1.00  0.00     0.031 C 
ATOM     44  C   UNL A   1      37.513  31.692  31.564  1.00  0.00     0.029 A 
ATOM     45  N   UNL A   1      39.478  30.662  31.812  1.00  0.00    -0.354 N 
ATOM     46  C   UNL A   1      41.073  28.080  28.727  1.00  0.00     0.074 A 
ATOM     47  C   UNL A   1      40.301  28.211  27.510  1.00  0.00     0.031 C 
ATOM     48  C   UNL A   1      38.021  32.079  32.742  1.00  0.00     0.029 A 
ATOM     49  C   UNL A   1      39.260  31.351  32.984  1.00  0.00     0.049 A 
ATOM     50  H   UNL A   1      40.288  30.128  31.644  1.00  0.00     0.167 HD
ATOM     51  C   UNL A   1      42.197  27.330  28.852  1.00  0.00     0.034 A 
ATOM     52  C   UNL A   1      39.935  31.355  34.151  1.00  0.00     0.034 A 
ATOM     53  C   UNL A   1      42.983  27.259  30.061  1.00  0.00     0.049 A 
ATOM     54  C   UNL A   1      41.145  30.471  34.285  1.00  0.00     0.074 A 
ATOM     55  C   UNL A   1      44.146  26.545  30.296  1.00  0.00     0.029 A 
ATOM     56  N   UNL A   1      42.695  27.937  31.240  1.00  0.00    -0.354 N 
ATOM     57  N   UNL A   1      41.691  29.677  33.393  1.00  0.00    -0.248 NA
ATOM     58  C   UNL A   1      41.819  30.470  35.589  1.00  0.00     0.031 C 
ATOM     59  C   UNL A   1      44.522  26.737  31.630  1.00  0.00     0.029 A 
ATOM     60  C   UNL A   1      43.642  27.636  32.209  1.00  0.00     0.049 A 
ATOM     61  H   UNL A   1      41.930  28.542  31.369  1.00  0.00     0.167 HD
ATOM     62  C   UNL A   1      42.785  29.096  34.025  1.00  0.00     0.074 A 
ATOM     63  C   UNL A   1      42.834  29.649  35.364  1.00  0.00     0.031 C 
ATOM     64  C   UNL A   1      43.671  28.186  33.544  1.00  0.00     0.034 A 
BRANCH  51  65
ATOM     65  C   UNL A   1      42.605  26.475  27.671  1.00  0.00     0.023 A 
ATOM     66  C   UNL A   1      42.103  25.178  27.470  1.00  0.00     0.031 A 
ATOM     67  C   UNL A   1      43.538  26.968  26.739  1.00  0.00     0.131 A 
ATOM     68  C   UNL A   1      42.590  24.394  26.411  1.00  0.00     0.055 A 
ATOM     69  C   UNL A   1      43.955  26.214  25.640  1.00  0.00     0.041 A 
ATOM     70  F   UNL A   1      44.071  28.191  26.886  1.00  0.00    -0.206 F 
ATOM     71  C   UNL A   1      43.492  24.912  25.479  1.00  0.00     0.022 A 
BRANCH  68  72
ATOM     72  S   UNL A   1      42.139  22.637  26.352  1.00  0.00     0.124 S 
ATOM     73  O   UNL A   1      40.681  22.706  26.402  1.00  0.00    -0.237 OA
ATOM     74  O   UNL A   1      42.715  22.207  25.083  1.00  0.00    -0.237 OA
ATOM     75  O   UNL A   1      42.771  22.079  27.545  1.00  0.00    -0.744 OA
ENDBRANCH  68  72
ENDBRANCH  51  65
BRANCH  52  76
ATOM     76  C   UNL A   1      39.437  32.155  35.309  1.00  0.00     0.023 A 
ATOM     77  C   UNL A   1      39.857  33.480  35.508  1.00  0.00     0.031 A 
ATOM     78  C   UNL A   1      38.558  31.595  36.255  1.00  0.00     0.131 A 
ATOM     79  C   UNL A   1      39.425  34.186  36.643  1.00  0.00     0.055 A 
ATOM     80  C   UNL A   1      38.080  32.323  37.345  1.00  0.00     0.041 A 
ATOM     81  F   UNL A   1      38.130  30.330  36.119  1.00  0.00    -0.206 F 
ATOM     82  C   UNL A   1      38.525  33.624  37.550  1.00  0.00     0.022 A 
BRANCH  79  83
ATOM     83  S   UNL A   1      40.130  35.826  36.963  1.00  0.00     0.124 S 
ATOM     84  O   UNL A   1      39.677  36.576  35.797  1.00  0.00    -0.237 OA
ATOM     85  O   UNL A   1      39.508  36.180  38.235  1.00  0.00    -0.237 OA
ATOM     86  O   UNL A   1      41.568  35.572  37.024  1.00  0.00    -0.744 OA
ENDBRANCH  79  83
ENDBRANCH  52  76
BRANCH  64  87
ATOM     87  C   UNL A   1      44.793  27.779  34.465  1.00  0.00     0.023 A 
ATOM     88  C   UNL A   1      44.648  26.733  35.393  1.00  0.00     0.031 A 
ATOM     89  C   UNL A   1      46.018  28.470  34.432  1.00  0.00     0.131 A 
ATOM     90  C   UNL A   1      45.686  26.449  36.293  1.00  0.00     0.055 A 
ATOM     91  C   UNL A   1      47.070  28.141  35.288  1.00  0.00     0.041 A 
ATOM     92  F   UNL A   1      46.210  29.481  33.568  1.00  0.00    -0.206 F 
ATOM     93  C   UNL A   1      46.901  27.135  36.235  1.00  0.00     0.022 A 
BRANCH  90  94
ATOM     94  S   UNL A   1      45.387  25.241  37.613  1.00  0.00     0.124 S 
ATOM     95  O   UNL A   1      44.033  25.583  38.035  1.00  0.00    -0.237 OA
ATOM     96  O   UNL A   1      45.535  23.970  36.912  1.00  0.00    -0.237 OA
ATOM     97  O   UNL A   1      46.434  25.535  38.590  1.00  0.00    -0.744 OA
ENDBRANCH  90  94
ENDBRANCH  64  87
ENDBRANCH  38  39
ENDBRANCH  31  33
ENDBRANCH  30  31
ENDBRANCH  29  30
ENDBRANCH   1  29
TORSDOF 18
ENDMDL
