MODEL 1
REMARK VINA RESULT:     -10.4      0.000      0.000
REMARK SMILES CCC[NH2+][C@]1(C(=O)OCCOC(=O)c2ccc(-c3c4nc(c(-c5cc(S(=O)(=O)[O-])ccc5F)c5ccc([nH]5)c(-c5cc(S(=O)(=O)[O-])ccc5F)c5nc(c(-c6cc(S(=O)(=O)[O-])ccc6F)c6ccc3[nH]6)C=C5)C=C4)cc2)CCC[C@H](OC(C)(C)C)C1
REMARK SMILES IDX 9 1 8 2 6 3 7 4 5 5 77 6 86 7 78 8 80 9 79 10 4 11 3 14 2 15
REMARK SMILES IDX 1 16 81 17 82 18 83 19 84 20 85 21 10 22 11 23 12 24 13 25
REMARK SMILES IDX 14 26 15 27 76 28 16 29 75 30 17 31 18 32 19 33 69 34 20 35
REMARK SMILES IDX 74 36 68 37 70 38 21 39 73 40 67 41 66 42 22 44 54 45 34 46
REMARK SMILES IDX 53 47 35 48 38 49 52 50 71 51 36 52 37 53 51 55 72 56 39 57
REMARK SMILES IDX 23 58 24 59 32 60 25 61 31 62 33 63 30 64 26 65 27 66 28 67
REMARK SMILES IDX 29 68 55 69 56 70 64 71 57 72 63 73 65 74 62 75 58 76 59 77
REMARK SMILES IDX 60 78 61 79 40 80 41 81 49 82 42 83 48 84 50 85 47 86 43 87
REMARK SMILES IDX 44 88 45 89 46 90
REMARK H PARENT 4 12 4 13 70 43 38 54
REMARK Flexibility Score: inf
ROOT
ATOM      1  C   UNL A   1      35.574  20.530  25.001  1.00  0.00     0.274 C 
ENDROOT
BRANCH   1   2
ATOM      2  O   UNL A   1      34.833  21.727  24.694  1.00  0.00    -0.457 OA
BRANCH   2   3
ATOM      3  C   UNL A   1      33.506  21.576  24.412  1.00  0.00     0.368 C 
ATOM      4  O   UNL A   1      32.995  20.486  24.164  1.00  0.00    -0.245 OA
BRANCH   3   5
ATOM      5  C   UNL A   1      32.702  22.936  24.365  1.00  0.00     0.196 C 
ATOM      6  C   UNL A   1      31.424  22.683  25.206  1.00  0.00     0.081 C 
ATOM      7  C   UNL A   1      33.607  23.986  25.079  1.00  0.00     0.113 C 
ATOM      8  C   UNL A   1      30.728  23.954  25.676  1.00  0.00     0.010 C 
ATOM      9  C   UNL A   1      32.951  25.206  25.754  1.00  0.00     0.125 C 
ATOM     10  C   UNL A   1      31.673  24.822  26.502  1.00  0.00     0.032 C 
BRANCH   5  11
ATOM     11  N   UNL A   1      32.317  23.211  22.951  1.00  0.00    -0.332 N 
ATOM     12  H   UNL A   1      32.086  22.315  22.520  1.00  0.00     0.347 HD
ATOM     13  H   UNL A   1      31.553  23.883  23.024  1.00  0.00     0.347 HD
BRANCH  11  14
ATOM     14  C   UNL A   1      33.284  23.864  22.089  1.00  0.00     0.261 C 
BRANCH  14  15
ATOM     15  C   UNL A   1      32.783  25.195  21.523  1.00  0.00     0.058 C 
ATOM     16  C   UNL A   1      31.422  25.593  22.074  1.00  0.00     0.010 C 
ENDBRANCH  14  15
ENDBRANCH  11  14
ENDBRANCH   5  11
BRANCH   9  17
ATOM     17  O   UNL A   1      32.632  26.224  24.809  1.00  0.00    -0.372 OA
BRANCH  17  18
ATOM     18  C   UNL A   1      32.948  27.591  25.120  1.00  0.00     0.060 C 
ATOM     19  C   UNL A   1      33.678  28.242  23.941  1.00  0.00     0.042 C 
ATOM     20  C   UNL A   1      31.732  28.424  25.541  1.00  0.00     0.042 C 
ATOM     21  C   UNL A   1      33.918  27.512  26.311  1.00  0.00     0.042 C 
ENDBRANCH  17  18
ENDBRANCH   9  17
ENDBRANCH   3   5
ENDBRANCH   2   3
ENDBRANCH   1   2
BRANCH   1  22
ATOM     22  C   UNL A   1      37.086  20.700  24.822  1.00  0.00     0.275 C 
BRANCH  22  23
ATOM     23  O   UNL A   1      37.634  21.633  25.770  1.00  0.00    -0.458 OA
BRANCH  23  24
ATOM     24  C   UNL A   1      38.938  21.438  26.067  1.00  0.00     0.338 C 
ATOM     25  O   UNL A   1      39.597  20.433  25.829  1.00  0.00    -0.246 OA
BRANCH  24  26
ATOM     26  C   UNL A   1      39.538  22.674  26.606  1.00  0.00     0.060 A 
ATOM     27  C   UNL A   1      39.037  23.879  26.111  1.00  0.00     0.016 A 
ATOM     28  C   UNL A   1      40.594  22.678  27.520  1.00  0.00     0.016 A 
ATOM     29  C   UNL A   1      39.560  25.094  26.534  1.00  0.00     0.010 A 
ATOM     30  C   UNL A   1      41.145  23.903  27.926  1.00  0.00     0.010 A 
ATOM     31  C   UNL A   1      40.634  25.115  27.427  1.00  0.00    -0.014 A 
BRANCH  31  32
ATOM     32  C   UNL A   1      41.285  26.415  27.714  1.00  0.00     0.031 A 
ATOM     33  C   UNL A   1      42.641  26.694  27.129  1.00  0.00     0.074 A 
ATOM     34  C   UNL A   1      40.634  27.367  28.407  1.00  0.00     0.049 A 
ATOM     35  N   UNL A   1      43.404  27.748  27.263  1.00  0.00    -0.248 NA
ATOM     36  C   UNL A   1      43.207  25.642  26.272  1.00  0.00     0.031 C 
ATOM     37  C   UNL A   1      39.282  27.236  28.950  1.00  0.00     0.029 A 
ATOM     38  N   UNL A   1      41.018  28.635  28.763  1.00  0.00    -0.354 N 
ATOM     39  C   UNL A   1      44.547  27.484  26.517  1.00  0.00     0.074 A 
ATOM     40  C   UNL A   1      44.384  26.158  25.955  1.00  0.00     0.031 C 
ATOM     41  C   UNL A   1      38.950  28.381  29.572  1.00  0.00     0.029 A 
ATOM     42  C   UNL A   1      40.078  29.307  29.508  1.00  0.00     0.049 A 
ATOM     43  H   UNL A   1      41.884  29.027  28.508  1.00  0.00     0.167 HD
ATOM     44  C   UNL A   1      45.631  28.274  26.320  1.00  0.00     0.034 A 
ATOM     45  C   UNL A   1      40.135  30.519  30.095  1.00  0.00     0.034 A 
ATOM     46  C   UNL A   1      45.780  29.588  26.898  1.00  0.00     0.049 A 
ATOM     47  C   UNL A   1      41.386  31.349  29.930  1.00  0.00     0.074 A 
ATOM     48  C   UNL A   1      46.847  30.463  26.794  1.00  0.00     0.029 A 
ATOM     49  N   UNL A   1      44.831  30.217  27.695  1.00  0.00    -0.354 N 
ATOM     50  N   UNL A   1      42.481  31.070  29.261  1.00  0.00    -0.248 NA
ATOM     51  C   UNL A   1      41.403  32.658  30.596  1.00  0.00     0.031 C 
ATOM     52  C   UNL A   1      46.568  31.594  27.572  1.00  0.00     0.029 A 
ATOM     53  C   UNL A   1      45.295  31.458  28.104  1.00  0.00     0.049 A 
ATOM     54  H   UNL A   1      43.954  29.837  27.933  1.00  0.00     0.167 HD
ATOM     55  C   UNL A   1      43.307  32.182  29.406  1.00  0.00     0.074 A 
ATOM     56  C   UNL A   1      42.576  33.139  30.211  1.00  0.00     0.031 C 
ATOM     57  C   UNL A   1      44.555  32.396  28.916  1.00  0.00     0.034 A 
BRANCH  44  58
ATOM     58  C   UNL A   1      46.762  27.696  25.504  1.00  0.00     0.023 A 
ATOM     59  C   UNL A   1      47.012  28.110  24.183  1.00  0.00     0.031 A 
ATOM     60  C   UNL A   1      47.563  26.671  26.037  1.00  0.00     0.131 A 
ATOM     61  C   UNL A   1      47.987  27.451  23.418  1.00  0.00     0.055 A 
ATOM     62  C   UNL A   1      48.583  26.073  25.294  1.00  0.00     0.041 A 
ATOM     63  F   UNL A   1      47.354  26.217  27.283  1.00  0.00    -0.206 F 
ATOM     64  C   UNL A   1      48.789  26.451  23.972  1.00  0.00     0.022 A 
BRANCH  61  65
ATOM     65  S   UNL A   1      48.088  27.815  21.643  1.00  0.00     0.124 S 
ATOM     66  O   UNL A   1      46.776  28.404  21.387  1.00  0.00    -0.237 OA
ATOM     67  O   UNL A   1      49.223  28.727  21.572  1.00  0.00    -0.237 OA
ATOM     68  O   UNL A   1      48.303  26.503  21.036  1.00  0.00    -0.744 OA
ENDBRANCH  61  65
ENDBRANCH  44  58
BRANCH  45  69
ATOM     69  C   UNL A   1      39.006  31.007  30.937  1.00  0.00     0.023 A 
ATOM     70  C   UNL A   1      37.831  31.515  30.362  1.00  0.00     0.031 A 
ATOM     71  C   UNL A   1      39.114  31.025  32.340  1.00  0.00     0.131 A 
ATOM     72  C   UNL A   1      36.829  32.060  31.183  1.00  0.00     0.055 A 
ATOM     73  C   UNL A   1      38.096  31.520  33.154  1.00  0.00     0.041 A 
ATOM     74  F   UNL A   1      40.219  30.554  32.941  1.00  0.00    -0.206 F 
ATOM     75  C   UNL A   1      36.949  32.054  32.574  1.00  0.00     0.022 A 
BRANCH  72  76
ATOM     76  S   UNL A   1      35.397  32.854  30.401  1.00  0.00     0.124 S 
ATOM     77  O   UNL A   1      35.188  32.005  29.234  1.00  0.00    -0.237 OA
ATOM     78  O   UNL A   1      34.390  32.762  31.451  1.00  0.00    -0.237 OA
ATOM     79  O   UNL A   1      35.873  34.205  30.113  1.00  0.00    -0.744 OA
ENDBRANCH  72  76
ENDBRANCH  45  69
BRANCH  57  80
ATOM     80  C   UNL A   1      45.179  33.741  29.202  1.00  0.00     0.023 A 
ATOM     81  C   UNL A   1      44.999  34.840  28.343  1.00  0.00     0.031 A 
ATOM     82  C   UNL A   1      45.983  33.916  30.341  1.00  0.00     0.131 A 
ATOM     83  C   UNL A   1      45.665  36.047  28.605  1.00  0.00     0.055 A 
ATOM     84  C   UNL A   1      46.598  35.136  30.627  1.00  0.00     0.041 A 
ATOM     85  F   UNL A   1      46.190  32.900  31.194  1.00  0.00    -0.206 F 
ATOM     86  C   UNL A   1      46.451  36.206  29.749  1.00  0.00     0.022 A 
BRANCH  83  87
ATOM     87  S   UNL A   1      45.569  37.381  27.379  1.00  0.00     0.124 S 
ATOM     88  O   UNL A   1      44.204  37.239  26.882  1.00  0.00    -0.237 OA
ATOM     89  O   UNL A   1      45.833  38.567  28.187  1.00  0.00    -0.237 OA
ATOM     90  O   UNL A   1      46.616  37.039  26.419  1.00  0.00    -0.744 OA
ENDBRANCH  83  87
ENDBRANCH  57  80
ENDBRANCH  31  32
ENDBRANCH  24  26
ENDBRANCH  23  24
ENDBRANCH  22  23
ENDBRANCH   1  22
TORSDOF 19
ENDMDL
MODEL 2
REMARK VINA RESULT:     -10.3      4.775      7.187
REMARK SMILES CCC[NH2+][C@]1(C(=O)OCCOC(=O)c2ccc(-c3c4nc(c(-c5cc(S(=O)(=O)[O-])ccc5F)c5ccc([nH]5)c(-c5cc(S(=O)(=O)[O-])ccc5F)c5nc(c(-c6cc(S(=O)(=O)[O-])ccc6F)c6ccc3[nH]6)C=C5)C=C4)cc2)CCC[C@H](OC(C)(C)C)C1
REMARK SMILES IDX 9 1 8 2 6 3 7 4 5 5 77 6 86 7 78 8 80 9 79 10 4 11 3 14 2 15
REMARK SMILES IDX 1 16 81 17 82 18 83 19 84 20 85 21 10 22 11 23 12 24 13 25
REMARK SMILES IDX 14 26 15 27 76 28 16 29 75 30 17 31 18 32 19 33 69 34 20 35
REMARK SMILES IDX 74 36 68 37 70 38 21 39 73 40 67 41 66 42 22 44 54 45 34 46
REMARK SMILES IDX 53 47 35 48 38 49 52 50 71 51 36 52 37 53 51 55 72 56 39 57
REMARK SMILES IDX 23 58 24 59 32 60 25 61 31 62 33 63 30 64 26 65 27 66 28 67
REMARK SMILES IDX 29 68 55 69 56 70 64 71 57 72 63 73 65 74 62 75 58 76 59 77
REMARK SMILES IDX 60 78 61 79 40 80 41 81 49 82 42 83 48 84 50 85 47 86 43 87
REMARK SMILES IDX 44 88 45 89 46 90
REMARK H PARENT 4 12 4 13 70 43 38 54
REMARK Flexibility Score: inf
ROOT
ATOM      1  C   UNL A   1      31.441  29.322  25.183  1.00  0.00     0.274 C 
ENDROOT
BRANCH   1   2
ATOM      2  O   UNL A   1      32.290  28.157  25.176  1.00  0.00    -0.457 OA
BRANCH   2   3
ATOM      3  C   UNL A   1      31.970  27.155  26.045  1.00  0.00     0.368 C 
ATOM      4  O   UNL A   1      31.450  27.360  27.140  1.00  0.00    -0.245 OA
BRANCH   3   5
ATOM      5  C   UNL A   1      32.391  25.715  25.547  1.00  0.00     0.196 C 
ATOM      6  C   UNL A   1      31.712  25.548  24.163  1.00  0.00     0.081 C 
ATOM      7  C   UNL A   1      33.940  25.764  25.375  1.00  0.00     0.113 C 
ATOM      8  C   UNL A   1      32.324  24.452  23.299  1.00  0.00     0.010 C 
ATOM      9  C   UNL A   1      34.614  24.814  24.366  1.00  0.00     0.125 C 
ATOM     10  C   UNL A   1      33.811  24.702  23.068  1.00  0.00     0.032 C 
BRANCH   5  11
ATOM     11  N   UNL A   1      31.839  24.704  26.494  1.00  0.00    -0.332 N 
ATOM     12  H   UNL A   1      32.492  23.922  26.517  1.00  0.00     0.347 HD
ATOM     13  H   UNL A   1      31.723  25.216  27.369  1.00  0.00     0.347 HD
BRANCH  11  14
ATOM     14  C   UNL A   1      30.523  24.157  26.225  1.00  0.00     0.261 C 
BRANCH  14  15
ATOM     15  C   UNL A   1      30.508  22.627  26.172  1.00  0.00     0.058 C 
ATOM     16  C   UNL A   1      31.900  22.030  26.018  1.00  0.00     0.010 C 
ENDBRANCH  14  15
ENDBRANCH  11  14
ENDBRANCH   5  11
BRANCH   9  17
ATOM     17  O   UNL A   1      34.784  23.506  24.906  1.00  0.00    -0.372 OA
BRANCH  17  18
ATOM     18  C   UNL A   1      36.106  22.951  24.990  1.00  0.00     0.060 C 
ATOM     19  C   UNL A   1      36.994  23.842  25.865  1.00  0.00     0.042 C 
ATOM     20  C   UNL A   1      36.134  21.498  25.480  1.00  0.00     0.042 C 
ATOM     21  C   UNL A   1      36.645  22.989  23.551  1.00  0.00     0.042 C 
ENDBRANCH  17  18
ENDBRANCH   9  17
ENDBRANCH   3   5
ENDBRANCH   2   3
ENDBRANCH   1   2
BRANCH   1  22
ATOM     22  C   UNL A   1      31.835  30.341  26.256  1.00  0.00     0.275 C 
BRANCH  22  23
ATOM     23  O   UNL A   1      33.262  30.502  26.342  1.00  0.00    -0.458 OA
BRANCH  23  24
ATOM     24  C   UNL A   1      33.674  31.466  27.195  1.00  0.00     0.338 C 
ATOM     25  O   UNL A   1      33.021  32.434  27.570  1.00  0.00    -0.246 OA
BRANCH  24  26
ATOM     26  C   UNL A   1      34.998  31.134  27.754  1.00  0.00     0.060 A 
ATOM     27  C   UNL A   1      35.186  29.817  28.177  1.00  0.00     0.016 A 
ATOM     28  C   UNL A   1      36.017  32.075  27.923  1.00  0.00     0.016 A 
ATOM     29  C   UNL A   1      36.387  29.417  28.746  1.00  0.00     0.010 A 
ATOM     30  C   UNL A   1      37.221  31.681  28.527  1.00  0.00     0.010 A 
ATOM     31  C   UNL A   1      37.407  30.352  28.947  1.00  0.00    -0.014 A 
BRANCH  31  32
ATOM     32  C   UNL A   1      38.600  29.936  29.721  1.00  0.00     0.031 A 
ATOM     33  C   UNL A   1      39.556  28.951  29.111  1.00  0.00     0.074 A 
ATOM     34  C   UNL A   1      38.875  30.504  30.910  1.00  0.00     0.049 A 
ATOM     35  N   UNL A   1      40.647  28.432  29.610  1.00  0.00    -0.248 NA
ATOM     36  C   UNL A   1      39.236  28.495  27.749  1.00  0.00     0.031 C 
ATOM     37  C   UNL A   1      38.062  31.532  31.559  1.00  0.00     0.029 A 
ATOM     38  N   UNL A   1      39.919  30.304  31.776  1.00  0.00    -0.354 N 
ATOM     39  C   UNL A   1      41.143  27.578  28.630  1.00  0.00     0.074 A 
ATOM     40  C   UNL A   1      40.215  27.634  27.519  1.00  0.00     0.031 C 
ATOM     41  C   UNL A   1      38.640  31.873  32.724  1.00  0.00     0.029 A 
ATOM     42  C   UNL A   1      39.836  31.059  32.923  1.00  0.00     0.049 A 
ATOM     43  H   UNL A   1      40.659  29.680  31.594  1.00  0.00     0.167 HD
ATOM     44  C   UNL A   1      42.267  26.821  28.656  1.00  0.00     0.034 A 
ATOM     45  C   UNL A   1      40.622  31.068  34.019  1.00  0.00     0.034 A 
ATOM     46  C   UNL A   1      43.173  26.770  29.778  1.00  0.00     0.049 A 
ATOM     47  C   UNL A   1      41.824  30.155  34.060  1.00  0.00     0.074 A 
ATOM     48  C   UNL A   1      44.323  26.015  29.929  1.00  0.00     0.029 A 
ATOM     49  N   UNL A   1      43.030  27.508  30.948  1.00  0.00    -0.354 N 
ATOM     50  N   UNL A   1      42.258  29.316  33.146  1.00  0.00    -0.248 NA
ATOM     51  C   UNL A   1      42.643  30.195  35.278  1.00  0.00     0.031 C 
ATOM     52  C   UNL A   1      44.841  26.251  31.208  1.00  0.00     0.029 A 
ATOM     53  C   UNL A   1      44.057  27.209  31.831  1.00  0.00     0.049 A 
ATOM     54  H   UNL A   1      42.304  28.150  31.124  1.00  0.00     0.167 HD
ATOM     55  C   UNL A   1      43.415  28.749  33.672  1.00  0.00     0.074 A 
ATOM     56  C   UNL A   1      43.619  29.352  34.973  1.00  0.00     0.031 C 
ATOM     57  C   UNL A   1      44.239  27.816  33.129  1.00  0.00     0.034 A 
BRANCH  44  58
ATOM     58  C   UNL A   1      42.524  25.935  27.461  1.00  0.00     0.023 A 
ATOM     59  C   UNL A   1      42.016  24.625  27.385  1.00  0.00     0.031 A 
ATOM     60  C   UNL A   1      43.340  26.388  26.409  1.00  0.00     0.131 A 
ATOM     61  C   UNL A   1      42.391  23.792  26.320  1.00  0.00     0.055 A 
ATOM     62  C   UNL A   1      43.645  25.579  25.313  1.00  0.00     0.041 A 
ATOM     63  F   UNL A   1      43.873  27.619  26.440  1.00  0.00    -0.206 F 
ATOM     64  C   UNL A   1      43.182  24.267  25.272  1.00  0.00     0.022 A 
BRANCH  61  65
ATOM     65  S   UNL A   1      41.953  22.033  26.398  1.00  0.00     0.124 S 
ATOM     66  O   UNL A   1      42.722  21.487  25.282  1.00  0.00    -0.237 OA
ATOM     67  O   UNL A   1      42.405  21.655  27.731  1.00  0.00    -0.237 OA
ATOM     68  O   UNL A   1      40.504  22.031  26.206  1.00  0.00    -0.744 OA
ENDBRANCH  61  65
ENDBRANCH  44  58
BRANCH  45  69
ATOM     69  C   UNL A   1      40.278  31.924  35.189  1.00  0.00     0.023 A 
ATOM     70  C   UNL A   1      39.308  31.532  36.124  1.00  0.00     0.031 A 
ATOM     71  C   UNL A   1      40.881  33.185  35.355  1.00  0.00     0.131 A 
ATOM     72  C   UNL A   1      38.937  32.408  37.157  1.00  0.00     0.055 A 
ATOM     73  C   UNL A   1      40.545  34.032  36.412  1.00  0.00     0.041 A 
ATOM     74  F   UNL A   1      41.813  33.611  34.487  1.00  0.00    -0.206 F 
ATOM     75  C   UNL A   1      39.558  33.649  37.314  1.00  0.00     0.022 A 
BRANCH  72  76
ATOM     76  S   UNL A   1      37.567  31.937  38.249  1.00  0.00     0.124 S 
ATOM     77  O   UNL A   1      37.263  30.590  37.781  1.00  0.00    -0.237 OA
ATOM     78  O   UNL A   1      38.185  32.034  39.567  1.00  0.00    -0.237 OA
ATOM     79  O   UNL A   1      36.545  32.942  37.968  1.00  0.00    -0.744 OA
ENDBRANCH  72  76
ENDBRANCH  45  69
BRANCH  57  80
ATOM     80  C   UNL A   1      45.461  27.436  33.930  1.00  0.00     0.023 A 
ATOM     81  C   UNL A   1      46.684  28.114  33.784  1.00  0.00     0.031 A 
ATOM     82  C   UNL A   1      45.403  26.363  34.837  1.00  0.00     0.131 A 
ATOM     83  C   UNL A   1      47.815  27.673  34.489  1.00  0.00     0.055 A 
ATOM     84  C   UNL A   1      46.517  25.964  35.577  1.00  0.00     0.041 A 
ATOM     85  F   UNL A   1      44.261  25.679  35.015  1.00  0.00    -0.206 F 
ATOM     86  C   UNL A   1      47.735  26.612  35.394  1.00  0.00     0.022 A 
BRANCH  83  87
ATOM     87  S   UNL A   1      49.419  28.444  34.134  1.00  0.00     0.124 S 
ATOM     88  O   UNL A   1      50.320  27.682  34.993  1.00  0.00    -0.237 OA
ATOM     89  O   UNL A   1      49.562  28.217  32.699  1.00  0.00    -0.237 OA
ATOM     90  O   UNL A   1      49.222  29.838  34.523  1.00  0.00    -0.744 OA
ENDBRANCH  83  87
ENDBRANCH  57  80
ENDBRANCH  31  32
ENDBRANCH  24  26
ENDBRANCH  23  24
ENDBRANCH  22  23
ENDBRANCH   1  22
TORSDOF 19
ENDMDL
MODEL 3
REMARK VINA RESULT:     -10.2      1.943      2.343
REMARK SMILES CCC[NH2+][C@]1(C(=O)OCCOC(=O)c2ccc(-c3c4nc(c(-c5cc(S(=O)(=O)[O-])ccc5F)c5ccc([nH]5)c(-c5cc(S(=O)(=O)[O-])ccc5F)c5nc(c(-c6cc(S(=O)(=O)[O-])ccc6F)c6ccc3[nH]6)C=C5)C=C4)cc2)CCC[C@H](OC(C)(C)C)C1
REMARK SMILES IDX 9 1 8 2 6 3 7 4 5 5 77 6 86 7 78 8 80 9 79 10 4 11 3 14 2 15
REMARK SMILES IDX 1 16 81 17 82 18 83 19 84 20 85 21 10 22 11 23 12 24 13 25
REMARK SMILES IDX 14 26 15 27 76 28 16 29 75 30 17 31 18 32 19 33 69 34 20 35
REMARK SMILES IDX 74 36 68 37 70 38 21 39 73 40 67 41 66 42 22 44 54 45 34 46
REMARK SMILES IDX 53 47 35 48 38 49 52 50 71 51 36 52 37 53 51 55 72 56 39 57
REMARK SMILES IDX 23 58 24 59 32 60 25 61 31 62 33 63 30 64 26 65 27 66 28 67
REMARK SMILES IDX 29 68 55 69 56 70 64 71 57 72 63 73 65 74 62 75 58 76 59 77
REMARK SMILES IDX 60 78 61 79 40 80 41 81 49 82 42 83 48 84 50 85 47 86 43 87
REMARK SMILES IDX 44 88 45 89 46 90
REMARK H PARENT 4 12 4 13 70 43 38 54
REMARK Flexibility Score: inf
ROOT
ATOM      1  C   UNL A   1      35.977  22.204  25.149  1.00  0.00     0.274 C 
ENDROOT
BRANCH   1   2
ATOM      2  O   UNL A   1      35.474  23.385  25.804  1.00  0.00    -0.457 OA
BRANCH   2   3
ATOM      3  C   UNL A   1      34.237  23.295  26.374  1.00  0.00     0.368 C 
ATOM      4  O   UNL A   1      33.998  22.576  27.342  1.00  0.00    -0.245 OA
BRANCH   3   5
ATOM      5  C   UNL A   1      33.127  24.144  25.635  1.00  0.00     0.196 C 
ATOM      6  C   UNL A   1      31.904  24.132  26.587  1.00  0.00     0.081 C 
ATOM      7  C   UNL A   1      33.702  25.588  25.528  1.00  0.00     0.113 C 
ATOM      8  C   UNL A   1      30.890  25.236  26.310  1.00  0.00     0.010 C 
ATOM      9  C   UNL A   1      32.728  26.780  25.443  1.00  0.00     0.125 C 
ATOM     10  C   UNL A   1      31.542  26.613  26.395  1.00  0.00     0.032 C 
BRANCH   5  11
ATOM     11  N   UNL A   1      32.770  23.452  24.363  1.00  0.00    -0.332 N 
ATOM     12  H   UNL A   1      32.211  24.103  23.811  1.00  0.00     0.347 HD
ATOM     13  H   UNL A   1      33.668  23.183  23.962  1.00  0.00     0.347 HD
BRANCH  11  14
ATOM     14  C   UNL A   1      32.027  22.209  24.441  1.00  0.00     0.261 C 
BRANCH  14  15
ATOM     15  C   UNL A   1      32.603  21.107  23.547  1.00  0.00     0.058 C 
ATOM     16  C   UNL A   1      32.550  19.733  24.199  1.00  0.00     0.010 C 
ENDBRANCH  14  15
ENDBRANCH  11  14
ENDBRANCH   5  11
BRANCH   9  17
ATOM     17  O   UNL A   1      32.224  26.956  24.121  1.00  0.00    -0.372 OA
BRANCH  17  18
ATOM     18  C   UNL A   1      32.679  28.075  23.343  1.00  0.00     0.060 C 
ATOM     19  C   UNL A   1      33.352  29.107  24.253  1.00  0.00     0.042 C 
ATOM     20  C   UNL A   1      33.600  27.683  22.181  1.00  0.00     0.042 C 
ATOM     21  C   UNL A   1      31.400  28.698  22.760  1.00  0.00     0.042 C 
ENDBRANCH  17  18
ENDBRANCH   9  17
ENDBRANCH   3   5
ENDBRANCH   2   3
ENDBRANCH   1   2
BRANCH   1  22
ATOM     22  C   UNL A   1      37.094  21.513  25.937  1.00  0.00     0.275 C 
BRANCH  22  23
ATOM     23  O   UNL A   1      38.375  21.675  25.302  1.00  0.00    -0.458 OA
BRANCH  23  24
ATOM     24  C   UNL A   1      39.438  21.461  26.108  1.00  0.00     0.338 C 
ATOM     25  O   UNL A   1      40.052  20.409  26.239  1.00  0.00    -0.246 OA
BRANCH  24  26
ATOM     26  C   UNL A   1      39.880  22.724  26.731  1.00  0.00     0.060 A 
ATOM     27  C   UNL A   1      39.398  23.904  26.162  1.00  0.00     0.016 A 
ATOM     28  C   UNL A   1      40.780  22.779  27.797  1.00  0.00     0.016 A 
ATOM     29  C   UNL A   1      39.783  25.142  26.657  1.00  0.00     0.010 A 
ATOM     30  C   UNL A   1      41.196  24.029  28.280  1.00  0.00     0.010 A 
ATOM     31  C   UNL A   1      40.704  25.215  27.706  1.00  0.00    -0.014 A 
BRANCH  31  32
ATOM     32  C   UNL A   1      41.233  26.546  28.087  1.00  0.00     0.031 A 
ATOM     33  C   UNL A   1      42.648  26.897  27.727  1.00  0.00     0.074 A 
ATOM     34  C   UNL A   1      40.430  27.461  28.661  1.00  0.00     0.049 A 
ATOM     35  N   UNL A   1      43.324  27.988  27.976  1.00  0.00    -0.248 NA
ATOM     36  C   UNL A   1      43.398  25.878  26.977  1.00  0.00     0.031 C 
ATOM     37  C   UNL A   1      39.017  27.258  28.980  1.00  0.00     0.029 A 
ATOM     38  N   UNL A   1      40.685  28.745  29.068  1.00  0.00    -0.354 N 
ATOM     39  C   UNL A   1      44.585  27.786  27.425  1.00  0.00     0.074 A 
ATOM     40  C   UNL A   1      44.583  26.456  26.851  1.00  0.00     0.031 C 
ATOM     41  C   UNL A   1      38.530  28.382  29.534  1.00  0.00     0.029 A 
ATOM     42  C   UNL A   1      39.604  29.365  29.649  1.00  0.00     0.049 A 
ATOM     43  H   UNL A   1      41.560  29.183  28.953  1.00  0.00     0.167 HD
ATOM     44  C   UNL A   1      45.644  28.633  27.401  1.00  0.00     0.034 A 
ATOM     45  C   UNL A   1      39.503  30.578  30.231  1.00  0.00     0.034 A 
ATOM     46  C   UNL A   1      45.630  29.951  27.989  1.00  0.00     0.049 A 
ATOM     47  C   UNL A   1      40.719  31.472  30.265  1.00  0.00     0.074 A 
ATOM     48  C   UNL A   1      46.653  30.880  28.053  1.00  0.00     0.029 A 
ATOM     49  N   UNL A   1      44.533  30.527  28.619  1.00  0.00    -0.354 N 
ATOM     50  N   UNL A   1      41.922  31.252  29.782  1.00  0.00    -0.248 NA
ATOM     51  C   UNL A   1      40.562  32.778  30.918  1.00  0.00     0.031 C 
ATOM     52  C   UNL A   1      46.194  31.993  28.770  1.00  0.00     0.029 A 
ATOM     53  C   UNL A   1      44.861  31.789  29.091  1.00  0.00     0.049 A 
ATOM     54  H   UNL A   1      43.650  30.101  28.715  1.00  0.00     0.167 HD
ATOM     55  C   UNL A   1      42.654  32.405  30.052  1.00  0.00     0.074 A 
ATOM     56  C   UNL A   1      41.755  33.320  30.725  1.00  0.00     0.031 C 
ATOM     57  C   UNL A   1      43.952  32.685  29.769  1.00  0.00     0.034 A 
BRANCH  44  58
ATOM     58  C   UNL A   1      46.920  28.116  26.781  1.00  0.00     0.023 A 
ATOM     59  C   UNL A   1      47.163  28.209  25.398  1.00  0.00     0.031 A 
ATOM     60  C   UNL A   1      47.879  27.468  27.578  1.00  0.00     0.131 A 
ATOM     61  C   UNL A   1      48.300  27.596  24.848  1.00  0.00     0.055 A 
ATOM     62  C   UNL A   1      49.046  26.928  27.033  1.00  0.00     0.041 A 
ATOM     63  F   UNL A   1      47.688  27.327  28.899  1.00  0.00    -0.206 F 
ATOM     64  C   UNL A   1      49.253  26.977  25.658  1.00  0.00     0.022 A 
BRANCH  61  65
ATOM     65  S   UNL A   1      48.438  27.489  23.042  1.00  0.00     0.124 S 
ATOM     66  O   UNL A   1      47.263  28.241  22.610  1.00  0.00    -0.237 OA
ATOM     67  O   UNL A   1      49.728  28.117  22.786  1.00  0.00    -0.237 OA
ATOM     68  O   UNL A   1      48.380  26.052  22.778  1.00  0.00    -0.744 OA
ENDBRANCH  61  65
ENDBRANCH  44  58
BRANCH  45  69
ATOM     69  C   UNL A   1      38.230  31.003  30.877  1.00  0.00     0.023 A 
ATOM     70  C   UNL A   1      37.232  31.678  30.156  1.00  0.00     0.031 A 
ATOM     71  C   UNL A   1      38.018  30.790  32.252  1.00  0.00     0.131 A 
ATOM     72  C   UNL A   1      36.090  32.154  30.820  1.00  0.00     0.055 A 
ATOM     73  C   UNL A   1      36.858  31.219  32.897  1.00  0.00     0.041 A 
ATOM     74  F   UNL A   1      38.941  30.152  32.989  1.00  0.00    -0.206 F 
ATOM     75  C   UNL A   1      35.891  31.918  32.182  1.00  0.00     0.022 A 
BRANCH  72  76
ATOM     76  S   UNL A   1      34.900  33.162  29.893  1.00  0.00     0.124 S 
ATOM     77  O   UNL A   1      34.331  32.182  28.976  1.00  0.00    -0.237 OA
ATOM     78  O   UNL A   1      34.017  33.639  30.953  1.00  0.00    -0.237 OA
ATOM     79  O   UNL A   1      35.733  34.188  29.272  1.00  0.00    -0.744 OA
ENDBRANCH  72  76
ENDBRANCH  45  69
BRANCH  57  80
ATOM     80  C   UNL A   1      44.451  34.060  30.144  1.00  0.00     0.023 A 
ATOM     81  C   UNL A   1      44.942  34.345  31.430  1.00  0.00     0.031 A 
ATOM     82  C   UNL A   1      44.413  35.103  29.203  1.00  0.00     0.131 A 
ATOM     83  C   UNL A   1      45.317  35.657  31.759  1.00  0.00     0.055 A 
ATOM     84  C   UNL A   1      44.841  36.394  29.519  1.00  0.00     0.041 A 
ATOM     85  F   UNL A   1      43.953  34.887  27.960  1.00  0.00    -0.206 F 
ATOM     86  C   UNL A   1      45.283  36.679  30.807  1.00  0.00     0.022 A 
BRANCH  83  87
ATOM     87  S   UNL A   1      45.761  36.033  33.478  1.00  0.00     0.124 S 
ATOM     88  O   UNL A   1      47.195  36.280  33.376  1.00  0.00    -0.237 OA
ATOM     89  O   UNL A   1      44.932  37.199  33.766  1.00  0.00    -0.237 OA
ATOM     90  O   UNL A   1      45.391  34.817  34.200  1.00  0.00    -0.744 OA
ENDBRANCH  83  87
ENDBRANCH  57  80
ENDBRANCH  31  32
ENDBRANCH  24  26
ENDBRANCH  23  24
ENDBRANCH  22  23
ENDBRANCH   1  22
TORSDOF 19
ENDMDL
