MODEL 1
REMARK VINA RESULT:     -12.0      0.000      0.000
REMARK SMILES O=C(OCCOC(=O)[C@]1([NH2+]C2CC2)CCC[C@@H](n2cc(Br)cn2)C1)c1ccc(-c2c3nc(c(-c4cc(S(=O)(=O)[O-])ccc4F)c4ccc([nH]4)c(-c4cc(S(=O)(=O)[O-])ccc4F)c4nc(c(-c5cc(S(=O)(=O)[O-])ccc5F)c5ccc2[nH]5)C=C4)C=C3)cc1
REMARK SMILES IDX 4 1 3 2 2 3 1 4 25 5 26 6 87 7 27 8 86 9 28 10 29 11 30 12
REMARK SMILES IDX 80 13 31 14 85 15 79 16 81 17 32 18 84 19 78 20 77 21 33 23
REMARK SMILES IDX 65 24 45 25 64 26 46 27 49 28 63 29 82 30 47 31 48 32 62 34
REMARK SMILES IDX 83 35 50 36 34 37 35 38 43 39 36 40 42 41 44 42 41 43 37 44
REMARK SMILES IDX 38 45 39 46 40 47 66 48 67 49 75 50 68 51 74 52 76 53 73 54
REMARK SMILES IDX 69 55 70 56 71 57 72 58 51 59 52 60 60 61 53 62 59 63 61 64
REMARK SMILES IDX 58 65 54 66 55 67 56 68 57 69 5 70 6 71 7 72 8 73 9 74 14 75
REMARK SMILES IDX 24 76 15 77 17 78 16 79 10 80 11 83 12 84 13 85 18 86 19 87
REMARK SMILES IDX 23 88 20 89 22 90 21 91
REMARK H PARENT 81 22 49 33 10 81 10 82
REMARK Flexibility Score: inf
ROOT
ATOM      1  C   UNL A   1      32.857  30.612  26.800  1.00  0.00     0.275 C 
ENDROOT
BRANCH   1   2
ATOM      2  O   UNL A   1      33.596  31.425  27.743  1.00  0.00    -0.458 OA
BRANCH   2   3
ATOM      3  C   UNL A   1      34.875  31.871  27.767  1.00  0.00     0.338 C 
ATOM      4  O   UNL A   1      35.059  33.074  27.577  1.00  0.00    -0.246 OA
BRANCH   3   5
ATOM      5  C   UNL A   1      36.069  31.047  28.167  1.00  0.00     0.060 A 
ATOM      6  C   UNL A   1      36.196  29.665  28.053  1.00  0.00     0.016 A 
ATOM      7  C   UNL A   1      37.161  31.746  28.735  1.00  0.00     0.016 A 
ATOM      8  C   UNL A   1      37.371  29.014  28.452  1.00  0.00     0.010 A 
ATOM      9  C   UNL A   1      38.330  31.095  29.159  1.00  0.00     0.010 A 
ATOM     10  C   UNL A   1      38.440  29.717  29.012  1.00  0.00    -0.014 A 
BRANCH  10  11
ATOM     11  C   UNL A   1      39.643  28.945  29.360  1.00  0.00     0.031 A 
ATOM     12  C   UNL A   1      39.982  28.893  30.816  1.00  0.00     0.074 A 
ATOM     13  C   UNL A   1      40.431  28.321  28.453  1.00  0.00     0.049 A 
ATOM     14  N   UNL A   1      41.023  29.394  31.395  1.00  0.00    -0.248 NA
ATOM     15  C   UNL A   1      39.029  28.285  31.758  1.00  0.00     0.031 C 
ATOM     16  C   UNL A   1      40.129  28.085  27.040  1.00  0.00     0.029 A 
ATOM     17  N   UNL A   1      41.647  27.702  28.614  1.00  0.00    -0.354 N 
ATOM     18  C   UNL A   1      40.973  29.003  32.736  1.00  0.00     0.074 A 
ATOM     19  C   UNL A   1      39.671  28.418  32.924  1.00  0.00     0.031 C 
ATOM     20  C   UNL A   1      41.017  27.199  26.532  1.00  0.00     0.029 A 
ATOM     21  C   UNL A   1      42.030  26.908  27.536  1.00  0.00     0.049 A 
ATOM     22  H   UNL A   1      42.199  27.810  29.423  1.00  0.00     0.167 HD
ATOM     23  C   UNL A   1      42.092  29.040  33.518  1.00  0.00     0.034 A 
ATOM     24  C   UNL A   1      43.078  26.043  27.458  1.00  0.00     0.034 A 
ATOM     25  C   UNL A   1      43.150  29.786  32.889  1.00  0.00     0.049 A 
ATOM     26  C   UNL A   1      44.123  26.516  28.395  1.00  0.00     0.074 A 
ATOM     27  C   UNL A   1      43.724  31.034  32.938  1.00  0.00     0.029 A 
ATOM     28  N   UNL A   1      43.716  29.124  31.840  1.00  0.00    -0.354 N 
ATOM     29  N   UNL A   1      44.759  27.644  28.235  1.00  0.00    -0.248 NA
ATOM     30  C   UNL A   1      44.236  25.922  29.722  1.00  0.00     0.031 C 
ATOM     31  C   UNL A   1      44.569  31.130  31.789  1.00  0.00     0.029 A 
ATOM     32  C   UNL A   1      44.549  29.916  31.108  1.00  0.00     0.049 A 
ATOM     33  H   UNL A   1      43.542  28.177  31.633  1.00  0.00     0.167 HD
ATOM     34  C   UNL A   1      44.992  28.101  29.515  1.00  0.00     0.074 A 
ATOM     35  C   UNL A   1      44.804  26.938  30.378  1.00  0.00     0.031 C 
ATOM     36  C   UNL A   1      44.991  29.434  29.814  1.00  0.00     0.034 A 
BRANCH  23  37
ATOM     37  C   UNL A   1      42.462  28.064  34.625  1.00  0.00     0.023 A 
ATOM     38  C   UNL A   1      43.163  26.889  34.253  1.00  0.00     0.031 A 
ATOM     39  C   UNL A   1      41.866  28.039  35.902  1.00  0.00     0.131 A 
ATOM     40  C   UNL A   1      43.154  25.741  35.066  1.00  0.00     0.055 A 
ATOM     41  C   UNL A   1      41.903  26.911  36.731  1.00  0.00     0.041 A 
ATOM     42  F   UNL A   1      41.136  29.058  36.369  1.00  0.00    -0.206 F 
ATOM     43  C   UNL A   1      42.520  25.744  36.303  1.00  0.00     0.022 A 
BRANCH  40  44
ATOM     44  S   UNL A   1      43.843  24.193  34.411  1.00  0.00     0.124 S 
ATOM     45  O   UNL A   1      44.926  23.917  35.349  1.00  0.00    -0.237 OA
ATOM     46  O   UNL A   1      42.692  23.297  34.474  1.00  0.00    -0.237 OA
ATOM     47  O   UNL A   1      44.270  24.557  33.061  1.00  0.00    -0.744 OA
ENDBRANCH  40  44
ENDBRANCH  23  37
BRANCH  24  48
ATOM     48  C   UNL A   1      43.088  24.696  26.810  1.00  0.00     0.023 A 
ATOM     49  C   UNL A   1      44.023  24.304  25.823  1.00  0.00     0.031 A 
ATOM     50  C   UNL A   1      42.288  23.668  27.359  1.00  0.00     0.131 A 
ATOM     51  C   UNL A   1      44.122  22.943  25.433  1.00  0.00     0.055 A 
ATOM     52  C   UNL A   1      42.386  22.333  26.967  1.00  0.00     0.041 A 
ATOM     53  F   UNL A   1      41.433  23.914  28.364  1.00  0.00    -0.206 F 
ATOM     54  C   UNL A   1      43.312  21.961  26.009  1.00  0.00     0.022 A 
BRANCH  51  55
ATOM     55  S   UNL A   1      45.378  22.398  24.225  1.00  0.00     0.124 S 
ATOM     56  O   UNL A   1      44.564  21.785  23.182  1.00  0.00    -0.237 OA
ATOM     57  O   UNL A   1      46.046  23.647  23.879  1.00  0.00    -0.237 OA
ATOM     58  O   UNL A   1      46.203  21.459  24.988  1.00  0.00    -0.744 OA
ENDBRANCH  51  55
ENDBRANCH  24  48
BRANCH  36  59
ATOM     59  C   UNL A   1      45.312  30.425  28.727  1.00  0.00     0.023 A 
ATOM     60  C   UNL A   1      46.608  30.873  28.398  1.00  0.00     0.031 A 
ATOM     61  C   UNL A   1      44.237  30.930  27.972  1.00  0.00     0.131 A 
ATOM     62  C   UNL A   1      46.787  31.803  27.357  1.00  0.00     0.055 A 
ATOM     63  C   UNL A   1      44.420  31.821  26.918  1.00  0.00     0.041 A 
ATOM     64  F   UNL A   1      42.974  30.559  28.245  1.00  0.00    -0.206 F 
ATOM     65  C   UNL A   1      45.698  32.270  26.613  1.00  0.00     0.022 A 
BRANCH  62  66
ATOM     66  S   UNL A   1      48.436  32.481  26.989  1.00  0.00     0.124 S 
ATOM     67  O   UNL A   1      48.888  33.004  28.272  1.00  0.00    -0.237 OA
ATOM     68  O   UNL A   1      49.150  31.308  26.489  1.00  0.00    -0.237 OA
ATOM     69  O   UNL A   1      48.162  33.502  25.976  1.00  0.00    -0.744 OA
ENDBRANCH  62  66
ENDBRANCH  36  59
ENDBRANCH  10  11
ENDBRANCH   3   5
ENDBRANCH   2   3
ENDBRANCH   1   2
BRANCH   1  70
ATOM     70  C   UNL A   1      32.563  29.233  27.371  1.00  0.00     0.274 C 
BRANCH  70  71
ATOM     71  O   UNL A   1      32.094  28.440  26.275  1.00  0.00    -0.457 OA
BRANCH  71  72
ATOM     72  C   UNL A   1      32.752  27.287  25.977  1.00  0.00     0.368 C 
ATOM     73  O   UNL A   1      33.947  27.116  26.164  1.00  0.00    -0.245 OA
BRANCH  72  74
ATOM     74  C   UNL A   1      31.779  26.265  25.297  1.00  0.00     0.196 C 
ATOM     75  C   UNL A   1      32.552  25.491  24.205  1.00  0.00     0.081 C 
ATOM     76  C   UNL A   1      30.550  26.962  24.631  1.00  0.00     0.108 C 
ATOM     77  C   UNL A   1      32.877  26.337  22.969  1.00  0.00     0.009 C 
ATOM     78  C   UNL A   1      30.938  27.842  23.425  1.00  0.00     0.114 C 
ATOM     79  C   UNL A   1      31.636  26.988  22.366  1.00  0.00     0.028 C 
BRANCH  74  80
ATOM     80  N   UNL A   1      31.235  25.358  26.353  1.00  0.00    -0.330 N 
ATOM     81  H   UNL A   1      30.522  25.876  26.869  1.00  0.00     0.347 HD
ATOM     82  H   UNL A   1      32.042  25.077  26.909  1.00  0.00     0.347 HD
BRANCH  80  83
ATOM     83  C   UNL A   1      30.625  24.100  25.894  1.00  0.00     0.183 C 
ATOM     84  C   UNL A   1      31.314  22.784  26.130  1.00  0.00     0.071 C 
ATOM     85  C   UNL A   1      30.100  23.139  26.932  1.00  0.00     0.071 C 
ENDBRANCH  80  83
ENDBRANCH  74  80
BRANCH  78  86
ATOM     86  N   UNL A   1      29.828  28.640  22.923  1.00  0.00    -0.268 N 
ATOM     87  C   UNL A   1      29.950  29.743  22.121  1.00  0.00     0.124 A 
ATOM     88  N   UNL A   1      28.552  28.273  23.139  1.00  0.00    -0.180 NA
ATOM     89  C   UNL A   1      28.670  30.158  21.874  1.00  0.00     0.055 A 
ATOM     90  C   UNL A   1      27.844  29.220  22.504  1.00  0.00     0.150 A 
ATOM     91  Br  UNL A   1      28.116  31.646  20.898  1.00  0.00    -0.047 Br
ENDBRANCH  78  86
ENDBRANCH  72  74
ENDBRANCH  71  72
ENDBRANCH  70  71
ENDBRANCH   1  70
TORSDOF 17
ENDMDL
MODEL 2
REMARK VINA RESULT:     -11.8      2.061      3.327
REMARK SMILES O=C(OCCOC(=O)[C@]1([NH2+]C2CC2)CCC[C@@H](n2cc(Br)cn2)C1)c1ccc(-c2c3nc(c(-c4cc(S(=O)(=O)[O-])ccc4F)c4ccc([nH]4)c(-c4cc(S(=O)(=O)[O-])ccc4F)c4nc(c(-c5cc(S(=O)(=O)[O-])ccc5F)c5ccc2[nH]5)C=C4)C=C3)cc1
REMARK SMILES IDX 4 1 3 2 2 3 1 4 25 5 26 6 87 7 27 8 86 9 28 10 29 11 30 12
REMARK SMILES IDX 80 13 31 14 85 15 79 16 81 17 32 18 84 19 78 20 77 21 33 23
REMARK SMILES IDX 65 24 45 25 64 26 46 27 49 28 63 29 82 30 47 31 48 32 62 34
REMARK SMILES IDX 83 35 50 36 34 37 35 38 43 39 36 40 42 41 44 42 41 43 37 44
REMARK SMILES IDX 38 45 39 46 40 47 66 48 67 49 75 50 68 51 74 52 76 53 73 54
REMARK SMILES IDX 69 55 70 56 71 57 72 58 51 59 52 60 60 61 53 62 59 63 61 64
REMARK SMILES IDX 58 65 54 66 55 67 56 68 57 69 5 70 6 71 7 72 8 73 9 74 14 75
REMARK SMILES IDX 24 76 15 77 17 78 16 79 10 80 11 83 12 84 13 85 18 86 19 87
REMARK SMILES IDX 23 88 20 89 22 90 21 91
REMARK H PARENT 81 22 49 33 10 81 10 82
REMARK Flexibility Score: inf
ROOT
ATOM      1  C   UNL A   1      33.162  31.468  27.114  1.00  0.00     0.275 C 
ENDROOT
BRANCH   1   2
ATOM      2  O   UNL A   1      34.183  31.758  28.098  1.00  0.00    -0.458 OA
BRANCH   2   3
ATOM      3  C   UNL A   1      35.485  32.120  27.994  1.00  0.00     0.338 C 
ATOM      4  O   UNL A   1      35.723  33.292  27.698  1.00  0.00    -0.246 OA
BRANCH   3   5
ATOM      5  C   UNL A   1      36.656  31.252  28.367  1.00  0.00     0.060 A 
ATOM      6  C   UNL A   1      37.850  31.676  28.943  1.00  0.00     0.016 A 
ATOM      7  C   UNL A   1      36.537  29.870  28.081  1.00  0.00     0.016 A 
ATOM      8  C   UNL A   1      38.864  30.761  29.255  1.00  0.00     0.010 A 
ATOM      9  C   UNL A   1      37.561  28.954  28.369  1.00  0.00     0.010 A 
ATOM     10  C   UNL A   1      38.733  29.401  28.967  1.00  0.00    -0.014 A 
BRANCH  10  11
ATOM     11  C   UNL A   1      39.839  28.519  29.371  1.00  0.00     0.031 A 
ATOM     12  C   UNL A   1      40.148  28.495  30.835  1.00  0.00     0.074 A 
ATOM     13  C   UNL A   1      40.569  27.775  28.508  1.00  0.00     0.049 A 
ATOM     14  N   UNL A   1      41.229  28.906  31.413  1.00  0.00    -0.248 NA
ATOM     15  C   UNL A   1      39.120  28.036  31.782  1.00  0.00     0.031 C 
ATOM     16  C   UNL A   1      40.265  27.511  27.100  1.00  0.00     0.029 A 
ATOM     17  N   UNL A   1      41.708  27.036  28.719  1.00  0.00    -0.354 N 
ATOM     18  C   UNL A   1      41.115  28.582  32.768  1.00  0.00     0.074 A 
ATOM     19  C   UNL A   1      39.756  28.149  32.954  1.00  0.00     0.031 C 
ATOM     20  C   UNL A   1      41.060  26.513  26.648  1.00  0.00     0.029 A 
ATOM     21  C   UNL A   1      42.019  26.159  27.682  1.00  0.00     0.049 A 
ATOM     22  H   UNL A   1      42.256  27.120  29.533  1.00  0.00     0.167 HD
ATOM     23  C   UNL A   1      42.220  28.533  33.570  1.00  0.00     0.034 A 
ATOM     24  C   UNL A   1      42.968  25.183  27.662  1.00  0.00     0.034 A 
ATOM     25  C   UNL A   1      43.363  29.132  32.932  1.00  0.00     0.049 A 
ATOM     26  C   UNL A   1      44.044  25.581  28.599  1.00  0.00     0.074 A 
ATOM     27  C   UNL A   1      44.067  30.312  32.940  1.00  0.00     0.029 A 
ATOM     28  N   UNL A   1      43.869  28.367  31.923  1.00  0.00    -0.354 N 
ATOM     29  N   UNL A   1      44.800  26.626  28.405  1.00  0.00    -0.248 NA
ATOM     30  C   UNL A   1      44.072  25.038  29.953  1.00  0.00     0.031 C 
ATOM     31  C   UNL A   1      44.935  30.265  31.805  1.00  0.00     0.029 A 
ATOM     32  C   UNL A   1      44.795  29.032  31.176  1.00  0.00     0.049 A 
ATOM     33  H   UNL A   1      43.596  27.437  31.753  1.00  0.00     0.167 HD
ATOM     34  C   UNL A   1      45.062  27.111  29.669  1.00  0.00     0.074 A 
ATOM     35  C   UNL A   1      44.736  26.015  30.577  1.00  0.00     0.031 C 
ATOM     36  C   UNL A   1      45.201  28.448  29.911  1.00  0.00     0.034 A 
BRANCH  23  37
ATOM     37  C   UNL A   1      42.465  27.572  34.724  1.00  0.00     0.023 A 
ATOM     38  C   UNL A   1      43.234  26.411  34.456  1.00  0.00     0.031 A 
ATOM     39  C   UNL A   1      41.708  27.540  35.913  1.00  0.00     0.131 A 
ATOM     40  C   UNL A   1      43.145  25.268  35.272  1.00  0.00     0.055 A 
ATOM     41  C   UNL A   1      41.662  26.417  36.750  1.00  0.00     0.041 A 
ATOM     42  F   UNL A   1      40.901  28.545  36.272  1.00  0.00    -0.206 F 
ATOM     43  C   UNL A   1      42.356  25.263  36.416  1.00  0.00     0.022 A 
BRANCH  40  44
ATOM     44  S   UNL A   1      43.949  23.733  34.726  1.00  0.00     0.124 S 
ATOM     45  O   UNL A   1      42.852  23.025  34.075  1.00  0.00    -0.237 OA
ATOM     46  O   UNL A   1      45.001  24.236  33.847  1.00  0.00    -0.237 OA
ATOM     47  O   UNL A   1      44.420  23.134  35.974  1.00  0.00    -0.744 OA
ENDBRANCH  40  44
ENDBRANCH  23  37
BRANCH  24  48
ATOM     48  C   UNL A   1      42.842  23.816  27.072  1.00  0.00     0.023 A 
ATOM     49  C   UNL A   1      43.809  23.235  26.217  1.00  0.00     0.031 A 
ATOM     50  C   UNL A   1      41.837  22.951  27.561  1.00  0.00     0.131 A 
ATOM     51  C   UNL A   1      43.739  21.855  25.894  1.00  0.00     0.055 A 
ATOM     52  C   UNL A   1      41.771  21.596  27.235  1.00  0.00     0.041 A 
ATOM     53  F   UNL A   1      40.925  23.377  28.449  1.00  0.00    -0.206 F 
ATOM     54  C   UNL A   1      42.729  21.038  26.407  1.00  0.00     0.022 A 
BRANCH  51  55
ATOM     55  S   UNL A   1      45.022  21.063  24.863  1.00  0.00     0.124 S 
ATOM     56  O   UNL A   1      44.782  19.644  25.100  1.00  0.00    -0.237 OA
ATOM     57  O   UNL A   1      44.708  21.562  23.530  1.00  0.00    -0.237 OA
ATOM     58  O   UNL A   1      46.274  21.573  25.424  1.00  0.00    -0.744 OA
ENDBRANCH  51  55
ENDBRANCH  24  48
BRANCH  36  59
ATOM     59  C   UNL A   1      45.644  29.351  28.791  1.00  0.00     0.023 A 
ATOM     60  C   UNL A   1      46.982  29.711  28.523  1.00  0.00     0.031 A 
ATOM     61  C   UNL A   1      44.650  29.859  27.936  1.00  0.00     0.131 A 
ATOM     62  C   UNL A   1      47.277  30.562  27.442  1.00  0.00     0.055 A 
ATOM     63  C   UNL A   1      44.948  30.672  26.845  1.00  0.00     0.041 A 
ATOM     64  F   UNL A   1      43.353  29.572  28.146  1.00  0.00    -0.206 F 
ATOM     65  C   UNL A   1      46.265  31.035  26.600  1.00  0.00     0.022 A 
BRANCH  62  66
ATOM     66  S   UNL A   1      48.981  31.130  27.145  1.00  0.00     0.124 S 
ATOM     67  O   UNL A   1      49.587  30.030  26.403  1.00  0.00    -0.237 OA
ATOM     68  O   UNL A   1      48.770  32.367  26.397  1.00  0.00    -0.237 OA
ATOM     69  O   UNL A   1      49.513  31.320  28.496  1.00  0.00    -0.744 OA
ENDBRANCH  62  66
ENDBRANCH  36  59
ENDBRANCH  10  11
ENDBRANCH   3   5
ENDBRANCH   2   3
ENDBRANCH   1   2
BRANCH   1  70
ATOM     70  C   UNL A   1      32.657  30.039  27.245  1.00  0.00     0.274 C 
BRANCH  70  71
ATOM     71  O   UNL A   1      32.395  29.586  25.913  1.00  0.00    -0.457 OA
BRANCH  71  72
ATOM     72  C   UNL A   1      33.208  28.637  25.377  1.00  0.00     0.368 C 
ATOM     73  O   UNL A   1      34.421  28.615  25.525  1.00  0.00    -0.245 OA
BRANCH  72  74
ATOM     74  C   UNL A   1      32.380  27.645  24.491  1.00  0.00     0.196 C 
ATOM     75  C   UNL A   1      31.224  27.066  25.337  1.00  0.00     0.081 C 
ATOM     76  C   UNL A   1      33.243  26.458  23.956  1.00  0.00     0.108 C 
ATOM     77  C   UNL A   1      31.687  26.069  26.405  1.00  0.00     0.009 C 
ATOM     78  C   UNL A   1      33.726  25.514  25.076  1.00  0.00     0.114 C 
ATOM     79  C   UNL A   1      32.523  24.934  25.819  1.00  0.00     0.028 C 
BRANCH  74  80
ATOM     80  N   UNL A   1      31.884  28.387  23.291  1.00  0.00    -0.330 N 
ATOM     81  H   UNL A   1      32.200  27.881  22.463  1.00  0.00     0.347 HD
ATOM     82  H   UNL A   1      32.262  29.330  23.383  1.00  0.00     0.347 HD
BRANCH  80  83
ATOM     83  C   UNL A   1      30.427  28.562  23.178  1.00  0.00     0.183 C 
ATOM     84  C   UNL A   1      29.781  29.864  23.562  1.00  0.00     0.071 C 
ATOM     85  C   UNL A   1      29.901  29.494  22.115  1.00  0.00     0.071 C 
ENDBRANCH  80  83
ENDBRANCH  74  80
BRANCH  78  86
ATOM     86  N   UNL A   1      34.685  24.521  24.609  1.00  0.00    -0.268 N 
ATOM     87  C   UNL A   1      35.532  23.806  25.410  1.00  0.00     0.124 A 
ATOM     88  N   UNL A   1      34.731  24.152  23.316  1.00  0.00    -0.180 NA
ATOM     89  C   UNL A   1      36.226  22.983  24.566  1.00  0.00     0.055 A 
ATOM     90  C   UNL A   1      35.693  23.217  23.294  1.00  0.00     0.150 A 
ATOM     91  Br  UNL A   1      37.588  21.785  24.996  1.00  0.00    -0.047 Br
ENDBRANCH  78  86
ENDBRANCH  72  74
ENDBRANCH  71  72
ENDBRANCH  70  71
ENDBRANCH   1  70
TORSDOF 17
ENDMDL
MODEL 3
REMARK VINA RESULT:     -11.6      4.896      7.383
REMARK SMILES O=C(OCCOC(=O)[C@]1([NH2+]C2CC2)CCC[C@@H](n2cc(Br)cn2)C1)c1ccc(-c2c3nc(c(-c4cc(S(=O)(=O)[O-])ccc4F)c4ccc([nH]4)c(-c4cc(S(=O)(=O)[O-])ccc4F)c4nc(c(-c5cc(S(=O)(=O)[O-])ccc5F)c5ccc2[nH]5)C=C4)C=C3)cc1
REMARK SMILES IDX 4 1 3 2 2 3 1 4 25 5 26 6 87 7 27 8 86 9 28 10 29 11 30 12
REMARK SMILES IDX 80 13 31 14 85 15 79 16 81 17 32 18 84 19 78 20 77 21 33 23
REMARK SMILES IDX 65 24 45 25 64 26 46 27 49 28 63 29 82 30 47 31 48 32 62 34
REMARK SMILES IDX 83 35 50 36 34 37 35 38 43 39 36 40 42 41 44 42 41 43 37 44
REMARK SMILES IDX 38 45 39 46 40 47 66 48 67 49 75 50 68 51 74 52 76 53 73 54
REMARK SMILES IDX 69 55 70 56 71 57 72 58 51 59 52 60 60 61 53 62 59 63 61 64
REMARK SMILES IDX 58 65 54 66 55 67 56 68 57 69 5 70 6 71 7 72 8 73 9 74 14 75
REMARK SMILES IDX 24 76 15 77 17 78 16 79 10 80 11 83 12 84 13 85 18 86 19 87
REMARK SMILES IDX 23 88 20 89 22 90 21 91
REMARK H PARENT 81 22 49 33 10 81 10 82
REMARK Flexibility Score: inf
ROOT
ATOM      1  C   UNL A   1      34.467  32.934  30.956  1.00  0.00     0.275 C 
ENDROOT
BRANCH   1   2
ATOM      2  O   UNL A   1      34.227  32.687  29.550  1.00  0.00    -0.458 OA
BRANCH   2   3
ATOM      3  C   UNL A   1      34.834  31.889  28.639  1.00  0.00     0.338 C 
ATOM      4  O   UNL A   1      34.336  31.835  27.513  1.00  0.00    -0.246 OA
BRANCH   3   5
ATOM      5  C   UNL A   1      36.152  31.193  28.844  1.00  0.00     0.060 A 
ATOM      6  C   UNL A   1      37.411  31.786  28.838  1.00  0.00     0.016 A 
ATOM      7  C   UNL A   1      36.105  29.791  29.038  1.00  0.00     0.016 A 
ATOM      8  C   UNL A   1      38.567  31.025  29.053  1.00  0.00     0.010 A 
ATOM      9  C   UNL A   1      37.264  29.021  29.230  1.00  0.00     0.010 A 
ATOM     10  C   UNL A   1      38.506  29.643  29.244  1.00  0.00    -0.014 A 
BRANCH  10  11
ATOM     11  C   UNL A   1      39.775  28.944  29.502  1.00  0.00     0.031 A 
ATOM     12  C   UNL A   1      40.194  28.869  30.936  1.00  0.00     0.074 A 
ATOM     13  C   UNL A   1      40.552  28.405  28.534  1.00  0.00     0.049 A 
ATOM     14  N   UNL A   1      41.229  29.421  31.478  1.00  0.00    -0.248 NA
ATOM     15  C   UNL A   1      39.336  28.167  31.903  1.00  0.00     0.031 C 
ATOM     16  C   UNL A   1      40.192  28.194  27.131  1.00  0.00     0.029 A 
ATOM     17  N   UNL A   1      41.814  27.865  28.610  1.00  0.00    -0.354 N 
ATOM     18  C   UNL A   1      41.277  28.985  32.805  1.00  0.00     0.074 A 
ATOM     19  C   UNL A   1      40.030  28.306  33.038  1.00  0.00     0.031 C 
ATOM     20  C   UNL A   1      41.108  27.388  26.547  1.00  0.00     0.029 A 
ATOM     21  C   UNL A   1      42.190  27.134  27.486  1.00  0.00     0.049 A 
ATOM     22  H   UNL A   1      42.401  27.985  29.392  1.00  0.00     0.167 HD
ATOM     23  C   UNL A   1      42.432  29.073  33.529  1.00  0.00     0.034 A 
ATOM     24  C   UNL A   1      43.288  26.346  27.323  1.00  0.00     0.034 A 
ATOM     25  C   UNL A   1      43.403  29.909  32.873  1.00  0.00     0.049 A 
ATOM     26  C   UNL A   1      44.348  26.858  28.221  1.00  0.00     0.074 A 
ATOM     27  C   UNL A   1      43.894  31.191  32.937  1.00  0.00     0.029 A 
ATOM     28  N   UNL A   1      43.954  29.321  31.774  1.00  0.00    -0.354 N 
ATOM     29  N   UNL A   1      44.898  28.032  28.069  1.00  0.00    -0.248 NA
ATOM     30  C   UNL A   1      44.572  26.232  29.519  1.00  0.00     0.031 C 
ATOM     31  C   UNL A   1      44.668  31.382  31.750  1.00  0.00     0.029 A 
ATOM     32  C   UNL A   1      44.693  30.192  31.029  1.00  0.00     0.049 A 
ATOM     33  H   UNL A   1      43.833  28.372  31.543  1.00  0.00     0.167 HD
ATOM     34  C   UNL A   1      45.168  28.463  29.351  1.00  0.00     0.074 A 
ATOM     35  C   UNL A   1      45.105  27.263  30.181  1.00  0.00     0.031 C 
ATOM     36  C   UNL A   1      45.095  29.782  29.696  1.00  0.00     0.034 A 
BRANCH  23  37
ATOM     37  C   UNL A   1      42.925  28.090  34.580  1.00  0.00     0.023 A 
ATOM     38  C   UNL A   1      43.498  26.877  34.122  1.00  0.00     0.031 A 
ATOM     39  C   UNL A   1      42.540  28.108  35.935  1.00  0.00     0.131 A 
ATOM     40  C   UNL A   1      43.562  25.738  34.946  1.00  0.00     0.055 A 
ATOM     41  C   UNL A   1      42.653  26.986  36.768  1.00  0.00     0.041 A 
ATOM     42  F   UNL A   1      41.945  29.167  36.495  1.00  0.00    -0.206 F 
ATOM     43  C   UNL A   1      43.135  25.785  36.268  1.00  0.00     0.022 A 
BRANCH  40  44
ATOM     44  S   UNL A   1      44.062  24.150  34.217  1.00  0.00     0.124 S 
ATOM     45  O   UNL A   1      42.841  23.361  34.332  1.00  0.00    -0.237 OA
ATOM     46  O   UNL A   1      44.449  24.545  32.866  1.00  0.00    -0.237 OA
ATOM     47  O   UNL A   1      45.165  23.716  35.074  1.00  0.00    -0.744 OA
ENDBRANCH  40  44
ENDBRANCH  23  37
BRANCH  24  48
ATOM     48  C   UNL A   1      43.353  25.024  26.629  1.00  0.00     0.023 A 
ATOM     49  C   UNL A   1      42.529  23.921  26.956  1.00  0.00     0.031 A 
ATOM     50  C   UNL A   1      44.095  24.918  25.430  1.00  0.00     0.131 A 
ATOM     51  C   UNL A   1      42.478  22.789  26.101  1.00  0.00     0.055 A 
ATOM     52  C   UNL A   1      44.044  23.800  24.597  1.00  0.00     0.041 A 
ATOM     53  F   UNL A   1      44.837  25.941  24.979  1.00  0.00    -0.206 F 
ATOM     54  C   UNL A   1      43.227  22.733  24.924  1.00  0.00     0.022 A 
BRANCH  51  55
ATOM     55  S   UNL A   1      41.359  21.390  26.457  1.00  0.00     0.124 S 
ATOM     56  O   UNL A   1      40.093  21.851  25.899  1.00  0.00    -0.237 OA
ATOM     57  O   UNL A   1      42.009  20.283  25.767  1.00  0.00    -0.237 OA
ATOM     58  O   UNL A   1      41.384  21.295  27.918  1.00  0.00    -0.744 OA
ENDBRANCH  51  55
ENDBRANCH  24  48
BRANCH  36  59
ATOM     59  C   UNL A   1      45.290  30.828  28.631  1.00  0.00     0.023 A 
ATOM     60  C   UNL A   1      46.535  31.370  28.249  1.00  0.00     0.031 A 
ATOM     61  C   UNL A   1      44.145  31.284  27.953  1.00  0.00     0.131 A 
ATOM     62  C   UNL A   1      46.595  32.343  27.234  1.00  0.00     0.055 A 
ATOM     63  C   UNL A   1      44.211  32.220  26.924  1.00  0.00     0.041 A 
ATOM     64  F   UNL A   1      42.926  30.823  28.281  1.00  0.00    -0.206 F 
ATOM     65  C   UNL A   1      45.438  32.762  26.567  1.00  0.00     0.022 A 
BRANCH  62  66
ATOM     66  S   UNL A   1      48.174  33.140  26.802  1.00  0.00     0.124 S 
ATOM     67  O   UNL A   1      48.550  33.844  28.023  1.00  0.00    -0.237 OA
ATOM     68  O   UNL A   1      49.009  31.998  26.439  1.00  0.00    -0.237 OA
ATOM     69  O   UNL A   1      47.816  34.012  25.682  1.00  0.00    -0.744 OA
ENDBRANCH  62  66
ENDBRANCH  36  59
ENDBRANCH  10  11
ENDBRANCH   3   5
ENDBRANCH   2   3
ENDBRANCH   1   2
BRANCH   1  70
ATOM     70  C   UNL A   1      35.088  34.305  31.179  1.00  0.00     0.274 C 
BRANCH  70  71
ATOM     71  O   UNL A   1      36.481  34.078  31.413  1.00  0.00    -0.457 OA
BRANCH  71  72
ATOM     72  C   UNL A   1      36.981  34.319  32.654  1.00  0.00     0.368 C 
ATOM     73  O   UNL A   1      36.435  35.031  33.483  1.00  0.00    -0.245 OA
BRANCH  72  74
ATOM     74  C   UNL A   1      38.376  33.625  32.825  1.00  0.00     0.196 C 
ATOM     75  C   UNL A   1      38.289  32.186  32.269  1.00  0.00     0.081 C 
ATOM     76  C   UNL A   1      38.826  33.551  34.319  1.00  0.00     0.108 C 
ATOM     77  C   UNL A   1      37.465  31.239  33.148  1.00  0.00     0.009 C 
ATOM     78  C   UNL A   1      37.934  32.624  35.171  1.00  0.00     0.114 C 
ATOM     79  C   UNL A   1      37.956  31.210  34.592  1.00  0.00     0.028 C 
BRANCH  74  80
ATOM     80  N   UNL A   1      39.401  34.445  32.111  1.00  0.00    -0.330 N 
ATOM     81  H   UNL A   1      40.188  34.580  32.748  1.00  0.00     0.347 HD
ATOM     82  H   UNL A   1      38.920  35.303  31.842  1.00  0.00     0.347 HD
BRANCH  80  83
ATOM     83  C   UNL A   1      39.934  33.891  30.856  1.00  0.00     0.183 C 
ATOM     84  C   UNL A   1      39.747  34.623  29.556  1.00  0.00     0.071 C 
ATOM     85  C   UNL A   1      41.098  34.593  30.203  1.00  0.00     0.071 C 
ENDBRANCH  80  83
ENDBRANCH  74  80
BRANCH  78  86
ATOM     86  N   UNL A   1      38.231  32.701  36.595  1.00  0.00    -0.268 N 
ATOM     87  C   UNL A   1      39.449  33.021  37.130  1.00  0.00     0.124 A 
ATOM     88  N   UNL A   1      37.262  32.557  37.517  1.00  0.00    -0.180 NA
ATOM     89  C   UNL A   1      39.269  33.000  38.486  1.00  0.00     0.055 A 
ATOM     90  C   UNL A   1      37.911  32.726  38.679  1.00  0.00     0.150 A 
ATOM     91  Br  UNL A   1      40.545  33.285  39.815  1.00  0.00    -0.047 Br
ENDBRANCH  78  86
ENDBRANCH  72  74
ENDBRANCH  71  72
ENDBRANCH  70  71
ENDBRANCH   1  70
TORSDOF 17
ENDMDL
