MODEL 1
REMARK VINA RESULT:     -10.4      0.000      0.000
REMARK SMILES COC[C@@H](C)N(C)C(=O)N1CCC(CC(=O)OCCOC(=O)c2ccc(-c3c4nc(c(-c5cc(S(=O)(=O)[O-])ccc5F)c5ccc([nH]5)c(-c5cc(S(=O)(=O)[O-])ccc5F)c5nc(c(-c6cc(S(=O)(=O)[O-])ccc6F)c6ccc3[nH]6)C=C5)C=C4)cc2)CC1
REMARK SMILES IDX 18 1 17 2 15 3 16 4 14 5 13 6 8 7 9 8 10 9 11 10 87 11 12 12
REMARK SMILES IDX 86 13 6 14 7 15 4 16 5 17 3 18 2 19 1 20 19 21 20 22 21 23
REMARK SMILES IDX 22 24 23 25 24 26 85 27 25 28 84 29 26 30 27 31 28 32 78 33
REMARK SMILES IDX 29 34 83 35 77 36 79 37 30 38 82 39 76 40 75 41 31 43 63 44
REMARK SMILES IDX 43 45 62 46 44 47 47 48 61 49 80 50 45 51 46 52 60 54 81 55
REMARK SMILES IDX 48 56 32 57 33 58 41 59 34 60 40 61 42 62 39 63 35 64 36 65
REMARK SMILES IDX 37 66 38 67 64 68 65 69 73 70 66 71 72 72 74 73 71 74 67 75
REMARK SMILES IDX 68 76 69 77 70 78 49 79 50 80 58 81 51 82 57 83 59 84 56 85
REMARK SMILES IDX 52 86 53 87 54 88 55 89
REMARK H PARENT 79 42 47 53
REMARK Flexibility Score: inf
ROOT
ATOM      1  C   UNL A   1      35.946  20.305  24.985  1.00  0.00     0.274 C 
ENDROOT
BRANCH   1   2
ATOM      2  O   UNL A   1      35.705  21.384  25.907  1.00  0.00    -0.462 OA
BRANCH   2   3
ATOM      3  C   UNL A   1      35.576  22.626  25.376  1.00  0.00     0.306 C 
ATOM      4  O   UNL A   1      35.557  23.662  26.030  1.00  0.00    -0.252 OA
BRANCH   3   5
ATOM      5  C   UNL A   1      35.361  22.601  23.876  1.00  0.00     0.126 C 
BRANCH   5   6
ATOM      6  C   UNL A   1      33.973  23.042  23.380  1.00  0.00     0.003 C 
ATOM      7  C   UNL A   1      31.295  25.587  24.763  1.00  0.00     0.320 C 
ATOM      8  O   UNL A   1      31.375  25.218  25.937  1.00  0.00    -0.248 OA
ATOM      9  N   UNL A   1      31.632  24.733  23.732  1.00  0.00    -0.325 N 
ATOM     10  C   UNL A   1      31.528  23.303  23.967  1.00  0.00     0.121 C 
ATOM     11  C   UNL A   1      32.597  25.102  22.701  1.00  0.00     0.121 C 
ATOM     12  C   UNL A   1      32.870  22.732  24.410  1.00  0.00     0.026 C 
ATOM     13  C   UNL A   1      33.987  24.555  23.055  1.00  0.00     0.026 C 
BRANCH   7  14
ATOM     14  N   UNL A   1      30.823  26.845  24.423  1.00  0.00    -0.323 N 
ATOM     15  C   UNL A   1      29.550  27.078  23.751  1.00  0.00     0.149 C 
BRANCH  14  16
ATOM     16  C   UNL A   1      31.516  28.047  24.940  1.00  0.00     0.109 C 
ATOM     17  C   UNL A   1      30.992  29.312  24.257  1.00  0.00     0.033 C 
BRANCH  16  18
ATOM     18  C   UNL A   1      33.057  27.907  24.882  1.00  0.00     0.184 C 
BRANCH  18  19
ATOM     19  O   UNL A   1      33.688  27.976  26.167  1.00  0.00    -0.383 OA
ATOM     20  C   UNL A   1      32.781  28.205  27.236  1.00  0.00     0.194 C 
ENDBRANCH  18  19
ENDBRANCH  16  18
ENDBRANCH  14  16
ENDBRANCH   7  14
ENDBRANCH   5   6
ENDBRANCH   3   5
ENDBRANCH   2   3
ENDBRANCH   1   2
BRANCH   1  21
ATOM     21  C   UNL A   1      37.409  19.853  25.006  1.00  0.00     0.275 C 
BRANCH  21  22
ATOM     22  O   UNL A   1      38.303  20.970  25.165  1.00  0.00    -0.458 OA
BRANCH  22  23
ATOM     23  C   UNL A   1      39.332  20.756  26.015  1.00  0.00     0.338 C 
ATOM     24  O   UNL A   1      39.903  19.694  26.220  1.00  0.00    -0.246 OA
BRANCH  23  25
ATOM     25  C   UNL A   1      39.782  22.031  26.594  1.00  0.00     0.060 A 
ATOM     26  C   UNL A   1      39.221  23.213  26.099  1.00  0.00     0.016 A 
ATOM     27  C   UNL A   1      40.804  22.075  27.545  1.00  0.00     0.016 A 
ATOM     28  C   UNL A   1      39.701  24.446  26.531  1.00  0.00     0.010 A 
ATOM     29  C   UNL A   1      41.285  23.316  27.978  1.00  0.00     0.010 A 
ATOM     30  C   UNL A   1      40.753  24.507  27.455  1.00  0.00    -0.014 A 
BRANCH  30  31
ATOM     31  C   UNL A   1      41.354  25.824  27.783  1.00  0.00     0.031 A 
ATOM     32  C   UNL A   1      42.763  26.122  27.351  1.00  0.00     0.074 A 
ATOM     33  C   UNL A   1      40.628  26.760  28.422  1.00  0.00     0.049 A 
ATOM     34  N   UNL A   1      43.479  27.201  27.535  1.00  0.00    -0.248 NA
ATOM     35  C   UNL A   1      43.459  25.054  26.617  1.00  0.00     0.031 C 
ATOM     36  C   UNL A   1      39.243  26.596  28.861  1.00  0.00     0.029 A 
ATOM     37  N   UNL A   1      40.954  28.037  28.804  1.00  0.00    -0.354 N 
ATOM     38  C   UNL A   1      44.711  26.945  26.943  1.00  0.00     0.074 A 
ATOM     39  C   UNL A   1      44.655  25.592  26.431  1.00  0.00     0.031 C 
ATOM     40  C   UNL A   1      38.836  27.733  29.452  1.00  0.00     0.029 A 
ATOM     41  C   UNL A   1      39.939  28.691  29.461  1.00  0.00     0.049 A 
ATOM     42  H   UNL A   1      41.832  28.445  28.625  1.00  0.00     0.167 HD
ATOM     43  C   UNL A   1      45.786  27.766  26.832  1.00  0.00     0.034 A 
ATOM     44  C   UNL A   1      39.908  29.918  30.018  1.00  0.00     0.034 A 
ATOM     45  C   UNL A   1      45.832  29.109  27.357  1.00  0.00     0.049 A 
ATOM     46  C   UNL A   1      41.130  30.797  29.920  1.00  0.00     0.074 A 
ATOM     47  C   UNL A   1      46.870  30.023  27.306  1.00  0.00     0.029 A 
ATOM     48  N   UNL A   1      44.791  29.733  28.036  1.00  0.00    -0.354 N 
ATOM     49  N   UNL A   1      42.291  30.541  29.361  1.00  0.00    -0.248 NA
ATOM     50  C   UNL A   1      41.031  32.135  30.516  1.00  0.00     0.031 C 
ATOM     51  C   UNL A   1      46.479  31.176  27.999  1.00  0.00     0.029 A 
ATOM     52  C   UNL A   1      45.170  31.009  28.424  1.00  0.00     0.049 A 
ATOM     53  H   UNL A   1      43.913  29.327  28.214  1.00  0.00     0.167 HD
ATOM     54  C   UNL A   1      43.050  31.698  29.516  1.00  0.00     0.074 A 
ATOM     55  C   UNL A   1      42.208  32.656  30.204  1.00  0.00     0.031 C 
ATOM     56  C   UNL A   1      44.324  31.950  29.120  1.00  0.00     0.034 A 
BRANCH  43  57
ATOM     57  C   UNL A   1      47.014  27.200  26.159  1.00  0.00     0.023 A 
ATOM     58  C   UNL A   1      47.957  26.433  26.865  1.00  0.00     0.031 A 
ATOM     59  C   UNL A   1      47.268  27.470  24.802  1.00  0.00     0.131 A 
ATOM     60  C   UNL A   1      49.143  26.026  26.233  1.00  0.00     0.055 A 
ATOM     61  C   UNL A   1      48.413  26.997  24.159  1.00  0.00     0.041 A 
ATOM     62  F   UNL A   1      46.414  28.217  24.083  1.00  0.00    -0.206 F 
ATOM     63  C   UNL A   1      49.366  26.284  24.879  1.00  0.00     0.022 A 
BRANCH  60  64
ATOM     64  S   UNL A   1      50.452  25.282  27.244  1.00  0.00     0.124 S 
ATOM     65  O   UNL A   1      51.423  24.886  26.227  1.00  0.00    -0.237 OA
ATOM     66  O   UNL A   1      50.850  26.386  28.110  1.00  0.00    -0.237 OA
ATOM     67  O   UNL A   1      49.778  24.172  27.917  1.00  0.00    -0.744 OA
ENDBRANCH  60  64
ENDBRANCH  43  57
BRANCH  44  68
ATOM     68  C   UNL A   1      38.694  30.386  30.742  1.00  0.00     0.023 A 
ATOM     69  C   UNL A   1      37.659  31.057  30.073  1.00  0.00     0.031 A 
ATOM     70  C   UNL A   1      38.575  30.207  32.132  1.00  0.00     0.131 A 
ATOM     71  C   UNL A   1      36.571  31.565  30.800  1.00  0.00     0.055 A 
ATOM     72  C   UNL A   1      37.469  30.671  32.844  1.00  0.00     0.041 A 
ATOM     73  F   UNL A   1      39.537  29.569  32.819  1.00  0.00    -0.206 F 
ATOM     74  C   UNL A   1      36.463  31.366  32.179  1.00  0.00     0.022 A 
BRANCH  71  75
ATOM     75  S   UNL A   1      35.329  32.558  29.927  1.00  0.00     0.124 S 
ATOM     76  O   UNL A   1      34.844  31.615  28.927  1.00  0.00    -0.237 OA
ATOM     77  O   UNL A   1      34.399  32.892  30.999  1.00  0.00    -0.237 OA
ATOM     78  O   UNL A   1      36.101  33.682  29.402  1.00  0.00    -0.744 OA
ENDBRANCH  71  75
ENDBRANCH  44  68
BRANCH  56  79
ATOM     79  C   UNL A   1      44.859  33.336  29.385  1.00  0.00     0.023 A 
ATOM     80  C   UNL A   1      44.812  34.348  28.410  1.00  0.00     0.031 A 
ATOM     81  C   UNL A   1      45.452  33.637  30.624  1.00  0.00     0.131 A 
ATOM     82  C   UNL A   1      45.404  35.595  28.668  1.00  0.00     0.055 A 
ATOM     83  C   UNL A   1      45.990  34.896  30.894  1.00  0.00     0.041 A 
ATOM     84  F   UNL A   1      45.525  32.708  31.591  1.00  0.00    -0.206 F 
ATOM     85  C   UNL A   1      45.981  35.878  29.908  1.00  0.00     0.022 A 
BRANCH  82  86
ATOM     86  S   UNL A   1      45.501  36.808  27.323  1.00  0.00     0.124 S 
ATOM     87  O   UNL A   1      45.768  35.960  26.165  1.00  0.00    -0.237 OA
ATOM     88  O   UNL A   1      44.180  37.429  27.368  1.00  0.00    -0.237 OA
ATOM     89  O   UNL A   1      46.607  37.675  27.723  1.00  0.00    -0.744 OA
ENDBRANCH  82  86
ENDBRANCH  56  79
ENDBRANCH  30  31
ENDBRANCH  23  25
ENDBRANCH  22  23
ENDBRANCH  21  22
ENDBRANCH   1  21
TORSDOF 19
ENDMDL
MODEL 2
REMARK VINA RESULT:     -10.3      1.690      1.987
REMARK SMILES COC[C@@H](C)N(C)C(=O)N1CCC(CC(=O)OCCOC(=O)c2ccc(-c3c4nc(c(-c5cc(S(=O)(=O)[O-])ccc5F)c5ccc([nH]5)c(-c5cc(S(=O)(=O)[O-])ccc5F)c5nc(c(-c6cc(S(=O)(=O)[O-])ccc6F)c6ccc3[nH]6)C=C5)C=C4)cc2)CC1
REMARK SMILES IDX 18 1 17 2 15 3 16 4 14 5 13 6 8 7 9 8 10 9 11 10 87 11 12 12
REMARK SMILES IDX 86 13 6 14 7 15 4 16 5 17 3 18 2 19 1 20 19 21 20 22 21 23
REMARK SMILES IDX 22 24 23 25 24 26 85 27 25 28 84 29 26 30 27 31 28 32 78 33
REMARK SMILES IDX 29 34 83 35 77 36 79 37 30 38 82 39 76 40 75 41 31 43 63 44
REMARK SMILES IDX 43 45 62 46 44 47 47 48 61 49 80 50 45 51 46 52 60 54 81 55
REMARK SMILES IDX 48 56 32 57 33 58 41 59 34 60 40 61 42 62 39 63 35 64 36 65
REMARK SMILES IDX 37 66 38 67 64 68 65 69 73 70 66 71 72 72 74 73 71 74 67 75
REMARK SMILES IDX 68 76 69 77 70 78 49 79 50 80 58 81 51 82 57 83 59 84 56 85
REMARK SMILES IDX 52 86 53 87 54 88 55 89
REMARK H PARENT 79 42 47 53
REMARK Flexibility Score: inf
ROOT
ATOM      1  C   UNL A   1      36.100  19.750  24.973  1.00  0.00     0.274 C 
ENDROOT
BRANCH   1   2
ATOM      2  O   UNL A   1      35.103  20.776  24.813  1.00  0.00    -0.462 OA
BRANCH   2   3
ATOM      3  C   UNL A   1      33.805  20.384  24.867  1.00  0.00     0.306 C 
ATOM      4  O   UNL A   1      33.356  19.581  25.677  1.00  0.00    -0.252 OA
BRANCH   3   5
ATOM      5  C   UNL A   1      32.968  20.975  23.750  1.00  0.00     0.126 C 
BRANCH   5   6
ATOM      6  C   UNL A   1      32.200  22.265  24.086  1.00  0.00     0.003 C 
ATOM      7  C   UNL A   1      33.263  26.057  24.313  1.00  0.00     0.320 C 
ATOM      8  O   UNL A   1      34.305  25.851  24.940  1.00  0.00    -0.248 OA
ATOM      9  N   UNL A   1      32.216  25.160  24.375  1.00  0.00    -0.325 N 
ATOM     10  C   UNL A   1      32.104  24.319  25.555  1.00  0.00     0.121 C 
ATOM     11  C   UNL A   1      31.606  24.592  23.176  1.00  0.00     0.121 C 
ATOM     12  C   UNL A   1      32.781  22.974  25.323  1.00  0.00     0.026 C 
ATOM     13  C   UNL A   1      32.219  23.220  22.868  1.00  0.00     0.026 C 
BRANCH   7  14
ATOM     14  N   UNL A   1      33.076  27.208  23.565  1.00  0.00    -0.323 N 
ATOM     15  C   UNL A   1      33.571  27.378  22.203  1.00  0.00     0.149 C 
BRANCH  14  16
ATOM     16  C   UNL A   1      32.153  28.255  24.057  1.00  0.00     0.109 C 
ATOM     17  C   UNL A   1      31.303  28.812  22.913  1.00  0.00     0.033 C 
BRANCH  16  18
ATOM     18  C   UNL A   1      32.887  29.349  24.870  1.00  0.00     0.184 C 
BRANCH  18  19
ATOM     19  O   UNL A   1      33.198  28.954  26.212  1.00  0.00    -0.383 OA
ATOM     20  C   UNL A   1      32.170  29.248  27.147  1.00  0.00     0.194 C 
ENDBRANCH  18  19
ENDBRANCH  16  18
ENDBRANCH  14  16
ENDBRANCH   7  14
ENDBRANCH   5   6
ENDBRANCH   3   5
ENDBRANCH   2   3
ENDBRANCH   1   2
BRANCH   1  21
ATOM     21  C   UNL A   1      37.512  20.282  24.717  1.00  0.00     0.275 C 
BRANCH  21  22
ATOM     22  O   UNL A   1      37.917  21.214  25.736  1.00  0.00    -0.458 OA
BRANCH  22  23
ATOM     23  C   UNL A   1      39.209  21.109  26.120  1.00  0.00     0.338 C 
ATOM     24  O   UNL A   1      39.953  20.157  25.932  1.00  0.00    -0.246 OA
BRANCH  23  25
ATOM     25  C   UNL A   1      39.666  22.379  26.705  1.00  0.00     0.060 A 
ATOM     26  C   UNL A   1      39.110  23.566  26.218  1.00  0.00     0.016 A 
ATOM     27  C   UNL A   1      40.689  22.412  27.655  1.00  0.00     0.016 A 
ATOM     28  C   UNL A   1      39.597  24.795  26.656  1.00  0.00     0.010 A 
ATOM     29  C   UNL A   1      41.177  23.649  28.095  1.00  0.00     0.010 A 
ATOM     30  C   UNL A   1      40.650  24.845  27.579  1.00  0.00    -0.014 A 
BRANCH  30  31
ATOM     31  C   UNL A   1      41.258  26.157  27.914  1.00  0.00     0.031 A 
ATOM     32  C   UNL A   1      42.653  26.467  27.445  1.00  0.00     0.074 A 
ATOM     33  C   UNL A   1      40.550  27.079  28.592  1.00  0.00     0.049 A 
ATOM     34  N   UNL A   1      43.371  27.545  27.627  1.00  0.00    -0.248 NA
ATOM     35  C   UNL A   1      43.328  25.416  26.671  1.00  0.00     0.031 C 
ATOM     36  C   UNL A   1      39.179  26.904  29.070  1.00  0.00     0.029 A 
ATOM     37  N   UNL A   1      40.884  28.349  28.988  1.00  0.00    -0.354 N 
ATOM     38  C   UNL A   1      44.586  27.304  26.995  1.00  0.00     0.074 A 
ATOM     39  C   UNL A   1      44.517  25.960  26.458  1.00  0.00     0.031 C 
ATOM     40  C   UNL A   1      38.787  28.028  29.694  1.00  0.00     0.029 A 
ATOM     41  C   UNL A   1      39.889  28.989  29.688  1.00  0.00     0.049 A 
ATOM     42  H   UNL A   1      41.755  28.763  28.791  1.00  0.00     0.167 HD
ATOM     43  C   UNL A   1      45.655  28.129  26.866  1.00  0.00     0.034 A 
ATOM     44  C   UNL A   1      39.872  30.205  30.268  1.00  0.00     0.034 A 
ATOM     45  C   UNL A   1      45.714  29.462  27.414  1.00  0.00     0.049 A 
ATOM     46  C   UNL A   1      41.089  31.089  30.150  1.00  0.00     0.074 A 
ATOM     47  C   UNL A   1      46.748  30.380  27.350  1.00  0.00     0.029 A 
ATOM     48  N   UNL A   1      44.693  30.071  28.136  1.00  0.00    -0.354 N 
ATOM     49  N   UNL A   1      42.232  30.846  29.552  1.00  0.00    -0.248 NA
ATOM     50  C   UNL A   1      41.005  32.415  30.774  1.00  0.00     0.031 C 
ATOM     51  C   UNL A   1      46.375  31.519  28.077  1.00  0.00     0.029 A 
ATOM     52  C   UNL A   1      45.081  31.340  28.538  1.00  0.00     0.049 A 
ATOM     53  H   UNL A   1      43.821  29.659  28.333  1.00  0.00     0.167 HD
ATOM     54  C   UNL A   1      42.993  32.003  29.706  1.00  0.00     0.074 A 
ATOM     55  C   UNL A   1      42.170  32.945  30.437  1.00  0.00     0.031 C 
ATOM     56  C   UNL A   1      44.254  32.265  29.276  1.00  0.00     0.034 A 
BRANCH  43  57
ATOM     57  C   UNL A   1      46.863  27.580  26.146  1.00  0.00     0.023 A 
ATOM     58  C   UNL A   1      47.166  27.947  24.823  1.00  0.00     0.031 A 
ATOM     59  C   UNL A   1      47.698  26.639  26.776  1.00  0.00     0.131 A 
ATOM     60  C   UNL A   1      48.228  27.324  24.149  1.00  0.00     0.055 A 
ATOM     61  C   UNL A   1      48.800  26.081  26.125  1.00  0.00     0.041 A 
ATOM     62  F   UNL A   1      47.445  26.234  28.031  1.00  0.00    -0.206 F 
ATOM     63  C   UNL A   1      49.061  26.410  24.799  1.00  0.00     0.022 A 
BRANCH  60  64
ATOM     64  S   UNL A   1      48.417  27.617  22.369  1.00  0.00     0.124 S 
ATOM     65  O   UNL A   1      47.181  28.329  22.053  1.00  0.00    -0.237 OA
ATOM     66  O   UNL A   1      49.642  28.406  22.306  1.00  0.00    -0.237 OA
ATOM     67  O   UNL A   1      48.512  26.271  21.807  1.00  0.00    -0.744 OA
ENDBRANCH  60  64
ENDBRANCH  43  57
BRANCH  44  68
ATOM     68  C   UNL A   1      38.679  30.656  31.038  1.00  0.00     0.023 A 
ATOM     69  C   UNL A   1      37.586  31.261  30.400  1.00  0.00     0.031 A 
ATOM     70  C   UNL A   1      38.639  30.527  32.438  1.00  0.00     0.131 A 
ATOM     71  C   UNL A   1      36.517  31.757  31.164  1.00  0.00     0.055 A 
ATOM     72  C   UNL A   1      37.554  30.978  33.189  1.00  0.00     0.041 A 
ATOM     73  F   UNL A   1      39.659  29.953  33.096  1.00  0.00    -0.206 F 
ATOM     74  C   UNL A   1      36.488  31.608  32.553  1.00  0.00     0.022 A 
BRANCH  71  75
ATOM     75  S   UNL A   1      35.195  32.668  30.321  1.00  0.00     0.124 S 
ATOM     76  O   UNL A   1      34.902  31.792  29.193  1.00  0.00    -0.237 OA
ATOM     77  O   UNL A   1      34.172  32.745  31.357  1.00  0.00    -0.237 OA
ATOM     78  O   UNL A   1      35.826  33.941  29.975  1.00  0.00    -0.744 OA
ENDBRANCH  71  75
ENDBRANCH  44  68
BRANCH  56  79
ATOM     79  C   UNL A   1      44.793  33.648  29.551  1.00  0.00     0.023 A 
ATOM     80  C   UNL A   1      44.697  34.683  28.605  1.00  0.00     0.031 A 
ATOM     81  C   UNL A   1      45.441  33.921  30.769  1.00  0.00     0.131 A 
ATOM     82  C   UNL A   1      45.294  35.927  28.866  1.00  0.00     0.055 A 
ATOM     83  C   UNL A   1      45.985  35.177  31.046  1.00  0.00     0.041 A 
ATOM     84  F   UNL A   1      45.562  32.970  31.708  1.00  0.00    -0.206 F 
ATOM     85  C   UNL A   1      45.926  36.183  30.086  1.00  0.00     0.022 A 
BRANCH  82  86
ATOM     86  S   UNL A   1      45.324  37.173  27.549  1.00  0.00     0.124 S 
ATOM     87  O   UNL A   1      45.942  38.313  28.221  1.00  0.00    -0.237 OA
ATOM     88  O   UNL A   1      46.134  36.523  26.523  1.00  0.00    -0.237 OA
ATOM     89  O   UNL A   1      43.914  37.346  27.208  1.00  0.00    -0.744 OA
ENDBRANCH  82  86
ENDBRANCH  56  79
ENDBRANCH  30  31
ENDBRANCH  23  25
ENDBRANCH  22  23
ENDBRANCH  21  22
ENDBRANCH   1  21
TORSDOF 19
ENDMDL
MODEL 3
REMARK VINA RESULT:     -10.3      1.742      7.738
REMARK SMILES COC[C@@H](C)N(C)C(=O)N1CCC(CC(=O)OCCOC(=O)c2ccc(-c3c4nc(c(-c5cc(S(=O)(=O)[O-])ccc5F)c5ccc([nH]5)c(-c5cc(S(=O)(=O)[O-])ccc5F)c5nc(c(-c6cc(S(=O)(=O)[O-])ccc6F)c6ccc3[nH]6)C=C5)C=C4)cc2)CC1
REMARK SMILES IDX 18 1 17 2 15 3 16 4 14 5 13 6 8 7 9 8 10 9 11 10 87 11 12 12
REMARK SMILES IDX 86 13 6 14 7 15 4 16 5 17 3 18 2 19 1 20 19 21 20 22 21 23
REMARK SMILES IDX 22 24 23 25 24 26 85 27 25 28 84 29 26 30 27 31 28 32 78 33
REMARK SMILES IDX 29 34 83 35 77 36 79 37 30 38 82 39 76 40 75 41 31 43 63 44
REMARK SMILES IDX 43 45 62 46 44 47 47 48 61 49 80 50 45 51 46 52 60 54 81 55
REMARK SMILES IDX 48 56 32 57 33 58 41 59 34 60 40 61 42 62 39 63 35 64 36 65
REMARK SMILES IDX 37 66 38 67 64 68 65 69 73 70 66 71 72 72 74 73 71 74 67 75
REMARK SMILES IDX 68 76 69 77 70 78 49 79 50 80 58 81 51 82 57 83 59 84 56 85
REMARK SMILES IDX 52 86 53 87 54 88 55 89
REMARK H PARENT 79 42 47 53
REMARK Flexibility Score: inf
ROOT
ATOM      1  C   UNL A   1      35.490  20.423  24.934  1.00  0.00     0.274 C 
ENDROOT
BRANCH   1   2
ATOM      2  O   UNL A   1      35.055  21.585  25.665  1.00  0.00    -0.462 OA
BRANCH   2   3
ATOM      3  C   UNL A   1      33.751  21.936  25.537  1.00  0.00     0.306 C 
ATOM      4  O   UNL A   1      33.045  22.332  26.457  1.00  0.00    -0.252 OA
BRANCH   3   5
ATOM      5  C   UNL A   1      33.216  21.699  24.139  1.00  0.00     0.126 C 
BRANCH   5   6
ATOM      6  C   UNL A   1      32.637  22.928  23.414  1.00  0.00     0.003 C 
ATOM      7  C   UNL A   1      31.264  26.404  24.674  1.00  0.00     0.320 C 
ATOM      8  O   UNL A   1      30.596  25.940  25.601  1.00  0.00    -0.248 OA
ATOM      9  N   UNL A   1      31.574  25.631  23.574  1.00  0.00    -0.325 N 
ATOM     10  C   UNL A   1      30.688  24.527  23.242  1.00  0.00     0.121 C 
ATOM     11  C   UNL A   1      32.946  25.458  23.106  1.00  0.00     0.121 C 
ATOM     12  C   UNL A   1      31.193  23.229  23.858  1.00  0.00     0.026 C 
ATOM     13  C   UNL A   1      33.539  24.160  23.668  1.00  0.00     0.026 C 
BRANCH   7  14
ATOM     14  N   UNL A   1      31.689  27.723  24.669  1.00  0.00    -0.323 N 
ATOM     15  C   UNL A   1      31.076  28.769  23.856  1.00  0.00     0.149 C 
BRANCH  14  16
ATOM     16  C   UNL A   1      32.670  28.176  25.680  1.00  0.00     0.109 C 
ATOM     17  C   UNL A   1      33.498  26.998  26.200  1.00  0.00     0.033 C 
BRANCH  16  18
ATOM     18  C   UNL A   1      32.012  29.011  26.805  1.00  0.00     0.184 C 
BRANCH  18  19
ATOM     19  O   UNL A   1      32.350  30.403  26.758  1.00  0.00    -0.383 OA
ATOM     20  C   UNL A   1      33.567  30.717  27.421  1.00  0.00     0.194 C 
ENDBRANCH  18  19
ENDBRANCH  16  18
ENDBRANCH  14  16
ENDBRANCH   7  14
ENDBRANCH   5   6
ENDBRANCH   3   5
ENDBRANCH   2   3
ENDBRANCH   1   2
BRANCH   1  21
ATOM     21  C   UNL A   1      37.009  20.244  24.998  1.00  0.00     0.275 C 
BRANCH  21  22
ATOM     22  O   UNL A   1      37.644  21.365  25.641  1.00  0.00    -0.458 OA
BRANCH  22  23
ATOM     23  C   UNL A   1      38.916  21.143  26.043  1.00  0.00     0.338 C 
ATOM     24  O   UNL A   1      39.552  20.106  25.917  1.00  0.00    -0.246 OA
BRANCH  23  25
ATOM     25  C   UNL A   1      39.507  22.387  26.558  1.00  0.00     0.060 A 
ATOM     26  C   UNL A   1      38.970  23.602  26.119  1.00  0.00     0.016 A 
ATOM     27  C   UNL A   1      40.629  22.366  27.389  1.00  0.00     0.016 A 
ATOM     28  C   UNL A   1      39.572  24.803  26.486  1.00  0.00     0.010 A 
ATOM     29  C   UNL A   1      41.232  23.575  27.757  1.00  0.00     0.010 A 
ATOM     30  C   UNL A   1      40.722  24.797  27.287  1.00  0.00    -0.014 A 
BRANCH  30  31
ATOM     31  C   UNL A   1      41.438  26.073  27.536  1.00  0.00     0.031 A 
ATOM     32  C   UNL A   1      40.776  27.143  28.361  1.00  0.00     0.074 A 
ATOM     33  C   UNL A   1      42.687  26.253  27.068  1.00  0.00     0.049 A 
ATOM     34  N   UNL A   1      41.220  28.326  28.697  1.00  0.00    -0.248 NA
ATOM     35  C   UNL A   1      39.431  26.835  28.869  1.00  0.00     0.031 C 
ATOM     36  C   UNL A   1      43.441  25.274  26.284  1.00  0.00     0.029 A 
ATOM     37  N   UNL A   1      43.543  27.317  27.191  1.00  0.00    -0.354 N 
ATOM     38  C   UNL A   1      40.210  28.910  29.454  1.00  0.00     0.074 A 
ATOM     39  C   UNL A   1      39.116  27.962  29.491  1.00  0.00     0.031 C 
ATOM     40  C   UNL A   1      44.651  25.785  25.998  1.00  0.00     0.029 A 
ATOM     41  C   UNL A   1      44.745  27.135  26.549  1.00  0.00     0.049 A 
ATOM     42  H   UNL A   1      43.317  28.135  27.690  1.00  0.00     0.167 HD
ATOM     43  C   UNL A   1      40.198  30.121  30.067  1.00  0.00     0.034 A 
ATOM     44  C   UNL A   1      45.796  27.967  26.411  1.00  0.00     0.034 A 
ATOM     45  C   UNL A   1      41.292  31.060  30.012  1.00  0.00     0.049 A 
ATOM     46  C   UNL A   1      45.744  29.326  27.065  1.00  0.00     0.074 A 
ATOM     47  C   UNL A   1      41.384  32.315  30.589  1.00  0.00     0.029 A 
ATOM     48  N   UNL A   1      42.488  30.850  29.335  1.00  0.00    -0.354 N 
ATOM     49  N   UNL A   1      44.780  29.866  27.774  1.00  0.00    -0.248 NA
ATOM     50  C   UNL A   1      46.929  30.179  26.909  1.00  0.00     0.031 C 
ATOM     51  C   UNL A   1      42.609  32.885  30.217  1.00  0.00     0.029 A 
ATOM     52  C   UNL A   1      43.312  31.958  29.464  1.00  0.00     0.049 A 
ATOM     53  H   UNL A   1      42.716  30.033  28.837  1.00  0.00     0.167 HD
ATOM     54  C   UNL A   1      45.256  31.113  28.171  1.00  0.00     0.074 A 
ATOM     55  C   UNL A   1      46.597  31.234  27.636  1.00  0.00     0.031 C 
ATOM     56  C   UNL A   1      44.644  32.069  28.916  1.00  0.00     0.034 A 
BRANCH  43  57
ATOM     57  C   UNL A   1      38.937  30.506  30.801  1.00  0.00     0.023 A 
ATOM     58  C   UNL A   1      37.945  31.302  30.201  1.00  0.00     0.031 A 
ATOM     59  C   UNL A   1      38.743  30.110  32.137  1.00  0.00     0.131 A 
ATOM     60  C   UNL A   1      36.844  31.737  30.955  1.00  0.00     0.055 A 
ATOM     61  C   UNL A   1      37.608  30.483  32.858  1.00  0.00     0.041 A 
ATOM     62  F   UNL A   1      39.667  29.368  32.769  1.00  0.00    -0.206 F 
ATOM     63  C   UNL A   1      36.658  31.314  32.273  1.00  0.00     0.022 A 
BRANCH  60  64
ATOM     64  S   UNL A   1      35.736  32.980  30.235  1.00  0.00     0.124 S 
ATOM     65  O   UNL A   1      36.144  32.963  28.832  1.00  0.00    -0.237 OA
ATOM     66  O   UNL A   1      34.416  32.432  30.523  1.00  0.00    -0.237 OA
ATOM     67  O   UNL A   1      36.076  34.204  30.959  1.00  0.00    -0.744 OA
ENDBRANCH  60  64
ENDBRANCH  43  57
BRANCH  44  68
ATOM     68  C   UNL A   1      46.978  27.559  25.603  1.00  0.00     0.023 A 
ATOM     69  C   UNL A   1      47.098  27.921  24.252  1.00  0.00     0.031 A 
ATOM     70  C   UNL A   1      47.988  26.756  26.164  1.00  0.00     0.131 A 
ATOM     71  C   UNL A   1      48.180  27.444  23.495  1.00  0.00     0.055 A 
ATOM     72  C   UNL A   1      49.086  26.324  25.420  1.00  0.00     0.041 A 
ATOM     73  F   UNL A   1      47.921  26.384  27.453  1.00  0.00    -0.206 F 
ATOM     74  C   UNL A   1      49.180  26.658  24.072  1.00  0.00     0.022 A 
BRANCH  71  75
ATOM     75  S   UNL A   1      48.222  27.805  21.718  1.00  0.00     0.124 S 
ATOM     76  O   UNL A   1      48.421  26.478  21.149  1.00  0.00    -0.237 OA
ATOM     77  O   UNL A   1      46.913  28.409  21.499  1.00  0.00    -0.237 OA
ATOM     78  O   UNL A   1      49.356  28.718  21.584  1.00  0.00    -0.744 OA
ENDBRANCH  71  75
ENDBRANCH  44  68
BRANCH  56  79
ATOM     79  C   UNL A   1      45.448  33.308  29.230  1.00  0.00     0.023 A 
ATOM     80  C   UNL A   1      45.404  34.448  28.409  1.00  0.00     0.031 A 
ATOM     81  C   UNL A   1      46.294  33.331  30.352  1.00  0.00     0.131 A 
ATOM     82  C   UNL A   1      46.238  35.542  28.688  1.00  0.00     0.055 A 
ATOM     83  C   UNL A   1      47.080  34.444  30.656  1.00  0.00     0.041 A 
ATOM     84  F   UNL A   1      46.375  32.270  31.171  1.00  0.00    -0.206 F 
ATOM     85  C   UNL A   1      47.066  35.552  29.814  1.00  0.00     0.022 A 
BRANCH  82  86
ATOM     86  S   UNL A   1      46.303  36.913  27.503  1.00  0.00     0.124 S 
ATOM     87  O   UNL A   1      46.860  36.267  26.318  1.00  0.00    -0.237 OA
ATOM     88  O   UNL A   1      44.902  37.314  27.412  1.00  0.00    -0.237 OA
ATOM     89  O   UNL A   1      47.184  37.884  28.149  1.00  0.00    -0.744 OA
ENDBRANCH  82  86
ENDBRANCH  56  79
ENDBRANCH  30  31
ENDBRANCH  23  25
ENDBRANCH  22  23
ENDBRANCH  21  22
ENDBRANCH   1  21
TORSDOF 19
ENDMDL
