MODEL 1
REMARK VINA RESULT:     -12.4      0.000      0.000
REMARK SMILES Cc1cc(C(=O)OCCOC(=O)c2ccc(-c3c4nc(c(-c5cc(S(=O)(=O)[O-])ccc5F)c5ccc([nH]5)c(-c5cc(S(=O)(=O)[O-])ccc5F)c5nc(c(-c6cc(S(=O)(=O)[O-])ccc6F)c6ccc3[nH]6)C=C5)C=C4)cc2)ccc1NS(=O)(=O)c1ccc(C#N)cc1C
REMARK SMILES IDX 8 1 7 2 5 3 6 4 4 5 1 6 2 7 3 8 78 9 77 10 76 11 79 12 80 14
REMARK SMILES IDX 81 15 82 16 83 17 84 18 90 19 85 20 89 21 91 22 86 23 87 24
REMARK SMILES IDX 88 25 9 26 10 27 11 28 12 29 13 30 14 31 75 32 15 33 74 34
REMARK SMILES IDX 16 35 17 36 18 37 68 38 19 39 73 40 67 41 69 42 20 43 72 44
REMARK SMILES IDX 66 45 65 46 21 48 53 49 33 50 52 51 34 52 37 53 51 54 70 55
REMARK SMILES IDX 35 56 36 57 50 59 71 60 38 61 22 62 23 63 31 64 24 65 30 66
REMARK SMILES IDX 32 67 29 68 25 69 26 70 27 71 28 72 54 73 55 74 63 75 56 76
REMARK SMILES IDX 62 77 64 78 61 79 57 80 58 81 59 82 60 83 39 84 40 85 48 86
REMARK SMILES IDX 41 87 47 88 49 89 46 90 42 91 43 92 44 93 45 94
REMARK H PARENT 79 13 69 47 37 58
REMARK Flexibility Score: inf
ROOT
ATOM      1  C   UNL A   1      31.711  28.508  25.968  1.00  0.00     0.275 C 
ENDROOT
BRANCH   1   2
ATOM      2  O   UNL A   1      32.151  27.870  24.759  1.00  0.00    -0.458 OA
BRANCH   2   3
ATOM      3  C   UNL A   1      32.901  26.765  24.969  1.00  0.00     0.338 C 
ATOM      4  O   UNL A   1      34.032  26.551  24.552  1.00  0.00    -0.246 OA
BRANCH   3   5
ATOM      5  C   UNL A   1      32.139  25.669  25.584  1.00  0.00     0.060 A 
ATOM      6  C   UNL A   1      32.928  22.604  27.686  1.00  0.00     0.046 C 
ATOM      7  C   UNL A   1      32.319  23.478  26.623  1.00  0.00    -0.026 A 
ATOM      8  C   UNL A   1      32.688  24.829  26.558  1.00  0.00     0.021 A 
ATOM      9  C   UNL A   1      31.464  23.000  25.623  1.00  0.00     0.052 A 
ATOM     10  C   UNL A   1      30.679  23.903  24.899  1.00  0.00     0.028 A 
ATOM     11  C   UNL A   1      31.053  25.239  24.836  1.00  0.00     0.018 A 
BRANCH   9  12
ATOM     12  N   UNL A   1      31.629  21.649  25.193  1.00  0.00    -0.279 N 
ATOM     13  H   UNL A   1      31.093  20.959  25.646  1.00  0.00     0.180 HD
BRANCH  12  14
ATOM     14  S   UNL A   1      32.662  21.148  23.975  1.00  0.00     0.262 S 
ATOM     15  O   UNL A   1      32.726  19.705  24.054  1.00  0.00    -0.201 OA
ATOM     16  O   UNL A   1      32.207  21.812  22.768  1.00  0.00    -0.201 OA
BRANCH  14  17
ATOM     17  C   UNL A   1      34.331  21.757  24.311  1.00  0.00     0.090 A 
ATOM     18  C   UNL A   1      35.195  21.060  25.173  1.00  0.00     0.024 A 
ATOM     19  C   UNL A   1      34.685  23.051  23.871  1.00  0.00    -0.029 A 
ATOM     20  C   UNL A   1      36.315  21.702  25.726  1.00  0.00     0.021 A 
ATOM     21  C   UNL A   1      35.817  23.674  24.431  1.00  0.00     0.024 A 
ATOM     22  C   UNL A   1      33.962  23.802  22.785  1.00  0.00     0.046 C 
ATOM     23  C   UNL A   1      36.603  23.025  25.388  1.00  0.00     0.052 A 
BRANCH  23  24
ATOM     24  C   UNL A   1      37.672  23.747  26.031  1.00  0.00     0.099 C 
ATOM     25  N   UNL A   1      38.570  24.273  26.526  1.00  0.00    -0.192 NA
ENDBRANCH  23  24
ENDBRANCH  14  17
ENDBRANCH  12  14
ENDBRANCH   9  12
ENDBRANCH   3   5
ENDBRANCH   2   3
ENDBRANCH   1   2
BRANCH   1  26
ATOM     26  C   UNL A   1      32.239  29.948  26.107  1.00  0.00     0.275 C 
BRANCH  26  27
ATOM     27  O   UNL A   1      32.728  30.442  27.382  1.00  0.00    -0.458 OA
BRANCH  27  28
ATOM     28  C   UNL A   1      33.268  31.682  27.506  1.00  0.00     0.338 C 
ATOM     29  O   UNL A   1      32.607  32.710  27.448  1.00  0.00    -0.246 OA
BRANCH  28  30
ATOM     30  C   UNL A   1      34.672  31.654  27.965  1.00  0.00     0.060 A 
ATOM     31  C   UNL A   1      35.467  32.779  27.707  1.00  0.00     0.016 A 
ATOM     32  C   UNL A   1      35.072  30.680  28.872  1.00  0.00     0.016 A 
ATOM     33  C   UNL A   1      36.614  33.009  28.440  1.00  0.00     0.010 A 
ATOM     34  C   UNL A   1      36.077  30.989  29.740  1.00  0.00     0.010 A 
ATOM     35  C   UNL A   1      36.887  32.099  29.452  1.00  0.00    -0.014 A 
BRANCH  35  36
ATOM     36  C   UNL A   1      38.223  31.909  29.970  1.00  0.00     0.031 A 
ATOM     37  C   UNL A   1      38.933  30.683  29.573  1.00  0.00     0.074 A 
ATOM     38  C   UNL A   1      38.595  33.074  30.561  1.00  0.00     0.049 A 
ATOM     39  N   UNL A   1      39.864  30.114  30.246  1.00  0.00    -0.248 NA
ATOM     40  C   UNL A   1      38.572  29.880  28.393  1.00  0.00     0.031 C 
ATOM     41  C   UNL A   1      39.855  33.684  30.929  1.00  0.00     0.029 A 
ATOM     42  N   UNL A   1      37.660  33.993  31.080  1.00  0.00    -0.354 N 
ATOM     43  C   UNL A   1      40.533  29.301  29.348  1.00  0.00     0.074 A 
ATOM     44  C   UNL A   1      39.557  28.973  28.349  1.00  0.00     0.031 C 
ATOM     45  C   UNL A   1      39.619  34.616  31.882  1.00  0.00     0.029 A 
ATOM     46  C   UNL A   1      38.195  34.580  32.214  1.00  0.00     0.049 A 
ATOM     47  H   UNL A   1      36.773  34.186  30.700  1.00  0.00     0.167 HD
ATOM     48  C   UNL A   1      41.898  29.278  29.400  1.00  0.00     0.034 A 
ATOM     49  C   UNL A   1      37.637  34.165  33.391  1.00  0.00     0.034 A 
ATOM     50  C   UNL A   1      42.322  30.203  30.451  1.00  0.00     0.049 A 
ATOM     51  C   UNL A   1      38.600  33.188  34.030  1.00  0.00     0.074 A 
ATOM     52  C   UNL A   1      42.752  31.518  30.410  1.00  0.00     0.029 A 
ATOM     53  N   UNL A   1      41.916  29.957  31.752  1.00  0.00    -0.354 N 
ATOM     54  N   UNL A   1      39.351  32.335  33.376  1.00  0.00    -0.248 NA
ATOM     55  C   UNL A   1      38.931  33.283  35.445  1.00  0.00     0.031 C 
ATOM     56  C   UNL A   1      42.491  32.084  31.693  1.00  0.00     0.029 A 
ATOM     57  C   UNL A   1      41.864  31.129  32.478  1.00  0.00     0.049 A 
ATOM     58  H   UNL A   1      41.694  29.067  32.109  1.00  0.00     0.167 HD
ATOM     59  C   UNL A   1      40.334  31.878  34.217  1.00  0.00     0.074 A 
ATOM     60  C   UNL A   1      40.009  32.488  35.502  1.00  0.00     0.031 C 
ATOM     61  C   UNL A   1      41.393  31.088  33.849  1.00  0.00     0.034 A 
BRANCH  48  62
ATOM     62  C   UNL A   1      42.890  28.732  28.395  1.00  0.00     0.023 A 
ATOM     63  C   UNL A   1      43.135  27.339  28.417  1.00  0.00     0.031 A 
ATOM     64  C   UNL A   1      43.611  29.448  27.424  1.00  0.00     0.131 A 
ATOM     65  C   UNL A   1      44.063  26.726  27.559  1.00  0.00     0.055 A 
ATOM     66  C   UNL A   1      44.540  28.837  26.561  1.00  0.00     0.041 A 
ATOM     67  F   UNL A   1      43.445  30.763  27.237  1.00  0.00    -0.206 F 
ATOM     68  C   UNL A   1      44.773  27.470  26.627  1.00  0.00     0.022 A 
BRANCH  65  69
ATOM     69  S   UNL A   1      44.320  24.936  27.697  1.00  0.00     0.124 S 
ATOM     70  O   UNL A   1      43.733  24.642  29.000  1.00  0.00    -0.237 OA
ATOM     71  O   UNL A   1      43.600  24.428  26.534  1.00  0.00    -0.237 OA
ATOM     72  O   UNL A   1      45.773  24.795  27.629  1.00  0.00    -0.744 OA
ENDBRANCH  65  69
ENDBRANCH  48  62
BRANCH  49  73
ATOM     73  C   UNL A   1      36.124  34.075  33.346  1.00  0.00     0.023 A 
ATOM     74  C   UNL A   1      35.397  35.297  33.343  1.00  0.00     0.031 A 
ATOM     75  C   UNL A   1      35.397  32.920  33.033  1.00  0.00     0.131 A 
ATOM     76  C   UNL A   1      34.065  35.364  32.897  1.00  0.00     0.055 A 
ATOM     77  C   UNL A   1      34.037  32.979  32.660  1.00  0.00     0.041 A 
ATOM     78  F   UNL A   1      35.997  31.723  32.979  1.00  0.00    -0.206 F 
ATOM     79  C   UNL A   1      33.374  34.206  32.555  1.00  0.00     0.022 A 
BRANCH  76  80
ATOM     80  S   UNL A   1      33.365  37.001  32.504  1.00  0.00     0.124 S 
ATOM     81  O   UNL A   1      33.506  37.056  31.053  1.00  0.00    -0.237 OA
ATOM     82  O   UNL A   1      31.999  36.887  33.011  1.00  0.00    -0.237 OA
ATOM     83  O   UNL A   1      34.211  37.926  33.250  1.00  0.00    -0.744 OA
ENDBRANCH  76  80
ENDBRANCH  49  73
BRANCH  61  84
ATOM     84  C   UNL A   1      42.138  30.214  34.826  1.00  0.00     0.023 A 
ATOM     85  C   UNL A   1      41.852  28.854  34.935  1.00  0.00     0.031 A 
ATOM     86  C   UNL A   1      43.229  30.675  35.602  1.00  0.00     0.131 A 
ATOM     87  C   UNL A   1      42.469  28.064  35.903  1.00  0.00     0.055 A 
ATOM     88  C   UNL A   1      43.962  29.841  36.445  1.00  0.00     0.041 A 
ATOM     89  F   UNL A   1      43.646  31.950  35.572  1.00  0.00    -0.206 F 
ATOM     90  C   UNL A   1      43.552  28.532  36.638  1.00  0.00     0.022 A 
BRANCH  87  91
ATOM     91  S   UNL A   1      41.677  26.489  36.279  1.00  0.00     0.124 S 
ATOM     92  O   UNL A   1      40.867  26.276  35.080  1.00  0.00    -0.237 OA
ATOM     93  O   UNL A   1      42.817  25.591  36.434  1.00  0.00    -0.237 OA
ATOM     94  O   UNL A   1      40.924  26.767  37.498  1.00  0.00    -0.744 OA
ENDBRANCH  87  91
ENDBRANCH  61  84
ENDBRANCH  35  36
ENDBRANCH  28  30
ENDBRANCH  27  28
ENDBRANCH  26  27
ENDBRANCH   1  26
TORSDOF 18
ENDMDL
MODEL 2
REMARK VINA RESULT:     -12.0      3.724      9.677
REMARK SMILES Cc1cc(C(=O)OCCOC(=O)c2ccc(-c3c4nc(c(-c5cc(S(=O)(=O)[O-])ccc5F)c5ccc([nH]5)c(-c5cc(S(=O)(=O)[O-])ccc5F)c5nc(c(-c6cc(S(=O)(=O)[O-])ccc6F)c6ccc3[nH]6)C=C5)C=C4)cc2)ccc1NS(=O)(=O)c1ccc(C#N)cc1C
REMARK SMILES IDX 8 1 7 2 5 3 6 4 4 5 1 6 2 7 3 8 78 9 77 10 76 11 79 12 80 14
REMARK SMILES IDX 81 15 82 16 83 17 84 18 90 19 85 20 89 21 91 22 86 23 87 24
REMARK SMILES IDX 88 25 9 26 10 27 11 28 12 29 13 30 14 31 75 32 15 33 74 34
REMARK SMILES IDX 16 35 17 36 18 37 68 38 19 39 73 40 67 41 69 42 20 43 72 44
REMARK SMILES IDX 66 45 65 46 21 48 53 49 33 50 52 51 34 52 37 53 51 54 70 55
REMARK SMILES IDX 35 56 36 57 50 59 71 60 38 61 22 62 23 63 31 64 24 65 30 66
REMARK SMILES IDX 32 67 29 68 25 69 26 70 27 71 28 72 54 73 55 74 63 75 56 76
REMARK SMILES IDX 62 77 64 78 61 79 57 80 58 81 59 82 60 83 39 84 40 85 48 86
REMARK SMILES IDX 41 87 47 88 49 89 46 90 42 91 43 92 44 93 45 94
REMARK H PARENT 79 13 69 47 37 58
REMARK Flexibility Score: inf
ROOT
ATOM      1  C   UNL A   1      36.700  21.678  25.626  1.00  0.00     0.275 C 
ENDROOT
BRANCH   1   2
ATOM      2  O   UNL A   1      36.152  21.581  24.302  1.00  0.00    -0.458 OA
BRANCH   2   3
ATOM      3  C   UNL A   1      35.503  22.696  23.900  1.00  0.00     0.338 C 
ATOM      4  O   UNL A   1      35.692  23.327  22.868  1.00  0.00    -0.246 OA
BRANCH   3   5
ATOM      5  C   UNL A   1      34.653  23.270  24.953  1.00  0.00     0.060 A 
ATOM      6  C   UNL A   1      31.018  22.985  26.022  1.00  0.00     0.046 C 
ATOM      7  C   UNL A   1      32.355  23.587  25.683  1.00  0.00    -0.026 A 
ATOM      8  C   UNL A   1      33.397  22.744  25.272  1.00  0.00     0.021 A 
ATOM      9  C   UNL A   1      32.602  24.965  25.664  1.00  0.00     0.052 A 
ATOM     10  C   UNL A   1      33.922  25.428  25.681  1.00  0.00     0.028 A 
ATOM     11  C   UNL A   1      34.948  24.588  25.269  1.00  0.00     0.018 A 
BRANCH   9  12
ATOM     12  N   UNL A   1      31.515  25.834  25.347  1.00  0.00    -0.279 N 
ATOM     13  H   UNL A   1      31.038  26.256  26.098  1.00  0.00     0.180 HD
BRANCH  12  14
ATOM     14  S   UNL A   1      30.992  26.194  23.799  1.00  0.00     0.262 S 
ATOM     15  O   UNL A   1      32.178  26.452  23.011  1.00  0.00    -0.201 OA
ATOM     16  O   UNL A   1      30.067  25.137  23.435  1.00  0.00    -0.201 OA
BRANCH  14  17
ATOM     17  C   UNL A   1      30.045  27.734  23.826  1.00  0.00     0.090 A 
ATOM     18  C   UNL A   1      28.768  27.808  23.243  1.00  0.00     0.024 A 
ATOM     19  C   UNL A   1      30.685  28.919  24.248  1.00  0.00    -0.029 A 
ATOM     20  C   UNL A   1      28.204  29.056  22.927  1.00  0.00     0.021 A 
ATOM     21  C   UNL A   1      30.099  30.160  23.929  1.00  0.00     0.024 A 
ATOM     22  C   UNL A   1      31.940  28.953  25.077  1.00  0.00     0.046 C 
ATOM     23  C   UNL A   1      28.889  30.232  23.232  1.00  0.00     0.052 A 
BRANCH  23  24
ATOM     24  C   UNL A   1      28.393  31.519  22.812  1.00  0.00     0.099 C 
ATOM     25  N   UNL A   1      27.939  32.536  22.516  1.00  0.00    -0.192 NA
ENDBRANCH  23  24
ENDBRANCH  14  17
ENDBRANCH  12  14
ENDBRANCH   9  12
ENDBRANCH   3   5
ENDBRANCH   2   3
ENDBRANCH   1   2
BRANCH   1  26
ATOM     26  C   UNL A   1      38.176  22.117  25.628  1.00  0.00     0.275 C 
BRANCH  26  27
ATOM     27  O   UNL A   1      38.595  23.319  26.329  1.00  0.00    -0.458 OA
BRANCH  27  28
ATOM     28  C   UNL A   1      39.899  23.552  26.626  1.00  0.00     0.338 C 
ATOM     29  O   UNL A   1      40.817  22.864  26.202  1.00  0.00    -0.246 OA
BRANCH  28  30
ATOM     30  C   UNL A   1      40.113  24.851  27.295  1.00  0.00     0.060 A 
ATOM     31  C   UNL A   1      40.642  25.902  26.533  1.00  0.00     0.016 A 
ATOM     32  C   UNL A   1      39.525  25.083  28.534  1.00  0.00     0.016 A 
ATOM     33  C   UNL A   1      40.483  27.211  26.940  1.00  0.00     0.010 A 
ATOM     34  C   UNL A   1      39.179  26.364  28.848  1.00  0.00     0.010 A 
ATOM     35  C   UNL A   1      39.742  27.408  28.098  1.00  0.00    -0.014 A 
BRANCH  35  36
ATOM     36  C   UNL A   1      39.880  28.602  28.901  1.00  0.00     0.031 A 
ATOM     37  C   UNL A   1      38.878  29.663  28.712  1.00  0.00     0.074 A 
ATOM     38  C   UNL A   1      40.835  28.351  29.834  1.00  0.00     0.049 A 
ATOM     39  N   UNL A   1      39.066  30.909  28.943  1.00  0.00    -0.248 NA
ATOM     40  C   UNL A   1      37.555  29.433  28.110  1.00  0.00     0.031 C 
ATOM     41  C   UNL A   1      41.196  28.919  31.115  1.00  0.00     0.029 A 
ATOM     42  N   UNL A   1      41.855  27.396  29.638  1.00  0.00    -0.354 N 
ATOM     43  C   UNL A   1      37.803  31.462  29.066  1.00  0.00     0.074 A 
ATOM     44  C   UNL A   1      36.952  30.618  28.278  1.00  0.00     0.031 C 
ATOM     45  C   UNL A   1      42.480  28.589  31.386  1.00  0.00     0.029 A 
ATOM     46  C   UNL A   1      43.014  27.854  30.240  1.00  0.00     0.049 A 
ATOM     47  H   UNL A   1      41.759  26.545  29.153  1.00  0.00     0.167 HD
ATOM     48  C   UNL A   1      37.595  32.365  30.070  1.00  0.00     0.034 A 
ATOM     49  C   UNL A   1      43.980  28.278  29.370  1.00  0.00     0.034 A 
ATOM     50  C   UNL A   1      38.845  32.501  30.818  1.00  0.00     0.049 A 
ATOM     51  C   UNL A   1      43.958  29.791  29.370  1.00  0.00     0.074 A 
ATOM     52  C   UNL A   1      39.293  31.914  31.989  1.00  0.00     0.029 A 
ATOM     53  N   UNL A   1      39.966  32.967  30.152  1.00  0.00    -0.354 N 
ATOM     54  N   UNL A   1      42.880  30.527  29.492  1.00  0.00    -0.248 NA
ATOM     55  C   UNL A   1      45.193  30.556  29.460  1.00  0.00     0.031 C 
ATOM     56  C   UNL A   1      40.719  31.946  31.956  1.00  0.00     0.029 A 
ATOM     57  C   UNL A   1      41.119  32.501  30.750  1.00  0.00     0.049 A 
ATOM     58  H   UNL A   1      39.943  33.550  29.359  1.00  0.00     0.167 HD
ATOM     59  C   UNL A   1      43.254  31.809  29.807  1.00  0.00     0.074 A 
ATOM     60  C   UNL A   1      44.712  31.773  29.753  1.00  0.00     0.031 C 
ATOM     61  C   UNL A   1      42.402  32.826  30.155  1.00  0.00     0.034 A 
BRANCH  48  62
ATOM     62  C   UNL A   1      36.293  32.905  30.624  1.00  0.00     0.023 A 
ATOM     63  C   UNL A   1      35.547  33.775  29.795  1.00  0.00     0.031 A 
ATOM     64  C   UNL A   1      35.722  32.645  31.882  1.00  0.00     0.131 A 
ATOM     65  C   UNL A   1      34.345  34.368  30.216  1.00  0.00     0.055 A 
ATOM     66  C   UNL A   1      34.516  33.237  32.307  1.00  0.00     0.041 A 
ATOM     67  F   UNL A   1      36.276  31.797  32.756  1.00  0.00    -0.206 F 
ATOM     68  C   UNL A   1      33.823  34.105  31.474  1.00  0.00     0.022 A 
BRANCH  65  69
ATOM     69  S   UNL A   1      33.489  35.492  29.080  1.00  0.00     0.124 S 
ATOM     70  O   UNL A   1      32.923  36.479  29.993  1.00  0.00    -0.237 OA
ATOM     71  O   UNL A   1      34.575  35.953  28.221  1.00  0.00    -0.237 OA
ATOM     72  O   UNL A   1      32.510  34.629  28.421  1.00  0.00    -0.744 OA
ENDBRANCH  65  69
ENDBRANCH  48  62
BRANCH  49  73
ATOM     73  C   UNL A   1      44.173  27.357  28.182  1.00  0.00     0.023 A 
ATOM     74  C   UNL A   1      44.932  27.853  27.086  1.00  0.00     0.031 A 
ATOM     75  C   UNL A   1      43.908  25.982  28.180  1.00  0.00     0.131 A 
ATOM     76  C   UNL A   1      45.519  26.991  26.142  1.00  0.00     0.055 A 
ATOM     77  C   UNL A   1      44.431  25.127  27.187  1.00  0.00     0.041 A 
ATOM     78  F   UNL A   1      43.226  25.413  29.184  1.00  0.00    -0.206 F 
ATOM     79  C   UNL A   1      45.270  25.622  26.183  1.00  0.00     0.022 A 
BRANCH  76  80
ATOM     80  S   UNL A   1      46.822  27.656  25.055  1.00  0.00     0.124 S 
ATOM     81  O   UNL A   1      46.784  26.731  23.928  1.00  0.00    -0.237 OA
ATOM     82  O   UNL A   1      46.346  29.012  24.789  1.00  0.00    -0.237 OA
ATOM     83  O   UNL A   1      48.025  27.589  25.879  1.00  0.00    -0.744 OA
ENDBRANCH  76  80
ENDBRANCH  49  73
BRANCH  61  84
ATOM     84  C   UNL A   1      42.762  34.282  30.005  1.00  0.00     0.023 A 
ATOM     85  C   UNL A   1      42.502  34.965  28.818  1.00  0.00     0.031 A 
ATOM     86  C   UNL A   1      43.273  35.067  31.066  1.00  0.00     0.131 A 
ATOM     87  C   UNL A   1      42.921  36.283  28.640  1.00  0.00     0.055 A 
ATOM     88  C   UNL A   1      43.529  36.432  30.939  1.00  0.00     0.041 A 
ATOM     89  F   UNL A   1      43.535  34.557  32.278  1.00  0.00    -0.206 F 
ATOM     90  C   UNL A   1      43.400  37.041  29.701  1.00  0.00     0.022 A 
BRANCH  87  91
ATOM     91  S   UNL A   1      42.984  36.883  26.941  1.00  0.00     0.124 S 
ATOM     92  O   UNL A   1      41.911  37.875  26.942  1.00  0.00    -0.237 OA
ATOM     93  O   UNL A   1      44.337  37.421  26.846  1.00  0.00    -0.237 OA
ATOM     94  O   UNL A   1      42.726  35.686  26.147  1.00  0.00    -0.744 OA
ENDBRANCH  87  91
ENDBRANCH  61  84
ENDBRANCH  35  36
ENDBRANCH  28  30
ENDBRANCH  27  28
ENDBRANCH  26  27
ENDBRANCH   1  26
TORSDOF 18
ENDMDL
MODEL 3
REMARK VINA RESULT:     -11.9      4.244      6.123
REMARK SMILES Cc1cc(C(=O)OCCOC(=O)c2ccc(-c3c4nc(c(-c5cc(S(=O)(=O)[O-])ccc5F)c5ccc([nH]5)c(-c5cc(S(=O)(=O)[O-])ccc5F)c5nc(c(-c6cc(S(=O)(=O)[O-])ccc6F)c6ccc3[nH]6)C=C5)C=C4)cc2)ccc1NS(=O)(=O)c1ccc(C#N)cc1C
REMARK SMILES IDX 8 1 7 2 5 3 6 4 4 5 1 6 2 7 3 8 78 9 77 10 76 11 79 12 80 14
REMARK SMILES IDX 81 15 82 16 83 17 84 18 90 19 85 20 89 21 91 22 86 23 87 24
REMARK SMILES IDX 88 25 9 26 10 27 11 28 12 29 13 30 14 31 75 32 15 33 74 34
REMARK SMILES IDX 16 35 17 36 18 37 68 38 19 39 73 40 67 41 69 42 20 43 72 44
REMARK SMILES IDX 66 45 65 46 21 48 53 49 33 50 52 51 34 52 37 53 51 54 70 55
REMARK SMILES IDX 35 56 36 57 50 59 71 60 38 61 22 62 23 63 31 64 24 65 30 66
REMARK SMILES IDX 32 67 29 68 25 69 26 70 27 71 28 72 54 73 55 74 63 75 56 76
REMARK SMILES IDX 62 77 64 78 61 79 57 80 58 81 59 82 60 83 39 84 40 85 48 86
REMARK SMILES IDX 41 87 47 88 49 89 46 90 42 91 43 92 44 93 45 94
REMARK H PARENT 79 13 69 47 37 58
REMARK Flexibility Score: inf
ROOT
ATOM      1  C   UNL A   1      33.516  30.100  26.633  1.00  0.00     0.275 C 
ENDROOT
BRANCH   1   2
ATOM      2  O   UNL A   1      33.025  29.013  25.832  1.00  0.00    -0.458 OA
BRANCH   2   3
ATOM      3  C   UNL A   1      31.806  28.568  26.209  1.00  0.00     0.338 C 
ATOM      4  O   UNL A   1      31.430  28.325  27.348  1.00  0.00    -0.246 OA
BRANCH   3   5
ATOM      5  C   UNL A   1      30.975  28.153  25.070  1.00  0.00     0.060 A 
ATOM      6  C   UNL A   1      29.900  24.865  23.498  1.00  0.00     0.046 C 
ATOM      7  C   UNL A   1      30.389  26.282  23.631  1.00  0.00    -0.026 A 
ATOM      8  C   UNL A   1      30.525  26.838  24.911  1.00  0.00     0.021 A 
ATOM      9  C   UNL A   1      30.811  27.061  22.547  1.00  0.00     0.052 A 
ATOM     10  C   UNL A   1      30.919  28.448  22.697  1.00  0.00     0.028 A 
ATOM     11  C   UNL A   1      31.057  28.991  23.968  1.00  0.00     0.018 A 
BRANCH   9  12
ATOM     12  N   UNL A   1      31.377  26.390  21.422  1.00  0.00    -0.279 N 
ATOM     13  H   UNL A   1      30.791  26.224  20.649  1.00  0.00     0.180 HD
BRANCH  12  14
ATOM     14  S   UNL A   1      32.963  25.868  21.314  1.00  0.00     0.262 S 
ATOM     15  O   UNL A   1      33.202  25.558  19.921  1.00  0.00    -0.201 OA
ATOM     16  O   UNL A   1      33.760  26.863  22.007  1.00  0.00    -0.201 OA
BRANCH  14  17
ATOM     17  C   UNL A   1      33.151  24.318  22.226  1.00  0.00     0.090 A 
ATOM     18  C   UNL A   1      32.832  23.085  21.631  1.00  0.00     0.024 A 
ATOM     19  C   UNL A   1      33.417  24.372  23.611  1.00  0.00    -0.029 A 
ATOM     20  C   UNL A   1      32.614  21.949  22.427  1.00  0.00     0.021 A 
ATOM     21  C   UNL A   1      33.200  23.219  24.391  1.00  0.00     0.024 A 
ATOM     22  C   UNL A   1      33.980  25.575  24.319  1.00  0.00     0.046 C 
ATOM     23  C   UNL A   1      32.756  22.026  23.813  1.00  0.00     0.052 A 
BRANCH  23  24
ATOM     24  C   UNL A   1      32.421  20.911  24.664  1.00  0.00     0.099 C 
ATOM     25  N   UNL A   1      32.223  20.010  25.355  1.00  0.00    -0.192 NA
ENDBRANCH  23  24
ENDBRANCH  14  17
ENDBRANCH  12  14
ENDBRANCH   9  12
ENDBRANCH   3   5
ENDBRANCH   2   3
ENDBRANCH   1   2
BRANCH   1  26
ATOM     26  C   UNL A   1      34.403  29.626  27.799  1.00  0.00     0.275 C 
BRANCH  26  27
ATOM     27  O   UNL A   1      35.821  29.378  27.603  1.00  0.00    -0.458 OA
BRANCH  27  28
ATOM     28  C   UNL A   1      36.764  29.999  28.357  1.00  0.00     0.338 C 
ATOM     29  O   UNL A   1      36.533  30.988  29.039  1.00  0.00    -0.246 OA
BRANCH  28  30
ATOM     30  C   UNL A   1      38.016  29.222  28.467  1.00  0.00     0.060 A 
ATOM     31  C   UNL A   1      39.074  29.561  27.612  1.00  0.00     0.016 A 
ATOM     32  C   UNL A   1      38.216  28.409  29.576  1.00  0.00     0.016 A 
ATOM     33  C   UNL A   1      40.368  29.192  27.920  1.00  0.00     0.010 A 
ATOM     34  C   UNL A   1      39.496  28.214  30.004  1.00  0.00     0.010 A 
ATOM     35  C   UNL A   1      40.546  28.526  29.125  1.00  0.00    -0.014 A 
BRANCH  35  36
ATOM     36  C   UNL A   1      41.689  27.676  29.368  1.00  0.00     0.031 A 
ATOM     37  C   UNL A   1      41.614  26.288  28.885  1.00  0.00     0.074 A 
ATOM     38  C   UNL A   1      42.692  28.471  29.824  1.00  0.00     0.049 A 
ATOM     39  N   UNL A   1      42.259  25.296  29.378  1.00  0.00    -0.248 NA
ATOM     40  C   UNL A   1      40.682  25.841  27.837  1.00  0.00     0.031 C 
ATOM     41  C   UNL A   1      44.133  28.366  29.904  1.00  0.00     0.029 A 
ATOM     42  N   UNL A   1      42.449  29.694  30.485  1.00  0.00    -0.354 N 
ATOM     43  C   UNL A   1      42.253  24.320  28.396  1.00  0.00     0.074 A 
ATOM     44  C   UNL A   1      41.067  24.574  27.631  1.00  0.00     0.031 C 
ATOM     45  C   UNL A   1      44.576  29.231  30.846  1.00  0.00     0.029 A 
ATOM     46  C   UNL A   1      43.414  29.871  31.461  1.00  0.00     0.049 A 
ATOM     47  H   UNL A   1      41.715  30.319  30.285  1.00  0.00     0.167 HD
ATOM     48  C   UNL A   1      43.412  23.632  28.172  1.00  0.00     0.034 A 
ATOM     49  C   UNL A   1      42.967  29.705  32.743  1.00  0.00     0.034 A 
ATOM     50  C   UNL A   1      44.431  24.163  29.076  1.00  0.00     0.049 A 
ATOM     51  C   UNL A   1      43.433  28.343  33.213  1.00  0.00     0.074 A 
ATOM     52  C   UNL A   1      45.432  25.103  28.896  1.00  0.00     0.029 A 
ATOM     53  N   UNL A   1      44.221  24.062  30.441  1.00  0.00    -0.354 N 
ATOM     54  N   UNL A   1      43.526  27.278  32.454  1.00  0.00    -0.248 NA
ATOM     55  C   UNL A   1      44.039  28.173  34.525  1.00  0.00     0.031 C 
ATOM     56  C   UNL A   1      45.740  25.639  30.181  1.00  0.00     0.029 A 
ATOM     57  C   UNL A   1      44.894  25.061  31.115  1.00  0.00     0.049 A 
ATOM     58  H   UNL A   1      43.667  23.372  30.872  1.00  0.00     0.167 HD
ATOM     59  C   UNL A   1      44.302  26.346  33.096  1.00  0.00     0.074 A 
ATOM     60  C   UNL A   1      44.577  26.952  34.395  1.00  0.00     0.031 C 
ATOM     61  C   UNL A   1      44.742  25.166  32.553  1.00  0.00     0.034 A 
BRANCH  48  62
ATOM     62  C   UNL A   1      43.790  22.739  27.009  1.00  0.00     0.023 A 
ATOM     63  C   UNL A   1      43.180  21.464  26.945  1.00  0.00     0.031 A 
ATOM     64  C   UNL A   1      44.687  23.023  25.964  1.00  0.00     0.131 A 
ATOM     65  C   UNL A   1      43.482  20.536  25.935  1.00  0.00     0.055 A 
ATOM     66  C   UNL A   1      44.991  22.095  24.950  1.00  0.00     0.041 A 
ATOM     67  F   UNL A   1      45.299  24.208  25.851  1.00  0.00    -0.206 F 
ATOM     68  C   UNL A   1      44.391  20.844  24.933  1.00  0.00     0.022 A 
BRANCH  65  69
ATOM     69  S   UNL A   1      42.662  18.919  25.971  1.00  0.00     0.124 S 
ATOM     70  O   UNL A   1      42.666  18.605  27.396  1.00  0.00    -0.237 OA
ATOM     71  O   UNL A   1      41.363  19.216  25.378  1.00  0.00    -0.237 OA
ATOM     72  O   UNL A   1      43.534  18.078  25.152  1.00  0.00    -0.744 OA
ENDBRANCH  65  69
ENDBRANCH  48  62
BRANCH  49  73
ATOM     73  C   UNL A   1      41.630  30.366  33.009  1.00  0.00     0.023 A 
ATOM     74  C   UNL A   1      41.561  31.780  32.875  1.00  0.00     0.031 A 
ATOM     75  C   UNL A   1      40.406  29.693  33.106  1.00  0.00     0.131 A 
ATOM     76  C   UNL A   1      40.337  32.447  32.688  1.00  0.00     0.055 A 
ATOM     77  C   UNL A   1      39.174  30.374  32.997  1.00  0.00     0.041 A 
ATOM     78  F   UNL A   1      40.362  28.357  33.205  1.00  0.00    -0.206 F 
ATOM     79  C   UNL A   1      39.134  31.750  32.751  1.00  0.00     0.022 A 
BRANCH  76  80
ATOM     80  S   UNL A   1      40.372  34.167  32.083  1.00  0.00     0.124 S 
ATOM     81  O   UNL A   1      41.282  34.806  33.027  1.00  0.00    -0.237 OA
ATOM     82  O   UNL A   1      40.871  34.008  30.719  1.00  0.00    -0.237 OA
ATOM     83  O   UNL A   1      38.979  34.591  32.172  1.00  0.00    -0.744 OA
ENDBRANCH  76  80
ENDBRANCH  49  73
BRANCH  61  84
ATOM     84  C   UNL A   1      45.140  23.979  33.393  1.00  0.00     0.023 A 
ATOM     85  C   UNL A   1      46.405  23.903  33.974  1.00  0.00     0.031 A 
ATOM     86  C   UNL A   1      44.244  22.937  33.736  1.00  0.00     0.131 A 
ATOM     87  C   UNL A   1      46.810  22.764  34.669  1.00  0.00     0.055 A 
ATOM     88  C   UNL A   1      44.598  21.883  34.578  1.00  0.00     0.041 A 
ATOM     89  F   UNL A   1      42.982  22.896  33.285  1.00  0.00    -0.206 F 
ATOM     90  C   UNL A   1      45.909  21.765  35.013  1.00  0.00     0.022 A 
BRANCH  87  91
ATOM     91  S   UNL A   1      48.584  22.573  34.932  1.00  0.00     0.124 S 
ATOM     92  O   UNL A   1      48.761  21.141  34.699  1.00  0.00    -0.237 OA
ATOM     93  O   UNL A   1      49.150  23.449  33.912  1.00  0.00    -0.237 OA
ATOM     94  O   UNL A   1      48.774  23.008  36.312  1.00  0.00    -0.744 OA
ENDBRANCH  87  91
ENDBRANCH  61  84
ENDBRANCH  35  36
ENDBRANCH  28  30
ENDBRANCH  27  28
ENDBRANCH  26  27
ENDBRANCH   1  26
TORSDOF 18
ENDMDL
