MODEL 1
REMARK VINA RESULT:     -11.2      0.000      0.000
REMARK SMILES CCC(CC)(NC(=O)[C@@H](C)[N@H+]1[C@H](C)CC[C@@H]1C)C(=O)OCCOC(=O)c1ccc(-c2c3nc(c(-c4cc(S(=O)(=O)[O-])ccc4F)c4ccc([nH]4)c(-c4cc(S(=O)(=O)[O-])ccc4F)c4nc(c(-c5cc(S(=O)(=O)[O-])ccc5F)c5ccc2[nH]5)C=C4)C=C3)cc1
REMARK SMILES IDX 21 1 20 2 18 3 19 4 3 5 2 6 1 7 4 8 5 9 6 10 7 11 8 13 9 14
REMARK SMILES IDX 10 15 11 16 12 17 16 18 13 20 14 21 15 22 17 23 22 24 23 25
REMARK SMILES IDX 24 26 25 27 26 28 27 29 88 30 28 31 87 32 29 33 30 34 31 35
REMARK SMILES IDX 81 36 32 37 86 38 80 39 82 40 33 41 85 42 79 43 78 44 34 46
REMARK SMILES IDX 66 47 46 48 65 49 47 50 50 51 64 52 83 53 48 54 49 55 63 57
REMARK SMILES IDX 84 58 51 59 35 60 36 61 44 62 37 63 43 64 45 65 42 66 38 67
REMARK SMILES IDX 39 68 40 69 41 70 67 71 68 72 76 73 69 74 75 75 77 76 74 77
REMARK SMILES IDX 70 78 71 79 72 80 73 81 52 82 53 83 61 84 54 85 60 86 62 87
REMARK SMILES IDX 59 88 55 89 56 90 57 91 58 92
REMARK H PARENT 6 12 11 19 82 45 50 56
REMARK Flexibility Score: inf
ROOT
ATOM      1  C   UNL A   1      31.454  28.190  27.491  1.00  0.00     0.274 C 
ENDROOT
BRANCH   1   2
ATOM      2  O   UNL A   1      31.764  26.784  27.313  1.00  0.00    -0.460 OA
BRANCH   2   3
ATOM      3  C   UNL A   1      31.017  26.067  26.426  1.00  0.00     0.331 C 
ATOM      4  O   UNL A   1      29.797  25.964  26.506  1.00  0.00    -0.249 OA
BRANCH   3   5
ATOM      5  C   UNL A   1      31.875  25.372  25.304  1.00  0.00     0.137 C 
BRANCH   5   6
ATOM      6  C   UNL A   1      33.336  25.909  25.408  1.00  0.00     0.037 C 
ATOM      7  C   UNL A   1      33.850  26.722  24.222  1.00  0.00     0.007 C 
ENDBRANCH   5   6
BRANCH   5   8
ATOM      8  C   UNL A   1      31.278  25.736  23.908  1.00  0.00     0.037 C 
ATOM      9  C   UNL A   1      30.675  24.576  23.117  1.00  0.00     0.007 C 
ENDBRANCH   5   8
BRANCH   5  10
ATOM     10  N   UNL A   1      31.959  23.882  25.462  1.00  0.00    -0.335 N 
ATOM     11  C   UNL A   1      32.522  23.260  26.545  1.00  0.00     0.278 C 
ATOM     12  H   UNL A   1      31.588  23.319  24.745  1.00  0.00     0.164 HD
ATOM     13  O   UNL A   1      31.794  23.009  27.512  1.00  0.00    -0.268 OA
BRANCH  11  14
ATOM     14  C   UNL A   1      33.957  22.708  26.502  1.00  0.00     0.271 C 
ATOM     15  C   UNL A   1      34.315  21.823  27.708  1.00  0.00     0.086 C 
BRANCH  14  16
ATOM     16  N   UNL A   1      34.459  22.135  25.201  1.00  0.00    -0.321 N 
ATOM     17  C   UNL A   1      35.294  22.999  24.324  1.00  0.00     0.181 C 
ATOM     18  C   UNL A   1      35.293  20.931  25.520  1.00  0.00     0.181 C 
ATOM     19  H   UNL A   1      33.605  21.962  24.670  1.00  0.00     0.349 HD
ATOM     20  C   UNL A   1      34.611  23.422  23.024  1.00  0.00     0.075 C 
ATOM     21  C   UNL A   1      36.499  22.160  23.901  1.00  0.00     0.071 C 
ATOM     22  C   UNL A   1      36.714  21.268  25.086  1.00  0.00     0.071 C 
ATOM     23  C   UNL A   1      34.734  19.707  24.801  1.00  0.00     0.075 C 
ENDBRANCH  14  16
ENDBRANCH  11  14
ENDBRANCH   5  10
ENDBRANCH   3   5
ENDBRANCH   2   3
ENDBRANCH   1   2
BRANCH   1  24
ATOM     24  C   UNL A   1      31.681  28.972  26.195  1.00  0.00     0.275 C 
BRANCH  24  25
ATOM     25  O   UNL A   1      32.981  29.561  26.288  1.00  0.00    -0.458 OA
BRANCH  25  26
ATOM     26  C   UNL A   1      33.059  30.797  26.835  1.00  0.00     0.338 C 
ATOM     27  O   UNL A   1      32.236  31.690  26.799  1.00  0.00    -0.246 OA
BRANCH  26  28
ATOM     28  C   UNL A   1      34.317  30.800  27.600  1.00  0.00     0.060 A 
ATOM     29  C   UNL A   1      34.775  29.567  28.070  1.00  0.00     0.016 A 
ATOM     30  C   UNL A   1      35.040  31.960  27.842  1.00  0.00     0.016 A 
ATOM     31  C   UNL A   1      35.971  29.472  28.756  1.00  0.00     0.010 A 
ATOM     32  C   UNL A   1      36.273  31.857  28.497  1.00  0.00     0.010 A 
ATOM     33  C   UNL A   1      36.750  30.609  28.941  1.00  0.00    -0.014 A 
BRANCH  33  34
ATOM     34  C   UNL A   1      38.044  30.489  29.645  1.00  0.00     0.031 A 
ATOM     35  C   UNL A   1      39.104  29.627  29.042  1.00  0.00     0.074 A 
ATOM     36  C   UNL A   1      38.266  31.159  30.793  1.00  0.00     0.049 A 
ATOM     37  N   UNL A   1      40.153  29.092  29.601  1.00  0.00    -0.248 NA
ATOM     38  C   UNL A   1      38.948  29.317  27.612  1.00  0.00     0.031 C 
ATOM     39  C   UNL A   1      37.366  32.152  31.390  1.00  0.00     0.029 A 
ATOM     40  N   UNL A   1      39.315  31.094  31.675  1.00  0.00    -0.354 N 
ATOM     41  C   UNL A   1      40.748  28.321  28.612  1.00  0.00     0.074 A 
ATOM     42  C   UNL A   1      39.955  28.480  27.411  1.00  0.00     0.031 C 
ATOM     43  C   UNL A   1      37.892  32.583  32.546  1.00  0.00     0.029 A 
ATOM     44  C   UNL A   1      39.102  31.821  32.825  1.00  0.00     0.049 A 
ATOM     45  H   UNL A   1      40.137  30.579  31.503  1.00  0.00     0.167 HD
ATOM     46  C   UNL A   1      41.841  27.528  28.726  1.00  0.00     0.034 A 
ATOM     47  C   UNL A   1      39.758  31.799  34.002  1.00  0.00     0.034 A 
ATOM     48  C   UNL A   1      42.601  27.418  29.947  1.00  0.00     0.049 A 
ATOM     49  C   UNL A   1      40.914  30.840  34.143  1.00  0.00     0.074 A 
ATOM     50  C   UNL A   1      43.695  26.619  30.221  1.00  0.00     0.029 A 
ATOM     51  N   UNL A   1      42.339  28.145  31.106  1.00  0.00    -0.354 N 
ATOM     52  N   UNL A   1      41.407  30.005  33.255  1.00  0.00    -0.248 NA
ATOM     53  C   UNL A   1      41.587  30.803  35.446  1.00  0.00     0.031 C 
ATOM     54  C   UNL A   1      44.061  26.824  31.558  1.00  0.00     0.029 A 
ATOM     55  C   UNL A   1      43.239  27.801  32.100  1.00  0.00     0.049 A 
ATOM     56  H   UNL A   1      41.617  28.807  31.204  1.00  0.00     0.167 HD
ATOM     57  C   UNL A   1      42.459  29.352  33.890  1.00  0.00     0.074 A 
ATOM     58  C   UNL A   1      42.541  29.909  35.227  1.00  0.00     0.031 C 
ATOM     59  C   UNL A   1      43.282  28.378  33.423  1.00  0.00     0.034 A 
BRANCH  46  60
ATOM     60  C   UNL A   1      42.191  26.658  27.547  1.00  0.00     0.023 A 
ATOM     61  C   UNL A   1      41.887  25.287  27.507  1.00  0.00     0.031 A 
ATOM     62  C   UNL A   1      42.902  27.208  26.464  1.00  0.00     0.131 A 
ATOM     63  C   UNL A   1      42.348  24.500  26.438  1.00  0.00     0.055 A 
ATOM     64  C   UNL A   1      43.294  26.435  25.370  1.00  0.00     0.041 A 
ATOM     65  F   UNL A   1      43.249  28.505  26.463  1.00  0.00    -0.206 F 
ATOM     66  C   UNL A   1      43.029  25.070  25.358  1.00  0.00     0.022 A 
BRANCH  63  67
ATOM     67  S   UNL A   1      42.161  22.699  26.539  1.00  0.00     0.124 S 
ATOM     68  O   UNL A   1      43.162  22.244  25.578  1.00  0.00    -0.237 OA
ATOM     69  O   UNL A   1      42.452  22.428  27.942  1.00  0.00    -0.237 OA
ATOM     70  O   UNL A   1      40.773  22.475  26.136  1.00  0.00    -0.744 OA
ENDBRANCH  63  67
ENDBRANCH  46  60
BRANCH  47  71
ATOM     71  C   UNL A   1      39.274  32.600  35.165  1.00  0.00     0.023 A 
ATOM     72  C   UNL A   1      39.780  33.882  35.427  1.00  0.00     0.031 A 
ATOM     73  C   UNL A   1      38.330  32.072  36.068  1.00  0.00     0.131 A 
ATOM     74  C   UNL A   1      39.370  34.576  36.578  1.00  0.00     0.055 A 
ATOM     75  C   UNL A   1      37.882  32.789  37.178  1.00  0.00     0.041 A 
ATOM     76  F   UNL A   1      37.817  30.845  35.876  1.00  0.00    -0.206 F 
ATOM     77  C   UNL A   1      38.413  34.046  37.446  1.00  0.00     0.022 A 
BRANCH  74  78
ATOM     78  S   UNL A   1      40.180  36.149  36.980  1.00  0.00     0.124 S 
ATOM     79  O   UNL A   1      41.517  35.707  37.360  1.00  0.00    -0.237 OA
ATOM     80  O   UNL A   1      40.077  36.872  35.716  1.00  0.00    -0.237 OA
ATOM     81  O   UNL A   1      39.366  36.683  38.070  1.00  0.00    -0.744 OA
ENDBRANCH  74  78
ENDBRANCH  47  71
BRANCH  59  82
ATOM     82  C   UNL A   1      44.362  27.908  34.360  1.00  0.00     0.023 A 
ATOM     83  C   UNL A   1      44.082  27.041  35.430  1.00  0.00     0.031 A 
ATOM     84  C   UNL A   1      45.683  28.355  34.190  1.00  0.00     0.131 A 
ATOM     85  C   UNL A   1      45.102  26.694  36.325  1.00  0.00     0.055 A 
ATOM     86  C   UNL A   1      46.705  27.960  35.051  1.00  0.00     0.041 A 
ATOM     87  F   UNL A   1      45.999  29.186  33.182  1.00  0.00    -0.206 F 
ATOM     88  C   UNL A   1      46.414  27.134  36.134  1.00  0.00     0.022 A 
BRANCH  85  89
ATOM     89  S   UNL A   1      44.672  25.729  37.799  1.00  0.00     0.124 S 
ATOM     90  O   UNL A   1      43.438  26.375  38.235  1.00  0.00    -0.237 OA
ATOM     91  O   UNL A   1      44.530  24.380  37.259  1.00  0.00    -0.237 OA
ATOM     92  O   UNL A   1      45.819  25.924  38.683  1.00  0.00    -0.744 OA
ENDBRANCH  85  89
ENDBRANCH  59  82
ENDBRANCH  33  34
ENDBRANCH  26  28
ENDBRANCH  25  26
ENDBRANCH  24  25
ENDBRANCH   1  24
TORSDOF 19
ENDMDL
MODEL 2
REMARK VINA RESULT:     -10.9      4.544      9.638
REMARK SMILES CCC(CC)(NC(=O)[C@@H](C)[N@H+]1[C@H](C)CC[C@@H]1C)C(=O)OCCOC(=O)c1ccc(-c2c3nc(c(-c4cc(S(=O)(=O)[O-])ccc4F)c4ccc([nH]4)c(-c4cc(S(=O)(=O)[O-])ccc4F)c4nc(c(-c5cc(S(=O)(=O)[O-])ccc5F)c5ccc2[nH]5)C=C4)C=C3)cc1
REMARK SMILES IDX 21 1 20 2 18 3 19 4 3 5 2 6 1 7 4 8 5 9 6 10 7 11 8 13 9 14
REMARK SMILES IDX 10 15 11 16 12 17 16 18 13 20 14 21 15 22 17 23 22 24 23 25
REMARK SMILES IDX 24 26 25 27 26 28 27 29 88 30 28 31 87 32 29 33 30 34 31 35
REMARK SMILES IDX 81 36 32 37 86 38 80 39 82 40 33 41 85 42 79 43 78 44 34 46
REMARK SMILES IDX 66 47 46 48 65 49 47 50 50 51 64 52 83 53 48 54 49 55 63 57
REMARK SMILES IDX 84 58 51 59 35 60 36 61 44 62 37 63 43 64 45 65 42 66 38 67
REMARK SMILES IDX 39 68 40 69 41 70 67 71 68 72 76 73 69 74 75 75 77 76 74 77
REMARK SMILES IDX 70 78 71 79 72 80 73 81 52 82 53 83 61 84 54 85 60 86 62 87
REMARK SMILES IDX 59 88 55 89 56 90 57 91 58 92
REMARK H PARENT 6 12 11 19 82 45 50 56
REMARK Flexibility Score: inf
ROOT
ATOM      1  C   UNL A   1      35.357  20.250  25.124  1.00  0.00     0.274 C 
ENDROOT
BRANCH   1   2
ATOM      2  O   UNL A   1      34.093  20.948  24.982  1.00  0.00    -0.460 OA
BRANCH   2   3
ATOM      3  C   UNL A   1      33.742  21.847  25.946  1.00  0.00     0.331 C 
ATOM      4  O   UNL A   1      33.942  21.660  27.142  1.00  0.00    -0.249 OA
BRANCH   3   5
ATOM      5  C   UNL A   1      33.040  23.135  25.373  1.00  0.00     0.137 C 
BRANCH   5   6
ATOM      6  C   UNL A   1      31.654  22.714  24.796  1.00  0.00     0.037 C 
ATOM      7  C   UNL A   1      31.294  23.265  23.417  1.00  0.00     0.007 C 
ENDBRANCH   5   6
BRANCH   5   8
ATOM      8  C   UNL A   1      33.926  23.733  24.235  1.00  0.00     0.037 C 
ATOM      9  C   UNL A   1      35.245  24.364  24.679  1.00  0.00     0.007 C 
ENDBRANCH   5   8
BRANCH   5  10
ATOM     10  N   UNL A   1      32.766  24.173  26.421  1.00  0.00    -0.335 N 
ATOM     11  C   UNL A   1      31.766  25.104  26.329  1.00  0.00     0.278 C 
ATOM     12  H   UNL A   1      33.339  24.186  27.221  1.00  0.00     0.164 HD
ATOM     13  O   UNL A   1      30.653  24.806  26.779  1.00  0.00    -0.268 OA
BRANCH  11  14
ATOM     14  C   UNL A   1      32.045  26.545  25.867  1.00  0.00     0.271 C 
ATOM     15  C   UNL A   1      33.426  27.072  26.290  1.00  0.00     0.086 C 
BRANCH  14  16
ATOM     16  N   UNL A   1      31.701  26.915  24.446  1.00  0.00    -0.321 N 
ATOM     17  C   UNL A   1      30.552  27.832  24.213  1.00  0.00     0.181 C 
ATOM     18  C   UNL A   1      32.899  27.581  23.841  1.00  0.00     0.181 C 
ATOM     19  H   UNL A   1      31.422  26.027  24.028  1.00  0.00     0.349 HD
ATOM     20  C   UNL A   1      29.342  27.171  23.556  1.00  0.00     0.075 C 
ATOM     21  C   UNL A   1      31.032  28.891  23.221  1.00  0.00     0.071 C 
ATOM     22  C   UNL A   1      32.488  29.020  23.551  1.00  0.00     0.071 C 
ATOM     23  C   UNL A   1      33.331  26.830  22.585  1.00  0.00     0.075 C 
ENDBRANCH  14  16
ENDBRANCH  11  14
ENDBRANCH   5  10
ENDBRANCH   3   5
ENDBRANCH   2   3
ENDBRANCH   1   2
BRANCH   1  24
ATOM     24  C   UNL A   1      36.512  21.085  24.566  1.00  0.00     0.275 C 
BRANCH  24  25
ATOM     25  O   UNL A   1      37.201  21.642  25.688  1.00  0.00    -0.458 OA
BRANCH  25  26
ATOM     26  C   UNL A   1      38.494  21.280  25.860  1.00  0.00     0.338 C 
ATOM     27  O   UNL A   1      39.029  20.232  25.557  1.00  0.00    -0.246 OA
BRANCH  26  28
ATOM     28  C   UNL A   1      39.162  22.480  26.388  1.00  0.00     0.060 A 
ATOM     29  C   UNL A   1      40.250  22.278  27.240  1.00  0.00     0.016 A 
ATOM     30  C   UNL A   1      38.758  23.767  26.055  1.00  0.00     0.016 A 
ATOM     31  C   UNL A   1      40.964  23.348  27.743  1.00  0.00     0.010 A 
ATOM     32  C   UNL A   1      39.509  24.849  26.528  1.00  0.00     0.010 A 
ATOM     33  C   UNL A   1      40.626  24.642  27.360  1.00  0.00    -0.014 A 
BRANCH  33  34
ATOM     34  C   UNL A   1      41.419  25.777  27.876  1.00  0.00     0.031 A 
ATOM     35  C   UNL A   1      40.730  26.803  28.714  1.00  0.00     0.074 A 
ATOM     36  C   UNL A   1      42.737  25.870  27.611  1.00  0.00     0.049 A 
ATOM     37  N   UNL A   1      41.090  28.025  28.989  1.00  0.00    -0.248 NA
ATOM     38  C   UNL A   1      39.450  26.394  29.313  1.00  0.00     0.031 C 
ATOM     39  C   UNL A   1      43.547  24.848  26.939  1.00  0.00     0.029 A 
ATOM     40  N   UNL A   1      43.627  26.884  27.861  1.00  0.00    -0.354 N 
ATOM     41  C   UNL A   1      40.049  28.561  29.735  1.00  0.00     0.074 A 
ATOM     42  C   UNL A   1      39.055  27.519  29.890  1.00  0.00     0.031 C 
ATOM     43  C   UNL A   1      44.806  25.297  26.814  1.00  0.00     0.029 A 
ATOM     44  C   UNL A   1      44.863  26.672  27.291  1.00  0.00     0.049 A 
ATOM     45  H   UNL A   1      43.405  27.681  28.394  1.00  0.00     0.167 HD
ATOM     46  C   UNL A   1      39.935  29.824  30.209  1.00  0.00     0.034 A 
ATOM     47  C   UNL A   1      45.888  27.526  27.095  1.00  0.00     0.034 A 
ATOM     48  C   UNL A   1      40.965  30.819  30.035  1.00  0.00     0.049 A 
ATOM     49  C   UNL A   1      45.707  28.954  27.544  1.00  0.00     0.074 A 
ATOM     50  C   UNL A   1      40.965  32.147  30.417  1.00  0.00     0.029 A 
ATOM     51  N   UNL A   1      42.194  30.581  29.424  1.00  0.00    -0.354 N 
ATOM     52  N   UNL A   1      44.672  29.510  28.135  1.00  0.00    -0.248 NA
ATOM     53  C   UNL A   1      46.819  29.875  27.283  1.00  0.00     0.031 C 
ATOM     54  C   UNL A   1      42.169  32.724  29.991  1.00  0.00     0.029 A 
ATOM     55  C   UNL A   1      42.951  31.740  29.404  1.00  0.00     0.049 A 
ATOM     56  H   UNL A   1      42.483  29.713  29.059  1.00  0.00     0.167 HD
ATOM     57  C   UNL A   1      45.014  30.844  28.327  1.00  0.00     0.074 A 
ATOM     58  C   UNL A   1      46.360  31.001  27.811  1.00  0.00     0.031 C 
ATOM     59  C   UNL A   1      44.289  31.854  28.873  1.00  0.00     0.034 A 
BRANCH  46  60
ATOM     60  C   UNL A   1      38.627  30.208  30.849  1.00  0.00     0.023 A 
ATOM     61  C   UNL A   1      37.607  30.865  30.140  1.00  0.00     0.031 A 
ATOM     62  C   UNL A   1      38.424  29.964  32.220  1.00  0.00     0.131 A 
ATOM     63  C   UNL A   1      36.459  31.310  30.817  1.00  0.00     0.055 A 
ATOM     64  C   UNL A   1      37.251  30.344  32.872  1.00  0.00     0.041 A 
ATOM     65  F   UNL A   1      39.377  29.370  32.956  1.00  0.00    -0.206 F 
ATOM     66  C   UNL A   1      36.264  31.033  32.173  1.00  0.00     0.022 A 
BRANCH  63  67
ATOM     67  S   UNL A   1      35.283  32.371  29.934  1.00  0.00     0.124 S 
ATOM     68  O   UNL A   1      34.861  31.497  28.842  1.00  0.00    -0.237 OA
ATOM     69  O   UNL A   1      34.278  32.648  30.954  1.00  0.00    -0.237 OA
ATOM     70  O   UNL A   1      36.092  33.518  29.528  1.00  0.00    -0.744 OA
ENDBRANCH  63  67
ENDBRANCH  46  60
BRANCH  47  71
ATOM     71  C   UNL A   1      47.105  27.102  26.342  1.00  0.00     0.023 A 
ATOM     72  C   UNL A   1      48.142  26.395  26.971  1.00  0.00     0.031 A 
ATOM     73  C   UNL A   1      47.275  27.443  24.986  1.00  0.00     0.131 A 
ATOM     74  C   UNL A   1      49.313  26.088  26.259  1.00  0.00     0.055 A 
ATOM     75  C   UNL A   1      48.415  27.083  24.266  1.00  0.00     0.041 A 
ATOM     76  F   UNL A   1      46.323  28.127  24.332  1.00  0.00    -0.206 F 
ATOM     77  C   UNL A   1      49.451  26.412  24.908  1.00  0.00     0.022 A 
BRANCH  74  78
ATOM     78  S   UNL A   1      50.702  25.338  27.154  1.00  0.00     0.124 S 
ATOM     79  O   UNL A   1      51.190  26.463  27.944  1.00  0.00    -0.237 OA
ATOM     80  O   UNL A   1      50.041  24.270  27.897  1.00  0.00    -0.237 OA
ATOM     81  O   UNL A   1      51.595  24.892  26.086  1.00  0.00    -0.744 OA
ENDBRANCH  74  78
ENDBRANCH  47  71
BRANCH  59  82
ATOM     82  C   UNL A   1      44.974  33.190  28.976  1.00  0.00     0.023 A 
ATOM     83  C   UNL A   1      45.747  33.537  30.096  1.00  0.00     0.031 A 
ATOM     84  C   UNL A   1      44.829  34.136  27.947  1.00  0.00     0.131 A 
ATOM     85  C   UNL A   1      46.300  34.821  30.188  1.00  0.00     0.055 A 
ATOM     86  C   UNL A   1      45.430  35.391  28.017  1.00  0.00     0.041 A 
ATOM     87  F   UNL A   1      44.098  33.851  26.856  1.00  0.00    -0.206 F 
ATOM     88  C   UNL A   1      46.160  35.744  29.149  1.00  0.00     0.022 A 
BRANCH  85  89
ATOM     89  S   UNL A   1      47.132  35.301  31.726  1.00  0.00     0.124 S 
ATOM     90  O   UNL A   1      48.533  35.324  31.318  1.00  0.00    -0.237 OA
ATOM     91  O   UNL A   1      46.530  36.600  32.013  1.00  0.00    -0.237 OA
ATOM     92  O   UNL A   1      46.774  34.233  32.657  1.00  0.00    -0.744 OA
ENDBRANCH  85  89
ENDBRANCH  59  82
ENDBRANCH  33  34
ENDBRANCH  26  28
ENDBRANCH  25  26
ENDBRANCH  24  25
ENDBRANCH   1  24
TORSDOF 19
ENDMDL
MODEL 3
REMARK VINA RESULT:     -10.9      1.807      2.436
REMARK SMILES CCC(CC)(NC(=O)[C@@H](C)[N@H+]1[C@H](C)CC[C@@H]1C)C(=O)OCCOC(=O)c1ccc(-c2c3nc(c(-c4cc(S(=O)(=O)[O-])ccc4F)c4ccc([nH]4)c(-c4cc(S(=O)(=O)[O-])ccc4F)c4nc(c(-c5cc(S(=O)(=O)[O-])ccc5F)c5ccc2[nH]5)C=C4)C=C3)cc1
REMARK SMILES IDX 21 1 20 2 18 3 19 4 3 5 2 6 1 7 4 8 5 9 6 10 7 11 8 13 9 14
REMARK SMILES IDX 10 15 11 16 12 17 16 18 13 20 14 21 15 22 17 23 22 24 23 25
REMARK SMILES IDX 24 26 25 27 26 28 27 29 88 30 28 31 87 32 29 33 30 34 31 35
REMARK SMILES IDX 81 36 32 37 86 38 80 39 82 40 33 41 85 42 79 43 78 44 34 46
REMARK SMILES IDX 66 47 46 48 65 49 47 50 50 51 64 52 83 53 48 54 49 55 63 57
REMARK SMILES IDX 84 58 51 59 35 60 36 61 44 62 37 63 43 64 45 65 42 66 38 67
REMARK SMILES IDX 39 68 40 69 41 70 67 71 68 72 76 73 69 74 75 75 77 76 74 77
REMARK SMILES IDX 70 78 71 79 72 80 73 81 52 82 53 83 61 84 54 85 60 86 62 87
REMARK SMILES IDX 59 88 55 89 56 90 57 91 58 92
REMARK H PARENT 6 12 11 19 82 45 50 56
REMARK Flexibility Score: inf
ROOT
ATOM      1  C   UNL A   1      31.763  28.662  26.677  1.00  0.00     0.274 C 
ENDROOT
BRANCH   1   2
ATOM      2  O   UNL A   1      31.546  27.652  25.659  1.00  0.00    -0.460 OA
BRANCH   2   3
ATOM      3  C   UNL A   1      32.606  26.883  25.279  1.00  0.00     0.331 C 
ATOM      4  O   UNL A   1      33.517  26.573  26.040  1.00  0.00    -0.249 OA
BRANCH   3   5
ATOM      5  C   UNL A   1      32.553  26.450  23.765  1.00  0.00     0.137 C 
BRANCH   5   6
ATOM      6  C   UNL A   1      32.414  27.738  22.897  1.00  0.00     0.037 C 
ATOM      7  C   UNL A   1      33.642  28.645  22.821  1.00  0.00     0.007 C 
ENDBRANCH   5   6
BRANCH   5   8
ATOM      8  C   UNL A   1      31.314  25.528  23.543  1.00  0.00     0.037 C 
ATOM      9  C   UNL A   1      29.957  26.231  23.504  1.00  0.00     0.007 C 
ENDBRANCH   5   8
BRANCH   5  10
ATOM     10  N   UNL A   1      33.804  25.761  23.304  1.00  0.00    -0.335 N 
ATOM     11  C   UNL A   1      33.913  24.405  23.140  1.00  0.00     0.278 C 
ATOM     12  H   UNL A   1      34.594  26.316  23.108  1.00  0.00     0.164 HD
ATOM     13  O   UNL A   1      33.618  23.929  22.038  1.00  0.00    -0.268 OA
BRANCH  11  14
ATOM     14  C   UNL A   1      34.564  23.513  24.211  1.00  0.00     0.271 C 
ATOM     15  C   UNL A   1      35.479  24.279  25.181  1.00  0.00     0.086 C 
BRANCH  14  16
ATOM     16  N   UNL A   1      33.695  22.505  24.920  1.00  0.00    -0.321 N 
ATOM     17  C   UNL A   1      34.353  21.342  25.576  1.00  0.00     0.181 C 
ATOM     18  C   UNL A   1      32.942  23.223  25.998  1.00  0.00     0.181 C 
ATOM     19  H   UNL A   1      33.132  22.104  24.170  1.00  0.00     0.349 HD
ATOM     20  C   UNL A   1      34.083  20.001  24.897  1.00  0.00     0.075 C 
ATOM     21  C   UNL A   1      33.745  21.226  26.973  1.00  0.00     0.071 C 
ATOM     22  C   UNL A   1      33.436  22.650  27.321  1.00  0.00     0.071 C 
ATOM     23  C   UNL A   1      31.441  23.030  25.800  1.00  0.00     0.075 C 
ENDBRANCH  14  16
ENDBRANCH  11  14
ENDBRANCH   5  10
ENDBRANCH   3   5
ENDBRANCH   2   3
ENDBRANCH   1   2
BRANCH   1  24
ATOM     24  C   UNL A   1      32.134  30.006  26.046  1.00  0.00     0.275 C 
BRANCH  24  25
ATOM     25  O   UNL A   1      33.513  30.239  26.348  1.00  0.00    -0.458 OA
BRANCH  25  26
ATOM     26  C   UNL A   1      33.792  31.234  27.222  1.00  0.00     0.338 C 
ATOM     27  O   UNL A   1      33.094  32.176  27.540  1.00  0.00    -0.246 OA
BRANCH  26  28
ATOM     28  C   UNL A   1      35.091  30.872  27.814  1.00  0.00     0.060 A 
ATOM     29  C   UNL A   1      36.026  31.897  27.966  1.00  0.00     0.016 A 
ATOM     30  C   UNL A   1      35.389  29.579  28.223  1.00  0.00     0.016 A 
ATOM     31  C   UNL A   1      37.252  31.655  28.556  1.00  0.00     0.010 A 
ATOM     32  C   UNL A   1      36.612  29.343  28.861  1.00  0.00     0.010 A 
ATOM     33  C   UNL A   1      37.541  30.385  29.045  1.00  0.00    -0.014 A 
BRANCH  33  34
ATOM     34  C   UNL A   1      38.842  30.146  29.706  1.00  0.00     0.031 A 
ATOM     35  C   UNL A   1      39.805  29.206  29.059  1.00  0.00     0.074 A 
ATOM     36  C   UNL A   1      39.155  30.778  30.854  1.00  0.00     0.049 A 
ATOM     37  N   UNL A   1      40.822  28.577  29.577  1.00  0.00    -0.248 NA
ATOM     38  C   UNL A   1      39.579  28.931  27.631  1.00  0.00     0.031 C 
ATOM     39  C   UNL A   1      38.361  31.834  31.491  1.00  0.00     0.029 A 
ATOM     40  N   UNL A   1      40.221  30.611  31.701  1.00  0.00    -0.354 N 
ATOM     41  C   UNL A   1      41.319  27.772  28.560  1.00  0.00     0.074 A 
ATOM     42  C   UNL A   1      40.505  28.016  27.387  1.00  0.00     0.031 C 
ATOM     43  C   UNL A   1      38.957  32.202  32.635  1.00  0.00     0.029 A 
ATOM     44  C   UNL A   1      40.106  31.337  32.866  1.00  0.00     0.049 A 
ATOM     45  H   UNL A   1      40.991  30.032  31.497  1.00  0.00     0.167 HD
ATOM     46  C   UNL A   1      42.343  26.889  28.630  1.00  0.00     0.034 A 
ATOM     47  C   UNL A   1      40.794  31.242  34.021  1.00  0.00     0.034 A 
ATOM     48  C   UNL A   1      43.128  26.697  29.824  1.00  0.00     0.049 A 
ATOM     49  C   UNL A   1      41.868  30.187  34.113  1.00  0.00     0.074 A 
ATOM     50  C   UNL A   1      44.159  25.805  30.054  1.00  0.00     0.029 A 
ATOM     51  N   UNL A   1      42.965  27.426  30.999  1.00  0.00    -0.354 N 
ATOM     52  N   UNL A   1      42.261  29.327  33.200  1.00  0.00    -0.248 NA
ATOM     53  C   UNL A   1      42.576  30.074  35.393  1.00  0.00     0.031 C 
ATOM     54  C   UNL A   1      44.582  25.959  31.380  1.00  0.00     0.029 A 
ATOM     55  C   UNL A   1      43.863  26.994  31.960  1.00  0.00     0.049 A 
ATOM     56  H   UNL A   1      42.306  28.146  31.129  1.00  0.00     0.167 HD
ATOM     57  C   UNL A   1      43.273  28.578  33.793  1.00  0.00     0.074 A 
ATOM     58  C   UNL A   1      43.443  29.106  35.133  1.00  0.00     0.031 C 
ATOM     59  C   UNL A   1      43.995  27.545  33.288  1.00  0.00     0.034 A 
BRANCH  46  60
ATOM     60  C   UNL A   1      42.582  26.010  27.429  1.00  0.00     0.023 A 
ATOM     61  C   UNL A   1      42.057  24.710  27.333  1.00  0.00     0.031 A 
ATOM     62  C   UNL A   1      43.408  26.467  26.386  1.00  0.00     0.131 A 
ATOM     63  C   UNL A   1      42.415  23.891  26.249  1.00  0.00     0.055 A 
ATOM     64  C   UNL A   1      43.700  25.675  25.276  1.00  0.00     0.041 A 
ATOM     65  F   UNL A   1      43.963  27.688  26.440  1.00  0.00    -0.206 F 
ATOM     66  C   UNL A   1      43.214  24.374  25.208  1.00  0.00     0.022 A 
BRANCH  63  67
ATOM     67  S   UNL A   1      41.930  22.144  26.280  1.00  0.00     0.124 S 
ATOM     68  O   UNL A   1      42.734  21.596  25.190  1.00  0.00    -0.237 OA
ATOM     69  O   UNL A   1      42.313  21.733  27.626  1.00  0.00    -0.237 OA
ATOM     70  O   UNL A   1      40.491  22.182  26.025  1.00  0.00    -0.744 OA
ENDBRANCH  63  67
ENDBRANCH  46  60
BRANCH  47  71
ATOM     71  C   UNL A   1      40.415  32.064  35.208  1.00  0.00     0.023 A 
ATOM     72  C   UNL A   1      39.417  31.640  36.098  1.00  0.00     0.031 A 
ATOM     73  C   UNL A   1      41.012  33.318  35.444  1.00  0.00     0.131 A 
ATOM     74  C   UNL A   1      39.020  32.476  37.156  1.00  0.00     0.055 A 
ATOM     75  C   UNL A   1      40.656  34.118  36.530  1.00  0.00     0.041 A 
ATOM     76  F   UNL A   1      41.966  33.782  34.621  1.00  0.00    -0.206 F 
ATOM     77  C   UNL A   1      39.642  33.704  37.387  1.00  0.00     0.022 A 
BRANCH  74  78
ATOM     78  S   UNL A   1      37.604  31.976  38.174  1.00  0.00     0.124 S 
ATOM     79  O   UNL A   1      37.390  30.601  37.733  1.00  0.00    -0.237 OA
ATOM     80  O   UNL A   1      38.129  32.142  39.525  1.00  0.00    -0.237 OA
ATOM     81  O   UNL A   1      36.558  32.923  37.792  1.00  0.00    -0.744 OA
ENDBRANCH  74  78
ENDBRANCH  47  71
BRANCH  59  82
ATOM     82  C   UNL A   1      45.060  26.972  34.184  1.00  0.00     0.023 A 
ATOM     83  C   UNL A   1      44.819  25.843  34.984  1.00  0.00     0.031 A 
ATOM     84  C   UNL A   1      46.324  27.582  34.253  1.00  0.00     0.131 A 
ATOM     85  C   UNL A   1      45.812  25.392  35.864  1.00  0.00     0.055 A 
ATOM     86  C   UNL A   1      47.327  27.094  35.088  1.00  0.00     0.041 A 
ATOM     87  F   UNL A   1      46.601  28.665  33.507  1.00  0.00    -0.206 F 
ATOM     88  C   UNL A   1      47.069  26.000  35.910  1.00  0.00     0.022 A 
BRANCH  85  89
ATOM     89  S   UNL A   1      45.407  24.052  37.017  1.00  0.00     0.124 S 
ATOM     90  O   UNL A   1      46.721  23.699  37.545  1.00  0.00    -0.237 OA
ATOM     91  O   UNL A   1      44.499  24.709  37.953  1.00  0.00    -0.237 OA
ATOM     92  O   UNL A   1      44.789  23.040  36.163  1.00  0.00    -0.744 OA
ENDBRANCH  85  89
ENDBRANCH  59  82
ENDBRANCH  33  34
ENDBRANCH  26  28
ENDBRANCH  25  26
ENDBRANCH  24  25
ENDBRANCH   1  24
TORSDOF 19
ENDMDL
