MODEL 1
REMARK VINA RESULT:     -11.2      0.000      0.000
REMARK SMILES O=C(CCCCCN1C(=O)/C(=C/c2cccc(O)c2)SC1=S)OCCOC(=O)c1ccc(-c2c3nc(c(-c4cc(S(=O)(=O)[O-])ccc4F)c4ccc([nH]4)c(-c4cc(S(=O)(=O)[O-])ccc4F)c4nc(c(-c5cc(S(=O)(=O)[O-])ccc5F)c5ccc2[nH]5)C=C4)C=C3)cc1
REMARK SMILES IDX 1 1 2 2 3 3 4 4 5 5 6 6 7 7 8 8 9 9 21 10 10 11 11 12 20 13
REMARK SMILES IDX 22 14 12 15 13 16 14 17 19 18 15 19 17 20 16 21 18 22 23 24
REMARK SMILES IDX 24 25 25 26 26 27 27 28 28 29 29 30 30 31 91 32 31 33 90 34
REMARK SMILES IDX 32 35 33 36 34 37 84 38 35 39 89 40 83 41 85 42 36 43 88 44
REMARK SMILES IDX 82 45 81 46 37 48 69 49 49 50 68 51 50 52 53 53 67 54 86 55
REMARK SMILES IDX 51 56 52 57 66 59 87 60 54 61 38 62 39 63 47 64 40 65 46 66
REMARK SMILES IDX 48 67 45 68 41 69 42 70 43 71 44 72 70 73 71 74 79 75 72 76
REMARK SMILES IDX 78 77 80 78 77 79 73 80 74 81 75 82 76 83 55 84 56 85 64 86
REMARK SMILES IDX 57 87 63 88 65 89 62 90 58 91 59 92 60 93 61 94
REMARK H PARENT 18 23 85 47 53 58
REMARK Flexibility Score: inf
ROOT
ATOM      1  O   UNL A   1      31.400  29.315  27.422  1.00  0.00    -0.252 OA
ATOM      2  C   UNL A   1      31.810  29.636  26.313  1.00  0.00     0.305 C 
ENDROOT
BRANCH   2   3
ATOM      3  C   UNL A   1      32.860  28.839  25.569  1.00  0.00     0.123 C 
BRANCH   3   4
ATOM      4  C   UNL A   1      33.256  27.538  26.259  1.00  0.00     0.012 C 
BRANCH   4   5
ATOM      5  C   UNL A   1      32.179  26.447  26.240  1.00  0.00     0.002 C 
BRANCH   5   6
ATOM      6  C   UNL A   1      32.429  25.251  25.303  1.00  0.00     0.022 C 
BRANCH   6   7
ATOM      7  C   UNL A   1      31.348  24.970  24.252  1.00  0.00     0.127 C 
BRANCH   7   8
ATOM      8  N   UNL A   1      31.003  26.176  23.508  1.00  0.00    -0.293 N 
ATOM      9  C   UNL A   1      29.739  26.708  23.677  1.00  0.00     0.266 C 
ATOM     10  C   UNL A   1      31.865  26.877  22.690  1.00  0.00     0.148 C 
ATOM     11  O   UNL A   1      28.813  26.199  24.290  1.00  0.00    -0.268 OA
ATOM     12  C   UNL A   1      29.663  28.042  23.044  1.00  0.00     0.081 C 
ATOM     13  S   UNL A   1      31.084  28.352  22.133  1.00  0.00    -0.054 SA
ATOM     14  S   UNL A   1      33.431  26.489  22.258  1.00  0.00    -0.052 S 
ATOM     15  C   UNL A   1      28.631  28.857  23.294  1.00  0.00     0.029 C 
BRANCH  15  16
ATOM     16  C   UNL A   1      28.493  30.219  22.786  1.00  0.00    -0.021 A 
ATOM     17  C   UNL A   1      28.823  31.315  23.591  1.00  0.00     0.008 A 
ATOM     18  C   UNL A   1      28.043  30.428  21.479  1.00  0.00     0.054 A 
ATOM     19  C   UNL A   1      28.695  32.612  23.097  1.00  0.00     0.004 A 
ATOM     20  C   UNL A   1      27.922  31.726  20.995  1.00  0.00     0.116 A 
ATOM     21  C   UNL A   1      28.243  32.820  21.794  1.00  0.00     0.046 A 
BRANCH  20  22
ATOM     22  O   UNL A   1      27.481  31.888  19.715  1.00  0.00    -0.508 OA
ATOM     23  H   UNL A   1      26.563  31.856  19.528  1.00  0.00     0.293 HD
ENDBRANCH  20  22
ENDBRANCH  15  16
ENDBRANCH   7   8
ENDBRANCH   6   7
ENDBRANCH   5   6
ENDBRANCH   4   5
ENDBRANCH   3   4
ENDBRANCH   2   3
BRANCH   2  24
ATOM     24  O   UNL A   1      31.449  30.814  25.740  1.00  0.00    -0.462 OA
BRANCH  24  25
ATOM     25  C   UNL A   1      31.370  31.981  26.574  1.00  0.00     0.274 C 
BRANCH  25  26
ATOM     26  C   UNL A   1      32.724  32.393  27.161  1.00  0.00     0.275 C 
BRANCH  26  27
ATOM     27  O   UNL A   1      32.828  33.816  27.323  1.00  0.00    -0.458 OA
BRANCH  27  28
ATOM     28  C   UNL A   1      33.351  34.198  28.523  1.00  0.00     0.338 C 
ATOM     29  O   UNL A   1      32.849  34.976  29.306  1.00  0.00    -0.246 OA
BRANCH  28  30
ATOM     30  C   UNL A   1      34.559  33.395  28.831  1.00  0.00     0.060 A 
ATOM     31  C   UNL A   1      34.374  32.210  29.555  1.00  0.00     0.016 A 
ATOM     32  C   UNL A   1      35.845  33.789  28.448  1.00  0.00     0.016 A 
ATOM     33  C   UNL A   1      35.474  31.441  29.937  1.00  0.00     0.010 A 
ATOM     34  C   UNL A   1      36.949  33.020  28.838  1.00  0.00     0.010 A 
ATOM     35  C   UNL A   1      36.771  31.860  29.614  1.00  0.00    -0.014 A 
BRANCH  35  36
ATOM     36  C   UNL A   1      37.934  31.176  30.235  1.00  0.00     0.031 A 
ATOM     37  C   UNL A   1      38.315  31.541  31.646  1.00  0.00     0.074 A 
ATOM     38  C   UNL A   1      38.623  30.226  29.578  1.00  0.00     0.049 A 
ATOM     39  N   UNL A   1      39.275  31.068  32.397  1.00  0.00    -0.248 NA
ATOM     40  C   UNL A   1      37.501  32.582  32.291  1.00  0.00     0.031 C 
ATOM     41  C   UNL A   1      38.336  29.761  28.221  1.00  0.00     0.029 A 
ATOM     42  N   UNL A   1      39.710  29.482  29.967  1.00  0.00    -0.354 N 
ATOM     43  C   UNL A   1      39.173  31.742  33.609  1.00  0.00     0.074 A 
ATOM     44  C   UNL A   1      38.088  32.691  33.473  1.00  0.00     0.031 C 
ATOM     45  C   UNL A   1      39.235  28.818  27.887  1.00  0.00     0.029 A 
ATOM     46  C   UNL A   1      40.173  28.629  28.993  1.00  0.00     0.049 A 
ATOM     47  H   UNL A   1      40.118  29.554  30.859  1.00  0.00     0.167 HD
ATOM     48  C   UNL A   1      39.906  31.576  34.738  1.00  0.00     0.034 A 
ATOM     49  C   UNL A   1      41.242  27.805  28.989  1.00  0.00     0.034 A 
ATOM     50  C   UNL A   1      41.001  30.647  34.861  1.00  0.00     0.049 A 
ATOM     51  C   UNL A   1      42.110  27.712  30.224  1.00  0.00     0.074 A 
ATOM     52  C   UNL A   1      41.790  30.384  35.968  1.00  0.00     0.029 A 
ATOM     53  N   UNL A   1      41.478  29.842  33.834  1.00  0.00    -0.354 N 
ATOM     54  N   UNL A   1      41.977  28.327  31.376  1.00  0.00    -0.248 NA
ATOM     55  C   UNL A   1      43.266  26.808  30.157  1.00  0.00     0.031 C 
ATOM     56  C   UNL A   1      42.785  29.475  35.591  1.00  0.00     0.029 A 
ATOM     57  C   UNL A   1      42.575  29.116  34.270  1.00  0.00     0.049 A 
ATOM     58  H   UNL A   1      41.093  29.794  32.930  1.00  0.00     0.167 HD
ATOM     59  C   UNL A   1      43.015  27.858  32.179  1.00  0.00     0.074 A 
ATOM     60  C   UNL A   1      43.760  26.906  31.383  1.00  0.00     0.031 C 
ATOM     61  C   UNL A   1      43.319  28.179  33.463  1.00  0.00     0.034 A 
BRANCH  48  62
ATOM     62  C   UNL A   1      39.567  32.461  35.912  1.00  0.00     0.023 A 
ATOM     63  C   UNL A   1      38.721  32.023  36.945  1.00  0.00     0.031 A 
ATOM     64  C   UNL A   1      40.068  33.773  35.978  1.00  0.00     0.131 A 
ATOM     65  C   UNL A   1      38.345  32.911  37.963  1.00  0.00     0.055 A 
ATOM     66  C   UNL A   1      39.749  34.628  37.034  1.00  0.00     0.041 A 
ATOM     67  F   UNL A   1      40.862  34.251  35.007  1.00  0.00    -0.206 F 
ATOM     68  C   UNL A   1      38.872  34.203  38.028  1.00  0.00     0.022 A 
BRANCH  65  69
ATOM     69  S   UNL A   1      37.052  32.398  39.127  1.00  0.00     0.124 S 
ATOM     70  O   UNL A   1      37.411  33.159  40.321  1.00  0.00    -0.237 OA
ATOM     71  O   UNL A   1      35.831  32.811  38.446  1.00  0.00    -0.237 OA
ATOM     72  O   UNL A   1      37.246  30.953  39.239  1.00  0.00    -0.744 OA
ENDBRANCH  65  69
ENDBRANCH  48  62
BRANCH  49  73
ATOM     73  C   UNL A   1      41.595  27.029  27.765  1.00  0.00     0.023 A 
ATOM     74  C   UNL A   1      41.351  25.650  27.680  1.00  0.00     0.031 A 
ATOM     75  C   UNL A   1      42.255  27.652  26.691  1.00  0.00     0.131 A 
ATOM     76  C   UNL A   1      41.806  24.927  26.565  1.00  0.00     0.055 A 
ATOM     77  C   UNL A   1      42.662  26.938  25.562  1.00  0.00     0.041 A 
ATOM     78  F   UNL A   1      42.519  28.967  26.726  1.00  0.00    -0.206 F 
ATOM     79  C   UNL A   1      42.449  25.565  25.501  1.00  0.00     0.022 A 
BRANCH  76  80
ATOM     80  S   UNL A   1      41.627  23.122  26.566  1.00  0.00     0.124 S 
ATOM     81  O   UNL A   1      42.407  22.746  25.393  1.00  0.00    -0.237 OA
ATOM     82  O   UNL A   1      42.196  22.762  27.860  1.00  0.00    -0.237 OA
ATOM     83  O   UNL A   1      40.184  22.925  26.446  1.00  0.00    -0.744 OA
ENDBRANCH  76  80
ENDBRANCH  49  73
BRANCH  61  84
ATOM     84  C   UNL A   1      44.484  27.459  34.098  1.00  0.00     0.023 A 
ATOM     85  C   UNL A   1      44.319  26.239  34.779  1.00  0.00     0.031 A 
ATOM     86  C   UNL A   1      45.779  28.000  34.013  1.00  0.00     0.131 A 
ATOM     87  C   UNL A   1      45.426  25.622  35.383  1.00  0.00     0.055 A 
ATOM     88  C   UNL A   1      46.884  27.357  34.572  1.00  0.00     0.041 A 
ATOM     89  F   UNL A   1      45.993  29.162  33.374  1.00  0.00    -0.206 F 
ATOM     90  C   UNL A   1      46.710  26.165  35.270  1.00  0.00     0.022 A 
BRANCH  87  91
ATOM     91  S   UNL A   1      45.160  24.126  36.375  1.00  0.00     0.124 S 
ATOM     92  O   UNL A   1      44.363  23.302  35.474  1.00  0.00    -0.237 OA
ATOM     93  O   UNL A   1      46.524  23.667  36.621  1.00  0.00    -0.237 OA
ATOM     94  O   UNL A   1      44.452  24.619  37.556  1.00  0.00    -0.744 OA
ENDBRANCH  87  91
ENDBRANCH  61  84
ENDBRANCH  35  36
ENDBRANCH  28  30
ENDBRANCH  27  28
ENDBRANCH  26  27
ENDBRANCH  25  26
ENDBRANCH  24  25
ENDBRANCH   2  24
TORSDOF 21
ENDMDL
MODEL 2
REMARK VINA RESULT:     -11.1      0.709      7.432
REMARK SMILES O=C(CCCCCN1C(=O)/C(=C/c2cccc(O)c2)SC1=S)OCCOC(=O)c1ccc(-c2c3nc(c(-c4cc(S(=O)(=O)[O-])ccc4F)c4ccc([nH]4)c(-c4cc(S(=O)(=O)[O-])ccc4F)c4nc(c(-c5cc(S(=O)(=O)[O-])ccc5F)c5ccc2[nH]5)C=C4)C=C3)cc1
REMARK SMILES IDX 1 1 2 2 3 3 4 4 5 5 6 6 7 7 8 8 9 9 21 10 10 11 11 12 20 13
REMARK SMILES IDX 22 14 12 15 13 16 14 17 19 18 15 19 17 20 16 21 18 22 23 24
REMARK SMILES IDX 24 25 25 26 26 27 27 28 28 29 29 30 30 31 91 32 31 33 90 34
REMARK SMILES IDX 32 35 33 36 34 37 84 38 35 39 89 40 83 41 85 42 36 43 88 44
REMARK SMILES IDX 82 45 81 46 37 48 69 49 49 50 68 51 50 52 53 53 67 54 86 55
REMARK SMILES IDX 51 56 52 57 66 59 87 60 54 61 38 62 39 63 47 64 40 65 46 66
REMARK SMILES IDX 48 67 45 68 41 69 42 70 43 71 44 72 70 73 71 74 79 75 72 76
REMARK SMILES IDX 78 77 80 78 77 79 73 80 74 81 75 82 76 83 55 84 56 85 64 86
REMARK SMILES IDX 57 87 63 88 65 89 62 90 58 91 59 92 60 93 61 94
REMARK H PARENT 18 23 85 47 53 58
REMARK Flexibility Score: inf
ROOT
ATOM      1  O   UNL A   1      31.609  29.423  27.634  1.00  0.00    -0.252 OA
ATOM      2  C   UNL A   1      31.808  29.585  26.435  1.00  0.00     0.305 C 
ENDROOT
BRANCH   2   3
ATOM      3  C   UNL A   1      32.308  28.476  25.534  1.00  0.00     0.123 C 
BRANCH   3   4
ATOM      4  C   UNL A   1      32.750  27.221  26.280  1.00  0.00     0.012 C 
BRANCH   4   5
ATOM      5  C   UNL A   1      31.717  26.089  26.303  1.00  0.00     0.002 C 
BRANCH   5   6
ATOM      6  C   UNL A   1      31.915  24.958  25.277  1.00  0.00     0.022 C 
BRANCH   6   7
ATOM      7  C   UNL A   1      30.791  24.763  24.252  1.00  0.00     0.127 C 
BRANCH   7   8
ATOM      8  N   UNL A   1      30.532  25.988  23.506  1.00  0.00    -0.293 N 
ATOM      9  C   UNL A   1      29.320  26.624  23.696  1.00  0.00     0.266 C 
ATOM     10  C   UNL A   1      31.432  26.610  22.666  1.00  0.00     0.148 C 
ATOM     11  O   UNL A   1      28.367  26.196  24.331  1.00  0.00    -0.268 OA
ATOM     12  C   UNL A   1      29.342  27.956  23.055  1.00  0.00     0.081 C 
ATOM     13  S   UNL A   1      30.765  28.142  22.114  1.00  0.00    -0.054 SA
ATOM     14  S   UNL A   1      32.952  26.092  22.206  1.00  0.00    -0.052 S 
ATOM     15  C   UNL A   1      28.386  28.855  23.318  1.00  0.00     0.029 C 
BRANCH  15  16
ATOM     16  C   UNL A   1      28.350  30.221  22.804  1.00  0.00    -0.021 A 
ATOM     17  C   UNL A   1      28.748  31.294  23.608  1.00  0.00     0.008 A 
ATOM     18  C   UNL A   1      27.932  30.455  21.490  1.00  0.00     0.054 A 
ATOM     19  C   UNL A   1      28.718  32.595  23.106  1.00  0.00     0.004 A 
ATOM     20  C   UNL A   1      27.909  31.756  20.999  1.00  0.00     0.116 A 
ATOM     21  C   UNL A   1      28.297  32.828  21.797  1.00  0.00     0.046 A 
BRANCH  20  22
ATOM     22  O   UNL A   1      27.496  31.942  19.713  1.00  0.00    -0.508 OA
ATOM     23  H   UNL A   1      27.718  32.731  19.260  1.00  0.00     0.293 HD
ENDBRANCH  20  22
ENDBRANCH  15  16
ENDBRANCH   7   8
ENDBRANCH   6   7
ENDBRANCH   5   6
ENDBRANCH   4   5
ENDBRANCH   3   4
ENDBRANCH   2   3
BRANCH   2  24
ATOM     24  O   UNL A   1      31.725  30.816  25.865  1.00  0.00    -0.462 OA
BRANCH  24  25
ATOM     25  C   UNL A   1      31.430  31.938  26.712  1.00  0.00     0.274 C 
BRANCH  25  26
ATOM     26  C   UNL A   1      32.684  32.595  27.297  1.00  0.00     0.275 C 
BRANCH  26  27
ATOM     27  O   UNL A   1      32.567  34.026  27.349  1.00  0.00    -0.458 OA
BRANCH  27  28
ATOM     28  C   UNL A   1      33.090  34.583  28.477  1.00  0.00     0.338 C 
ATOM     29  O   UNL A   1      32.596  35.479  29.128  1.00  0.00    -0.246 OA
BRANCH  28  30
ATOM     30  C   UNL A   1      34.287  33.821  28.913  1.00  0.00     0.060 A 
ATOM     31  C   UNL A   1      34.074  32.703  29.729  1.00  0.00     0.016 A 
ATOM     32  C   UNL A   1      35.588  34.193  28.557  1.00  0.00     0.016 A 
ATOM     33  C   UNL A   1      35.158  31.982  30.230  1.00  0.00     0.010 A 
ATOM     34  C   UNL A   1      36.676  33.471  29.066  1.00  0.00     0.010 A 
ATOM     35  C   UNL A   1      36.467  32.383  29.932  1.00  0.00    -0.014 A 
BRANCH  35  36
ATOM     36  C   UNL A   1      37.603  31.769  30.667  1.00  0.00     0.031 A 
ATOM     37  C   UNL A   1      38.419  30.709  29.976  1.00  0.00     0.074 A 
ATOM     38  C   UNL A   1      37.928  32.163  31.911  1.00  0.00     0.049 A 
ATOM     39  N   UNL A   1      39.461  30.048  30.408  1.00  0.00    -0.248 NA
ATOM     40  C   UNL A   1      37.998  30.348  28.613  1.00  0.00     0.031 C 
ATOM     41  C   UNL A   1      37.237  33.199  32.677  1.00  0.00     0.029 A 
ATOM     42  N   UNL A   1      38.927  31.733  32.750  1.00  0.00    -0.354 N 
ATOM     43  C   UNL A   1      39.831  29.203  29.367  1.00  0.00     0.074 A 
ATOM     44  C   UNL A   1      38.870  29.402  28.302  1.00  0.00     0.031 C 
ATOM     45  C   UNL A   1      37.827  33.315  33.881  1.00  0.00     0.029 A 
ATOM     46  C   UNL A   1      38.919  32.347  33.980  1.00  0.00     0.049 A 
ATOM     47  H   UNL A   1      39.585  31.048  32.495  1.00  0.00     0.167 HD
ATOM     48  C   UNL A   1      40.883  28.349  29.297  1.00  0.00     0.034 A 
ATOM     49  C   UNL A   1      39.694  32.140  35.066  1.00  0.00     0.034 A 
ATOM     50  C   UNL A   1      41.823  28.138  30.369  1.00  0.00     0.049 A 
ATOM     51  C   UNL A   1      40.796  31.108  35.003  1.00  0.00     0.074 A 
ATOM     52  C   UNL A   1      42.937  27.316  30.390  1.00  0.00     0.029 A 
ATOM     53  N   UNL A   1      41.748  28.735  31.620  1.00  0.00    -0.354 N 
ATOM     54  N   UNL A   1      41.158  30.344  33.998  1.00  0.00    -0.248 NA
ATOM     55  C   UNL A   1      41.599  30.917  36.219  1.00  0.00     0.031 C 
ATOM     56  C   UNL A   1      43.492  27.363  31.674  1.00  0.00     0.029 A 
ATOM     57  C   UNL A   1      42.769  28.268  32.433  1.00  0.00     0.049 A 
ATOM     58  H   UNL A   1      41.069  29.395  31.891  1.00  0.00     0.167 HD
ATOM     59  C   UNL A   1      42.249  29.607  34.453  1.00  0.00     0.074 A 
ATOM     60  C   UNL A   1      42.490  30.021  35.819  1.00  0.00     0.031 C 
ATOM     61  C   UNL A   1      42.992  28.678  33.799  1.00  0.00     0.034 A 
BRANCH  48  62
ATOM     62  C   UNL A   1      41.033  27.549  28.028  1.00  0.00     0.023 A 
ATOM     63  C   UNL A   1      40.655  26.197  27.960  1.00  0.00     0.031 A 
ATOM     64  C   UNL A   1      41.596  28.137  26.882  1.00  0.00     0.131 A 
ATOM     65  C   UNL A   1      40.908  25.459  26.794  1.00  0.00     0.055 A 
ATOM     66  C   UNL A   1      41.777  27.417  25.700  1.00  0.00     0.041 A 
ATOM     67  F   UNL A   1      41.996  29.419  26.898  1.00  0.00    -0.206 F 
ATOM     68  C   UNL A   1      41.446  26.065  25.655  1.00  0.00     0.022 A 
BRANCH  65  69
ATOM     69  S   UNL A   1      40.652  23.664  26.832  1.00  0.00     0.124 S 
ATOM     70  O   UNL A   1      41.760  23.191  26.005  1.00  0.00    -0.237 OA
ATOM     71  O   UNL A   1      40.741  23.361  28.255  1.00  0.00    -0.237 OA
ATOM     72  O   UNL A   1      39.327  23.495  26.238  1.00  0.00    -0.744 OA
ENDBRANCH  65  69
ENDBRANCH  48  62
BRANCH  49  73
ATOM     73  C   UNL A   1      39.435  32.883  36.333  1.00  0.00     0.023 A 
ATOM     74  C   UNL A   1      38.587  32.364  37.323  1.00  0.00     0.031 A 
ATOM     75  C   UNL A   1      39.979  34.165  36.533  1.00  0.00     0.131 A 
ATOM     76  C   UNL A   1      38.268  33.143  38.448  1.00  0.00     0.055 A 
ATOM     77  C   UNL A   1      39.698  34.915  37.676  1.00  0.00     0.041 A 
ATOM     78  F   UNL A   1      40.791  34.710  35.613  1.00  0.00    -0.206 F 
ATOM     79  C   UNL A   1      38.827  34.408  38.635  1.00  0.00     0.022 A 
BRANCH  76  80
ATOM     80  S   UNL A   1      37.036  32.512  39.621  1.00  0.00     0.124 S 
ATOM     81  O   UNL A   1      35.803  32.637  38.852  1.00  0.00    -0.237 OA
ATOM     82  O   UNL A   1      37.511  31.153  39.858  1.00  0.00    -0.237 OA
ATOM     83  O   UNL A   1      37.157  33.420  40.760  1.00  0.00    -0.744 OA
ENDBRANCH  76  80
ENDBRANCH  49  73
BRANCH  61  84
ATOM     84  C   UNL A   1      44.162  28.079  34.540  1.00  0.00     0.023 A 
ATOM     85  C   UNL A   1      44.044  26.882  35.269  1.00  0.00     0.031 A 
ATOM     86  C   UNL A   1      45.416  28.714  34.509  1.00  0.00     0.131 A 
ATOM     87  C   UNL A   1      45.151  26.380  35.970  1.00  0.00     0.055 A 
ATOM     88  C   UNL A   1      46.527  28.184  35.167  1.00  0.00     0.041 A 
ATOM     89  F   UNL A   1      45.585  29.860  33.828  1.00  0.00    -0.206 F 
ATOM     90  C   UNL A   1      46.396  27.015  35.911  1.00  0.00     0.022 A 
BRANCH  87  91
ATOM     91  S   UNL A   1      44.933  24.913  37.016  1.00  0.00     0.124 S 
ATOM     92  O   UNL A   1      43.863  25.336  37.912  1.00  0.00    -0.237 OA
ATOM     93  O   UNL A   1      44.581  23.884  36.043  1.00  0.00    -0.237 OA
ATOM     94  O   UNL A   1      46.241  24.744  37.648  1.00  0.00    -0.744 OA
ENDBRANCH  87  91
ENDBRANCH  61  84
ENDBRANCH  35  36
ENDBRANCH  28  30
ENDBRANCH  27  28
ENDBRANCH  26  27
ENDBRANCH  25  26
ENDBRANCH  24  25
ENDBRANCH   2  24
TORSDOF 21
ENDMDL
MODEL 3
REMARK VINA RESULT:     -11.1      5.079     10.767
REMARK SMILES O=C(CCCCCN1C(=O)/C(=C/c2cccc(O)c2)SC1=S)OCCOC(=O)c1ccc(-c2c3nc(c(-c4cc(S(=O)(=O)[O-])ccc4F)c4ccc([nH]4)c(-c4cc(S(=O)(=O)[O-])ccc4F)c4nc(c(-c5cc(S(=O)(=O)[O-])ccc5F)c5ccc2[nH]5)C=C4)C=C3)cc1
REMARK SMILES IDX 1 1 2 2 3 3 4 4 5 5 6 6 7 7 8 8 9 9 21 10 10 11 11 12 20 13
REMARK SMILES IDX 22 14 12 15 13 16 14 17 19 18 15 19 17 20 16 21 18 22 23 24
REMARK SMILES IDX 24 25 25 26 26 27 27 28 28 29 29 30 30 31 91 32 31 33 90 34
REMARK SMILES IDX 32 35 33 36 34 37 84 38 35 39 89 40 83 41 85 42 36 43 88 44
REMARK SMILES IDX 82 45 81 46 37 48 69 49 49 50 68 51 50 52 53 53 67 54 86 55
REMARK SMILES IDX 51 56 52 57 66 59 87 60 54 61 38 62 39 63 47 64 40 65 46 66
REMARK SMILES IDX 48 67 45 68 41 69 42 70 43 71 44 72 70 73 71 74 79 75 72 76
REMARK SMILES IDX 78 77 80 78 77 79 73 80 74 81 75 82 76 83 55 84 56 85 64 86
REMARK SMILES IDX 57 87 63 88 65 89 62 90 58 91 59 92 60 93 61 94
REMARK H PARENT 18 23 85 47 53 58
REMARK Flexibility Score: inf
ROOT
ATOM      1  O   UNL A   1      35.614  22.115  26.124  1.00  0.00    -0.252 OA
ATOM      2  C   UNL A   1      35.232  21.097  25.556  1.00  0.00     0.305 C 
ENDROOT
BRANCH   2   3
ATOM      3  C   UNL A   1      33.768  20.729  25.441  1.00  0.00     0.123 C 
BRANCH   3   4
ATOM      4  C   UNL A   1      33.211  20.830  24.025  1.00  0.00     0.012 C 
BRANCH   4   5
ATOM      5  C   UNL A   1      32.758  22.235  23.611  1.00  0.00     0.002 C 
BRANCH   5   6
ATOM      6  C   UNL A   1      31.580  22.837  24.400  1.00  0.00     0.022 C 
BRANCH   6   7
ATOM      7  C   UNL A   1      30.727  23.877  23.664  1.00  0.00     0.127 C 
BRANCH   7   8
ATOM      8  N   UNL A   1      31.198  25.233  23.924  1.00  0.00    -0.293 N 
ATOM      9  C   UNL A   1      30.806  25.846  25.099  1.00  0.00     0.266 C 
ATOM     10  C   UNL A   1      32.067  25.938  23.118  1.00  0.00     0.148 C 
ATOM     11  O   UNL A   1      29.984  25.424  25.899  1.00  0.00    -0.268 OA
ATOM     12  C   UNL A   1      31.571  27.096  25.296  1.00  0.00     0.081 C 
ATOM     13  S   UNL A   1      32.497  27.457  23.897  1.00  0.00    -0.054 SA
ATOM     14  S   UNL A   1      32.697  25.498  21.635  1.00  0.00    -0.052 S 
ATOM     15  C   UNL A   1      31.552  27.726  26.476  1.00  0.00     0.029 C 
BRANCH  15  16
ATOM     16  C   UNL A   1      32.327  28.919  26.805  1.00  0.00    -0.021 A 
ATOM     17  C   UNL A   1      31.766  30.193  26.667  1.00  0.00     0.008 A 
ATOM     18  C   UNL A   1      33.636  28.785  27.279  1.00  0.00     0.054 A 
ATOM     19  C   UNL A   1      32.510  31.327  26.990  1.00  0.00     0.004 A 
ATOM     20  C   UNL A   1      34.368  29.923  27.601  1.00  0.00     0.116 A 
ATOM     21  C   UNL A   1      33.817  31.193  27.459  1.00  0.00     0.046 A 
BRANCH  20  22
ATOM     22  O   UNL A   1      35.640  29.749  28.062  1.00  0.00    -0.508 OA
ATOM     23  H   UNL A   1      36.005  28.888  28.115  1.00  0.00     0.293 HD
ENDBRANCH  20  22
ENDBRANCH  15  16
ENDBRANCH   7   8
ENDBRANCH   6   7
ENDBRANCH   5   6
ENDBRANCH   4   5
ENDBRANCH   3   4
ENDBRANCH   2   3
BRANCH   2  24
ATOM     24  O   UNL A   1      36.113  20.161  25.116  1.00  0.00    -0.462 OA
BRANCH  24  25
ATOM     25  C   UNL A   1      37.319  20.609  24.478  1.00  0.00     0.274 C 
BRANCH  25  26
ATOM     26  C   UNL A   1      38.574  19.903  25.001  1.00  0.00     0.275 C 
BRANCH  26  27
ATOM     27  O   UNL A   1      38.938  20.358  26.314  1.00  0.00    -0.458 OA
BRANCH  27  28
ATOM     28  C   UNL A   1      40.282  20.487  26.500  1.00  0.00     0.338 C 
ATOM     29  O   UNL A   1      41.129  19.682  26.176  1.00  0.00    -0.246 OA
BRANCH  28  30
ATOM     30  C   UNL A   1      40.598  21.843  27.011  1.00  0.00     0.060 A 
ATOM     31  C   UNL A   1      39.890  22.919  26.459  1.00  0.00     0.016 A 
ATOM     32  C   UNL A   1      41.573  22.073  27.989  1.00  0.00     0.016 A 
ATOM     33  C   UNL A   1      40.185  24.227  26.845  1.00  0.00     0.010 A 
ATOM     34  C   UNL A   1      41.871  23.387  28.371  1.00  0.00     0.010 A 
ATOM     35  C   UNL A   1      41.203  24.472  27.776  1.00  0.00    -0.014 A 
BRANCH  35  36
ATOM     36  C   UNL A   1      41.675  25.865  27.989  1.00  0.00     0.031 A 
ATOM     37  C   UNL A   1      43.014  26.265  27.428  1.00  0.00     0.074 A 
ATOM     38  C   UNL A   1      40.920  26.769  28.639  1.00  0.00     0.049 A 
ATOM     39  N   UNL A   1      43.622  27.422  27.473  1.00  0.00    -0.248 NA
ATOM     40  C   UNL A   1      43.765  25.215  26.724  1.00  0.00     0.031 C 
ATOM     41  C   UNL A   1      39.595  26.515  29.202  1.00  0.00     0.029 A 
ATOM     42  N   UNL A   1      41.166  28.088  28.935  1.00  0.00    -0.354 N 
ATOM     43  C   UNL A   1      44.821  27.245  26.791  1.00  0.00     0.074 A 
ATOM     44  C   UNL A   1      44.873  25.856  26.387  1.00  0.00     0.031 C 
ATOM     45  C   UNL A   1      39.150  27.641  29.788  1.00  0.00     0.029 A 
ATOM     46  C   UNL A   1      40.165  28.687  29.663  1.00  0.00     0.049 A 
ATOM     47  H   UNL A   1      41.983  28.558  28.653  1.00  0.00     0.167 HD
ATOM     48  C   UNL A   1      45.784  28.159  26.514  1.00  0.00     0.034 A 
ATOM     49  C   UNL A   1      40.087  29.930  30.183  1.00  0.00     0.034 A 
ATOM     50  C   UNL A   1      45.737  29.535  26.939  1.00  0.00     0.049 A 
ATOM     51  C   UNL A   1      41.220  30.903  29.951  1.00  0.00     0.074 A 
ATOM     52  C   UNL A   1      46.649  30.547  26.688  1.00  0.00     0.029 A 
ATOM     53  N   UNL A   1      44.736  30.090  27.724  1.00  0.00    -0.354 N 
ATOM     54  N   UNL A   1      42.330  30.732  29.271  1.00  0.00    -0.248 NA
ATOM     55  C   UNL A   1      41.085  32.237  30.550  1.00  0.00     0.031 C 
ATOM     56  C   UNL A   1      46.234  31.691  27.379  1.00  0.00     0.029 A 
ATOM     57  C   UNL A   1      45.028  31.416  28.003  1.00  0.00     0.049 A 
ATOM     58  H   UNL A   1      43.934  29.611  28.037  1.00  0.00     0.167 HD
ATOM     59  C   UNL A   1      43.008  31.948  29.336  1.00  0.00     0.074 A 
ATOM     60  C   UNL A   1      42.180  32.844  30.116  1.00  0.00     0.031 C 
ATOM     61  C   UNL A   1      44.202  32.296  28.793  1.00  0.00     0.034 A 
BRANCH  48  62
ATOM     62  C   UNL A   1      46.991  27.673  25.750  1.00  0.00     0.023 A 
ATOM     63  C   UNL A   1      47.198  28.016  24.403  1.00  0.00     0.031 A 
ATOM     64  C   UNL A   1      47.926  26.825  26.368  1.00  0.00     0.131 A 
ATOM     65  C   UNL A   1      48.275  27.459  23.699  1.00  0.00     0.055 A 
ATOM     66  C   UNL A   1      49.037  26.333  25.682  1.00  0.00     0.041 A 
ATOM     67  F   UNL A   1      47.765  26.447  27.646  1.00  0.00    -0.206 F 
ATOM     68  C   UNL A   1      49.210  26.638  24.335  1.00  0.00     0.022 A 
BRANCH  65  69
ATOM     69  S   UNL A   1      48.361  27.712  21.905  1.00  0.00     0.124 S 
ATOM     70  O   UNL A   1      48.685  26.368  21.433  1.00  0.00    -0.237 OA
ATOM     71  O   UNL A   1      47.023  28.196  21.588  1.00  0.00    -0.237 OA
ATOM     72  O   UNL A   1      49.433  28.693  21.748  1.00  0.00    -0.744 OA
ENDBRANCH  65  69
ENDBRANCH  48  62
BRANCH  49  73
ATOM     73  C   UNL A   1      38.918  30.327  31.020  1.00  0.00     0.023 A 
ATOM     74  C   UNL A   1      37.916  31.173  30.519  1.00  0.00     0.031 A 
ATOM     75  C   UNL A   1      38.831  29.923  32.364  1.00  0.00     0.131 A 
ATOM     76  C   UNL A   1      36.895  31.627  31.370  1.00  0.00     0.055 A 
ATOM     77  C   UNL A   1      37.786  30.336  33.193  1.00  0.00     0.041 A 
ATOM     78  F   UNL A   1      39.767  29.120  32.893  1.00  0.00    -0.206 F 
ATOM     79  C   UNL A   1      36.818  31.204  32.699  1.00  0.00     0.022 A 
BRANCH  76  80
ATOM     80  S   UNL A   1      35.717  32.853  30.738  1.00  0.00     0.124 S 
ATOM     81  O   UNL A   1      34.445  32.305  31.195  1.00  0.00    -0.237 OA
ATOM     82  O   UNL A   1      36.166  34.074  31.399  1.00  0.00    -0.237 OA
ATOM     83  O   UNL A   1      35.930  32.815  29.293  1.00  0.00    -0.744 OA
ENDBRANCH  76  80
ENDBRANCH  49  73
BRANCH  61  84
ATOM     84  C   UNL A   1      44.662  33.721  28.988  1.00  0.00     0.023 A 
ATOM     85  C   UNL A   1      44.173  34.773  28.193  1.00  0.00     0.031 A 
ATOM     86  C   UNL A   1      45.598  34.028  29.991  1.00  0.00     0.131 A 
ATOM     87  C   UNL A   1      44.654  36.077  28.389  1.00  0.00     0.055 A 
ATOM     88  C   UNL A   1      46.036  35.335  30.214  1.00  0.00     0.041 A 
ATOM     89  F   UNL A   1      46.097  33.062  30.779  1.00  0.00    -0.206 F 
ATOM     90  C   UNL A   1      45.571  36.367  29.405  1.00  0.00     0.022 A 
BRANCH  87  91
ATOM     91  S   UNL A   1      44.114  37.388  27.257  1.00  0.00     0.124 S 
ATOM     92  O   UNL A   1      43.052  36.726  26.509  1.00  0.00    -0.237 OA
ATOM     93  O   UNL A   1      43.688  38.439  28.175  1.00  0.00    -0.237 OA
ATOM     94  O   UNL A   1      45.319  37.693  26.485  1.00  0.00    -0.744 OA
ENDBRANCH  87  91
ENDBRANCH  61  84
ENDBRANCH  35  36
ENDBRANCH  28  30
ENDBRANCH  27  28
ENDBRANCH  26  27
ENDBRANCH  25  26
ENDBRANCH  24  25
ENDBRANCH   2  24
TORSDOF 21
ENDMDL
