MODEL 1
REMARK VINA RESULT:     -11.7      0.000      0.000
REMARK SMILES Cc1n[nH]c(C)c1CC(=O)N1CC[C@H](C(=O)OCCOC(=O)c2ccc(-c3c4nc(c(-c5cc(S(=O)(=O)[O-])ccc5F)c5ccc([nH]5)c(-c5cc(S(=O)(=O)[O-])ccc5F)c5nc(c(-c6cc(S(=O)(=O)[O-])ccc6F)c6ccc3[nH]6)C=C5)C=C4)cc2)[C@H]1C
REMARK SMILES IDX 18 1 17 2 15 3 16 4 14 5 11 6 12 7 86 8 13 9 87 10 9 11
REMARK SMILES IDX 10 12 8 13 7 14 1 15 2 16 3 17 4 18 5 19 6 21 19 22 20 23
REMARK SMILES IDX 21 24 22 25 23 26 24 27 85 28 25 29 84 30 26 31 27 32 28 33
REMARK SMILES IDX 78 34 29 35 83 36 77 37 79 38 30 39 82 40 76 41 75 42 31 44
REMARK SMILES IDX 63 45 43 46 62 47 44 48 47 49 61 50 80 51 45 52 46 53 60 55
REMARK SMILES IDX 81 56 48 57 32 58 33 59 41 60 34 61 40 62 42 63 39 64 35 65
REMARK SMILES IDX 36 66 37 67 38 68 64 69 65 70 73 71 66 72 72 73 74 74 71 75
REMARK SMILES IDX 67 76 68 77 69 78 70 79 49 80 50 81 58 82 51 83 57 84 59 85
REMARK SMILES IDX 56 86 52 87 53 88 54 89 55 90
REMARK H PARENT 4 20 79 43 47 54
REMARK Flexibility Score: inf
ROOT
ATOM      1  C   UNL A   1      35.036  20.408  25.049  1.00  0.00     0.274 C 
ENDROOT
BRANCH   1   2
ATOM      2  O   UNL A   1      33.960  20.987  24.274  1.00  0.00    -0.462 OA
BRANCH   2   3
ATOM      3  C   UNL A   1      32.714  20.814  24.783  1.00  0.00     0.311 C 
ATOM      4  O   UNL A   1      32.301  19.757  25.254  1.00  0.00    -0.252 OA
BRANCH   3   5
ATOM      5  C   UNL A   1      31.821  22.039  24.711  1.00  0.00     0.123 C 
ATOM      6  N   UNL A   1      32.952  24.075  25.203  1.00  0.00    -0.339 N 
ATOM      7  C   UNL A   1      32.592  23.452  26.467  1.00  0.00     0.121 C 
ATOM      8  C   UNL A   1      32.386  23.324  24.075  1.00  0.00     0.096 C 
ATOM      9  C   UNL A   1      31.449  22.514  26.117  1.00  0.00     0.039 C 
ATOM     10  C   UNL A   1      31.231  24.077  23.409  1.00  0.00     0.032 C 
BRANCH   6  11
ATOM     11  C   UNL A   1      33.931  25.051  25.197  1.00  0.00     0.227 C 
ATOM     12  O   UNL A   1      35.097  24.758  25.491  1.00  0.00    -0.275 OA
BRANCH  11  13
ATOM     13  C   UNL A   1      33.575  26.522  25.037  1.00  0.00     0.139 C 
BRANCH  13  14
ATOM     14  C   UNL A   1      32.933  27.233  26.179  1.00  0.00     0.005 A 
ATOM     15  C   UNL A   1      30.465  26.387  26.014  1.00  0.00     0.069 C 
ATOM     16  C   UNL A   1      31.579  27.164  26.611  1.00  0.00     0.063 A 
ATOM     17  N   UNL A   1      31.362  27.936  27.684  1.00  0.00    -0.181 NA
ATOM     18  N   UNL A   1      32.534  28.547  27.891  1.00  0.00    -0.282 N 
ATOM     19  C   UNL A   1      33.501  28.203  26.992  1.00  0.00     0.036 A 
ATOM     20  H   UNL A   1      32.685  29.187  28.624  1.00  0.00     0.190 HD
ATOM     21  C   UNL A   1      34.839  28.844  27.006  1.00  0.00     0.066 C 
ENDBRANCH  13  14
ENDBRANCH  11  13
ENDBRANCH   6  11
ENDBRANCH   3   5
ENDBRANCH   2   3
ENDBRANCH   1   2
BRANCH   1  22
ATOM     22  C   UNL A   1      36.392  20.963  24.615  1.00  0.00     0.275 C 
BRANCH  22  23
ATOM     23  O   UNL A   1      37.030  21.578  25.742  1.00  0.00    -0.458 OA
BRANCH  23  24
ATOM     24  C   UNL A   1      38.347  21.313  25.899  1.00  0.00     0.338 C 
ATOM     25  O   UNL A   1      38.909  20.263  25.609  1.00  0.00    -0.246 OA
BRANCH  24  26
ATOM     26  C   UNL A   1      39.040  22.498  26.463  1.00  0.00     0.060 A 
ATOM     27  C   UNL A   1      38.629  23.794  26.147  1.00  0.00     0.016 A 
ATOM     28  C   UNL A   1      40.171  22.323  27.262  1.00  0.00     0.016 A 
ATOM     29  C   UNL A   1      39.396  24.897  26.530  1.00  0.00     0.010 A 
ATOM     30  C   UNL A   1      40.869  23.438  27.746  1.00  0.00     0.010 A 
ATOM     31  C   UNL A   1      40.511  24.744  27.364  1.00  0.00    -0.014 A 
BRANCH  31  32
ATOM     32  C   UNL A   1      41.313  25.924  27.818  1.00  0.00     0.031 A 
ATOM     33  C   UNL A   1      40.666  26.995  28.665  1.00  0.00     0.074 A 
ATOM     34  C   UNL A   1      42.613  26.062  27.477  1.00  0.00     0.049 A 
ATOM     35  N   UNL A   1      41.071  28.214  28.916  1.00  0.00    -0.248 NA
ATOM     36  C   UNL A   1      39.382  26.651  29.295  1.00  0.00     0.031 C 
ATOM     37  C   UNL A   1      43.407  25.090  26.722  1.00  0.00     0.029 A 
ATOM     38  N   UNL A   1      43.503  27.084  27.723  1.00  0.00    -0.354 N 
ATOM     39  C   UNL A   1      40.064  28.805  29.674  1.00  0.00     0.074 A 
ATOM     40  C   UNL A   1      39.028  27.807  29.841  1.00  0.00     0.031 C 
ATOM     41  C   UNL A   1      44.665  25.539  26.602  1.00  0.00     0.029 A 
ATOM     42  C   UNL A   1      44.744  26.883  27.159  1.00  0.00     0.049 A 
ATOM     43  H   UNL A   1      43.274  27.883  28.249  1.00  0.00     0.167 HD
ATOM     44  C   UNL A   1      40.007  30.065  30.174  1.00  0.00     0.034 A 
ATOM     45  C   UNL A   1      45.807  27.704  27.037  1.00  0.00     0.034 A 
ATOM     46  C   UNL A   1      41.070  31.032  30.049  1.00  0.00     0.049 A 
ATOM     47  C   UNL A   1      45.706  29.113  27.564  1.00  0.00     0.074 A 
ATOM     48  C   UNL A   1      41.106  32.342  30.501  1.00  0.00     0.029 A 
ATOM     49  N   UNL A   1      42.298  30.791  29.449  1.00  0.00    -0.354 N 
ATOM     50  N   UNL A   1      44.698  29.697  28.169  1.00  0.00    -0.248 NA
ATOM     51  C   UNL A   1      46.877  29.977  27.372  1.00  0.00     0.031 C 
ATOM     52  C   UNL A   1      42.337  32.902  30.140  1.00  0.00     0.029 A 
ATOM     53  C   UNL A   1      43.094  31.923  29.517  1.00  0.00     0.049 A 
ATOM     54  H   UNL A   1      42.566  29.937  29.037  1.00  0.00     0.167 HD
ATOM     55  C   UNL A   1      45.123  30.994  28.440  1.00  0.00     0.074 A 
ATOM     56  C   UNL A   1      46.484  31.098  27.959  1.00  0.00     0.031 C 
ATOM     57  C   UNL A   1      44.448  32.012  29.028  1.00  0.00     0.034 A 
BRANCH  44  58
ATOM     58  C   UNL A   1      38.728  30.491  30.855  1.00  0.00     0.023 A 
ATOM     59  C   UNL A   1      37.697  31.149  30.166  1.00  0.00     0.031 A 
ATOM     60  C   UNL A   1      38.543  30.226  32.225  1.00  0.00     0.131 A 
ATOM     61  C   UNL A   1      36.547  31.563  30.858  1.00  0.00     0.055 A 
ATOM     62  C   UNL A   1      37.370  30.580  32.893  1.00  0.00     0.041 A 
ATOM     63  F   UNL A   1      39.503  29.615  32.937  1.00  0.00    -0.206 F 
ATOM     64  C   UNL A   1      36.366  31.261  32.211  1.00  0.00     0.022 A 
BRANCH  61  65
ATOM     65  S   UNL A   1      35.326  32.584  29.989  1.00  0.00     0.124 S 
ATOM     66  O   UNL A   1      36.141  33.718  29.561  1.00  0.00    -0.237 OA
ATOM     67  O   UNL A   1      34.863  31.695  28.931  1.00  0.00    -0.237 OA
ATOM     68  O   UNL A   1      34.337  32.891  31.022  1.00  0.00    -0.744 OA
ENDBRANCH  61  65
ENDBRANCH  44  58
BRANCH  45  69
ATOM     69  C   UNL A   1      47.031  27.260  26.304  1.00  0.00     0.023 A 
ATOM     70  C   UNL A   1      48.025  26.504  26.945  1.00  0.00     0.031 A 
ATOM     71  C   UNL A   1      47.255  27.642  24.969  1.00  0.00     0.131 A 
ATOM     72  C   UNL A   1      49.215  26.194  26.267  1.00  0.00     0.055 A 
ATOM     73  C   UNL A   1      48.411  27.276  24.278  1.00  0.00     0.041 A 
ATOM     74  F   UNL A   1      46.343  28.373  24.309  1.00  0.00    -0.206 F 
ATOM     75  C   UNL A   1      49.407  26.561  24.933  1.00  0.00     0.022 A 
BRANCH  72  76
ATOM     76  S   UNL A   1      50.560  25.401  27.190  1.00  0.00     0.124 S 
ATOM     77  O   UNL A   1      51.001  26.483  28.063  1.00  0.00    -0.237 OA
ATOM     78  O   UNL A   1      49.869  24.294  27.841  1.00  0.00    -0.237 OA
ATOM     79  O   UNL A   1      51.508  25.016  26.146  1.00  0.00    -0.744 OA
ENDBRANCH  72  76
ENDBRANCH  45  69
BRANCH  57  80
ATOM     80  C   UNL A   1      45.201  33.302  29.223  1.00  0.00     0.023 A 
ATOM     81  C   UNL A   1      45.182  34.321  28.255  1.00  0.00     0.031 A 
ATOM     82  C   UNL A   1      45.977  33.497  30.380  1.00  0.00     0.131 A 
ATOM     83  C   UNL A   1      45.971  35.467  28.435  1.00  0.00     0.055 A 
ATOM     84  C   UNL A   1      46.720  34.661  30.576  1.00  0.00     0.041 A 
ATOM     85  F   UNL A   1      46.030  32.554  31.333  1.00  0.00    -0.206 F 
ATOM     86  C   UNL A   1      46.730  35.649  29.594  1.00  0.00     0.022 A 
BRANCH  83  87
ATOM     87  S   UNL A   1      46.063  36.681  27.090  1.00  0.00     0.124 S 
ATOM     88  O   UNL A   1      44.670  37.098  26.960  1.00  0.00    -0.237 OA
ATOM     89  O   UNL A   1      46.978  37.680  27.633  1.00  0.00    -0.237 OA
ATOM     90  O   UNL A   1      46.587  35.909  25.965  1.00  0.00    -0.744 OA
ENDBRANCH  83  87
ENDBRANCH  57  80
ENDBRANCH  31  32
ENDBRANCH  24  26
ENDBRANCH  23  24
ENDBRANCH  22  23
ENDBRANCH   1  22
TORSDOF 17
ENDMDL
MODEL 2
REMARK VINA RESULT:     -11.5      5.142      9.755
REMARK SMILES Cc1n[nH]c(C)c1CC(=O)N1CC[C@H](C(=O)OCCOC(=O)c2ccc(-c3c4nc(c(-c5cc(S(=O)(=O)[O-])ccc5F)c5ccc([nH]5)c(-c5cc(S(=O)(=O)[O-])ccc5F)c5nc(c(-c6cc(S(=O)(=O)[O-])ccc6F)c6ccc3[nH]6)C=C5)C=C4)cc2)[C@H]1C
REMARK SMILES IDX 18 1 17 2 15 3 16 4 14 5 11 6 12 7 86 8 13 9 87 10 9 11
REMARK SMILES IDX 10 12 8 13 7 14 1 15 2 16 3 17 4 18 5 19 6 21 19 22 20 23
REMARK SMILES IDX 21 24 22 25 23 26 24 27 85 28 25 29 84 30 26 31 27 32 28 33
REMARK SMILES IDX 78 34 29 35 83 36 77 37 79 38 30 39 82 40 76 41 75 42 31 44
REMARK SMILES IDX 63 45 43 46 62 47 44 48 47 49 61 50 80 51 45 52 46 53 60 55
REMARK SMILES IDX 81 56 48 57 32 58 33 59 41 60 34 61 40 62 42 63 39 64 35 65
REMARK SMILES IDX 36 66 37 67 38 68 64 69 65 70 73 71 66 72 72 73 74 74 71 75
REMARK SMILES IDX 67 76 68 77 69 78 70 79 49 80 50 81 58 82 51 83 57 84 59 85
REMARK SMILES IDX 56 86 52 87 53 88 54 89 55 90
REMARK H PARENT 4 20 79 43 47 54
REMARK Flexibility Score: inf
ROOT
ATOM      1  C   UNL A   1      31.678  28.667  27.224  1.00  0.00     0.274 C 
ENDROOT
BRANCH   1   2
ATOM      2  O   UNL A   1      32.101  27.691  26.244  1.00  0.00    -0.462 OA
BRANCH   2   3
ATOM      3  C   UNL A   1      31.628  26.433  26.431  1.00  0.00     0.311 C 
ATOM      4  O   UNL A   1      30.494  26.173  26.827  1.00  0.00    -0.252 OA
BRANCH   3   5
ATOM      5  C   UNL A   1      32.624  25.327  26.133  1.00  0.00     0.123 C 
ATOM      6  N   UNL A   1      32.649  24.653  23.851  1.00  0.00    -0.339 N 
ATOM      7  C   UNL A   1      31.546  23.966  24.503  1.00  0.00     0.121 C 
ATOM      8  C   UNL A   1      33.443  25.407  24.830  1.00  0.00     0.096 C 
ATOM      9  C   UNL A   1      31.906  23.986  25.979  1.00  0.00     0.039 C 
ATOM     10  C   UNL A   1      34.807  24.758  25.081  1.00  0.00     0.032 C 
BRANCH   6  11
ATOM     11  C   UNL A   1      32.656  24.740  22.471  1.00  0.00     0.227 C 
ATOM     12  O   UNL A   1      33.454  24.060  21.813  1.00  0.00    -0.275 OA
BRANCH  11  13
ATOM     13  C   UNL A   1      31.846  25.804  21.745  1.00  0.00     0.139 C 
BRANCH  13  14
ATOM     14  C   UNL A   1      31.625  27.118  22.414  1.00  0.00     0.005 A 
ATOM     15  C   UNL A   1      33.973  28.242  22.166  1.00  0.00     0.069 C 
ATOM     16  C   UNL A   1      32.551  28.185  22.586  1.00  0.00     0.063 A 
ATOM     17  N   UNL A   1      31.997  29.221  23.230  1.00  0.00    -0.181 NA
ATOM     18  N   UNL A   1      30.764  28.800  23.531  1.00  0.00    -0.282 N 
ATOM     19  C   UNL A   1      30.498  27.528  23.111  1.00  0.00     0.036 A 
ATOM     20  H   UNL A   1      30.108  29.354  24.012  1.00  0.00     0.190 HD
ATOM     21  C   UNL A   1      29.215  26.855  23.432  1.00  0.00     0.066 C 
ENDBRANCH  13  14
ENDBRANCH  11  13
ENDBRANCH   6  11
ENDBRANCH   3   5
ENDBRANCH   2   3
ENDBRANCH   1   2
BRANCH   1  22
ATOM     22  C   UNL A   1      31.818  30.090  26.684  1.00  0.00     0.275 C 
BRANCH  22  23
ATOM     23  O   UNL A   1      33.209  30.392  26.512  1.00  0.00    -0.458 OA
BRANCH  23  24
ATOM     24  C   UNL A   1      33.698  31.398  27.272  1.00  0.00     0.338 C 
ATOM     25  O   UNL A   1      33.134  32.461  27.508  1.00  0.00    -0.246 OA
BRANCH  24  26
ATOM     26  C   UNL A   1      35.030  31.028  27.811  1.00  0.00     0.060 A 
ATOM     27  C   UNL A   1      35.312  29.719  28.206  1.00  0.00     0.016 A 
ATOM     28  C   UNL A   1      35.999  32.014  28.003  1.00  0.00     0.016 A 
ATOM     29  C   UNL A   1      36.497  29.418  28.882  1.00  0.00     0.010 A 
ATOM     30  C   UNL A   1      37.237  31.683  28.571  1.00  0.00     0.010 A 
ATOM     31  C   UNL A   1      37.496  30.385  29.047  1.00  0.00    -0.014 A 
BRANCH  31  32
ATOM     32  C   UNL A   1      38.789  30.062  29.729  1.00  0.00     0.031 A 
ATOM     33  C   UNL A   1      39.760  29.099  29.086  1.00  0.00     0.074 A 
ATOM     34  C   UNL A   1      39.109  30.607  30.923  1.00  0.00     0.049 A 
ATOM     35  N   UNL A   1      40.773  28.462  29.617  1.00  0.00    -0.248 NA
ATOM     36  C   UNL A   1      39.548  28.802  27.661  1.00  0.00     0.031 C 
ATOM     37  C   UNL A   1      38.316  31.603  31.649  1.00  0.00     0.029 A 
ATOM     38  N   UNL A   1      40.194  30.398  31.745  1.00  0.00    -0.354 N 
ATOM     39  C   UNL A   1      41.276  27.638  28.613  1.00  0.00     0.074 A 
ATOM     40  C   UNL A   1      40.455  27.860  27.442  1.00  0.00     0.031 C 
ATOM     41  C   UNL A   1      38.955  31.945  32.777  1.00  0.00     0.029 A 
ATOM     42  C   UNL A   1      40.139  31.109  32.924  1.00  0.00     0.049 A 
ATOM     43  H   UNL A   1      40.937  29.797  31.513  1.00  0.00     0.167 HD
ATOM     44  C   UNL A   1      42.319  26.773  28.670  1.00  0.00     0.034 A 
ATOM     45  C   UNL A   1      40.907  31.052  34.032  1.00  0.00     0.034 A 
ATOM     46  C   UNL A   1      43.166  26.602  29.826  1.00  0.00     0.049 A 
ATOM     47  C   UNL A   1      42.035  30.054  34.087  1.00  0.00     0.074 A 
ATOM     48  C   UNL A   1      44.236  25.738  29.996  1.00  0.00     0.029 A 
ATOM     49  N   UNL A   1      43.057  27.327  31.005  1.00  0.00    -0.354 N 
ATOM     50  N   UNL A   1      42.421  29.193  33.175  1.00  0.00    -0.248 NA
ATOM     51  C   UNL A   1      42.816  30.007  35.330  1.00  0.00     0.031 C 
ATOM     52  C   UNL A   1      44.747  25.914  31.287  1.00  0.00     0.029 A 
ATOM     53  C   UNL A   1      44.035  26.930  31.902  1.00  0.00     0.049 A 
ATOM     54  H   UNL A   1      42.383  28.025  31.178  1.00  0.00     0.167 HD
ATOM     55  C   UNL A   1      43.499  28.512  33.733  1.00  0.00     0.074 A 
ATOM     56  C   UNL A   1      43.719  29.080  35.046  1.00  0.00     0.031 C 
ATOM     57  C   UNL A   1      44.238  27.503  33.210  1.00  0.00     0.034 A 
BRANCH  44  58
ATOM     58  C   UNL A   1      42.571  25.899  27.464  1.00  0.00     0.023 A 
ATOM     59  C   UNL A   1      42.120  24.571  27.395  1.00  0.00     0.031 A 
ATOM     60  C   UNL A   1      43.276  26.415  26.361  1.00  0.00     0.131 A 
ATOM     61  C   UNL A   1      42.420  23.789  26.268  1.00  0.00     0.055 A 
ATOM     62  C   UNL A   1      43.514  25.654  25.216  1.00  0.00     0.041 A 
ATOM     63  F   UNL A   1      43.746  27.672  26.379  1.00  0.00    -0.206 F 
ATOM     64  C   UNL A   1      43.092  24.328  25.168  1.00  0.00     0.022 A 
BRANCH  61  65
ATOM     65  S   UNL A   1      42.001  22.025  26.294  1.00  0.00     0.124 S 
ATOM     66  O   UNL A   1      42.358  21.656  27.662  1.00  0.00    -0.237 OA
ATOM     67  O   UNL A   1      40.576  22.032  25.985  1.00  0.00    -0.237 OA
ATOM     68  O   UNL A   1      42.860  21.452  25.258  1.00  0.00    -0.744 OA
ENDBRANCH  61  65
ENDBRANCH  44  58
BRANCH  45  69
ATOM     69  C   UNL A   1      40.586  31.894  35.224  1.00  0.00     0.023 A 
ATOM     70  C   UNL A   1      39.537  31.552  36.092  1.00  0.00     0.031 A 
ATOM     71  C   UNL A   1      41.284  33.090  35.475  1.00  0.00     0.131 A 
ATOM     72  C   UNL A   1      39.185  32.419  37.139  1.00  0.00     0.055 A 
ATOM     73  C   UNL A   1      40.973  33.915  36.557  1.00  0.00     0.041 A 
ATOM     74  F   UNL A   1      42.290  33.471  34.673  1.00  0.00    -0.206 F 
ATOM     75  C   UNL A   1      39.907  33.588  37.387  1.00  0.00     0.022 A 
BRANCH  72  76
ATOM     76  S   UNL A   1      37.696  32.051  38.108  1.00  0.00     0.124 S 
ATOM     77  O   UNL A   1      38.185  32.202  39.474  1.00  0.00    -0.237 OA
ATOM     78  O   UNL A   1      36.771  33.076  37.641  1.00  0.00    -0.237 OA
ATOM     79  O   UNL A   1      37.363  30.684  37.712  1.00  0.00    -0.744 OA
ENDBRANCH  72  76
ENDBRANCH  45  69
BRANCH  57  80
ATOM     80  C   UNL A   1      45.381  26.995  34.050  1.00  0.00     0.023 A 
ATOM     81  C   UNL A   1      45.237  25.883  34.897  1.00  0.00     0.031 A 
ATOM     82  C   UNL A   1      46.621  27.657  34.026  1.00  0.00     0.131 A 
ATOM     83  C   UNL A   1      46.298  25.499  35.730  1.00  0.00     0.055 A 
ATOM     84  C   UNL A   1      47.690  27.240  34.820  1.00  0.00     0.041 A 
ATOM     85  F   UNL A   1      46.810  28.725  33.235  1.00  0.00    -0.206 F 
ATOM     86  C   UNL A   1      47.527  26.163  35.688  1.00  0.00     0.022 A 
BRANCH  83  87
ATOM     87  S   UNL A   1      46.024  24.174  36.938  1.00  0.00     0.124 S 
ATOM     88  O   UNL A   1      44.947  23.410  36.313  1.00  0.00    -0.237 OA
ATOM     89  O   UNL A   1      47.327  23.517  36.983  1.00  0.00    -0.237 OA
ATOM     90  O   UNL A   1      45.649  24.890  38.156  1.00  0.00    -0.744 OA
ENDBRANCH  83  87
ENDBRANCH  57  80
ENDBRANCH  31  32
ENDBRANCH  24  26
ENDBRANCH  23  24
ENDBRANCH  22  23
ENDBRANCH   1  22
TORSDOF 17
ENDMDL
MODEL 3
REMARK VINA RESULT:     -11.4      4.776      9.903
REMARK SMILES Cc1n[nH]c(C)c1CC(=O)N1CC[C@H](C(=O)OCCOC(=O)c2ccc(-c3c4nc(c(-c5cc(S(=O)(=O)[O-])ccc5F)c5ccc([nH]5)c(-c5cc(S(=O)(=O)[O-])ccc5F)c5nc(c(-c6cc(S(=O)(=O)[O-])ccc6F)c6ccc3[nH]6)C=C5)C=C4)cc2)[C@H]1C
REMARK SMILES IDX 18 1 17 2 15 3 16 4 14 5 11 6 12 7 86 8 13 9 87 10 9 11
REMARK SMILES IDX 10 12 8 13 7 14 1 15 2 16 3 17 4 18 5 19 6 21 19 22 20 23
REMARK SMILES IDX 21 24 22 25 23 26 24 27 85 28 25 29 84 30 26 31 27 32 28 33
REMARK SMILES IDX 78 34 29 35 83 36 77 37 79 38 30 39 82 40 76 41 75 42 31 44
REMARK SMILES IDX 63 45 43 46 62 47 44 48 47 49 61 50 80 51 45 52 46 53 60 55
REMARK SMILES IDX 81 56 48 57 32 58 33 59 41 60 34 61 40 62 42 63 39 64 35 65
REMARK SMILES IDX 36 66 37 67 38 68 64 69 65 70 73 71 66 72 72 73 74 74 71 75
REMARK SMILES IDX 67 76 68 77 69 78 70 79 49 80 50 81 58 82 51 83 57 84 59 85
REMARK SMILES IDX 56 86 52 87 53 88 54 89 55 90
REMARK H PARENT 4 20 79 43 47 54
REMARK Flexibility Score: inf
ROOT
ATOM      1  C   UNL A   1      31.184  28.400  25.396  1.00  0.00     0.274 C 
ENDROOT
BRANCH   1   2
ATOM      2  O   UNL A   1      30.628  27.884  24.164  1.00  0.00    -0.462 OA
BRANCH   2   3
ATOM      3  C   UNL A   1      31.141  26.702  23.740  1.00  0.00     0.311 C 
ATOM      4  O   UNL A   1      31.030  26.272  22.595  1.00  0.00    -0.252 OA
BRANCH   3   5
ATOM      5  C   UNL A   1      31.865  25.902  24.808  1.00  0.00     0.123 C 
ATOM      6  N   UNL A   1      32.631  23.779  24.056  1.00  0.00    -0.339 N 
ATOM      7  C   UNL A   1      31.227  23.643  24.407  1.00  0.00     0.121 C 
ATOM      8  C   UNL A   1      33.128  25.116  24.408  1.00  0.00     0.096 C 
ATOM      9  C   UNL A   1      30.959  24.798  25.357  1.00  0.00     0.039 C 
ATOM     10  C   UNL A   1      34.070  25.076  25.613  1.00  0.00     0.032 C 
BRANCH   6  11
ATOM     11  C   UNL A   1      33.211  22.819  23.246  1.00  0.00     0.227 C 
ATOM     12  O   UNL A   1      32.846  22.703  22.069  1.00  0.00    -0.275 OA
BRANCH  11  13
ATOM     13  C   UNL A   1      34.143  21.763  23.821  1.00  0.00     0.139 C 
BRANCH  13  14
ATOM     14  C   UNL A   1      33.574  20.709  24.707  1.00  0.00     0.005 A 
ATOM     15  C   UNL A   1      32.397  19.139  22.978  1.00  0.00     0.069 C 
ATOM     16  C   UNL A   1      32.822  19.558  24.337  1.00  0.00     0.063 A 
ATOM     17  N   UNL A   1      32.482  18.825  25.404  1.00  0.00    -0.181 NA
ATOM     18  N   UNL A   1      32.940  19.528  26.446  1.00  0.00    -0.282 N 
ATOM     19  C   UNL A   1      33.561  20.692  26.094  1.00  0.00     0.036 A 
ATOM     20  H   UNL A   1      32.838  19.235  27.380  1.00  0.00     0.190 HD
ATOM     21  C   UNL A   1      34.055  21.649  27.115  1.00  0.00     0.066 C 
ENDBRANCH  13  14
ENDBRANCH  11  13
ENDBRANCH   6  11
ENDBRANCH   3   5
ENDBRANCH   2   3
ENDBRANCH   1   2
BRANCH   1  22
ATOM     22  C   UNL A   1      31.481  29.895  25.286  1.00  0.00     0.275 C 
BRANCH  22  23
ATOM     23  O   UNL A   1      32.834  30.135  25.694  1.00  0.00    -0.458 OA
BRANCH  23  24
ATOM     24  C   UNL A   1      33.001  30.985  26.733  1.00  0.00     0.338 C 
ATOM     25  O   UNL A   1      32.182  31.807  27.128  1.00  0.00    -0.246 OA
BRANCH  24  26
ATOM     26  C   UNL A   1      34.330  30.771  27.358  1.00  0.00     0.060 A 
ATOM     27  C   UNL A   1      34.782  29.488  27.672  1.00  0.00     0.016 A 
ATOM     28  C   UNL A   1      35.114  31.869  27.711  1.00  0.00     0.016 A 
ATOM     29  C   UNL A   1      35.945  29.308  28.425  1.00  0.00     0.010 A 
ATOM     30  C   UNL A   1      36.342  31.677  28.359  1.00  0.00     0.010 A 
ATOM     31  C   UNL A   1      36.765  30.394  28.754  1.00  0.00    -0.014 A 
BRANCH  31  32
ATOM     32  C   UNL A   1      38.038  30.207  29.521  1.00  0.00     0.031 A 
ATOM     33  C   UNL A   1      39.141  29.347  28.950  1.00  0.00     0.074 A 
ATOM     34  C   UNL A   1      38.222  30.786  30.727  1.00  0.00     0.049 A 
ATOM     35  N   UNL A   1      40.178  28.819  29.551  1.00  0.00    -0.248 NA
ATOM     36  C   UNL A   1      39.054  29.026  27.518  1.00  0.00     0.031 C 
ATOM     37  C   UNL A   1      37.285  31.697  31.391  1.00  0.00     0.029 A 
ATOM     38  N   UNL A   1      39.266  30.692  31.619  1.00  0.00    -0.354 N 
ATOM     39  C   UNL A   1      40.826  28.048  28.590  1.00  0.00     0.074 A 
ATOM     40  C   UNL A   1      40.064  28.181  27.366  1.00  0.00     0.031 C 
ATOM     41  C   UNL A   1      37.811  32.107  32.554  1.00  0.00     0.029 A 
ATOM     42  C   UNL A   1      39.063  31.397  32.786  1.00  0.00     0.049 A 
ATOM     43  H   UNL A   1      40.081  30.169  31.442  1.00  0.00     0.167 HD
ATOM     44  C   UNL A   1      41.946  27.295  28.722  1.00  0.00     0.034 A 
ATOM     45  C   UNL A   1      39.759  31.422  33.941  1.00  0.00     0.034 A 
ATOM     46  C   UNL A   1      42.729  27.215  29.932  1.00  0.00     0.049 A 
ATOM     47  C   UNL A   1      40.977  30.545  34.078  1.00  0.00     0.074 A 
ATOM     48  C   UNL A   1      43.869  26.466  30.179  1.00  0.00     0.029 A 
ATOM     49  N   UNL A   1      42.470  27.929  31.094  1.00  0.00    -0.354 N 
ATOM     50  N   UNL A   1      41.507  29.726  33.201  1.00  0.00    -0.248 NA
ATOM     51  C   UNL A   1      41.676  30.582  35.369  1.00  0.00     0.031 C 
ATOM     52  C   UNL A   1      44.274  26.697  31.498  1.00  0.00     0.029 A 
ATOM     53  C   UNL A   1      43.423  27.636  32.057  1.00  0.00     0.049 A 
ATOM     54  H   UNL A   1      41.718  28.554  31.217  1.00  0.00     0.167 HD
ATOM     55  C   UNL A   1      42.611  29.161  33.833  1.00  0.00     0.074 A 
ATOM     56  C   UNL A   1      42.686  29.752  35.152  1.00  0.00     0.031 C 
ATOM     57  C   UNL A   1      43.481  28.231  33.370  1.00  0.00     0.034 A 
BRANCH  44  58
ATOM     58  C   UNL A   1      42.364  26.448  27.544  1.00  0.00     0.023 A 
ATOM     59  C   UNL A   1      41.972  25.106  27.410  1.00  0.00     0.031 A 
ATOM     60  C   UNL A   1      43.169  27.005  26.532  1.00  0.00     0.131 A 
ATOM     61  C   UNL A   1      42.426  24.351  26.316  1.00  0.00     0.055 A 
ATOM     62  C   UNL A   1      43.562  26.269  25.413  1.00  0.00     0.041 A 
ATOM     63  F   UNL A   1      43.588  28.277  26.617  1.00  0.00    -0.206 F 
ATOM     64  C   UNL A   1      43.197  24.930  25.305  1.00  0.00     0.022 A 
BRANCH  61  65
ATOM     65  S   UNL A   1      42.071  22.573  26.276  1.00  0.00     0.124 S 
ATOM     66  O   UNL A   1      40.612  22.563  26.234  1.00  0.00    -0.237 OA
ATOM     67  O   UNL A   1      42.749  22.141  25.060  1.00  0.00    -0.237 OA
ATOM     68  O   UNL A   1      42.655  22.079  27.523  1.00  0.00    -0.744 OA
ENDBRANCH  61  65
ENDBRANCH  44  58
BRANCH  45  69
ATOM     69  C   UNL A   1      39.277  32.230  35.101  1.00  0.00     0.023 A 
ATOM     70  C   UNL A   1      39.771  33.522  35.340  1.00  0.00     0.031 A 
ATOM     71  C   UNL A   1      38.361  31.696  36.027  1.00  0.00     0.131 A 
ATOM     72  C   UNL A   1      39.385  34.216  36.499  1.00  0.00     0.055 A 
ATOM     73  C   UNL A   1      37.930  32.415  37.142  1.00  0.00     0.041 A 
ATOM     74  F   UNL A   1      37.862  30.461  35.854  1.00  0.00    -0.206 F 
ATOM     75  C   UNL A   1      38.455  33.678  37.391  1.00  0.00     0.022 A 
BRANCH  72  76
ATOM     76  S   UNL A   1      40.202  35.790  36.882  1.00  0.00     0.124 S 
ATOM     77  O   UNL A   1      41.611  35.436  36.742  1.00  0.00    -0.237 OA
ATOM     78  O   UNL A   1      39.657  36.671  35.856  1.00  0.00    -0.237 OA
ATOM     79  O   UNL A   1      39.764  36.077  38.246  1.00  0.00    -0.744 OA
ENDBRANCH  72  76
ENDBRANCH  45  69
BRANCH  57  80
ATOM     80  C   UNL A   1      44.614  27.845  34.286  1.00  0.00     0.023 A 
ATOM     81  C   UNL A   1      44.501  26.772  35.186  1.00  0.00     0.031 A 
ATOM     82  C   UNL A   1      45.808  28.587  34.280  1.00  0.00     0.131 A 
ATOM     83  C   UNL A   1      45.544  26.504  36.085  1.00  0.00     0.055 A 
ATOM     84  C   UNL A   1      46.862  28.285  35.143  1.00  0.00     0.041 A 
ATOM     85  F   UNL A   1      45.965  29.623  33.441  1.00  0.00    -0.206 F 
ATOM     86  C   UNL A   1      46.728  27.247  36.061  1.00  0.00     0.022 A 
BRANCH  83  87
ATOM     87  S   UNL A   1      45.298  25.228  37.350  1.00  0.00     0.124 S 
ATOM     88  O   UNL A   1      44.023  25.625  37.941  1.00  0.00    -0.237 OA
ATOM     89  O   UNL A   1      45.279  24.002  36.558  1.00  0.00    -0.237 OA
ATOM     90  O   UNL A   1      46.460  25.382  38.224  1.00  0.00    -0.744 OA
ENDBRANCH  83  87
ENDBRANCH  57  80
ENDBRANCH  31  32
ENDBRANCH  24  26
ENDBRANCH  23  24
ENDBRANCH  22  23
ENDBRANCH   1  22
TORSDOF 17
ENDMDL
