MODEL 1
REMARK VINA RESULT:     -11.5      0.000      0.000
REMARK SMILES C[C@H](O)[C@@H](NS(=O)(=O)c1ccc(F)cc1)C(=O)OCCOC(=O)c1ccc(-c2c3nc(c(-c4cc(S(=O)(=O)[O-])ccc4F)c4ccc([nH]4)c(-c4cc(S(=O)(=O)[O-])ccc4F)c4nc(c(-c5cc(S(=O)(=O)[O-])ccc5F)c5ccc2[nH]5)C=C4)C=C3)cc1
REMARK SMILES IDX 19 1 18 2 16 3 17 4 4 5 2 6 1 7 3 8 5 10 6 12 7 13 8 14 9 15
REMARK SMILES IDX 10 16 15 17 11 18 14 19 12 20 13 21 20 22 21 23 22 24 23 25
REMARK SMILES IDX 24 26 25 27 86 28 26 29 85 30 27 31 28 32 29 33 79 34 30 35
REMARK SMILES IDX 84 36 78 37 80 38 31 39 83 40 77 41 76 42 32 44 64 45 44 46
REMARK SMILES IDX 63 47 45 48 48 49 62 50 81 51 46 52 47 53 61 55 82 56 49 57
REMARK SMILES IDX 33 58 34 59 42 60 35 61 41 62 43 63 40 64 36 65 37 66 38 67
REMARK SMILES IDX 39 68 65 69 66 70 74 71 67 72 73 73 75 74 72 75 68 76 69 77
REMARK SMILES IDX 70 78 71 79 50 80 51 81 59 82 52 83 58 84 60 85 57 86 53 87
REMARK SMILES IDX 54 88 55 89 56 90
REMARK H PARENT 3 9 5 11 80 43 48 54
REMARK Flexibility Score: inf
ROOT
ATOM      1  C   UNL A   1      34.866  20.397  25.071  1.00  0.00     0.274 C 
ENDROOT
BRANCH   1   2
ATOM      2  O   UNL A   1      33.890  21.185  25.786  1.00  0.00    -0.461 OA
BRANCH   2   3
ATOM      3  C   UNL A   1      32.633  21.135  25.271  1.00  0.00     0.326 C 
ATOM      4  O   UNL A   1      31.981  20.100  25.187  1.00  0.00    -0.250 OA
BRANCH   3   5
ATOM      5  C   UNL A   1      32.131  22.451  24.696  1.00  0.00     0.208 C 
BRANCH   5   6
ATOM      6  C   UNL A   1      32.004  22.469  23.157  1.00  0.00     0.140 C 
ATOM      7  C   UNL A   1      33.236  23.076  22.492  1.00  0.00     0.040 C 
BRANCH   6   8
ATOM      8  O   UNL A   1      30.854  23.267  22.805  1.00  0.00    -0.391 OA
ATOM      9  H   UNL A   1      30.388  22.852  22.062  1.00  0.00     0.211 HD
ENDBRANCH   6   8
ENDBRANCH   5   6
BRANCH   5  10
ATOM     10  N   UNL A   1      30.810  22.813  25.303  1.00  0.00    -0.194 NA
ATOM     11  H   UNL A   1      30.354  21.944  25.583  1.00  0.00     0.142 HD
BRANCH  10  12
ATOM     12  S   UNL A   1      30.827  23.836  26.653  1.00  0.00     0.241 S 
ATOM     13  O   UNL A   1      29.533  23.739  27.296  1.00  0.00    -0.207 OA
ATOM     14  O   UNL A   1      32.053  23.549  27.356  1.00  0.00    -0.207 OA
BRANCH  12  15
ATOM     15  C   UNL A   1      31.012  25.455  25.947  1.00  0.00     0.082 A 
ATOM     16  C   UNL A   1      30.204  25.816  24.863  1.00  0.00     0.025 A 
ATOM     17  C   UNL A   1      31.886  26.381  26.533  1.00  0.00     0.025 A 
ATOM     18  C   UNL A   1      30.240  27.129  24.394  1.00  0.00     0.040 A 
ATOM     19  C   UNL A   1      31.903  27.696  26.067  1.00  0.00     0.040 A 
ATOM     20  C   UNL A   1      31.076  28.059  25.008  1.00  0.00     0.123 A 
ATOM     21  F   UNL A   1      31.062  29.330  24.585  1.00  0.00    -0.207 F 
ENDBRANCH  12  15
ENDBRANCH  10  12
ENDBRANCH   5  10
ENDBRANCH   3   5
ENDBRANCH   2   3
ENDBRANCH   1   2
BRANCH   1  22
ATOM     22  C   UNL A   1      36.151  21.151  24.700  1.00  0.00     0.275 C 
BRANCH  22  23
ATOM     23  O   UNL A   1      36.855  21.660  25.848  1.00  0.00    -0.458 OA
BRANCH  23  24
ATOM     24  C   UNL A   1      38.194  21.456  25.831  1.00  0.00     0.338 C 
ATOM     25  O   UNL A   1      38.779  20.533  25.287  1.00  0.00    -0.246 OA
BRANCH  24  26
ATOM     26  C   UNL A   1      38.903  22.598  26.436  1.00  0.00     0.060 A 
ATOM     27  C   UNL A   1      38.440  23.887  26.156  1.00  0.00     0.016 A 
ATOM     28  C   UNL A   1      40.074  22.416  27.170  1.00  0.00     0.016 A 
ATOM     29  C   UNL A   1      39.131  25.003  26.611  1.00  0.00     0.010 A 
ATOM     30  C   UNL A   1      40.783  23.541  27.611  1.00  0.00     0.010 A 
ATOM     31  C   UNL A   1      40.321  24.838  27.325  1.00  0.00    -0.014 A 
BRANCH  31  32
ATOM     32  C   UNL A   1      41.130  26.029  27.674  1.00  0.00     0.031 A 
ATOM     33  C   UNL A   1      40.532  27.088  28.555  1.00  0.00     0.074 A 
ATOM     34  C   UNL A   1      42.405  26.133  27.257  1.00  0.00     0.049 A 
ATOM     35  N   UNL A   1      41.004  28.265  28.871  1.00  0.00    -0.248 NA
ATOM     36  C   UNL A   1      39.230  26.775  29.166  1.00  0.00     0.031 C 
ATOM     37  C   UNL A   1      43.130  25.115  26.496  1.00  0.00     0.029 A 
ATOM     38  N   UNL A   1      43.319  27.143  27.421  1.00  0.00    -0.354 N 
ATOM     39  C   UNL A   1      40.052  28.844  29.701  1.00  0.00     0.074 A 
ATOM     40  C   UNL A   1      38.970  27.891  29.833  1.00  0.00     0.031 C 
ATOM     41  C   UNL A   1      44.378  25.554  26.259  1.00  0.00     0.029 A 
ATOM     42  C   UNL A   1      44.519  26.905  26.796  1.00  0.00     0.049 A 
ATOM     43  H   UNL A   1      43.132  27.961  27.936  1.00  0.00     0.167 HD
ATOM     44  C   UNL A   1      40.080  30.062  30.292  1.00  0.00     0.034 A 
ATOM     45  C   UNL A   1      45.595  27.702  26.640  1.00  0.00     0.034 A 
ATOM     46  C   UNL A   1      41.169  30.995  30.153  1.00  0.00     0.049 A 
ATOM     47  C   UNL A   1      45.558  29.097  27.208  1.00  0.00     0.074 A 
ATOM     48  C   UNL A   1      41.286  32.269  30.682  1.00  0.00     0.029 A 
ATOM     49  N   UNL A   1      42.334  30.753  29.438  1.00  0.00    -0.354 N 
ATOM     50  N   UNL A   1      44.606  29.679  27.900  1.00  0.00    -0.248 NA
ATOM     51  C   UNL A   1      46.729  29.949  26.960  1.00  0.00     0.031 C 
ATOM     52  C   UNL A   1      42.496  32.815  30.244  1.00  0.00     0.029 A 
ATOM     53  C   UNL A   1      43.164  31.860  29.494  1.00  0.00     0.049 A 
ATOM     54  H   UNL A   1      42.540  29.917  28.961  1.00  0.00     0.167 HD
ATOM     55  C   UNL A   1      45.071  30.959  28.185  1.00  0.00     0.074 A 
ATOM     56  C   UNL A   1      46.389  31.065  27.591  1.00  0.00     0.031 C 
ATOM     57  C   UNL A   1      44.467  31.953  28.882  1.00  0.00     0.034 A 
BRANCH  44  58
ATOM     58  C   UNL A   1      38.872  30.478  31.086  1.00  0.00     0.023 A 
ATOM     59  C   UNL A   1      37.782  31.136  30.490  1.00  0.00     0.031 A 
ATOM     60  C   UNL A   1      38.810  30.203  32.463  1.00  0.00     0.131 A 
ATOM     61  C   UNL A   1      36.692  31.530  31.280  1.00  0.00     0.055 A 
ATOM     62  C   UNL A   1      37.697  30.545  33.232  1.00  0.00     0.041 A 
ATOM     63  F   UNL A   1      39.836  29.597  33.084  1.00  0.00    -0.206 F 
ATOM     64  C   UNL A   1      36.632  31.218  32.642  1.00  0.00     0.022 A 
BRANCH  61  65
ATOM     65  S   UNL A   1      35.378  32.524  30.523  1.00  0.00     0.124 S 
ATOM     66  O   UNL A   1      36.060  33.797  30.305  1.00  0.00    -0.237 OA
ATOM     67  O   UNL A   1      35.052  31.761  29.324  1.00  0.00    -0.237 OA
ATOM     68  O   UNL A   1      34.334  32.551  31.546  1.00  0.00    -0.744 OA
ENDBRANCH  61  65
ENDBRANCH  44  58
BRANCH  45  69
ATOM     69  C   UNL A   1      46.765  27.228  25.851  1.00  0.00     0.023 A 
ATOM     70  C   UNL A   1      46.973  27.655  24.531  1.00  0.00     0.031 A 
ATOM     71  C   UNL A   1      47.690  26.329  26.412  1.00  0.00     0.131 A 
ATOM     72  C   UNL A   1      48.074  27.169  23.807  1.00  0.00     0.055 A 
ATOM     73  C   UNL A   1      48.804  25.880  25.702  1.00  0.00     0.041 A 
ATOM     74  F   UNL A   1      47.533  25.891  27.671  1.00  0.00    -0.206 F 
ATOM     75  C   UNL A   1      48.998  26.297  24.389  1.00  0.00     0.022 A 
BRANCH  72  76
ATOM     76  S   UNL A   1      48.271  27.669  22.075  1.00  0.00     0.124 S 
ATOM     77  O   UNL A   1      48.494  26.386  21.420  1.00  0.00    -0.237 OA
ATOM     78  O   UNL A   1      46.994  28.319  21.797  1.00  0.00    -0.237 OA
ATOM     79  O   UNL A   1      49.426  28.563  22.108  1.00  0.00    -0.744 OA
ENDBRANCH  72  76
ENDBRANCH  45  69
BRANCH  57  80
ATOM     80  C   UNL A   1      45.236  33.232  29.072  1.00  0.00     0.023 A 
ATOM     81  C   UNL A   1      45.058  34.331  28.218  1.00  0.00     0.031 A 
ATOM     82  C   UNL A   1      46.124  33.361  30.155  1.00  0.00     0.131 A 
ATOM     83  C   UNL A   1      45.779  35.512  28.447  1.00  0.00     0.055 A 
ATOM     84  C   UNL A   1      46.808  34.552  30.401  1.00  0.00     0.041 A 
ATOM     85  F   UNL A   1      46.324  32.338  31.001  1.00  0.00    -0.206 F 
ATOM     86  C   UNL A   1      46.639  35.635  29.542  1.00  0.00     0.022 A 
BRANCH  83  87
ATOM     87  S   UNL A   1      45.593  36.891  27.284  1.00  0.00     0.124 S 
ATOM     88  O   UNL A   1      45.812  38.046  28.148  1.00  0.00    -0.237 OA
ATOM     89  O   UNL A   1      46.640  36.623  26.302  1.00  0.00    -0.237 OA
ATOM     90  O   UNL A   1      44.227  36.738  26.786  1.00  0.00    -0.744 OA
ENDBRANCH  83  87
ENDBRANCH  57  80
ENDBRANCH  31  32
ENDBRANCH  24  26
ENDBRANCH  23  24
ENDBRANCH  22  23
ENDBRANCH   1  22
TORSDOF 19
ENDMDL
MODEL 2
REMARK VINA RESULT:     -11.4      1.626      1.910
REMARK SMILES C[C@H](O)[C@@H](NS(=O)(=O)c1ccc(F)cc1)C(=O)OCCOC(=O)c1ccc(-c2c3nc(c(-c4cc(S(=O)(=O)[O-])ccc4F)c4ccc([nH]4)c(-c4cc(S(=O)(=O)[O-])ccc4F)c4nc(c(-c5cc(S(=O)(=O)[O-])ccc5F)c5ccc2[nH]5)C=C4)C=C3)cc1
REMARK SMILES IDX 19 1 18 2 16 3 17 4 4 5 2 6 1 7 3 8 5 10 6 12 7 13 8 14 9 15
REMARK SMILES IDX 10 16 15 17 11 18 14 19 12 20 13 21 20 22 21 23 22 24 23 25
REMARK SMILES IDX 24 26 25 27 86 28 26 29 85 30 27 31 28 32 29 33 79 34 30 35
REMARK SMILES IDX 84 36 78 37 80 38 31 39 83 40 77 41 76 42 32 44 64 45 44 46
REMARK SMILES IDX 63 47 45 48 48 49 62 50 81 51 46 52 47 53 61 55 82 56 49 57
REMARK SMILES IDX 33 58 34 59 42 60 35 61 41 62 43 63 40 64 36 65 37 66 38 67
REMARK SMILES IDX 39 68 65 69 66 70 74 71 67 72 73 73 75 74 72 75 68 76 69 77
REMARK SMILES IDX 70 78 71 79 50 80 51 81 59 82 52 83 58 84 60 85 57 86 53 87
REMARK SMILES IDX 54 88 55 89 56 90
REMARK H PARENT 3 9 5 11 80 43 48 54
REMARK Flexibility Score: inf
ROOT
ATOM      1  C   UNL A   1      35.288  21.628  25.248  1.00  0.00     0.274 C 
ENDROOT
BRANCH   1   2
ATOM      2  O   UNL A   1      34.372  21.613  24.131  1.00  0.00    -0.461 OA
BRANCH   2   3
ATOM      3  C   UNL A   1      33.061  21.734  24.471  1.00  0.00     0.326 C 
ATOM      4  O   UNL A   1      32.342  20.776  24.729  1.00  0.00    -0.250 OA
BRANCH   3   5
ATOM      5  C   UNL A   1      32.516  23.153  24.396  1.00  0.00     0.208 C 
BRANCH   5   6
ATOM      6  C   UNL A   1      32.369  23.706  22.962  1.00  0.00     0.140 C 
ATOM      7  C   UNL A   1      31.207  24.688  22.848  1.00  0.00     0.040 C 
BRANCH   6   8
ATOM      8  O   UNL A   1      32.121  22.598  22.071  1.00  0.00    -0.391 OA
ATOM      9  H   UNL A   1      31.179  22.366  22.098  1.00  0.00     0.211 HD
ENDBRANCH   6   8
ENDBRANCH   5   6
BRANCH   5  10
ATOM     10  N   UNL A   1      31.194  23.239  25.095  1.00  0.00    -0.194 NA
ATOM     11  H   UNL A   1      30.855  22.286  25.226  1.00  0.00     0.142 HD
BRANCH  10  12
ATOM     12  S   UNL A   1      31.161  24.002  26.608  1.00  0.00     0.241 S 
ATOM     13  O   UNL A   1      29.774  24.135  27.003  1.00  0.00    -0.207 OA
ATOM     14  O   UNL A   1      32.125  23.308  27.426  1.00  0.00    -0.207 OA
BRANCH  12  15
ATOM     15  C   UNL A   1      31.835  25.612  26.278  1.00  0.00     0.082 A 
ATOM     16  C   UNL A   1      33.224  25.757  26.185  1.00  0.00     0.025 A 
ATOM     17  C   UNL A   1      30.980  26.692  26.024  1.00  0.00     0.025 A 
ATOM     18  C   UNL A   1      33.755  26.982  25.787  1.00  0.00     0.040 A 
ATOM     19  C   UNL A   1      31.520  27.911  25.611  1.00  0.00     0.040 A 
ATOM     20  C   UNL A   1      32.901  28.042  25.489  1.00  0.00     0.123 A 
ATOM     21  F   UNL A   1      33.418  29.198  25.055  1.00  0.00    -0.207 F 
ENDBRANCH  12  15
ENDBRANCH  10  12
ENDBRANCH   5  10
ENDBRANCH   3   5
ENDBRANCH   2   3
ENDBRANCH   1   2
BRANCH   1  22
ATOM     22  C   UNL A   1      36.483  20.675  25.109  1.00  0.00     0.275 C 
BRANCH  22  23
ATOM     23  O   UNL A   1      37.729  21.363  24.896  1.00  0.00    -0.458 OA
BRANCH  23  24
ATOM     24  C   UNL A   1      38.730  21.001  25.734  1.00  0.00     0.338 C 
ATOM     25  O   UNL A   1      39.173  19.874  25.887  1.00  0.00    -0.246 OA
BRANCH  24  26
ATOM     26  C   UNL A   1      39.348  22.187  26.352  1.00  0.00     0.060 A 
ATOM     27  C   UNL A   1      38.867  23.448  25.987  1.00  0.00     0.016 A 
ATOM     28  C   UNL A   1      40.460  22.073  27.185  1.00  0.00     0.016 A 
ATOM     29  C   UNL A   1      39.481  24.604  26.456  1.00  0.00     0.010 A 
ATOM     30  C   UNL A   1      41.092  23.237  27.641  1.00  0.00     0.010 A 
ATOM     31  C   UNL A   1      40.612  24.507  27.269  1.00  0.00    -0.014 A 
BRANCH  31  32
ATOM     32  C   UNL A   1      41.350  25.737  27.638  1.00  0.00     0.031 A 
ATOM     33  C   UNL A   1      40.652  26.796  28.444  1.00  0.00     0.074 A 
ATOM     34  C   UNL A   1      42.646  25.879  27.309  1.00  0.00     0.049 A 
ATOM     35  N   UNL A   1      41.056  27.998  28.756  1.00  0.00    -0.248 NA
ATOM     36  C   UNL A   1      39.322  26.448  28.970  1.00  0.00     0.031 C 
ATOM     37  C   UNL A   1      43.461  24.870  26.632  1.00  0.00     0.029 A 
ATOM     38  N   UNL A   1      43.508  26.928  27.507  1.00  0.00    -0.354 N 
ATOM     39  C   UNL A   1      40.026  28.561  29.500  1.00  0.00     0.074 A 
ATOM     40  C   UNL A   1      38.974  27.571  29.584  1.00  0.00     0.031 C 
ATOM     41  C   UNL A   1      44.706  25.350  26.470  1.00  0.00     0.029 A 
ATOM     42  C   UNL A   1      44.758  26.721  26.975  1.00  0.00     0.049 A 
ATOM     43  H   UNL A   1      43.255  27.751  27.983  1.00  0.00     0.167 HD
ATOM     44  C   UNL A   1      39.967  29.795  30.055  1.00  0.00     0.034 A 
ATOM     45  C   UNL A   1      45.812  27.555  26.871  1.00  0.00     0.034 A 
ATOM     46  C   UNL A   1      41.028  30.766  29.965  1.00  0.00     0.049 A 
ATOM     47  C   UNL A   1      45.683  28.962  27.394  1.00  0.00     0.074 A 
ATOM     48  C   UNL A   1      41.059  32.057  30.462  1.00  0.00     0.029 A 
ATOM     49  N   UNL A   1      42.249  30.550  29.341  1.00  0.00    -0.354 N 
ATOM     50  N   UNL A   1      44.664  29.525  27.999  1.00  0.00    -0.248 NA
ATOM     51  C   UNL A   1      46.836  29.851  27.204  1.00  0.00     0.031 C 
ATOM     52  C   UNL A   1      42.276  32.639  30.094  1.00  0.00     0.029 A 
ATOM     53  C   UNL A   1      43.031  31.690  29.422  1.00  0.00     0.049 A 
ATOM     54  H   UNL A   1      42.519  29.710  28.905  1.00  0.00     0.167 HD
ATOM     55  C   UNL A   1      45.059  30.829  28.278  1.00  0.00     0.074 A 
ATOM     56  C   UNL A   1      46.411  30.970  27.775  1.00  0.00     0.031 C 
ATOM     57  C   UNL A   1      44.371  31.817  28.901  1.00  0.00     0.034 A 
BRANCH  44  58
ATOM     58  C   UNL A   1      38.690  30.185  30.749  1.00  0.00     0.023 A 
ATOM     59  C   UNL A   1      37.691  30.930  30.101  1.00  0.00     0.031 A 
ATOM     60  C   UNL A   1      38.471  29.797  32.082  1.00  0.00     0.131 A 
ATOM     61  C   UNL A   1      36.530  31.294  30.802  1.00  0.00     0.055 A 
ATOM     62  C   UNL A   1      37.291  30.111  32.755  1.00  0.00     0.041 A 
ATOM     63  F   UNL A   1      39.406  29.104  32.753  1.00  0.00    -0.206 F 
ATOM     64  C   UNL A   1      36.314  30.870  32.117  1.00  0.00     0.022 A 
BRANCH  61  65
ATOM     65  S   UNL A   1      35.334  32.395  30.000  1.00  0.00     0.124 S 
ATOM     66  O   UNL A   1      36.166  33.552  29.681  1.00  0.00    -0.237 OA
ATOM     67  O   UNL A   1      34.882  31.601  28.864  1.00  0.00    -0.237 OA
ATOM     68  O   UNL A   1      34.330  32.625  31.037  1.00  0.00    -0.744 OA
ENDBRANCH  61  65
ENDBRANCH  44  58
BRANCH  45  69
ATOM     69  C   UNL A   1      47.052  27.105  26.181  1.00  0.00     0.023 A 
ATOM     70  C   UNL A   1      48.093  26.483  26.888  1.00  0.00     0.031 A 
ATOM     71  C   UNL A   1      47.215  27.302  24.798  1.00  0.00     0.131 A 
ATOM     72  C   UNL A   1      49.259  26.094  26.210  1.00  0.00     0.055 A 
ATOM     73  C   UNL A   1      48.359  26.878  24.122  1.00  0.00     0.041 A 
ATOM     74  F   UNL A   1      46.247  27.894  24.079  1.00  0.00    -0.206 F 
ATOM     75  C   UNL A   1      49.392  26.274  24.831  1.00  0.00     0.022 A 
BRANCH  72  76
ATOM     76  S   UNL A   1      50.623  25.372  27.163  1.00  0.00     0.124 S 
ATOM     77  O   UNL A   1      51.551  24.986  26.107  1.00  0.00    -0.237 OA
ATOM     78  O   UNL A   1      51.037  26.492  28.002  1.00  0.00    -0.237 OA
ATOM     79  O   UNL A   1      49.991  24.264  27.876  1.00  0.00    -0.744 OA
ENDBRANCH  72  76
ENDBRANCH  45  69
BRANCH  57  80
ATOM     80  C   UNL A   1      45.076  33.130  29.106  1.00  0.00     0.023 A 
ATOM     81  C   UNL A   1      44.965  34.178  28.179  1.00  0.00     0.031 A 
ATOM     82  C   UNL A   1      45.831  33.345  30.273  1.00  0.00     0.131 A 
ATOM     83  C   UNL A   1      45.622  35.393  28.423  1.00  0.00     0.055 A 
ATOM     84  C   UNL A   1      46.447  34.569  30.530  1.00  0.00     0.041 A 
ATOM     85  F   UNL A   1      45.961  32.374  31.191  1.00  0.00    -0.206 F 
ATOM     86  C   UNL A   1      46.348  35.601  29.599  1.00  0.00     0.022 A 
BRANCH  83  87
ATOM     87  S   UNL A   1      45.531  36.704  27.172  1.00  0.00     0.124 S 
ATOM     88  O   UNL A   1      46.298  36.126  26.074  1.00  0.00    -0.237 OA
ATOM     89  O   UNL A   1      44.094  36.831  26.949  1.00  0.00    -0.237 OA
ATOM     90  O   UNL A   1      46.156  37.849  27.831  1.00  0.00    -0.744 OA
ENDBRANCH  83  87
ENDBRANCH  57  80
ENDBRANCH  31  32
ENDBRANCH  24  26
ENDBRANCH  23  24
ENDBRANCH  22  23
ENDBRANCH   1  22
TORSDOF 19
ENDMDL
MODEL 3
REMARK VINA RESULT:     -11.4      5.219     10.094
REMARK SMILES C[C@H](O)[C@@H](NS(=O)(=O)c1ccc(F)cc1)C(=O)OCCOC(=O)c1ccc(-c2c3nc(c(-c4cc(S(=O)(=O)[O-])ccc4F)c4ccc([nH]4)c(-c4cc(S(=O)(=O)[O-])ccc4F)c4nc(c(-c5cc(S(=O)(=O)[O-])ccc5F)c5ccc2[nH]5)C=C4)C=C3)cc1
REMARK SMILES IDX 19 1 18 2 16 3 17 4 4 5 2 6 1 7 3 8 5 10 6 12 7 13 8 14 9 15
REMARK SMILES IDX 10 16 15 17 11 18 14 19 12 20 13 21 20 22 21 23 22 24 23 25
REMARK SMILES IDX 24 26 25 27 86 28 26 29 85 30 27 31 28 32 29 33 79 34 30 35
REMARK SMILES IDX 84 36 78 37 80 38 31 39 83 40 77 41 76 42 32 44 64 45 44 46
REMARK SMILES IDX 63 47 45 48 48 49 62 50 81 51 46 52 47 53 61 55 82 56 49 57
REMARK SMILES IDX 33 58 34 59 42 60 35 61 41 62 43 63 40 64 36 65 37 66 38 67
REMARK SMILES IDX 39 68 65 69 66 70 74 71 67 72 73 73 75 74 72 75 68 76 69 77
REMARK SMILES IDX 70 78 71 79 50 80 51 81 59 82 52 83 58 84 60 85 57 86 53 87
REMARK SMILES IDX 54 88 55 89 56 90
REMARK H PARENT 3 9 5 11 80 43 48 54
REMARK Flexibility Score: inf
ROOT
ATOM      1  C   UNL A   1      31.105  29.355  24.950  1.00  0.00     0.274 C 
ENDROOT
BRANCH   1   2
ATOM      2  O   UNL A   1      30.902  29.268  23.523  1.00  0.00    -0.461 OA
BRANCH   2   3
ATOM      3  C   UNL A   1      30.189  28.184  23.117  1.00  0.00     0.326 C 
ATOM      4  O   UNL A   1      29.063  28.258  22.639  1.00  0.00    -0.250 OA
BRANCH   3   5
ATOM      5  C   UNL A   1      30.853  26.845  23.406  1.00  0.00     0.208 C 
BRANCH   5   6
ATOM      6  C   UNL A   1      29.960  25.839  24.164  1.00  0.00     0.140 C 
ATOM      7  C   UNL A   1      30.420  25.643  25.605  1.00  0.00     0.040 C 
BRANCH   6   8
ATOM      8  O   UNL A   1      30.029  24.568  23.484  1.00  0.00    -0.391 OA
ATOM      9  H   UNL A   1      29.313  24.510  22.833  1.00  0.00     0.211 HD
ENDBRANCH   6   8
ENDBRANCH   5   6
BRANCH   5  10
ATOM     10  N   UNL A   1      31.332  26.217  22.134  1.00  0.00    -0.194 NA
ATOM     11  H   UNL A   1      30.918  26.738  21.361  1.00  0.00     0.142 HD
BRANCH  10  12
ATOM     12  S   UNL A   1      33.005  26.164  21.872  1.00  0.00     0.241 S 
ATOM     13  O   UNL A   1      33.227  25.622  20.547  1.00  0.00    -0.207 OA
ATOM     14  O   UNL A   1      33.511  27.457  22.263  1.00  0.00    -0.207 OA
BRANCH  12  15
ATOM     15  C   UNL A   1      33.581  25.003  23.086  1.00  0.00     0.082 A 
ATOM     16  C   UNL A   1      33.567  23.638  22.776  1.00  0.00     0.025 A 
ATOM     17  C   UNL A   1      34.127  25.462  24.293  1.00  0.00     0.025 A 
ATOM     18  C   UNL A   1      34.147  22.732  23.663  1.00  0.00     0.040 A 
ATOM     19  C   UNL A   1      34.719  24.549  25.168  1.00  0.00     0.040 A 
ATOM     20  C   UNL A   1      34.730  23.196  24.841  1.00  0.00     0.123 A 
ATOM     21  F   UNL A   1      35.333  22.324  25.660  1.00  0.00    -0.207 F 
ENDBRANCH  12  15
ENDBRANCH  10  12
ENDBRANCH   5  10
ENDBRANCH   3   5
ENDBRANCH   2   3
ENDBRANCH   1   2
BRANCH   1  22
ATOM     22  C   UNL A   1      32.387  30.087  25.371  1.00  0.00     0.275 C 
BRANCH  22  23
ATOM     23  O   UNL A   1      32.466  30.312  26.790  1.00  0.00    -0.458 OA
BRANCH  23  24
ATOM     24  C   UNL A   1      33.075  31.467  27.150  1.00  0.00     0.338 C 
ATOM     25  O   UNL A   1      32.570  32.578  27.164  1.00  0.00    -0.246 OA
BRANCH  24  26
ATOM     26  C   UNL A   1      34.422  31.201  27.685  1.00  0.00     0.060 A 
ATOM     27  C   UNL A   1      34.746  29.888  28.038  1.00  0.00     0.016 A 
ATOM     28  C   UNL A   1      35.314  32.240  27.950  1.00  0.00     0.016 A 
ATOM     29  C   UNL A   1      35.961  29.596  28.645  1.00  0.00     0.010 A 
ATOM     30  C   UNL A   1      36.530  31.949  28.582  1.00  0.00     0.010 A 
ATOM     31  C   UNL A   1      36.854  30.628  28.942  1.00  0.00    -0.014 A 
BRANCH  31  32
ATOM     32  C   UNL A   1      38.076  30.330  29.725  1.00  0.00     0.031 A 
ATOM     33  C   UNL A   1      39.129  29.440  29.129  1.00  0.00     0.074 A 
ATOM     34  C   UNL A   1      38.268  30.898  30.930  1.00  0.00     0.049 A 
ATOM     35  N   UNL A   1      40.200  28.941  29.685  1.00  0.00    -0.248 NA
ATOM     36  C   UNL A   1      38.951  29.070  27.716  1.00  0.00     0.031 C 
ATOM     37  C   UNL A   1      37.372  31.868  31.559  1.00  0.00     0.029 A 
ATOM     38  N   UNL A   1      39.286  30.743  31.837  1.00  0.00    -0.354 N 
ATOM     39  C   UNL A   1      40.818  28.181  28.699  1.00  0.00     0.074 A 
ATOM     40  C   UNL A   1      39.995  28.278  27.512  1.00  0.00     0.031 C 
ATOM     41  C   UNL A   1      37.881  32.223  32.751  1.00  0.00     0.029 A 
ATOM     42  C   UNL A   1      39.102  31.459  32.996  1.00  0.00     0.049 A 
ATOM     43  H   UNL A   1      40.071  30.173  31.674  1.00  0.00     0.167 HD
ATOM     44  C   UNL A   1      41.964  27.464  28.784  1.00  0.00     0.034 A 
ATOM     45  C   UNL A   1      39.816  31.466  34.139  1.00  0.00     0.034 A 
ATOM     46  C   UNL A   1      42.772  27.383  29.973  1.00  0.00     0.049 A 
ATOM     47  C   UNL A   1      41.024  30.572  34.252  1.00  0.00     0.074 A 
ATOM     48  C   UNL A   1      43.935  26.660  30.178  1.00  0.00     0.029 A 
ATOM     49  N   UNL A   1      42.508  28.055  31.159  1.00  0.00    -0.354 N 
ATOM     50  N   UNL A   1      41.540  29.770  33.350  1.00  0.00    -0.248 NA
ATOM     51  C   UNL A   1      41.734  30.570  35.537  1.00  0.00     0.031 C 
ATOM     52  C   UNL A   1      44.342  26.852  31.502  1.00  0.00     0.029 A 
ATOM     53  C   UNL A   1      43.471  27.745  32.105  1.00  0.00     0.049 A 
ATOM     54  H   UNL A   1      41.746  28.661  31.305  1.00  0.00     0.167 HD
ATOM     55  C   UNL A   1      42.645  29.180  33.955  1.00  0.00     0.074 A 
ATOM     56  C   UNL A   1      42.722  29.719  35.298  1.00  0.00     0.031 C 
ATOM     57  C   UNL A   1      43.522  28.281  33.443  1.00  0.00     0.034 A 
BRANCH  44  58
ATOM     58  C   UNL A   1      42.371  26.659  27.579  1.00  0.00     0.023 A 
ATOM     59  C   UNL A   1      42.049  25.298  27.451  1.00  0.00     0.031 A 
ATOM     60  C   UNL A   1      43.091  27.273  26.538  1.00  0.00     0.131 A 
ATOM     61  C   UNL A   1      42.479  24.585  26.321  1.00  0.00     0.055 A 
ATOM     62  C   UNL A   1      43.464  26.574  25.391  1.00  0.00     0.041 A 
ATOM     63  F   UNL A   1      43.444  28.566  26.624  1.00  0.00    -0.206 F 
ATOM     64  C   UNL A   1      43.164  25.219  25.280  1.00  0.00     0.022 A 
BRANCH  61  65
ATOM     65  S   UNL A   1      42.197  22.795  26.258  1.00  0.00     0.124 S 
ATOM     66  O   UNL A   1      42.965  22.335  27.412  1.00  0.00    -0.237 OA
ATOM     67  O   UNL A   1      40.747  22.696  26.375  1.00  0.00    -0.237 OA
ATOM     68  O   UNL A   1      42.744  22.407  24.959  1.00  0.00    -0.744 OA
ENDBRANCH  61  65
ENDBRANCH  44  58
BRANCH  45  69
ATOM     69  C   UNL A   1      39.365  32.292  35.293  1.00  0.00     0.023 A 
ATOM     70  C   UNL A   1      39.834  33.601  35.477  1.00  0.00     0.031 A 
ATOM     71  C   UNL A   1      38.459  31.773  36.236  1.00  0.00     0.131 A 
ATOM     72  C   UNL A   1      39.408  34.344  36.590  1.00  0.00     0.055 A 
ATOM     73  C   UNL A   1      38.008  32.528  37.318  1.00  0.00     0.041 A 
ATOM     74  F   UNL A   1      37.983  30.524  36.103  1.00  0.00    -0.206 F 
ATOM     75  C   UNL A   1      38.487  33.822  37.502  1.00  0.00     0.022 A 
BRANCH  72  76
ATOM     76  S   UNL A   1      40.097  36.001  36.852  1.00  0.00     0.124 S 
ATOM     77  O   UNL A   1      41.511  35.706  37.053  1.00  0.00    -0.237 OA
ATOM     78  O   UNL A   1      39.754  36.676  35.604  1.00  0.00    -0.237 OA
ATOM     79  O   UNL A   1      39.385  36.483  38.033  1.00  0.00    -0.744 OA
ENDBRANCH  72  76
ENDBRANCH  45  69
BRANCH  57  80
ATOM     80  C   UNL A   1      44.662  27.847  34.323  1.00  0.00     0.023 A 
ATOM     81  C   UNL A   1      44.555  26.733  35.171  1.00  0.00     0.031 A 
ATOM     82  C   UNL A   1      45.888  28.536  34.273  1.00  0.00     0.131 A 
ATOM     83  C   UNL A   1      45.651  26.351  35.957  1.00  0.00     0.055 A 
ATOM     84  C   UNL A   1      46.987  28.126  35.027  1.00  0.00     0.041 A 
ATOM     85  F   UNL A   1      46.039  29.604  33.475  1.00  0.00    -0.206 F 
ATOM     86  C   UNL A   1      46.871  27.029  35.878  1.00  0.00     0.022 A 
BRANCH  83  87
ATOM     87  S   UNL A   1      45.464  24.958  37.104  1.00  0.00     0.124 S 
ATOM     88  O   UNL A   1      45.828  23.824  36.261  1.00  0.00    -0.237 OA
ATOM     89  O   UNL A   1      46.407  25.292  38.166  1.00  0.00    -0.237 OA
ATOM     90  O   UNL A   1      44.055  25.018  37.488  1.00  0.00    -0.744 OA
ENDBRANCH  83  87
ENDBRANCH  57  80
ENDBRANCH  31  32
ENDBRANCH  24  26
ENDBRANCH  23  24
ENDBRANCH  22  23
ENDBRANCH   1  22
TORSDOF 19
ENDMDL
