MODEL 1
REMARK VINA RESULT:     -11.5      0.000      0.000
REMARK SMILES COc1cc(OC(F)(F)F)cc2c1O[C@@H](C(F)(F)F)C(C(=O)OCCOC(=O)c1ccc(-c3c4nc(c(-c5cc(S(=O)(=O)[O-])ccc5F)c5ccc([nH]5)c(-c5cc(S(=O)(=O)[O-])ccc5F)c5nc(c(-c6cc(S(=O)(=O)[O-])ccc6F)c6ccc3[nH]6)C=C5)C=C4)cc1)=C2
REMARK SMILES IDX 25 1 24 2 23 3 21 4 22 5 20 6 3 7 4 8 13 9 5 10 12 11 14 12
REMARK SMILES IDX 11 13 92 14 15 15 2 16 1 17 6 18 7 19 8 20 9 21 10 22 16 23
REMARK SMILES IDX 17 24 18 25 19 26 26 27 27 28 28 29 29 30 30 31 91 32 31 33
REMARK SMILES IDX 90 34 32 35 33 36 34 37 84 38 35 39 89 40 83 41 85 42 36 43
REMARK SMILES IDX 88 44 82 45 81 46 37 48 69 49 49 50 68 51 50 52 53 53 67 54
REMARK SMILES IDX 86 55 51 56 52 57 66 59 87 60 54 61 38 62 39 63 47 64 40 65
REMARK SMILES IDX 46 66 48 67 45 68 41 69 42 70 43 71 44 72 70 73 71 74 79 75
REMARK SMILES IDX 72 76 78 77 80 78 77 79 73 80 74 81 75 82 76 83 55 84 56 85
REMARK SMILES IDX 64 86 57 87 63 88 65 89 62 90 58 91 59 92 60 93 61 94
REMARK H PARENT 85 47 53 58
REMARK Flexibility Score: inf
ROOT
ATOM      1  C   UNL A   1      37.185  20.465  25.001  1.00  0.00     0.275 C 
ENDROOT
BRANCH   1   2
ATOM      2  C   UNL A   1      35.675  20.671  25.152  1.00  0.00     0.275 C 
BRANCH   2   3
ATOM      3  O   UNL A   1      35.353  22.019  25.554  1.00  0.00    -0.459 OA
BRANCH   3   4
ATOM      4  C   UNL A   1      34.137  22.191  26.133  1.00  0.00     0.338 C 
ATOM      5  O   UNL A   1      33.652  21.454  26.974  1.00  0.00    -0.246 OA
BRANCH   4   6
ATOM      6  C   UNL A   1      33.458  23.413  25.645  1.00  0.00     0.087 C 
ATOM      7  C   UNL A   1      31.484  26.731  24.052  1.00  0.00     0.165 A 
ATOM      8  C   UNL A   1      31.759  28.015  24.524  1.00  0.00     0.097 A 
ATOM      9  C   UNL A   1      32.223  25.641  24.516  1.00  0.00     0.170 A 
ATOM     10  C   UNL A   1      32.747  28.206  25.489  1.00  0.00     0.134 A 
ATOM     11  C   UNL A   1      33.159  25.803  25.542  1.00  0.00     0.025 A 
ATOM     12  O   UNL A   1      32.097  24.447  23.864  1.00  0.00    -0.471 OA
ATOM     13  C   UNL A   1      33.416  27.093  26.024  1.00  0.00     0.059 A 
ATOM     14  C   UNL A   1      33.875  24.629  26.045  1.00  0.00     0.027 C 
ATOM     15  C   UNL A   1      32.285  23.268  24.688  1.00  0.00     0.316 C 
BRANCH   7  16
ATOM     16  O   UNL A   1      30.518  26.627  23.085  1.00  0.00    -0.493 OA
ATOM     17  C   UNL A   1      29.600  27.725  23.126  1.00  0.00     0.278 C 
ENDBRANCH   7  16
BRANCH  10  18
ATOM     18  O   UNL A   1      33.148  29.415  25.990  1.00  0.00    -0.406 OA
BRANCH  18  19
ATOM     19  C   UNL A   1      32.211  30.128  26.785  1.00  0.00     0.573 C 
ATOM     20  F   UNL A   1      31.404  30.904  26.030  1.00  0.00    -0.132 F 
ATOM     21  F   UNL A   1      31.466  29.285  27.529  1.00  0.00    -0.132 F 
ATOM     22  F   UNL A   1      32.892  30.939  27.628  1.00  0.00    -0.132 F 
ENDBRANCH  18  19
ENDBRANCH  10  18
BRANCH  15  23
ATOM     23  C   UNL A   1      32.229  22.049  23.747  1.00  0.00     0.430 C 
ATOM     24  F   UNL A   1      31.321  22.214  22.759  1.00  0.00    -0.167 F 
ATOM     25  F   UNL A   1      33.426  21.889  23.122  1.00  0.00    -0.167 F 
ATOM     26  F   UNL A   1      31.965  20.899  24.402  1.00  0.00    -0.167 F 
ENDBRANCH  15  23
ENDBRANCH   4   6
ENDBRANCH   3   4
ENDBRANCH   2   3
ENDBRANCH   1   2
BRANCH   1  27
ATOM     27  O   UNL A   1      37.930  21.555  25.573  1.00  0.00    -0.458 OA
BRANCH  27  28
ATOM     28  C   UNL A   1      39.115  21.203  26.129  1.00  0.00     0.338 C 
ATOM     29  O   UNL A   1      39.627  20.096  26.111  1.00  0.00    -0.246 OA
BRANCH  28  30
ATOM     30  C   UNL A   1      39.827  22.410  26.598  1.00  0.00     0.060 A 
ATOM     31  C   UNL A   1      39.455  23.623  26.012  1.00  0.00     0.016 A 
ATOM     32  C   UNL A   1      40.830  22.380  27.568  1.00  0.00     0.016 A 
ATOM     33  C   UNL A   1      40.013  24.823  26.449  1.00  0.00     0.010 A 
ATOM     34  C   UNL A   1      41.437  23.580  27.966  1.00  0.00     0.010 A 
ATOM     35  C   UNL A   1      41.019  24.808  27.421  1.00  0.00    -0.014 A 
BRANCH  35  36
ATOM     36  C   UNL A   1      41.706  26.074  27.775  1.00  0.00     0.031 A 
ATOM     37  C   UNL A   1      40.949  27.128  28.528  1.00  0.00     0.074 A 
ATOM     38  C   UNL A   1      43.002  26.265  27.463  1.00  0.00     0.049 A 
ATOM     39  N   UNL A   1      41.325  28.327  28.883  1.00  0.00    -0.248 NA
ATOM     40  C   UNL A   1      39.585  26.770  28.945  1.00  0.00     0.031 C 
ATOM     41  C   UNL A   1      43.870  25.278  26.823  1.00  0.00     0.029 A 
ATOM     42  N   UNL A   1      43.812  27.360  27.641  1.00  0.00    -0.354 N 
ATOM     43  C   UNL A   1      40.247  28.874  29.571  1.00  0.00     0.074 A 
ATOM     44  C   UNL A   1      39.197  27.876  29.564  1.00  0.00     0.031 C 
ATOM     45  C   UNL A   1      45.085  25.824  26.637  1.00  0.00     0.029 A 
ATOM     46  C   UNL A   1      45.069  27.210  27.101  1.00  0.00     0.049 A 
ATOM     47  H   UNL A   1      43.521  28.176  28.110  1.00  0.00     0.167 HD
ATOM     48  C   UNL A   1      40.143  30.096  30.147  1.00  0.00     0.034 A 
ATOM     49  C   UNL A   1      46.071  28.104  26.960  1.00  0.00     0.034 A 
ATOM     50  C   UNL A   1      41.183  31.094  30.105  1.00  0.00     0.049 A 
ATOM     51  C   UNL A   1      45.877  29.512  27.477  1.00  0.00     0.074 A 
ATOM     52  C   UNL A   1      41.171  32.373  30.635  1.00  0.00     0.029 A 
ATOM     53  N   UNL A   1      42.413  30.939  29.478  1.00  0.00    -0.354 N 
ATOM     54  N   UNL A   1      44.847  30.027  28.110  1.00  0.00    -0.248 NA
ATOM     55  C   UNL A   1      46.980  30.460  27.262  1.00  0.00     0.031 C 
ATOM     56  C   UNL A   1      42.355  33.016  30.258  1.00  0.00     0.029 A 
ATOM     57  C   UNL A   1      43.148  32.111  29.571  1.00  0.00     0.049 A 
ATOM     58  H   UNL A   1      42.718  30.116  29.032  1.00  0.00     0.167 HD
ATOM     59  C   UNL A   1      45.195  31.346  28.397  1.00  0.00     0.074 A 
ATOM     60  C   UNL A   1      46.531  31.545  27.876  1.00  0.00     0.031 C 
ATOM     61  C   UNL A   1      44.480  32.302  29.044  1.00  0.00     0.034 A 
BRANCH  48  62
ATOM     62  C   UNL A   1      38.825  30.439  30.795  1.00  0.00     0.023 A 
ATOM     63  C   UNL A   1      37.843  31.190  30.126  1.00  0.00     0.031 A 
ATOM     64  C   UNL A   1      38.569  30.051  32.122  1.00  0.00     0.131 A 
ATOM     65  C   UNL A   1      36.684  31.590  30.809  1.00  0.00     0.055 A 
ATOM     66  C   UNL A   1      37.377  30.382  32.768  1.00  0.00     0.041 A 
ATOM     67  F   UNL A   1      39.482  29.357  32.819  1.00  0.00    -0.206 F 
ATOM     68  C   UNL A   1      36.433  31.170  32.116  1.00  0.00     0.022 A 
BRANCH  65  69
ATOM     69  S   UNL A   1      35.586  32.798  30.018  1.00  0.00     0.124 S 
ATOM     70  O   UNL A   1      35.493  32.268  28.659  1.00  0.00    -0.237 OA
ATOM     71  O   UNL A   1      34.375  32.699  30.824  1.00  0.00    -0.237 OA
ATOM     72  O   UNL A   1      36.317  34.057  30.139  1.00  0.00    -0.744 OA
ENDBRANCH  65  69
ENDBRANCH  48  62
BRANCH  49  73
ATOM     73  C   UNL A   1      47.322  27.734  26.232  1.00  0.00     0.023 A 
ATOM     74  C   UNL A   1      47.445  27.917  24.844  1.00  0.00     0.031 A 
ATOM     75  C   UNL A   1      48.388  27.112  26.908  1.00  0.00     0.131 A 
ATOM     76  C   UNL A   1      48.582  27.438  24.173  1.00  0.00     0.055 A 
ATOM     77  C   UNL A   1      49.542  26.692  26.245  1.00  0.00     0.041 A 
ATOM     78  F   UNL A   1      48.320  26.896  28.231  1.00  0.00    -0.206 F 
ATOM     79  C   UNL A   1      49.638  26.841  24.866  1.00  0.00     0.022 A 
BRANCH  76  80
ATOM     80  S   UNL A   1      48.618  27.506  22.359  1.00  0.00     0.124 S 
ATOM     81  O   UNL A   1      47.371  28.204  22.065  1.00  0.00    -0.237 OA
ATOM     82  O   UNL A   1      49.846  28.252  22.107  1.00  0.00    -0.237 OA
ATOM     83  O   UNL A   1      48.653  26.100  21.966  1.00  0.00    -0.744 OA
ENDBRANCH  76  80
ENDBRANCH  49  73
BRANCH  61  84
ATOM     84  C   UNL A   1      45.149  33.637  29.278  1.00  0.00     0.023 A 
ATOM     85  C   UNL A   1      45.033  34.703  28.368  1.00  0.00     0.031 A 
ATOM     86  C   UNL A   1      45.901  33.848  30.448  1.00  0.00     0.131 A 
ATOM     87  C   UNL A   1      45.692  35.916  28.625  1.00  0.00     0.055 A 
ATOM     88  C   UNL A   1      46.505  35.075  30.726  1.00  0.00     0.041 A 
ATOM     89  F   UNL A   1      46.049  32.865  31.352  1.00  0.00    -0.206 F 
ATOM     90  C   UNL A   1      46.410  36.115  29.807  1.00  0.00     0.022 A 
BRANCH  87  91
ATOM     91  S   UNL A   1      45.660  37.216  27.359  1.00  0.00     0.124 S 
ATOM     92  O   UNL A   1      46.432  36.610  26.281  1.00  0.00    -0.237 OA
ATOM     93  O   UNL A   1      44.230  37.374  27.109  1.00  0.00    -0.237 OA
ATOM     94  O   UNL A   1      46.301  38.354  28.017  1.00  0.00    -0.744 OA
ENDBRANCH  87  91
ENDBRANCH  61  84
ENDBRANCH  35  36
ENDBRANCH  28  30
ENDBRANCH  27  28
ENDBRANCH   1  27
TORSDOF 18
ENDMDL
MODEL 2
REMARK VINA RESULT:     -11.5      1.524      1.745
REMARK SMILES COc1cc(OC(F)(F)F)cc2c1O[C@@H](C(F)(F)F)C(C(=O)OCCOC(=O)c1ccc(-c3c4nc(c(-c5cc(S(=O)(=O)[O-])ccc5F)c5ccc([nH]5)c(-c5cc(S(=O)(=O)[O-])ccc5F)c5nc(c(-c6cc(S(=O)(=O)[O-])ccc6F)c6ccc3[nH]6)C=C5)C=C4)cc1)=C2
REMARK SMILES IDX 25 1 24 2 23 3 21 4 22 5 20 6 3 7 4 8 13 9 5 10 12 11 14 12
REMARK SMILES IDX 11 13 92 14 15 15 2 16 1 17 6 18 7 19 8 20 9 21 10 22 16 23
REMARK SMILES IDX 17 24 18 25 19 26 26 27 27 28 28 29 29 30 30 31 91 32 31 33
REMARK SMILES IDX 90 34 32 35 33 36 34 37 84 38 35 39 89 40 83 41 85 42 36 43
REMARK SMILES IDX 88 44 82 45 81 46 37 48 69 49 49 50 68 51 50 52 53 53 67 54
REMARK SMILES IDX 86 55 51 56 52 57 66 59 87 60 54 61 38 62 39 63 47 64 40 65
REMARK SMILES IDX 46 66 48 67 45 68 41 69 42 70 43 71 44 72 70 73 71 74 79 75
REMARK SMILES IDX 72 76 78 77 80 78 77 79 73 80 74 81 75 82 76 83 55 84 56 85
REMARK SMILES IDX 64 86 57 87 63 88 65 89 62 90 58 91 59 92 60 93 61 94
REMARK H PARENT 85 47 53 58
REMARK Flexibility Score: inf
ROOT
ATOM      1  C   UNL A   1      36.143  20.516  25.129  1.00  0.00     0.275 C 
ENDROOT
BRANCH   1   2
ATOM      2  C   UNL A   1      34.837  21.122  24.607  1.00  0.00     0.275 C 
BRANCH   2   3
ATOM      3  O   UNL A   1      34.746  22.534  24.893  1.00  0.00    -0.459 OA
BRANCH   3   4
ATOM      4  C   UNL A   1      33.783  22.899  25.777  1.00  0.00     0.338 C 
ATOM      5  O   UNL A   1      33.456  22.257  26.761  1.00  0.00    -0.246 OA
BRANCH   4   6
ATOM      6  C   UNL A   1      33.176  24.204  25.429  1.00  0.00     0.087 C 
ATOM      7  C   UNL A   1      31.360  27.772  24.241  1.00  0.00     0.165 A 
ATOM      8  C   UNL A   1      31.846  29.000  24.690  1.00  0.00     0.097 A 
ATOM      9  C   UNL A   1      32.037  26.593  24.558  1.00  0.00     0.170 A 
ATOM     10  C   UNL A   1      32.988  29.048  25.489  1.00  0.00     0.134 A 
ATOM     11  C   UNL A   1      33.133  26.615  25.425  1.00  0.00     0.025 A 
ATOM     12  O   UNL A   1      31.678  25.444  23.910  1.00  0.00    -0.471 OA
ATOM     13  C   UNL A   1      33.604  27.851  25.887  1.00  0.00     0.059 A 
ATOM     14  C   UNL A   1      33.784  25.352  25.783  1.00  0.00     0.027 C 
ATOM     15  C   UNL A   1      31.860  24.222  24.669  1.00  0.00     0.316 C 
BRANCH   7  16
ATOM     16  O   UNL A   1      30.250  27.808  23.438  1.00  0.00    -0.493 OA
ATOM     17  C   UNL A   1      30.292  28.903  22.517  1.00  0.00     0.278 C 
ENDBRANCH   7  16
BRANCH  10  18
ATOM     18  O   UNL A   1      33.595  30.187  25.945  1.00  0.00    -0.406 OA
BRANCH  18  19
ATOM     19  C   UNL A   1      33.334  30.564  27.289  1.00  0.00     0.573 C 
ATOM     20  F   UNL A   1      32.160  30.064  27.730  1.00  0.00    -0.132 F 
ATOM     21  F   UNL A   1      34.333  30.168  28.106  1.00  0.00    -0.132 F 
ATOM     22  F   UNL A   1      33.255  31.914  27.350  1.00  0.00    -0.132 F 
ENDBRANCH  18  19
ENDBRANCH  10  18
BRANCH  15  23
ATOM     23  C   UNL A   1      31.523  23.052  23.724  1.00  0.00     0.430 C 
ATOM     24  F   UNL A   1      30.374  23.267  23.044  1.00  0.00    -0.167 F 
ATOM     25  F   UNL A   1      32.490  22.926  22.777  1.00  0.00    -0.167 F 
ATOM     26  F   UNL A   1      31.440  21.870  24.368  1.00  0.00    -0.167 F 
ENDBRANCH  15  23
ENDBRANCH   4   6
ENDBRANCH   3   4
ENDBRANCH   2   3
ENDBRANCH   1   2
BRANCH   1  27
ATOM     27  O   UNL A   1      37.024  21.524  25.654  1.00  0.00    -0.458 OA
BRANCH  27  28
ATOM     28  C   UNL A   1      38.307  21.122  25.831  1.00  0.00     0.338 C 
ATOM     29  O   UNL A   1      38.789  20.057  25.483  1.00  0.00    -0.246 OA
BRANCH  28  30
ATOM     30  C   UNL A   1      39.121  22.249  26.331  1.00  0.00     0.060 A 
ATOM     31  C   UNL A   1      38.748  23.527  25.907  1.00  0.00     0.016 A 
ATOM     32  C   UNL A   1      40.218  22.085  27.178  1.00  0.00     0.016 A 
ATOM     33  C   UNL A   1      39.406  24.656  26.391  1.00  0.00     0.010 A 
ATOM     34  C   UNL A   1      40.921  23.216  27.618  1.00  0.00     0.010 A 
ATOM     35  C   UNL A   1      40.507  24.507  27.242  1.00  0.00    -0.014 A 
BRANCH  35  36
ATOM     36  C   UNL A   1      41.288  25.704  27.636  1.00  0.00     0.031 A 
ATOM     37  C   UNL A   1      40.608  26.793  28.412  1.00  0.00     0.074 A 
ATOM     38  C   UNL A   1      42.598  25.801  27.340  1.00  0.00     0.049 A 
ATOM     39  N   UNL A   1      41.074  27.949  28.804  1.00  0.00    -0.248 NA
ATOM     40  C   UNL A   1      39.217  26.533  28.809  1.00  0.00     0.031 C 
ATOM     41  C   UNL A   1      43.392  24.767  26.679  1.00  0.00     0.029 A 
ATOM     42  N   UNL A   1      43.490  26.824  27.554  1.00  0.00    -0.354 N 
ATOM     43  C   UNL A   1      40.036  28.560  29.498  1.00  0.00     0.074 A 
ATOM     44  C   UNL A   1      38.910  27.649  29.455  1.00  0.00     0.031 C 
ATOM     45  C   UNL A   1      44.648  25.220  26.518  1.00  0.00     0.029 A 
ATOM     46  C   UNL A   1      44.736  26.591  27.020  1.00  0.00     0.049 A 
ATOM     47  H   UNL A   1      43.259  27.647  28.043  1.00  0.00     0.167 HD
ATOM     48  C   UNL A   1      40.022  29.771  30.107  1.00  0.00     0.034 A 
ATOM     49  C   UNL A   1      45.807  27.406  26.912  1.00  0.00     0.034 A 
ATOM     50  C   UNL A   1      41.138  30.685  30.102  1.00  0.00     0.049 A 
ATOM     51  C   UNL A   1      45.718  28.811  27.467  1.00  0.00     0.074 A 
ATOM     52  C   UNL A   1      41.221  31.946  30.667  1.00  0.00     0.029 A 
ATOM     53  N   UNL A   1      42.357  30.450  29.480  1.00  0.00    -0.354 N 
ATOM     54  N   UNL A   1      44.726  29.388  28.106  1.00  0.00    -0.248 NA
ATOM     55  C   UNL A   1      46.895  29.674  27.287  1.00  0.00     0.031 C 
ATOM     56  C   UNL A   1      42.455  32.504  30.317  1.00  0.00     0.029 A 
ATOM     57  C   UNL A   1      43.181  31.558  29.611  1.00  0.00     0.049 A 
ATOM     58  H   UNL A   1      42.601  29.618  29.013  1.00  0.00     0.167 HD
ATOM     59  C   UNL A   1      45.174  30.667  28.432  1.00  0.00     0.074 A 
ATOM     60  C   UNL A   1      46.526  30.774  27.928  1.00  0.00     0.031 C 
ATOM     61  C   UNL A   1      44.530  31.658  29.100  1.00  0.00     0.034 A 
BRANCH  48  62
ATOM     62  C   UNL A   1      38.729  30.199  30.754  1.00  0.00     0.023 A 
ATOM     63  C   UNL A   1      37.825  31.060  30.108  1.00  0.00     0.031 A 
ATOM     64  C   UNL A   1      38.419  29.777  32.060  1.00  0.00     0.131 A 
ATOM     65  C   UNL A   1      36.695  31.529  30.794  1.00  0.00     0.055 A 
ATOM     66  C   UNL A   1      37.250  30.182  32.706  1.00  0.00     0.041 A 
ATOM     67  F   UNL A   1      39.259  28.977  32.736  1.00  0.00    -0.206 F 
ATOM     68  C   UNL A   1      36.388  31.076  32.079  1.00  0.00     0.022 A 
BRANCH  65  69
ATOM     69  S   UNL A   1      35.717  32.861  30.045  1.00  0.00     0.124 S 
ATOM     70  O   UNL A   1      34.361  32.495  30.448  1.00  0.00    -0.237 OA
ATOM     71  O   UNL A   1      36.270  34.053  30.677  1.00  0.00    -0.237 OA
ATOM     72  O   UNL A   1      35.992  32.725  28.616  1.00  0.00    -0.744 OA
ENDBRANCH  65  69
ENDBRANCH  48  62
BRANCH  49  73
ATOM     73  C   UNL A   1      47.032  26.959  26.183  1.00  0.00     0.023 A 
ATOM     74  C   UNL A   1      48.078  26.294  26.845  1.00  0.00     0.031 A 
ATOM     75  C   UNL A   1      47.209  27.269  24.822  1.00  0.00     0.131 A 
ATOM     76  C   UNL A   1      49.270  26.006  26.159  1.00  0.00     0.055 A 
ATOM     77  C   UNL A   1      48.372  26.926  24.129  1.00  0.00     0.041 A 
ATOM     78  F   UNL A   1      46.251  27.918  24.141  1.00  0.00    -0.206 F 
ATOM     79  C   UNL A   1      49.417  26.304  24.802  1.00  0.00     0.022 A 
BRANCH  76  80
ATOM     80  S   UNL A   1      50.673  25.334  27.094  1.00  0.00     0.124 S 
ATOM     81  O   UNL A   1      51.575  24.930  26.022  1.00  0.00    -0.237 OA
ATOM     82  O   UNL A   1      51.091  26.487  27.885  1.00  0.00    -0.237 OA
ATOM     83  O   UNL A   1      50.080  24.239  27.857  1.00  0.00    -0.744 OA
ENDBRANCH  76  80
ENDBRANCH  49  73
BRANCH  61  84
ATOM     84  C   UNL A   1      45.298  32.930  29.376  1.00  0.00     0.023 A 
ATOM     85  C   UNL A   1      45.254  34.036  28.509  1.00  0.00     0.031 A 
ATOM     86  C   UNL A   1      46.075  33.038  30.544  1.00  0.00     0.131 A 
ATOM     87  C   UNL A   1      46.004  35.185  28.804  1.00  0.00     0.055 A 
ATOM     88  C   UNL A   1      46.772  34.205  30.862  1.00  0.00     0.041 A 
ATOM     89  F   UNL A   1      46.157  32.013  31.409  1.00  0.00    -0.206 F 
ATOM     90  C   UNL A   1      46.747  35.284  29.984  1.00  0.00     0.022 A 
BRANCH  87  91
ATOM     91  S   UNL A   1      46.058  36.532  27.588  1.00  0.00     0.124 S 
ATOM     92  O   UNL A   1      46.964  35.995  26.580  1.00  0.00    -0.237 OA
ATOM     93  O   UNL A   1      44.659  36.651  27.191  1.00  0.00    -0.237 OA
ATOM     94  O   UNL A   1      46.581  37.664  28.352  1.00  0.00    -0.744 OA
ENDBRANCH  87  91
ENDBRANCH  61  84
ENDBRANCH  35  36
ENDBRANCH  28  30
ENDBRANCH  27  28
ENDBRANCH   1  27
TORSDOF 18
ENDMDL
MODEL 3
REMARK VINA RESULT:     -11.4      5.043     10.222
REMARK SMILES COc1cc(OC(F)(F)F)cc2c1O[C@@H](C(F)(F)F)C(C(=O)OCCOC(=O)c1ccc(-c3c4nc(c(-c5cc(S(=O)(=O)[O-])ccc5F)c5ccc([nH]5)c(-c5cc(S(=O)(=O)[O-])ccc5F)c5nc(c(-c6cc(S(=O)(=O)[O-])ccc6F)c6ccc3[nH]6)C=C5)C=C4)cc1)=C2
REMARK SMILES IDX 25 1 24 2 23 3 21 4 22 5 20 6 3 7 4 8 13 9 5 10 12 11 14 12
REMARK SMILES IDX 11 13 92 14 15 15 2 16 1 17 6 18 7 19 8 20 9 21 10 22 16 23
REMARK SMILES IDX 17 24 18 25 19 26 26 27 27 28 28 29 29 30 30 31 91 32 31 33
REMARK SMILES IDX 90 34 32 35 33 36 34 37 84 38 35 39 89 40 83 41 85 42 36 43
REMARK SMILES IDX 88 44 82 45 81 46 37 48 69 49 49 50 68 51 50 52 53 53 67 54
REMARK SMILES IDX 86 55 51 56 52 57 66 59 87 60 54 61 38 62 39 63 47 64 40 65
REMARK SMILES IDX 46 66 48 67 45 68 41 69 42 70 43 71 44 72 70 73 71 74 79 75
REMARK SMILES IDX 72 76 78 77 80 78 77 79 73 80 74 81 75 82 76 83 55 84 56 85
REMARK SMILES IDX 64 86 57 87 63 88 65 89 62 90 58 91 59 92 60 93 61 94
REMARK H PARENT 85 47 53 58
REMARK Flexibility Score: inf
ROOT
ATOM      1  C   UNL A   1      31.776  30.424  26.322  1.00  0.00     0.275 C 
ENDROOT
BRANCH   1   2
ATOM      2  C   UNL A   1      31.430  29.551  25.112  1.00  0.00     0.275 C 
BRANCH   2   3
ATOM      3  O   UNL A   1      31.322  28.156  25.467  1.00  0.00    -0.459 OA
BRANCH   3   4
ATOM      4  C   UNL A   1      30.821  27.337  24.508  1.00  0.00     0.338 C 
ATOM      5  O   UNL A   1      29.796  27.539  23.881  1.00  0.00    -0.246 OA
BRANCH   4   6
ATOM      6  C   UNL A   1      31.686  26.158  24.279  1.00  0.00     0.087 C 
ATOM      7  C   UNL A   1      34.233  22.957  23.434  1.00  0.00     0.165 A 
ATOM      8  C   UNL A   1      33.917  21.666  23.860  1.00  0.00     0.097 A 
ATOM      9  C   UNL A   1      33.326  24.001  23.629  1.00  0.00     0.170 A 
ATOM     10  C   UNL A   1      32.710  21.425  24.515  1.00  0.00     0.134 A 
ATOM     11  C   UNL A   1      32.151  23.792  24.357  1.00  0.00     0.025 A 
ATOM     12  O   UNL A   1      33.556  25.188  22.993  1.00  0.00    -0.471 OA
ATOM     13  C   UNL A   1      31.849  22.497  24.798  1.00  0.00     0.059 A 
ATOM     14  C   UNL A   1      31.250  24.923  24.593  1.00  0.00     0.027 C 
ATOM     15  C   UNL A   1      33.070  26.366  23.685  1.00  0.00     0.316 C 
BRANCH   7  16
ATOM     16  O   UNL A   1      35.424  23.111  22.774  1.00  0.00    -0.493 OA
ATOM     17  C   UNL A   1      36.545  22.959  23.652  1.00  0.00     0.278 C 
ENDBRANCH   7  16
BRANCH  10  18
ATOM     18  O   UNL A   1      32.260  20.200  24.930  1.00  0.00    -0.406 OA
BRANCH  18  19
ATOM     19  C   UNL A   1      32.521  19.093  24.080  1.00  0.00     0.573 C 
ATOM     20  F   UNL A   1      32.156  19.346  22.804  1.00  0.00    -0.132 F 
ATOM     21  F   UNL A   1      33.825  18.748  24.119  1.00  0.00    -0.132 F 
ATOM     22  F   UNL A   1      31.796  18.036  24.514  1.00  0.00    -0.132 F 
ENDBRANCH  18  19
ENDBRANCH  10  18
BRANCH  15  23
ATOM     23  C   UNL A   1      33.313  27.568  22.751  1.00  0.00     0.430 C 
ATOM     24  F   UNL A   1      34.099  27.240  21.700  1.00  0.00    -0.167 F 
ATOM     25  F   UNL A   1      32.136  27.983  22.212  1.00  0.00    -0.167 F 
ATOM     26  F   UNL A   1      33.852  28.624  23.393  1.00  0.00    -0.167 F 
ENDBRANCH  15  23
ENDBRANCH   4   6
ENDBRANCH   3   4
ENDBRANCH   2   3
ENDBRANCH   1   2
BRANCH   1  27
ATOM     27  O   UNL A   1      33.194  30.468  26.558  1.00  0.00    -0.458 OA
BRANCH  27  28
ATOM     28  C   UNL A   1      33.623  31.553  27.248  1.00  0.00     0.338 C 
ATOM     29  O   UNL A   1      32.989  32.572  27.467  1.00  0.00    -0.246 OA
BRANCH  28  30
ATOM     30  C   UNL A   1      34.918  31.258  27.893  1.00  0.00     0.060 A 
ATOM     31  C   UNL A   1      35.078  29.973  28.418  1.00  0.00     0.016 A 
ATOM     32  C   UNL A   1      35.952  32.190  27.999  1.00  0.00     0.016 A 
ATOM     33  C   UNL A   1      36.294  29.578  28.972  1.00  0.00     0.010 A 
ATOM     34  C   UNL A   1      37.156  31.814  28.611  1.00  0.00     0.010 A 
ATOM     35  C   UNL A   1      37.339  30.501  29.084  1.00  0.00    -0.014 A 
BRANCH  35  36
ATOM     36  C   UNL A   1      38.577  30.115  29.804  1.00  0.00     0.031 A 
ATOM     37  C   UNL A   1      39.492  29.099  29.183  1.00  0.00     0.074 A 
ATOM     38  C   UNL A   1      38.901  30.690  30.977  1.00  0.00     0.049 A 
ATOM     39  N   UNL A   1      40.586  28.567  29.659  1.00  0.00    -0.248 NA
ATOM     40  C   UNL A   1      39.124  28.633  27.839  1.00  0.00     0.031 C 
ATOM     41  C   UNL A   1      38.145  31.758  31.629  1.00  0.00     0.029 A 
ATOM     42  N   UNL A   1      39.951  30.451  31.830  1.00  0.00    -0.354 N 
ATOM     43  C   UNL A   1      41.046  27.702  28.673  1.00  0.00     0.074 A 
ATOM     44  C   UNL A   1      40.096  27.771  27.580  1.00  0.00     0.031 C 
ATOM     45  C   UNL A   1      38.743  32.063  32.795  1.00  0.00     0.029 A 
ATOM     46  C   UNL A   1      39.894  31.183  32.994  1.00  0.00     0.049 A 
ATOM     47  H   UNL A   1      40.676  29.816  31.628  1.00  0.00     0.167 HD
ATOM     48  C   UNL A   1      42.152  26.920  28.682  1.00  0.00     0.034 A 
ATOM     49  C   UNL A   1      40.656  31.116  34.106  1.00  0.00     0.034 A 
ATOM     50  C   UNL A   1      43.062  26.830  29.797  1.00  0.00     0.049 A 
ATOM     51  C   UNL A   1      41.799  30.126  34.154  1.00  0.00     0.074 A 
ATOM     52  C   UNL A   1      44.199  26.050  29.920  1.00  0.00     0.029 A 
ATOM     53  N   UNL A   1      42.929  27.523  30.993  1.00  0.00    -0.354 N 
ATOM     54  N   UNL A   1      42.216  29.297  33.223  1.00  0.00    -0.248 NA
ATOM     55  C   UNL A   1      42.573  30.061  35.401  1.00  0.00     0.031 C 
ATOM     56  C   UNL A   1      44.703  26.208  31.215  1.00  0.00     0.029 A 
ATOM     57  C   UNL A   1      43.936  27.157  31.873  1.00  0.00     0.049 A 
ATOM     58  H   UNL A   1      42.221  28.179  31.188  1.00  0.00     0.167 HD
ATOM     59  C   UNL A   1      43.321  28.641  33.763  1.00  0.00     0.074 A 
ATOM     60  C   UNL A   1      43.510  29.175  35.095  1.00  0.00     0.031 C 
ATOM     61  C   UNL A   1      44.115  27.692  33.204  1.00  0.00     0.034 A 
BRANCH  48  62
ATOM     62  C   UNL A   1      42.381  26.041  27.478  1.00  0.00     0.023 A 
ATOM     63  C   UNL A   1      41.890  24.725  27.415  1.00  0.00     0.031 A 
ATOM     64  C   UNL A   1      43.147  26.512  26.396  1.00  0.00     0.131 A 
ATOM     65  C   UNL A   1      42.231  23.904  26.329  1.00  0.00     0.055 A 
ATOM     66  C   UNL A   1      43.412  25.716  25.281  1.00  0.00     0.041 A 
ATOM     67  F   UNL A   1      43.665  27.750  26.414  1.00  0.00    -0.206 F 
ATOM     68  C   UNL A   1      42.967  24.398  25.250  1.00  0.00     0.022 A 
BRANCH  65  69
ATOM     69  S   UNL A   1      41.833  22.136  26.422  1.00  0.00     0.124 S 
ATOM     70  O   UNL A   1      40.386  22.148  26.226  1.00  0.00    -0.237 OA
ATOM     71  O   UNL A   1      42.621  21.578  25.329  1.00  0.00    -0.237 OA
ATOM     72  O   UNL A   1      42.269  21.757  27.765  1.00  0.00    -0.744 OA
ENDBRANCH  65  69
ENDBRANCH  48  62
BRANCH  49  73
ATOM     73  C   UNL A   1      40.330  31.949  35.302  1.00  0.00     0.023 A 
ATOM     74  C   UNL A   1      39.346  31.555  36.225  1.00  0.00     0.031 A 
ATOM     75  C   UNL A   1      40.946  33.199  35.495  1.00  0.00     0.131 A 
ATOM     76  C   UNL A   1      38.972  32.423  37.264  1.00  0.00     0.055 A 
ATOM     77  C   UNL A   1      40.614  34.032  36.566  1.00  0.00     0.041 A 
ATOM     78  F   UNL A   1      41.882  33.636  34.638  1.00  0.00    -0.206 F 
ATOM     79  C   UNL A   1      39.611  33.651  37.450  1.00  0.00     0.022 A 
BRANCH  76  80
ATOM     80  S   UNL A   1      37.560  31.972  38.311  1.00  0.00     0.124 S 
ATOM     81  O   UNL A   1      37.286  30.610  37.868  1.00  0.00    -0.237 OA
ATOM     82  O   UNL A   1      38.119  32.112  39.652  1.00  0.00    -0.237 OA
ATOM     83  O   UNL A   1      36.544  32.961  37.956  1.00  0.00    -0.744 OA
ENDBRANCH  76  80
ENDBRANCH  49  73
BRANCH  61  84
ATOM     84  C   UNL A   1      45.299  27.208  34.008  1.00  0.00     0.023 A 
ATOM     85  C   UNL A   1      45.220  26.094  34.863  1.00  0.00     0.031 A 
ATOM     86  C   UNL A   1      46.537  27.868  33.898  1.00  0.00     0.131 A 
ATOM     87  C   UNL A   1      46.345  25.699  35.602  1.00  0.00     0.055 A 
ATOM     88  C   UNL A   1      47.669  27.434  34.591  1.00  0.00     0.041 A 
ATOM     89  F   UNL A   1      46.672  28.939  33.099  1.00  0.00    -0.206 F 
ATOM     90  C   UNL A   1      47.574  26.350  35.456  1.00  0.00     0.022 A 
BRANCH  87  91
ATOM     91  S   UNL A   1      46.171  24.362  36.818  1.00  0.00     0.124 S 
ATOM     92  O   UNL A   1      45.042  23.610  36.282  1.00  0.00    -0.237 OA
ATOM     93  O   UNL A   1      47.471  23.702  36.745  1.00  0.00    -0.237 OA
ATOM     94  O   UNL A   1      45.907  25.069  38.070  1.00  0.00    -0.744 OA
ENDBRANCH  87  91
ENDBRANCH  61  84
ENDBRANCH  35  36
ENDBRANCH  28  30
ENDBRANCH  27  28
ENDBRANCH   1  27
TORSDOF 18
ENDMDL
