MODEL 1
REMARK VINA RESULT:     -10.5      0.000      0.000
REMARK SMILES N#C[C@@H]1CN(C(=O)NCCCC(=O)OCCOC(=O)c2ccc(-c3c4nc(c(-c5cc(S(=O)(=O)[O-])ccc5F)c5ccc([nH]5)c(-c5cc(S(=O)(=O)[O-])ccc5F)c5nc(c(-c6cc(S(=O)(=O)[O-])ccc6F)c6ccc3[nH]6)C=C5)C=C4)cc2)CCO1
REMARK SMILES IDX 15 1 14 2 12 3 13 4 11 5 10 6 9 7 8 8 6 9 7 10 5 12 3 13
REMARK SMILES IDX 4 14 85 15 84 16 83 17 2 18 1 19 16 20 17 21 18 22 19 23
REMARK SMILES IDX 20 24 21 25 82 26 22 27 81 28 23 29 24 30 25 31 75 32 26 33
REMARK SMILES IDX 80 34 74 35 76 36 27 37 79 38 73 39 72 40 28 42 60 43 40 44
REMARK SMILES IDX 59 45 41 46 44 47 58 48 77 49 42 50 43 51 57 53 78 54 45 55
REMARK SMILES IDX 29 56 30 57 38 58 31 59 37 60 39 61 36 62 32 63 33 64 34 65
REMARK SMILES IDX 35 66 61 67 62 68 70 69 63 70 69 71 71 72 68 73 64 74 65 75
REMARK SMILES IDX 66 76 67 77 46 78 47 79 55 80 48 81 54 82 56 83 53 84 49 85
REMARK SMILES IDX 50 86 51 87 52 88
REMARK H PARENT 8 11 76 41 44 52
REMARK Flexibility Score: inf
ROOT
ATOM      1  C   UNL A   1      36.064  22.484  23.732  1.00  0.00     0.274 C 
ENDROOT
BRANCH   1   2
ATOM      2  O   UNL A   1      34.923  22.622  24.597  1.00  0.00    -0.462 OA
BRANCH   2   3
ATOM      3  C   UNL A   1      34.758  23.791  25.261  1.00  0.00     0.305 C 
ATOM      4  O   UNL A   1      35.359  24.826  25.015  1.00  0.00    -0.252 OA
BRANCH   3   5
ATOM      5  C   UNL A   1      33.763  23.649  26.397  1.00  0.00     0.124 C 
BRANCH   5   6
ATOM      6  C   UNL A   1      33.021  22.310  26.420  1.00  0.00     0.033 C 
BRANCH   6   7
ATOM      7  C   UNL A   1      33.887  21.140  26.888  1.00  0.00     0.118 C 
BRANCH   7   8
ATOM      8  N   UNL A   1      33.152  19.891  26.801  1.00  0.00    -0.338 N 
ATOM      9  C   UNL A   1      32.926  18.913  25.916  1.00  0.00     0.317 C 
ATOM     10  O   UNL A   1      32.189  18.007  26.315  1.00  0.00    -0.249 OA
ATOM     11  H   UNL A   1      32.678  19.710  27.646  1.00  0.00     0.165 HD
BRANCH   9  12
ATOM     12  N   UNL A   1      33.491  18.872  24.681  1.00  0.00    -0.319 N 
ATOM     13  C   UNL A   1      34.420  16.917  23.555  1.00  0.00     0.240 C 
ATOM     14  C   UNL A   1      34.732  18.240  24.255  1.00  0.00     0.169 C 
ATOM     15  O   UNL A   1      33.628  17.241  22.360  1.00  0.00    -0.360 OA
ATOM     16  C   UNL A   1      32.401  17.939  22.690  1.00  0.00     0.183 C 
ATOM     17  C   UNL A   1      32.652  19.209  23.524  1.00  0.00     0.150 C 
BRANCH  13  18
ATOM     18  C   UNL A   1      33.684  15.855  24.355  1.00  0.00     0.096 C 
ATOM     19  N   UNL A   1      33.073  14.973  25.018  1.00  0.00    -0.195 NA
ENDBRANCH  13  18
ENDBRANCH   9  12
ENDBRANCH   7   8
ENDBRANCH   6   7
ENDBRANCH   5   6
ENDBRANCH   3   5
ENDBRANCH   2   3
ENDBRANCH   1   2
BRANCH   1  20
ATOM     20  C   UNL A   1      36.998  21.392  24.253  1.00  0.00     0.275 C 
BRANCH  20  21
ATOM     21  O   UNL A   1      37.305  21.615  25.641  1.00  0.00    -0.458 OA
BRANCH  21  22
ATOM     22  C   UNL A   1      38.552  21.270  26.033  1.00  0.00     0.338 C 
ATOM     23  O   UNL A   1      39.077  20.168  25.937  1.00  0.00    -0.246 OA
BRANCH  22  24
ATOM     24  C   UNL A   1      39.260  22.480  26.479  1.00  0.00     0.060 A 
ATOM     25  C   UNL A   1      38.755  23.729  26.104  1.00  0.00     0.016 A 
ATOM     26  C   UNL A   1      40.426  22.384  27.239  1.00  0.00     0.016 A 
ATOM     27  C   UNL A   1      39.413  24.893  26.495  1.00  0.00     0.010 A 
ATOM     28  C   UNL A   1      41.084  23.554  27.632  1.00  0.00     0.010 A 
ATOM     29  C   UNL A   1      40.586  24.814  27.257  1.00  0.00    -0.014 A 
BRANCH  29  30
ATOM     30  C   UNL A   1      41.320  26.051  27.619  1.00  0.00     0.031 A 
ATOM     31  C   UNL A   1      40.636  27.106  28.439  1.00  0.00     0.074 A 
ATOM     32  C   UNL A   1      42.594  26.220  27.221  1.00  0.00     0.049 A 
ATOM     33  N   UNL A   1      41.063  28.290  28.794  1.00  0.00    -0.248 NA
ATOM     34  C   UNL A   1      39.286  26.780  28.920  1.00  0.00     0.031 C 
ATOM     35  C   UNL A   1      43.376  25.244  26.461  1.00  0.00     0.029 A 
ATOM     36  N   UNL A   1      43.455  27.274  27.397  1.00  0.00    -0.354 N 
ATOM     37  C   UNL A   1      40.030  28.859  29.532  1.00  0.00     0.074 A 
ATOM     38  C   UNL A   1      38.944  27.898  29.540  1.00  0.00     0.031 C 
ATOM     39  C   UNL A   1      44.601  25.747  26.236  1.00  0.00     0.029 A 
ATOM     40  C   UNL A   1      44.676  27.096  26.790  1.00  0.00     0.049 A 
ATOM     41  H   UNL A   1      43.220  28.082  27.909  1.00  0.00     0.167 HD
ATOM     42  C   UNL A   1      39.996  30.066  30.149  1.00  0.00     0.034 A 
ATOM     43  C   UNL A   1      45.722  27.937  26.668  1.00  0.00     0.034 A 
ATOM     44  C   UNL A   1      41.085  31.015  30.117  1.00  0.00     0.049 A 
ATOM     45  C   UNL A   1      45.627  29.310  27.283  1.00  0.00     0.074 A 
ATOM     46  C   UNL A   1      41.159  32.266  30.705  1.00  0.00     0.029 A 
ATOM     47  N   UNL A   1      42.288  30.821  29.448  1.00  0.00    -0.354 N 
ATOM     48  N   UNL A   1      44.640  29.846  27.965  1.00  0.00    -0.248 NA
ATOM     49  C   UNL A   1      46.788  30.193  27.111  1.00  0.00     0.031 C 
ATOM     50  C   UNL A   1      42.376  32.854  30.339  1.00  0.00     0.029 A 
ATOM     51  C   UNL A   1      43.096  31.942  29.583  1.00  0.00     0.049 A 
ATOM     52  H   UNL A   1      42.531  30.008  28.950  1.00  0.00     0.167 HD
ATOM     53  C   UNL A   1      45.073  31.120  28.323  1.00  0.00     0.074 A 
ATOM     54  C   UNL A   1      46.415  31.266  27.792  1.00  0.00     0.031 C 
ATOM     55  C   UNL A   1      44.425  32.079  29.031  1.00  0.00     0.034 A 
BRANCH  42  56
ATOM     56  C   UNL A   1      38.714  30.441  30.855  1.00  0.00     0.023 A 
ATOM     57  C   UNL A   1      37.639  31.035  30.170  1.00  0.00     0.031 A 
ATOM     58  C   UNL A   1      38.586  30.252  32.242  1.00  0.00     0.131 A 
ATOM     59  C   UNL A   1      36.522  31.496  30.885  1.00  0.00     0.055 A 
ATOM     60  C   UNL A   1      37.437  30.636  32.935  1.00  0.00     0.041 A 
ATOM     61  F   UNL A   1      39.587  29.711  32.954  1.00  0.00    -0.206 F 
ATOM     62  C   UNL A   1      36.403  31.279  32.259  1.00  0.00     0.022 A 
BRANCH  59  63
ATOM     63  S   UNL A   1      35.304  32.526  30.020  1.00  0.00     0.124 S 
ATOM     64  O   UNL A   1      36.099  33.705  29.683  1.00  0.00    -0.237 OA
ATOM     65  O   UNL A   1      34.912  31.677  28.901  1.00  0.00    -0.237 OA
ATOM     66  O   UNL A   1      34.268  32.750  31.026  1.00  0.00    -0.744 OA
ENDBRANCH  59  63
ENDBRANCH  42  56
BRANCH  43  67
ATOM     67  C   UNL A   1      46.930  27.528  25.897  1.00  0.00     0.023 A 
ATOM     68  C   UNL A   1      47.093  27.898  24.554  1.00  0.00     0.031 A 
ATOM     69  C   UNL A   1      47.923  26.727  26.488  1.00  0.00     0.131 A 
ATOM     70  C   UNL A   1      48.207  27.438  23.833  1.00  0.00     0.055 A 
ATOM     71  C   UNL A   1      49.053  26.313  25.782  1.00  0.00     0.041 A 
ATOM     72  F   UNL A   1      47.814  26.344  27.770  1.00  0.00    -0.206 F 
ATOM     73  C   UNL A   1      49.194  26.660  24.441  1.00  0.00     0.022 A 
BRANCH  70  74
ATOM     74  S   UNL A   1      48.313  27.817  22.062  1.00  0.00     0.124 S 
ATOM     75  O   UNL A   1      48.350  26.482  21.474  1.00  0.00    -0.237 OA
ATOM     76  O   UNL A   1      47.092  28.583  21.841  1.00  0.00    -0.237 OA
ATOM     77  O   UNL A   1      49.554  28.582  21.953  1.00  0.00    -0.744 OA
ENDBRANCH  70  74
ENDBRANCH  43  67
BRANCH  55  78
ATOM     78  C   UNL A   1      45.183  33.356  29.302  1.00  0.00     0.023 A 
ATOM     79  C   UNL A   1      45.067  34.479  28.464  1.00  0.00     0.031 A 
ATOM     80  C   UNL A   1      46.050  33.440  30.407  1.00  0.00     0.131 A 
ATOM     81  C   UNL A   1      45.845  35.620  28.714  1.00  0.00     0.055 A 
ATOM     82  C   UNL A   1      46.778  34.598  30.682  1.00  0.00     0.041 A 
ATOM     83  F   UNL A   1      46.200  32.396  31.237  1.00  0.00    -0.206 F 
ATOM     84  C   UNL A   1      46.688  35.692  29.827  1.00  0.00     0.022 A 
BRANCH  81  85
ATOM     85  S   UNL A   1      45.806  36.983  27.517  1.00  0.00     0.124 S 
ATOM     86  O   UNL A   1      45.819  38.153  28.388  1.00  0.00    -0.237 OA
ATOM     87  O   UNL A   1      47.020  36.752  26.742  1.00  0.00    -0.237 OA
ATOM     88  O   UNL A   1      44.557  36.766  26.790  1.00  0.00    -0.744 OA
ENDBRANCH  81  85
ENDBRANCH  55  78
ENDBRANCH  29  30
ENDBRANCH  22  24
ENDBRANCH  21  22
ENDBRANCH  20  21
ENDBRANCH   1  20
TORSDOF 19
ENDMDL
MODEL 2
REMARK VINA RESULT:     -10.5      6.044     10.246
REMARK SMILES N#C[C@@H]1CN(C(=O)NCCCC(=O)OCCOC(=O)c2ccc(-c3c4nc(c(-c5cc(S(=O)(=O)[O-])ccc5F)c5ccc([nH]5)c(-c5cc(S(=O)(=O)[O-])ccc5F)c5nc(c(-c6cc(S(=O)(=O)[O-])ccc6F)c6ccc3[nH]6)C=C5)C=C4)cc2)CCO1
REMARK SMILES IDX 15 1 14 2 12 3 13 4 11 5 10 6 9 7 8 8 6 9 7 10 5 12 3 13
REMARK SMILES IDX 4 14 85 15 84 16 83 17 2 18 1 19 16 20 17 21 18 22 19 23
REMARK SMILES IDX 20 24 21 25 82 26 22 27 81 28 23 29 24 30 25 31 75 32 26 33
REMARK SMILES IDX 80 34 74 35 76 36 27 37 79 38 73 39 72 40 28 42 60 43 40 44
REMARK SMILES IDX 59 45 41 46 44 47 58 48 77 49 42 50 43 51 57 53 78 54 45 55
REMARK SMILES IDX 29 56 30 57 38 58 31 59 37 60 39 61 36 62 32 63 33 64 34 65
REMARK SMILES IDX 35 66 61 67 62 68 70 69 63 70 69 71 71 72 68 73 64 74 65 75
REMARK SMILES IDX 66 76 67 77 46 78 47 79 55 80 48 81 54 82 56 83 53 84 49 85
REMARK SMILES IDX 50 86 51 87 52 88
REMARK H PARENT 8 11 76 41 44 52
REMARK Flexibility Score: inf
ROOT
ATOM      1  C   UNL A   1      33.799  33.923  28.590  1.00  0.00     0.274 C 
ENDROOT
BRANCH   1   2
ATOM      2  O   UNL A   1      33.415  34.588  29.806  1.00  0.00    -0.462 OA
BRANCH   2   3
ATOM      3  C   UNL A   1      32.913  35.843  29.720  1.00  0.00     0.305 C 
ATOM      4  O   UNL A   1      32.199  36.251  28.816  1.00  0.00    -0.252 OA
BRANCH   3   5
ATOM      5  C   UNL A   1      33.391  36.711  30.868  1.00  0.00     0.124 C 
BRANCH   5   6
ATOM      6  C   UNL A   1      33.002  36.193  32.255  1.00  0.00     0.033 C 
BRANCH   6   7
ATOM      7  C   UNL A   1      33.887  36.732  33.379  1.00  0.00     0.118 C 
BRANCH   7   8
ATOM      8  N   UNL A   1      34.428  35.644  34.173  1.00  0.00    -0.338 N 
ATOM      9  C   UNL A   1      35.018  34.457  33.987  1.00  0.00     0.317 C 
ATOM     10  O   UNL A   1      35.312  33.853  35.023  1.00  0.00    -0.249 OA
ATOM     11  H   UNL A   1      34.331  35.836  35.134  1.00  0.00     0.165 HD
BRANCH   9  12
ATOM     12  N   UNL A   1      35.323  33.952  32.763  1.00  0.00    -0.319 N 
ATOM     13  C   UNL A   1      37.551  33.485  31.882  1.00  0.00     0.240 C 
ATOM     14  C   UNL A   1      36.327  34.399  31.807  1.00  0.00     0.169 C 
ATOM     15  O   UNL A   1      37.104  32.140  31.496  1.00  0.00    -0.360 OA
ATOM     16  C   UNL A   1      36.051  31.644  32.359  1.00  0.00     0.183 C 
ATOM     17  C   UNL A   1      34.849  32.604  32.431  1.00  0.00     0.150 C 
BRANCH  13  18
ATOM     18  C   UNL A   1      38.279  33.394  33.213  1.00  0.00     0.096 C 
ATOM     19  N   UNL A   1      38.884  33.319  34.317  1.00  0.00    -0.195 NA
ENDBRANCH  13  18
ENDBRANCH   9  12
ENDBRANCH   7   8
ENDBRANCH   6   7
ENDBRANCH   5   6
ENDBRANCH   3   5
ENDBRANCH   2   3
ENDBRANCH   1   2
BRANCH   1  20
ATOM     20  C   UNL A   1      34.407  32.555  28.900  1.00  0.00     0.275 C 
BRANCH  20  21
ATOM     21  O   UNL A   1      34.649  31.827  27.682  1.00  0.00    -0.458 OA
BRANCH  21  22
ATOM     22  C   UNL A   1      34.681  30.480  27.796  1.00  0.00     0.338 C 
ATOM     23  O   UNL A   1      33.802  29.692  27.473  1.00  0.00    -0.246 OA
BRANCH  22  24
ATOM     24  C   UNL A   1      36.021  30.075  28.249  1.00  0.00     0.060 A 
ATOM     25  C   UNL A   1      37.124  30.388  27.447  1.00  0.00     0.016 A 
ATOM     26  C   UNL A   1      36.188  29.371  29.443  1.00  0.00     0.016 A 
ATOM     27  C   UNL A   1      38.403  30.000  27.839  1.00  0.00     0.010 A 
ATOM     28  C   UNL A   1      37.474  28.986  29.835  1.00  0.00     0.010 A 
ATOM     29  C   UNL A   1      38.587  29.292  29.034  1.00  0.00    -0.014 A 
BRANCH  29  30
ATOM     30  C   UNL A   1      39.942  28.827  29.419  1.00  0.00     0.031 A 
ATOM     31  C   UNL A   1      40.690  29.541  30.507  1.00  0.00     0.074 A 
ATOM     32  C   UNL A   1      40.491  27.765  28.801  1.00  0.00     0.049 A 
ATOM     33  N   UNL A   1      41.909  29.353  30.939  1.00  0.00    -0.248 NA
ATOM     34  C   UNL A   1      39.962  30.616  31.197  1.00  0.00     0.031 C 
ATOM     35  C   UNL A   1      39.841  26.965  27.763  1.00  0.00     0.029 A 
ATOM     36  N   UNL A   1      41.722  27.178  28.953  1.00  0.00    -0.354 N 
ATOM     37  C   UNL A   1      42.103  30.292  31.946  1.00  0.00     0.074 A 
ATOM     38  C   UNL A   1      40.883  31.071  32.032  1.00  0.00     0.031 C 
ATOM     39  C   UNL A   1      40.680  25.992  27.372  1.00  0.00     0.029 A 
ATOM     40  C   UNL A   1      41.943  26.129  28.093  1.00  0.00     0.049 A 
ATOM     41  H   UNL A   1      42.385  27.481  29.616  1.00  0.00     0.167 HD
ATOM     42  C   UNL A   1      43.194  30.482  32.729  1.00  0.00     0.034 A 
ATOM     43  C   UNL A   1      43.048  25.385  27.887  1.00  0.00     0.034 A 
ATOM     44  C   UNL A   1      44.407  29.704  32.619  1.00  0.00     0.049 A 
ATOM     45  C   UNL A   1      44.282  25.673  28.705  1.00  0.00     0.074 A 
ATOM     46  C   UNL A   1      45.572  29.808  33.357  1.00  0.00     0.029 A 
ATOM     47  N   UNL A   1      44.613  28.681  31.699  1.00  0.00    -0.354 N 
ATOM     48  N   UNL A   1      44.461  26.575  29.644  1.00  0.00    -0.248 NA
ATOM     49  C   UNL A   1      45.462  24.843  28.434  1.00  0.00     0.031 C 
ATOM     50  C   UNL A   1      46.503  28.897  32.844  1.00  0.00     0.029 A 
ATOM     51  C   UNL A   1      45.896  28.171  31.832  1.00  0.00     0.049 A 
ATOM     52  H   UNL A   1      43.946  28.366  31.048  1.00  0.00     0.167 HD
ATOM     53  C   UNL A   1      45.768  26.403  30.091  1.00  0.00     0.074 A 
ATOM     54  C   UNL A   1      46.325  25.303  29.328  1.00  0.00     0.031 C 
ATOM     55  C   UNL A   1      46.445  27.086  31.049  1.00  0.00     0.034 A 
BRANCH  42  56
ATOM     56  C   UNL A   1      43.136  31.614  33.727  1.00  0.00     0.023 A 
ATOM     57  C   UNL A   1      42.726  31.409  35.057  1.00  0.00     0.031 A 
ATOM     58  C   UNL A   1      43.441  32.928  33.328  1.00  0.00     0.131 A 
ATOM     59  C   UNL A   1      42.551  32.508  35.913  1.00  0.00     0.055 A 
ATOM     60  C   UNL A   1      43.345  34.006  34.209  1.00  0.00     0.041 A 
ATOM     61  F   UNL A   1      43.816  33.190  32.066  1.00  0.00    -0.206 F 
ATOM     62  C   UNL A   1      42.881  33.802  35.506  1.00  0.00     0.022 A 
BRANCH  59  63
ATOM     63  S   UNL A   1      41.732  32.240  37.510  1.00  0.00     0.124 S 
ATOM     64  O   UNL A   1      41.905  33.540  38.154  1.00  0.00    -0.237 OA
ATOM     65  O   UNL A   1      40.371  31.899  37.113  1.00  0.00    -0.237 OA
ATOM     66  O   UNL A   1      42.499  31.150  38.109  1.00  0.00    -0.744 OA
ENDBRANCH  59  63
ENDBRANCH  42  56
BRANCH  43  67
ATOM     67  C   UNL A   1      43.059  24.329  26.836  1.00  0.00     0.023 A 
ATOM     68  C   UNL A   1      42.408  23.102  27.033  1.00  0.00     0.031 A 
ATOM     69  C   UNL A   1      43.758  24.522  25.630  1.00  0.00     0.131 A 
ATOM     70  C   UNL A   1      42.497  22.100  26.054  1.00  0.00     0.055 A 
ATOM     71  C   UNL A   1      43.801  23.541  24.639  1.00  0.00     0.041 A 
ATOM     72  F   UNL A   1      44.398  25.677  25.394  1.00  0.00    -0.206 F 
ATOM     73  C   UNL A   1      43.176  22.316  24.853  1.00  0.00     0.022 A 
BRANCH  70  74
ATOM     74  S   UNL A   1      41.763  20.477  26.402  1.00  0.00     0.124 S 
ATOM     75  O   UNL A   1      42.300  19.668  25.312  1.00  0.00    -0.237 OA
ATOM     76  O   UNL A   1      42.283  20.187  27.733  1.00  0.00    -0.237 OA
ATOM     77  O   UNL A   1      40.326  20.734  26.340  1.00  0.00    -0.744 OA
ENDBRANCH  70  74
ENDBRANCH  43  67
BRANCH  55  78
ATOM     78  C   UNL A   1      47.852  26.629  31.348  1.00  0.00     0.023 A 
ATOM     79  C   UNL A   1      48.966  27.187  30.697  1.00  0.00     0.031 A 
ATOM     80  C   UNL A   1      48.077  25.604  32.284  1.00  0.00     0.131 A 
ATOM     81  C   UNL A   1      50.250  26.683  30.953  1.00  0.00     0.055 A 
ATOM     82  C   UNL A   1      49.362  25.145  32.577  1.00  0.00     0.041 A 
ATOM     83  F   UNL A   1      47.049  25.034  32.933  1.00  0.00    -0.206 F 
ATOM     84  C   UNL A   1      50.456  25.675  31.900  1.00  0.00     0.022 A 
BRANCH  81  85
ATOM     85  S   UNL A   1      51.644  27.300  29.969  1.00  0.00     0.124 S 
ATOM     86  O   UNL A   1      52.203  28.324  30.844  1.00  0.00    -0.237 OA
ATOM     87  O   UNL A   1      52.456  26.101  29.790  1.00  0.00    -0.237 OA
ATOM     88  O   UNL A   1      51.009  27.804  28.753  1.00  0.00    -0.744 OA
ENDBRANCH  81  85
ENDBRANCH  55  78
ENDBRANCH  29  30
ENDBRANCH  22  24
ENDBRANCH  21  22
ENDBRANCH  20  21
ENDBRANCH   1  20
TORSDOF 19
ENDMDL
MODEL 3
REMARK VINA RESULT:     -10.4      6.265     10.782
REMARK SMILES N#C[C@@H]1CN(C(=O)NCCCC(=O)OCCOC(=O)c2ccc(-c3c4nc(c(-c5cc(S(=O)(=O)[O-])ccc5F)c5ccc([nH]5)c(-c5cc(S(=O)(=O)[O-])ccc5F)c5nc(c(-c6cc(S(=O)(=O)[O-])ccc6F)c6ccc3[nH]6)C=C5)C=C4)cc2)CCO1
REMARK SMILES IDX 15 1 14 2 12 3 13 4 11 5 10 6 9 7 8 8 6 9 7 10 5 12 3 13
REMARK SMILES IDX 4 14 85 15 84 16 83 17 2 18 1 19 16 20 17 21 18 22 19 23
REMARK SMILES IDX 20 24 21 25 82 26 22 27 81 28 23 29 24 30 25 31 75 32 26 33
REMARK SMILES IDX 80 34 74 35 76 36 27 37 79 38 73 39 72 40 28 42 60 43 40 44
REMARK SMILES IDX 59 45 41 46 44 47 58 48 77 49 42 50 43 51 57 53 78 54 45 55
REMARK SMILES IDX 29 56 30 57 38 58 31 59 37 60 39 61 36 62 32 63 33 64 34 65
REMARK SMILES IDX 35 66 61 67 62 68 70 69 63 70 69 71 71 72 68 73 64 74 65 75
REMARK SMILES IDX 66 76 67 77 46 78 47 79 55 80 48 81 54 82 56 83 53 84 49 85
REMARK SMILES IDX 50 86 51 87 52 88
REMARK H PARENT 8 11 76 41 44 52
REMARK Flexibility Score: inf
ROOT
ATOM      1  C   UNL A   1      33.781  34.090  28.554  1.00  0.00     0.274 C 
ENDROOT
BRANCH   1   2
ATOM      2  O   UNL A   1      33.268  34.681  29.760  1.00  0.00    -0.462 OA
BRANCH   2   3
ATOM      3  C   UNL A   1      32.854  35.970  29.718  1.00  0.00     0.305 C 
ATOM      4  O   UNL A   1      32.154  36.452  28.840  1.00  0.00    -0.252 OA
BRANCH   3   5
ATOM      5  C   UNL A   1      33.416  36.770  30.877  1.00  0.00     0.124 C 
BRANCH   5   6
ATOM      6  C   UNL A   1      32.967  36.281  32.257  1.00  0.00     0.033 C 
BRANCH   6   7
ATOM      7  C   UNL A   1      33.829  36.811  33.403  1.00  0.00     0.118 C 
BRANCH   7   8
ATOM      8  N   UNL A   1      34.399  35.716  34.165  1.00  0.00    -0.338 N 
ATOM      9  C   UNL A   1      34.991  34.535  33.946  1.00  0.00     0.317 C 
ATOM     10  O   UNL A   1      35.319  33.919  34.964  1.00  0.00    -0.249 OA
ATOM     11  H   UNL A   1      34.330  35.894  35.132  1.00  0.00     0.165 HD
BRANCH   9  12
ATOM     12  N   UNL A   1      35.264  34.049  32.707  1.00  0.00    -0.319 N 
ATOM     13  C   UNL A   1      37.467  33.601  31.758  1.00  0.00     0.240 C 
ATOM     14  C   UNL A   1      36.239  34.513  31.730  1.00  0.00     0.169 C 
ATOM     15  O   UNL A   1      37.012  32.260  31.364  1.00  0.00    -0.360 OA
ATOM     16  C   UNL A   1      35.985  31.749  32.248  1.00  0.00     0.183 C 
ATOM     17  C   UNL A   1      34.783  32.705  32.368  1.00  0.00     0.150 C 
BRANCH  13  18
ATOM     18  C   UNL A   1      38.232  33.492  33.066  1.00  0.00     0.096 C 
ATOM     19  N   UNL A   1      38.867  33.402  34.152  1.00  0.00    -0.195 NA
ENDBRANCH  13  18
ENDBRANCH   9  12
ENDBRANCH   7   8
ENDBRANCH   6   7
ENDBRANCH   5   6
ENDBRANCH   3   5
ENDBRANCH   2   3
ENDBRANCH   1   2
BRANCH   1  20
ATOM     20  C   UNL A   1      34.308  32.682  28.833  1.00  0.00     0.275 C 
BRANCH  20  21
ATOM     21  O   UNL A   1      34.793  32.079  27.619  1.00  0.00    -0.458 OA
BRANCH  21  22
ATOM     22  C   UNL A   1      34.747  30.729  27.571  1.00  0.00     0.338 C 
ATOM     23  O   UNL A   1      33.894  30.039  27.027  1.00  0.00    -0.246 OA
BRANCH  22  24
ATOM     24  C   UNL A   1      35.980  30.191  28.165  1.00  0.00     0.060 A 
ATOM     25  C   UNL A   1      37.186  30.359  27.476  1.00  0.00     0.016 A 
ATOM     26  C   UNL A   1      35.947  29.505  29.380  1.00  0.00     0.016 A 
ATOM     27  C   UNL A   1      38.368  29.844  28.004  1.00  0.00     0.010 A 
ATOM     28  C   UNL A   1      37.135  28.992  29.909  1.00  0.00     0.010 A 
ATOM     29  C   UNL A   1      38.351  29.152  29.222  1.00  0.00    -0.014 A 
BRANCH  29  30
ATOM     30  C   UNL A   1      39.599  28.551  29.751  1.00  0.00     0.031 A 
ATOM     31  C   UNL A   1      40.246  29.140  30.971  1.00  0.00     0.074 A 
ATOM     32  C   UNL A   1      40.141  27.479  29.146  1.00  0.00     0.049 A 
ATOM     33  N   UNL A   1      41.377  28.825  31.547  1.00  0.00    -0.248 NA
ATOM     34  C   UNL A   1      39.519  30.238  31.625  1.00  0.00     0.031 C 
ATOM     35  C   UNL A   1      39.576  26.793  27.983  1.00  0.00     0.029 A 
ATOM     36  N   UNL A   1      41.289  26.780  29.421  1.00  0.00    -0.354 N 
ATOM     37  C   UNL A   1      41.506  29.691  32.627  1.00  0.00     0.074 A 
ATOM     38  C   UNL A   1      40.351  30.567  32.601  1.00  0.00     0.031 C 
ATOM     39  C   UNL A   1      40.381  25.772  27.645  1.00  0.00     0.029 A 
ATOM     40  C   UNL A   1      41.541  25.761  28.533  1.00  0.00     0.049 A 
ATOM     41  H   UNL A   1      41.878  26.989  30.183  1.00  0.00     0.167 HD
ATOM     42  C   UNL A   1      42.492  29.743  33.557  1.00  0.00     0.034 A 
ATOM     43  C   UNL A   1      42.601  24.935  28.428  1.00  0.00     0.034 A 
ATOM     44  C   UNL A   1      43.642  28.869  33.558  1.00  0.00     0.049 A 
ATOM     45  C   UNL A   1      43.731  25.072  29.417  1.00  0.00     0.074 A 
ATOM     46  C   UNL A   1      44.701  28.833  34.448  1.00  0.00     0.029 A 
ATOM     47  N   UNL A   1      43.890  27.881  32.611  1.00  0.00    -0.354 N 
ATOM     48  N   UNL A   1      43.852  25.905  30.426  1.00  0.00    -0.248 NA
ATOM     49  C   UNL A   1      44.868  24.157  29.251  1.00  0.00     0.031 C 
ATOM     50  C   UNL A   1      45.618  27.873  34.005  1.00  0.00     0.029 A 
ATOM     51  C   UNL A   1      45.099  27.255  32.879  1.00  0.00     0.049 A 
ATOM     52  H   UNL A   1      43.295  27.660  31.859  1.00  0.00     0.167 HD
ATOM     53  C   UNL A   1      45.068  25.597  31.029  1.00  0.00     0.074 A 
ATOM     54  C   UNL A   1      45.635  24.493  30.278  1.00  0.00     0.031 C 
ATOM     55  C   UNL A   1      45.660  26.168  32.108  1.00  0.00     0.034 A 
BRANCH  42  56
ATOM     56  C   UNL A   1      42.389  30.824  34.607  1.00  0.00     0.023 A 
ATOM     57  C   UNL A   1      42.926  32.108  34.403  1.00  0.00     0.031 A 
ATOM     58  C   UNL A   1      41.795  30.550  35.851  1.00  0.00     0.131 A 
ATOM     59  C   UNL A   1      42.934  33.039  35.455  1.00  0.00     0.055 A 
ATOM     60  C   UNL A   1      41.730  31.509  36.864  1.00  0.00     0.041 A 
ATOM     61  F   UNL A   1      41.285  29.337  36.114  1.00  0.00    -0.206 F 
ATOM     62  C   UNL A   1      42.318  32.756  36.675  1.00  0.00     0.022 A 
BRANCH  59  63
ATOM     63  S   UNL A   1      43.902  34.560  35.257  1.00  0.00     0.124 S 
ATOM     64  O   UNL A   1      45.248  34.031  35.051  1.00  0.00    -0.237 OA
ATOM     65  O   UNL A   1      43.276  35.184  34.096  1.00  0.00    -0.237 OA
ATOM     66  O   UNL A   1      43.704  35.260  36.524  1.00  0.00    -0.744 OA
ENDBRANCH  59  63
ENDBRANCH  42  56
BRANCH  43  67
ATOM     67  C   UNL A   1      42.671  23.937  27.323  1.00  0.00     0.023 A 
ATOM     68  C   UNL A   1      42.057  22.681  27.440  1.00  0.00     0.031 A 
ATOM     69  C   UNL A   1      43.388  24.217  26.146  1.00  0.00     0.131 A 
ATOM     70  C   UNL A   1      42.202  21.736  26.411  1.00  0.00     0.055 A 
ATOM     71  C   UNL A   1      43.487  23.293  25.106  1.00  0.00     0.041 A 
ATOM     72  F   UNL A   1      43.994  25.404  25.985  1.00  0.00    -0.206 F 
ATOM     73  C   UNL A   1      42.899  22.038  25.240  1.00  0.00     0.022 A 
BRANCH  70  74
ATOM     74  S   UNL A   1      41.517  20.074  26.656  1.00  0.00     0.124 S 
ATOM     75  O   UNL A   1      40.114  20.367  26.927  1.00  0.00    -0.237 OA
ATOM     76  O   UNL A   1      41.804  19.435  25.377  1.00  0.00    -0.237 OA
ATOM     77  O   UNL A   1      42.278  19.557  27.792  1.00  0.00    -0.744 OA
ENDBRANCH  70  74
ENDBRANCH  43  67
BRANCH  55  78
ATOM     78  C   UNL A   1      46.973  25.575  32.560  1.00  0.00     0.023 A 
ATOM     79  C   UNL A   1      47.037  24.598  33.569  1.00  0.00     0.031 A 
ATOM     80  C   UNL A   1      48.179  26.011  31.982  1.00  0.00     0.131 A 
ATOM     81  C   UNL A   1      48.284  24.127  34.007  1.00  0.00     0.055 A 
ATOM     82  C   UNL A   1      49.413  25.497  32.383  1.00  0.00     0.041 A 
ATOM     83  F   UNL A   1      48.176  26.943  31.017  1.00  0.00    -0.206 F 
ATOM     84  C   UNL A   1      49.471  24.559  33.410  1.00  0.00     0.022 A 
BRANCH  81  85
ATOM     85  S   UNL A   1      48.342  23.002  35.430  1.00  0.00     0.124 S 
ATOM     86  O   UNL A   1      48.830  21.769  34.821  1.00  0.00    -0.237 OA
ATOM     87  O   UNL A   1      49.270  23.681  36.327  1.00  0.00    -0.237 OA
ATOM     88  O   UNL A   1      46.956  22.959  35.890  1.00  0.00    -0.744 OA
ENDBRANCH  81  85
ENDBRANCH  55  78
ENDBRANCH  29  30
ENDBRANCH  22  24
ENDBRANCH  21  22
ENDBRANCH  20  21
ENDBRANCH   1  20
TORSDOF 19
ENDMDL
