MODEL 1
REMARK VINA RESULT:     -11.9      0.000      0.000
REMARK SMILES Cc1cccc(O[C@H](C)C(=O)N2CCC[C@@H](C(=O)OCCOC(=O)c3ccc(-c4c5nc(c(-c6cc(S(=O)(=O)[O-])ccc6F)c6ccc([nH]6)c(-c6cc(S(=O)(=O)[O-])ccc6F)c6nc(c(-c7cc(S(=O)(=O)[O-])ccc7F)c7ccc4[nH]7)C=C6)C=C5)cc3)C2)c1
REMARK SMILES IDX 20 1 19 2 17 3 18 4 16 5 12 6 13 7 88 8 14 9 15 10 10 11
REMARK SMILES IDX 11 12 8 13 9 14 7 15 6 16 1 17 2 18 3 19 89 20 4 21 5 22
REMARK SMILES IDX 21 23 22 24 23 25 24 26 25 27 26 28 87 29 27 30 86 31 28 32
REMARK SMILES IDX 29 33 30 34 80 35 31 36 85 37 79 38 81 39 32 40 84 41 78 42
REMARK SMILES IDX 77 43 33 45 65 46 45 47 64 48 46 49 49 50 63 51 82 52 47 53
REMARK SMILES IDX 48 54 62 56 83 57 50 58 34 59 35 60 43 61 36 62 42 63 44 64
REMARK SMILES IDX 41 65 37 66 38 67 39 68 40 69 66 70 67 71 75 72 68 73 74 74
REMARK SMILES IDX 76 75 73 76 69 77 70 78 71 79 72 80 51 81 52 82 60 83 53 84
REMARK SMILES IDX 59 85 61 86 58 87 54 88 55 89 56 90 57 91
REMARK H PARENT 81 44 49 55
REMARK Flexibility Score: inf
ROOT
ATOM      1  C   UNL A   1      33.542  30.521  27.046  1.00  0.00     0.274 C 
ENDROOT
BRANCH   1   2
ATOM      2  O   UNL A   1      33.125  29.772  25.909  1.00  0.00    -0.462 OA
BRANCH   2   3
ATOM      3  C   UNL A   1      31.895  29.999  25.366  1.00  0.00     0.310 C 
ATOM      4  O   UNL A   1      31.146  30.926  25.658  1.00  0.00    -0.252 OA
BRANCH   3   5
ATOM      5  C   UNL A   1      31.583  28.845  24.445  1.00  0.00     0.119 C 
ATOM      6  N   UNL A   1      31.158  26.464  24.716  1.00  0.00    -0.339 N 
ATOM      7  C   UNL A   1      30.096  26.454  23.711  1.00  0.00     0.119 C 
ATOM      8  C   UNL A   1      31.309  27.712  25.400  1.00  0.00     0.134 C 
ATOM      9  C   UNL A   1      30.229  27.629  22.729  1.00  0.00     0.022 C 
ATOM     10  C   UNL A   1      30.441  28.978  23.443  1.00  0.00     0.019 C 
BRANCH   6  11
ATOM     11  C   UNL A   1      31.949  25.360  24.984  1.00  0.00     0.263 C 
ATOM     12  O   UNL A   1      31.531  24.458  25.722  1.00  0.00    -0.271 OA
BRANCH  11  13
ATOM     13  C   UNL A   1      33.387  25.211  24.328  1.00  0.00     0.259 C 
ATOM     14  C   UNL A   1      33.519  25.933  22.979  1.00  0.00     0.064 C 
BRANCH  13  15
ATOM     15  O   UNL A   1      34.595  25.097  25.098  1.00  0.00    -0.481 OA
BRANCH  15  16
ATOM     16  C   UNL A   1      35.295  23.939  25.264  1.00  0.00     0.120 A 
ATOM     17  C   UNL A   1      34.550  20.205  24.831  1.00  0.00     0.044 C 
ATOM     18  C   UNL A   1      35.248  21.495  25.143  1.00  0.00    -0.047 A 
ATOM     19  C   UNL A   1      36.600  21.450  25.476  1.00  0.00     0.003 A 
ATOM     20  C   UNL A   1      34.600  22.741  25.057  1.00  0.00     0.049 A 
ATOM     21  C   UNL A   1      37.311  22.634  25.599  1.00  0.00     0.004 A 
ATOM     22  C   UNL A   1      36.672  23.874  25.463  1.00  0.00     0.046 A 
ENDBRANCH  15  16
ENDBRANCH  13  15
ENDBRANCH  11  13
ENDBRANCH   6  11
ENDBRANCH   3   5
ENDBRANCH   2   3
ENDBRANCH   1   2
BRANCH   1  23
ATOM     23  C   UNL A   1      34.781  29.854  27.672  1.00  0.00     0.275 C 
BRANCH  23  24
ATOM     24  O   UNL A   1      36.108  30.388  27.368  1.00  0.00    -0.458 OA
BRANCH  24  25
ATOM     25  C   UNL A   1      37.174  30.456  28.217  1.00  0.00     0.338 C 
ATOM     26  O   UNL A   1      37.187  31.230  29.166  1.00  0.00    -0.246 OA
BRANCH  25  27
ATOM     27  C   UNL A   1      38.181  29.384  28.073  1.00  0.00     0.060 A 
ATOM     28  C   UNL A   1      39.091  29.441  27.002  1.00  0.00     0.016 A 
ATOM     29  C   UNL A   1      38.385  28.518  29.137  1.00  0.00     0.016 A 
ATOM     30  C   UNL A   1      40.289  28.745  27.080  1.00  0.00     0.010 A 
ATOM     31  C   UNL A   1      39.644  28.014  29.321  1.00  0.00     0.010 A 
ATOM     32  C   UNL A   1      40.571  28.081  28.272  1.00  0.00    -0.014 A 
BRANCH  32  33
ATOM     33  C   UNL A   1      41.632  27.099  28.400  1.00  0.00     0.031 A 
ATOM     34  C   UNL A   1      41.335  25.664  28.268  1.00  0.00     0.074 A 
ATOM     35  C   UNL A   1      42.813  27.723  28.621  1.00  0.00     0.049 A 
ATOM     36  N   UNL A   1      41.760  24.736  29.054  1.00  0.00    -0.248 NA
ATOM     37  C   UNL A   1      40.403  25.147  27.258  1.00  0.00     0.031 C 
ATOM     38  C   UNL A   1      44.188  27.283  28.656  1.00  0.00     0.029 A 
ATOM     39  N   UNL A   1      42.907  29.050  29.047  1.00  0.00    -0.354 N 
ATOM     40  C   UNL A   1      41.554  23.549  28.372  1.00  0.00     0.074 A 
ATOM     41  C   UNL A   1      40.494  23.822  27.439  1.00  0.00     0.031 C 
ATOM     42  C   UNL A   1      44.902  28.187  29.369  1.00  0.00     0.029 A 
ATOM     43  C   UNL A   1      43.972  29.185  29.904  1.00  0.00     0.049 A 
ATOM     44  H   UNL A   1      42.302  29.778  28.776  1.00  0.00     0.167 HD
ATOM     45  C   UNL A   1      42.532  22.594  28.381  1.00  0.00     0.034 A 
ATOM     46  C   UNL A   1      43.658  29.399  31.218  1.00  0.00     0.034 A 
ATOM     47  C   UNL A   1      43.683  23.105  29.118  1.00  0.00     0.049 A 
ATOM     48  C   UNL A   1      44.001  28.163  32.003  1.00  0.00     0.074 A 
ATOM     49  C   UNL A   1      44.831  23.737  28.665  1.00  0.00     0.029 A 
ATOM     50  N   UNL A   1      43.576  23.385  30.470  1.00  0.00    -0.354 N 
ATOM     51  N   UNL A   1      43.859  26.942  31.562  1.00  0.00    -0.248 NA
ATOM     52  C   UNL A   1      44.655  28.244  33.300  1.00  0.00     0.031 C 
ATOM     53  C   UNL A   1      45.374  24.467  29.751  1.00  0.00     0.029 A 
ATOM     54  C   UNL A   1      44.546  24.291  30.846  1.00  0.00     0.049 A 
ATOM     55  H   UNL A   1      42.906  22.994  31.075  1.00  0.00     0.167 HD
ATOM     56  C   UNL A   1      44.481  26.090  32.437  1.00  0.00     0.074 A 
ATOM     57  C   UNL A   1      44.946  26.953  33.513  1.00  0.00     0.031 C 
ATOM     58  C   UNL A   1      44.629  24.748  32.216  1.00  0.00     0.034 A 
BRANCH  45  59
ATOM     59  C   UNL A   1      42.661  21.443  27.404  1.00  0.00     0.023 A 
ATOM     60  C   UNL A   1      43.682  21.502  26.430  1.00  0.00     0.031 A 
ATOM     61  C   UNL A   1      41.854  20.293  27.361  1.00  0.00     0.131 A 
ATOM     62  C   UNL A   1      43.822  20.526  25.432  1.00  0.00     0.055 A 
ATOM     63  C   UNL A   1      41.980  19.319  26.352  1.00  0.00     0.041 A 
ATOM     64  F   UNL A   1      40.939  20.040  28.307  1.00  0.00    -0.206 F 
ATOM     65  C   UNL A   1      42.961  19.437  25.373  1.00  0.00     0.022 A 
BRANCH  62  66
ATOM     66  S   UNL A   1      45.155  20.716  24.215  1.00  0.00     0.124 S 
ATOM     67  O   UNL A   1      44.832  19.679  23.242  1.00  0.00    -0.237 OA
ATOM     68  O   UNL A   1      44.979  22.095  23.772  1.00  0.00    -0.237 OA
ATOM     69  O   UNL A   1      46.365  20.472  24.999  1.00  0.00    -0.744 OA
ENDBRANCH  62  66
ENDBRANCH  45  59
BRANCH  46  70
ATOM     70  C   UNL A   1      42.450  30.274  31.473  1.00  0.00     0.023 A 
ATOM     71  C   UNL A   1      41.225  29.646  31.804  1.00  0.00     0.031 A 
ATOM     72  C   UNL A   1      42.503  31.666  31.635  1.00  0.00     0.131 A 
ATOM     73  C   UNL A   1      40.167  30.362  32.392  1.00  0.00     0.055 A 
ATOM     74  C   UNL A   1      41.418  32.394  32.161  1.00  0.00     0.041 A 
ATOM     75  F   UNL A   1      43.626  32.347  31.367  1.00  0.00    -0.206 F 
ATOM     76  C   UNL A   1      40.253  31.740  32.572  1.00  0.00     0.022 A 
BRANCH  73  77
ATOM     77  S   UNL A   1      38.808  29.414  33.146  1.00  0.00     0.124 S 
ATOM     78  O   UNL A   1      39.262  28.038  32.981  1.00  0.00    -0.237 OA
ATOM     79  O   UNL A   1      38.796  29.923  34.517  1.00  0.00    -0.237 OA
ATOM     80  O   UNL A   1      37.641  29.790  32.356  1.00  0.00    -0.744 OA
ENDBRANCH  73  77
ENDBRANCH  46  70
BRANCH  58  81
ATOM     81  C   UNL A   1      44.999  23.755  33.280  1.00  0.00     0.023 A 
ATOM     82  C   UNL A   1      46.309  23.639  33.746  1.00  0.00     0.031 A 
ATOM     83  C   UNL A   1      44.035  22.947  33.929  1.00  0.00     0.131 A 
ATOM     84  C   UNL A   1      46.659  22.653  34.671  1.00  0.00     0.055 A 
ATOM     85  C   UNL A   1      44.365  22.059  34.953  1.00  0.00     0.041 A 
ATOM     86  F   UNL A   1      42.734  22.989  33.609  1.00  0.00    -0.206 F 
ATOM     87  C   UNL A   1      45.694  21.879  35.307  1.00  0.00     0.022 A 
BRANCH  84  88
ATOM     88  S   UNL A   1      48.421  22.327  34.893  1.00  0.00     0.124 S 
ATOM     89  O   UNL A   1      48.547  20.990  34.315  1.00  0.00    -0.237 OA
ATOM     90  O   UNL A   1      49.040  23.404  34.128  1.00  0.00    -0.237 OA
ATOM     91  O   UNL A   1      48.602  22.398  36.340  1.00  0.00    -0.744 OA
ENDBRANCH  84  88
ENDBRANCH  58  81
ENDBRANCH  32  33
ENDBRANCH  25  27
ENDBRANCH  24  25
ENDBRANCH  23  24
ENDBRANCH   1  23
TORSDOF 18
ENDMDL
MODEL 2
REMARK VINA RESULT:     -11.6      1.992      2.694
REMARK SMILES Cc1cccc(O[C@H](C)C(=O)N2CCC[C@@H](C(=O)OCCOC(=O)c3ccc(-c4c5nc(c(-c6cc(S(=O)(=O)[O-])ccc6F)c6ccc([nH]6)c(-c6cc(S(=O)(=O)[O-])ccc6F)c6nc(c(-c7cc(S(=O)(=O)[O-])ccc7F)c7ccc4[nH]7)C=C6)C=C5)cc3)C2)c1
REMARK SMILES IDX 20 1 19 2 17 3 18 4 16 5 12 6 13 7 88 8 14 9 15 10 10 11
REMARK SMILES IDX 11 12 8 13 9 14 7 15 6 16 1 17 2 18 3 19 89 20 4 21 5 22
REMARK SMILES IDX 21 23 22 24 23 25 24 26 25 27 26 28 87 29 27 30 86 31 28 32
REMARK SMILES IDX 29 33 30 34 80 35 31 36 85 37 79 38 81 39 32 40 84 41 78 42
REMARK SMILES IDX 77 43 33 45 65 46 45 47 64 48 46 49 49 50 63 51 82 52 47 53
REMARK SMILES IDX 48 54 62 56 83 57 50 58 34 59 35 60 43 61 36 62 42 63 44 64
REMARK SMILES IDX 41 65 37 66 38 67 39 68 40 69 66 70 67 71 75 72 68 73 74 74
REMARK SMILES IDX 76 75 73 76 69 77 70 78 71 79 72 80 51 81 52 82 60 83 53 84
REMARK SMILES IDX 59 85 61 86 58 87 54 88 55 89 56 90 57 91
REMARK H PARENT 81 44 49 55
REMARK Flexibility Score: inf
ROOT
ATOM      1  C   UNL A   1      33.114  29.640  26.443  1.00  0.00     0.274 C 
ENDROOT
BRANCH   1   2
ATOM      2  O   UNL A   1      32.020  28.758  26.213  1.00  0.00    -0.462 OA
BRANCH   2   3
ATOM      3  C   UNL A   1      31.442  28.708  24.979  1.00  0.00     0.310 C 
ATOM      4  O   UNL A   1      30.801  29.613  24.454  1.00  0.00    -0.252 OA
BRANCH   3   5
ATOM      5  C   UNL A   1      31.633  27.310  24.443  1.00  0.00     0.119 C 
ATOM      6  N   UNL A   1      30.717  25.111  24.944  1.00  0.00    -0.339 N 
ATOM      7  C   UNL A   1      30.634  24.733  23.533  1.00  0.00     0.119 C 
ATOM      8  C   UNL A   1      30.589  26.517  25.185  1.00  0.00     0.134 C 
ATOM      9  C   UNL A   1      31.603  25.551  22.666  1.00  0.00     0.022 C 
ATOM     10  C   UNL A   1      31.515  27.064  22.943  1.00  0.00     0.019 C 
BRANCH   6  11
ATOM     11  C   UNL A   1      30.903  24.189  25.958  1.00  0.00     0.263 C 
ATOM     12  O   UNL A   1      30.001  23.973  26.778  1.00  0.00    -0.271 OA
BRANCH  11  13
ATOM     13  C   UNL A   1      32.257  23.368  26.073  1.00  0.00     0.259 C 
ATOM     14  C   UNL A   1      32.569  22.903  27.503  1.00  0.00     0.064 C 
BRANCH  13  15
ATOM     15  O   UNL A   1      32.762  22.532  25.019  1.00  0.00    -0.481 OA
BRANCH  15  16
ATOM     16  C   UNL A   1      34.053  22.545  24.579  1.00  0.00     0.120 A 
ATOM     17  C   UNL A   1      37.112  20.277  25.002  1.00  0.00     0.044 C 
ATOM     18  C   UNL A   1      36.224  21.415  24.598  1.00  0.00    -0.047 A 
ATOM     19  C   UNL A   1      36.727  22.362  23.709  1.00  0.00     0.003 A 
ATOM     20  C   UNL A   1      34.893  21.524  25.042  1.00  0.00     0.049 A 
ATOM     21  C   UNL A   1      35.877  23.323  23.184  1.00  0.00     0.004 A 
ATOM     22  C   UNL A   1      34.538  23.398  23.590  1.00  0.00     0.046 A 
ENDBRANCH  15  16
ENDBRANCH  13  15
ENDBRANCH  11  13
ENDBRANCH   6  11
ENDBRANCH   3   5
ENDBRANCH   2   3
ENDBRANCH   1   2
BRANCH   1  23
ATOM     23  C   UNL A   1      34.388  28.816  26.709  1.00  0.00     0.275 C 
BRANCH  23  24
ATOM     24  O   UNL A   1      35.213  29.137  27.873  1.00  0.00    -0.458 OA
BRANCH  24  25
ATOM     25  C   UNL A   1      36.184  30.094  27.945  1.00  0.00     0.338 C 
ATOM     26  O   UNL A   1      35.912  31.286  27.879  1.00  0.00    -0.246 OA
BRANCH  25  27
ATOM     27  C   UNL A   1      37.524  29.622  28.353  1.00  0.00     0.060 A 
ATOM     28  C   UNL A   1      37.626  28.552  29.258  1.00  0.00     0.016 A 
ATOM     29  C   UNL A   1      38.626  30.050  27.627  1.00  0.00     0.016 A 
ATOM     30  C   UNL A   1      38.796  27.806  29.314  1.00  0.00     0.010 A 
ATOM     31  C   UNL A   1      39.690  29.196  27.514  1.00  0.00     0.010 A 
ATOM     32  C   UNL A   1      39.796  28.111  28.395  1.00  0.00    -0.014 A 
BRANCH  32  33
ATOM     33  C   UNL A   1      41.156  27.618  28.511  1.00  0.00     0.031 A 
ATOM     34  C   UNL A   1      41.515  26.297  27.971  1.00  0.00     0.074 A 
ATOM     35  C   UNL A   1      41.928  28.539  29.134  1.00  0.00     0.049 A 
ATOM     36  N   UNL A   1      42.215  25.403  28.581  1.00  0.00    -0.248 NA
ATOM     37  C   UNL A   1      41.000  25.811  26.685  1.00  0.00     0.031 C 
ATOM     38  C   UNL A   1      43.349  28.665  29.365  1.00  0.00     0.029 A 
ATOM     39  N   UNL A   1      41.403  29.597  29.881  1.00  0.00    -0.354 N 
ATOM     40  C   UNL A   1      42.605  24.506  27.602  1.00  0.00     0.074 A 
ATOM     41  C   UNL A   1      41.630  24.636  26.553  1.00  0.00     0.031 C 
ATOM     42  C   UNL A   1      43.532  29.499  30.417  1.00  0.00     0.029 A 
ATOM     43  C   UNL A   1      42.217  29.848  30.960  1.00  0.00     0.049 A 
ATOM     44  H   UNL A   1      40.576  30.086  29.669  1.00  0.00     0.167 HD
ATOM     45  C   UNL A   1      43.891  24.043  27.594  1.00  0.00     0.034 A 
ATOM     46  C   UNL A   1      41.711  29.503  32.183  1.00  0.00     0.034 A 
ATOM     47  C   UNL A   1      44.633  24.692  28.670  1.00  0.00     0.049 A 
ATOM     48  C   UNL A   1      42.468  28.310  32.698  1.00  0.00     0.074 A 
ATOM     49  C   UNL A   1      45.440  25.819  28.651  1.00  0.00     0.029 A 
ATOM     50  N   UNL A   1      44.282  24.471  29.991  1.00  0.00    -0.354 N 
ATOM     51  N   UNL A   1      42.906  27.332  31.952  1.00  0.00    -0.248 NA
ATOM     52  C   UNL A   1      42.890  28.221  34.087  1.00  0.00     0.031 C 
ATOM     53  C   UNL A   1      45.508  26.319  29.974  1.00  0.00     0.029 A 
ATOM     54  C   UNL A   1      44.728  25.509  30.782  1.00  0.00     0.049 A 
ATOM     55  H   UNL A   1      43.785  23.686  30.318  1.00  0.00     0.167 HD
ATOM     56  C   UNL A   1      43.741  26.551  32.708  1.00  0.00     0.074 A 
ATOM     57  C   UNL A   1      43.683  27.140  34.038  1.00  0.00     0.031 C 
ATOM     58  C   UNL A   1      44.469  25.508  32.205  1.00  0.00     0.034 A 
BRANCH  45  59
ATOM     59  C   UNL A   1      44.597  23.396  26.420  1.00  0.00     0.023 A 
ATOM     60  C   UNL A   1      44.364  22.026  26.169  1.00  0.00     0.031 A 
ATOM     61  C   UNL A   1      45.481  24.029  25.528  1.00  0.00     0.131 A 
ATOM     62  C   UNL A   1      45.041  21.324  25.160  1.00  0.00     0.055 A 
ATOM     63  C   UNL A   1      46.173  23.326  24.523  1.00  0.00     0.041 A 
ATOM     64  F   UNL A   1      45.685  25.353  25.562  1.00  0.00    -0.206 F 
ATOM     65  C   UNL A   1      45.963  21.963  24.342  1.00  0.00     0.022 A 
BRANCH  62  66
ATOM     66  S   UNL A   1      44.682  19.558  24.945  1.00  0.00     0.124 S 
ATOM     67  O   UNL A   1      45.895  18.934  25.462  1.00  0.00    -0.237 OA
ATOM     68  O   UNL A   1      43.475  19.384  25.745  1.00  0.00    -0.237 OA
ATOM     69  O   UNL A   1      44.487  19.426  23.501  1.00  0.00    -0.744 OA
ENDBRANCH  62  66
ENDBRANCH  45  59
BRANCH  46  70
ATOM     70  C   UNL A   1      40.226  29.727  32.369  1.00  0.00     0.023 A 
ATOM     71  C   UNL A   1      39.686  30.985  32.006  1.00  0.00     0.031 A 
ATOM     72  C   UNL A   1      39.304  28.710  32.657  1.00  0.00     0.131 A 
ATOM     73  C   UNL A   1      38.305  31.162  31.810  1.00  0.00     0.055 A 
ATOM     74  C   UNL A   1      37.916  28.908  32.528  1.00  0.00     0.041 A 
ATOM     75  F   UNL A   1      39.719  27.480  32.991  1.00  0.00    -0.206 F 
ATOM     76  C   UNL A   1      37.409  30.129  32.073  1.00  0.00     0.022 A 
BRANCH  73  77
ATOM     77  S   UNL A   1      37.749  32.675  30.962  1.00  0.00     0.124 S 
ATOM     78  O   UNL A   1      38.156  33.718  31.895  1.00  0.00    -0.237 OA
ATOM     79  O   UNL A   1      38.493  32.618  29.704  1.00  0.00    -0.237 OA
ATOM     80  O   UNL A   1      36.310  32.485  30.818  1.00  0.00    -0.744 OA
ENDBRANCH  73  77
ENDBRANCH  46  70
BRANCH  58  81
ATOM     81  C   UNL A   1      45.119  24.449  33.050  1.00  0.00     0.023 A 
ATOM     82  C   UNL A   1      46.352  24.664  33.667  1.00  0.00     0.031 A 
ATOM     83  C   UNL A   1      44.486  23.217  33.338  1.00  0.00     0.131 A 
ATOM     84  C   UNL A   1      46.989  23.642  34.376  1.00  0.00     0.055 A 
ATOM     85  C   UNL A   1      45.062  22.251  34.163  1.00  0.00     0.041 A 
ATOM     86  F   UNL A   1      43.280  22.900  32.845  1.00  0.00    -0.206 F 
ATOM     87  C   UNL A   1      46.342  22.445  34.660  1.00  0.00     0.022 A 
BRANCH  84  88
ATOM     88  S   UNL A   1      48.732  23.887  34.777  1.00  0.00     0.124 S 
ATOM     89  O   UNL A   1      48.669  25.049  35.661  1.00  0.00    -0.237 OA
ATOM     90  O   UNL A   1      49.088  22.626  35.417  1.00  0.00    -0.237 OA
ATOM     91  O   UNL A   1      49.351  24.129  33.476  1.00  0.00    -0.744 OA
ENDBRANCH  84  88
ENDBRANCH  58  81
ENDBRANCH  32  33
ENDBRANCH  25  27
ENDBRANCH  24  25
ENDBRANCH  23  24
ENDBRANCH   1  23
TORSDOF 18
ENDMDL
MODEL 3
REMARK VINA RESULT:     -11.6      4.548     10.807
REMARK SMILES Cc1cccc(O[C@H](C)C(=O)N2CCC[C@@H](C(=O)OCCOC(=O)c3ccc(-c4c5nc(c(-c6cc(S(=O)(=O)[O-])ccc6F)c6ccc([nH]6)c(-c6cc(S(=O)(=O)[O-])ccc6F)c6nc(c(-c7cc(S(=O)(=O)[O-])ccc7F)c7ccc4[nH]7)C=C6)C=C5)cc3)C2)c1
REMARK SMILES IDX 20 1 19 2 17 3 18 4 16 5 12 6 13 7 88 8 14 9 15 10 10 11
REMARK SMILES IDX 11 12 8 13 9 14 7 15 6 16 1 17 2 18 3 19 89 20 4 21 5 22
REMARK SMILES IDX 21 23 22 24 23 25 24 26 25 27 26 28 87 29 27 30 86 31 28 32
REMARK SMILES IDX 29 33 30 34 80 35 31 36 85 37 79 38 81 39 32 40 84 41 78 42
REMARK SMILES IDX 77 43 33 45 65 46 45 47 64 48 46 49 49 50 63 51 82 52 47 53
REMARK SMILES IDX 48 54 62 56 83 57 50 58 34 59 35 60 43 61 36 62 42 63 44 64
REMARK SMILES IDX 41 65 37 66 38 67 39 68 40 69 66 70 67 71 75 72 68 73 74 74
REMARK SMILES IDX 76 75 73 76 69 77 70 78 71 79 72 80 51 81 52 82 60 83 53 84
REMARK SMILES IDX 59 85 61 86 58 87 54 88 55 89 56 90 57 91
REMARK H PARENT 81 44 49 55
REMARK Flexibility Score: inf
ROOT
ATOM      1  C   UNL A   1      37.754  22.548  25.426  1.00  0.00     0.274 C 
ENDROOT
BRANCH   1   2
ATOM      2  O   UNL A   1      36.469  22.180  24.935  1.00  0.00    -0.462 OA
BRANCH   2   3
ATOM      3  C   UNL A   1      36.010  22.724  23.773  1.00  0.00     0.310 C 
ATOM      4  O   UNL A   1      36.643  22.808  22.725  1.00  0.00    -0.252 OA
BRANCH   3   5
ATOM      5  C   UNL A   1      34.644  23.304  24.048  1.00  0.00     0.119 C 
ATOM      6  N   UNL A   1      32.942  24.454  22.742  1.00  0.00    -0.339 N 
ATOM      7  C   UNL A   1      31.843  23.742  23.392  1.00  0.00     0.119 C 
ATOM      8  C   UNL A   1      34.167  23.714  22.679  1.00  0.00     0.134 C 
ATOM      9  C   UNL A   1      32.252  23.200  24.771  1.00  0.00     0.022 C 
ATOM     10  C   UNL A   1      33.592  22.440  24.736  1.00  0.00     0.019 C 
BRANCH   6  11
ATOM     11  C   UNL A   1      32.810  25.732  22.229  1.00  0.00     0.263 C 
ATOM     12  O   UNL A   1      32.519  25.899  21.037  1.00  0.00    -0.271 OA
BRANCH  11  13
ATOM     13  C   UNL A   1      32.995  27.005  23.160  1.00  0.00     0.259 C 
ATOM     14  C   UNL A   1      33.548  28.229  22.416  1.00  0.00     0.064 C 
BRANCH  13  15
ATOM     15  O   UNL A   1      32.145  27.287  24.284  1.00  0.00    -0.481 OA
BRANCH  15  16
ATOM     16  C   UNL A   1      32.348  28.310  25.163  1.00  0.00     0.120 A 
ATOM     17  C   UNL A   1      35.136  29.325  27.587  1.00  0.00     0.044 C 
ATOM     18  C   UNL A   1      33.846  29.303  26.824  1.00  0.00    -0.047 A 
ATOM     19  C   UNL A   1      32.974  30.381  26.969  1.00  0.00     0.003 A 
ATOM     20  C   UNL A   1      33.516  28.264  25.934  1.00  0.00     0.049 A 
ATOM     21  C   UNL A   1      31.861  30.471  26.148  1.00  0.00     0.004 A 
ATOM     22  C   UNL A   1      31.562  29.459  25.226  1.00  0.00     0.046 A 
ENDBRANCH  15  16
ENDBRANCH  13  15
ENDBRANCH  11  13
ENDBRANCH   6  11
ENDBRANCH   3   5
ENDBRANCH   2   3
ENDBRANCH   1   2
BRANCH   1  23
ATOM     23  C   UNL A   1      37.651  23.891  26.172  1.00  0.00     0.275 C 
BRANCH  23  24
ATOM     24  O   UNL A   1      38.678  24.243  27.151  1.00  0.00    -0.458 OA
BRANCH  24  25
ATOM     25  C   UNL A   1      39.643  25.198  27.012  1.00  0.00     0.338 C 
ATOM     26  O   UNL A   1      40.489  25.130  26.129  1.00  0.00    -0.246 OA
BRANCH  25  27
ATOM     27  C   UNL A   1      39.457  26.423  27.818  1.00  0.00     0.060 A 
ATOM     28  C   UNL A   1      39.339  26.311  29.215  1.00  0.00     0.016 A 
ATOM     29  C   UNL A   1      39.687  27.653  27.218  1.00  0.00     0.016 A 
ATOM     30  C   UNL A   1      39.612  27.409  30.019  1.00  0.00     0.010 A 
ATOM     31  C   UNL A   1      40.171  28.667  28.000  1.00  0.00     0.010 A 
ATOM     32  C   UNL A   1      40.080  28.563  29.395  1.00  0.00    -0.014 A 
BRANCH  32  33
ATOM     33  C   UNL A   1      40.140  29.853  30.056  1.00  0.00     0.031 A 
ATOM     34  C   UNL A   1      38.979  30.757  30.025  1.00  0.00     0.074 A 
ATOM     35  C   UNL A   1      41.345  30.010  30.651  1.00  0.00     0.049 A 
ATOM     36  N   UNL A   1      39.021  32.020  29.770  1.00  0.00    -0.248 NA
ATOM     37  C   UNL A   1      37.603  30.270  30.176  1.00  0.00     0.031 C 
ATOM     38  C   UNL A   1      41.892  30.985  31.566  1.00  0.00     0.029 A 
ATOM     39  N   UNL A   1      42.461  29.231  30.334  1.00  0.00    -0.354 N 
ATOM     40  C   UNL A   1      37.803  32.524  30.196  1.00  0.00     0.074 A 
ATOM     41  C   UNL A   1      36.896  31.408  30.167  1.00  0.00     0.031 C 
ATOM     42  C   UNL A   1      43.243  30.941  31.470  1.00  0.00     0.029 A 
ATOM     43  C   UNL A   1      43.597  30.001  30.403  1.00  0.00     0.049 A 
ATOM     44  H   UNL A   1      42.438  28.276  30.096  1.00  0.00     0.167 HD
ATOM     45  C   UNL A   1      37.773  33.701  30.890  1.00  0.00     0.034 A 
ATOM     46  C   UNL A   1      44.192  30.296  29.208  1.00  0.00     0.034 A 
ATOM     47  C   UNL A   1      39.142  34.167  31.088  1.00  0.00     0.049 A 
ATOM     48  C   UNL A   1      43.987  31.757  28.914  1.00  0.00     0.074 A 
ATOM     49  C   UNL A   1      40.002  33.996  32.161  1.00  0.00     0.029 A 
ATOM     50  N   UNL A   1      39.921  34.523  29.999  1.00  0.00    -0.354 N 
ATOM     51  N   UNL A   1      42.904  32.426  29.206  1.00  0.00    -0.248 NA
ATOM     52  C   UNL A   1      45.060  32.583  28.385  1.00  0.00     0.031 C 
ATOM     53  C   UNL A   1      41.323  34.179  31.683  1.00  0.00     0.029 A 
ATOM     54  C   UNL A   1      41.258  34.439  30.325  1.00  0.00     0.049 A 
ATOM     55  H   UNL A   1      39.570  34.796  29.121  1.00  0.00     0.167 HD
ATOM     56  C   UNL A   1      43.153  33.760  29.014  1.00  0.00     0.074 A 
ATOM     57  C   UNL A   1      44.509  33.802  28.484  1.00  0.00     0.031 C 
ATOM     58  C   UNL A   1      42.272  34.753  29.341  1.00  0.00     0.034 A 
BRANCH  45  59
ATOM     59  C   UNL A   1      36.633  34.194  31.757  1.00  0.00     0.023 A 
ATOM     60  C   UNL A   1      35.453  34.640  31.122  1.00  0.00     0.031 A 
ATOM     61  C   UNL A   1      36.621  34.257  33.162  1.00  0.00     0.131 A 
ATOM     62  C   UNL A   1      34.381  35.195  31.838  1.00  0.00     0.055 A 
ATOM     63  C   UNL A   1      35.554  34.826  33.883  1.00  0.00     0.041 A 
ATOM     64  F   UNL A   1      37.615  33.739  33.896  1.00  0.00    -0.206 F 
ATOM     65  C   UNL A   1      34.431  35.309  33.221  1.00  0.00     0.022 A 
BRANCH  62  66
ATOM     66  S   UNL A   1      32.924  35.760  30.916  1.00  0.00     0.124 S 
ATOM     67  O   UNL A   1      33.271  37.144  30.614  1.00  0.00    -0.237 OA
ATOM     68  O   UNL A   1      32.894  34.840  29.784  1.00  0.00    -0.237 OA
ATOM     69  O   UNL A   1      31.831  35.592  31.873  1.00  0.00    -0.744 OA
ENDBRANCH  62  66
ENDBRANCH  45  59
BRANCH  46  70
ATOM     70  C   UNL A   1      44.165  29.197  28.169  1.00  0.00     0.023 A 
ATOM     71  C   UNL A   1      44.623  27.910  28.542  1.00  0.00     0.031 A 
ATOM     72  C   UNL A   1      43.507  29.293  26.934  1.00  0.00     0.131 A 
ATOM     73  C   UNL A   1      44.312  26.770  27.779  1.00  0.00     0.055 A 
ATOM     74  C   UNL A   1      43.255  28.160  26.136  1.00  0.00     0.041 A 
ATOM     75  F   UNL A   1      43.019  30.466  26.504  1.00  0.00    -0.206 F 
ATOM     76  C   UNL A   1      43.630  26.885  26.570  1.00  0.00     0.022 A 
BRANCH  73  77
ATOM     77  S   UNL A   1      44.587  25.135  28.533  1.00  0.00     0.124 S 
ATOM     78  O   UNL A   1      45.754  25.376  29.373  1.00  0.00    -0.237 OA
ATOM     79  O   UNL A   1      43.328  24.903  29.241  1.00  0.00    -0.237 OA
ATOM     80  O   UNL A   1      44.804  24.256  27.390  1.00  0.00    -0.744 OA
ENDBRANCH  73  77
ENDBRANCH  46  70
BRANCH  58  81
ATOM     81  C   UNL A   1      42.375  36.168  28.847  1.00  0.00     0.023 A 
ATOM     82  C   UNL A   1      43.088  37.137  29.553  1.00  0.00     0.031 A 
ATOM     83  C   UNL A   1      41.835  36.577  27.604  1.00  0.00     0.131 A 
ATOM     84  C   UNL A   1      43.104  38.468  29.132  1.00  0.00     0.055 A 
ATOM     85  C   UNL A   1      41.972  37.876  27.116  1.00  0.00     0.041 A 
ATOM     86  F   UNL A   1      41.163  35.735  26.805  1.00  0.00    -0.206 F 
ATOM     87  C   UNL A   1      42.579  38.845  27.900  1.00  0.00     0.022 A 
BRANCH  84  88
ATOM     88  S   UNL A   1      43.698  39.695  30.315  1.00  0.00     0.124 S 
ATOM     89  O   UNL A   1      44.991  40.059  29.737  1.00  0.00    -0.237 OA
ATOM     90  O   UNL A   1      42.666  40.724  30.248  1.00  0.00    -0.237 OA
ATOM     91  O   UNL A   1      43.766  38.954  31.571  1.00  0.00    -0.744 OA
ENDBRANCH  84  88
ENDBRANCH  58  81
ENDBRANCH  32  33
ENDBRANCH  25  27
ENDBRANCH  24  25
ENDBRANCH  23  24
ENDBRANCH   1  23
TORSDOF 18
ENDMDL
