MODEL 1
REMARK VINA RESULT:     -11.9      0.000      0.000
REMARK SMILES O=C(OCCOC(=O)c1ccnc(-n2cnnn2)c1)c1ccc(-c2c3nc(c(-c4cc(S(=O)(=O)[O-])ccc4F)c4ccc([nH]4)c(-c4cc(S(=O)(=O)[O-])ccc4F)c4nc(c(-c5cc(S(=O)(=O)[O-])ccc5F)c5ccc2[nH]5)C=C4)C=C3)cc1
REMARK SMILES IDX 4 1 3 2 2 3 1 4 20 5 21 6 82 7 22 8 81 9 23 10 24 11 25 12
REMARK SMILES IDX 75 13 26 14 80 15 74 16 76 17 27 18 79 19 73 20 72 21 28 23
REMARK SMILES IDX 60 24 40 25 59 26 41 27 44 28 58 29 77 30 42 31 43 32 57 34
REMARK SMILES IDX 78 35 45 36 29 37 30 38 38 39 31 40 37 41 39 42 36 43 32 44
REMARK SMILES IDX 33 45 34 46 35 47 61 48 62 49 70 50 63 51 69 52 71 53 68 54
REMARK SMILES IDX 64 55 65 56 66 57 67 58 46 59 47 60 55 61 48 62 54 63 56 64
REMARK SMILES IDX 53 65 49 66 50 67 51 68 52 69 5 70 6 71 7 72 8 73 9 74 10 75
REMARK SMILES IDX 19 76 11 77 13 78 12 79 14 80 15 81 18 82 16 83 17 84
REMARK H PARENT 76 22 44 33
REMARK Flexibility Score: inf
ROOT
ATOM      1  C   UNL A   1      35.392  34.056  28.313  1.00  0.00     0.275 C 
ENDROOT
BRANCH   1   2
ATOM      2  O   UNL A   1      36.035  32.954  27.650  1.00  0.00    -0.458 OA
BRANCH   2   3
ATOM      3  C   UNL A   1      35.803  31.713  28.116  1.00  0.00     0.338 C 
ATOM      4  O   UNL A   1      34.704  31.180  28.123  1.00  0.00    -0.246 OA
BRANCH   3   5
ATOM      5  C   UNL A   1      37.039  30.998  28.512  1.00  0.00     0.060 A 
ATOM      6  C   UNL A   1      38.145  31.607  29.123  1.00  0.00     0.016 A 
ATOM      7  C   UNL A   1      37.037  29.621  28.292  1.00  0.00     0.016 A 
ATOM      8  C   UNL A   1      39.253  30.840  29.482  1.00  0.00     0.010 A 
ATOM      9  C   UNL A   1      38.131  28.864  28.663  1.00  0.00     0.010 A 
ATOM     10  C   UNL A   1      39.258  29.465  29.229  1.00  0.00    -0.014 A 
BRANCH  10  11
ATOM     11  C   UNL A   1      40.411  28.640  29.610  1.00  0.00     0.031 A 
ATOM     12  C   UNL A   1      40.650  28.481  31.078  1.00  0.00     0.074 A 
ATOM     13  C   UNL A   1      41.116  27.913  28.712  1.00  0.00     0.049 A 
ATOM     14  N   UNL A   1      41.650  28.909  31.773  1.00  0.00    -0.248 NA
ATOM     15  C   UNL A   1      39.599  27.867  31.903  1.00  0.00     0.031 C 
ATOM     16  C   UNL A   1      40.865  27.767  27.272  1.00  0.00     0.029 A 
ATOM     17  N   UNL A   1      42.157  27.056  28.913  1.00  0.00    -0.354 N 
ATOM     18  C   UNL A   1      41.489  28.394  33.061  1.00  0.00     0.074 A 
ATOM     19  C   UNL A   1      40.135  27.921  33.123  1.00  0.00     0.031 C 
ATOM     20  C   UNL A   1      41.557  26.713  26.788  1.00  0.00     0.029 A 
ATOM     21  C   UNL A   1      42.446  26.227  27.827  1.00  0.00     0.049 A 
ATOM     22  H   UNL A   1      42.665  27.025  29.755  1.00  0.00     0.167 HD
ATOM     23  C   UNL A   1      42.560  28.195  33.883  1.00  0.00     0.034 A 
ATOM     24  C   UNL A   1      43.361  25.221  27.757  1.00  0.00     0.034 A 
ATOM     25  C   UNL A   1      43.704  28.951  33.418  1.00  0.00     0.049 A 
ATOM     26  C   UNL A   1      44.372  25.505  28.800  1.00  0.00     0.074 A 
ATOM     27  C   UNL A   1      43.930  30.289  33.156  1.00  0.00     0.029 A 
ATOM     28  N   UNL A   1      44.710  28.277  32.760  1.00  0.00    -0.354 N 
ATOM     29  N   UNL A   1      45.148  26.554  28.766  1.00  0.00    -0.248 NA
ATOM     30  C   UNL A   1      44.186  24.915  30.116  1.00  0.00     0.031 C 
ATOM     31  C   UNL A   1      44.678  30.292  31.941  1.00  0.00     0.029 A 
ATOM     32  C   UNL A   1      44.961  28.968  31.600  1.00  0.00     0.049 A 
ATOM     33  H   UNL A   1      45.162  27.457  33.063  1.00  0.00     0.167 HD
ATOM     34  C   UNL A   1      45.177  27.018  30.072  1.00  0.00     0.074 A 
ATOM     35  C   UNL A   1      44.654  25.911  30.875  1.00  0.00     0.031 C 
ATOM     36  C   UNL A   1      45.354  28.343  30.351  1.00  0.00     0.034 A 
BRANCH  23  37
ATOM     37  C   UNL A   1      42.715  27.047  34.866  1.00  0.00     0.023 A 
ATOM     38  C   UNL A   1      43.527  25.971  34.456  1.00  0.00     0.031 A 
ATOM     39  C   UNL A   1      41.899  26.796  35.991  1.00  0.00     0.131 A 
ATOM     40  C   UNL A   1      43.389  24.694  35.026  1.00  0.00     0.055 A 
ATOM     41  C   UNL A   1      41.820  25.540  36.606  1.00  0.00     0.041 A 
ATOM     42  F   UNL A   1      41.076  27.711  36.510  1.00  0.00    -0.206 F 
ATOM     43  C   UNL A   1      42.532  24.468  36.097  1.00  0.00     0.022 A 
BRANCH  40  44
ATOM     44  S   UNL A   1      44.186  23.301  34.187  1.00  0.00     0.124 S 
ATOM     45  O   UNL A   1      45.461  23.895  33.797  1.00  0.00    -0.237 OA
ATOM     46  O   UNL A   1      44.238  22.303  35.250  1.00  0.00    -0.237 OA
ATOM     47  O   UNL A   1      43.272  23.000  33.088  1.00  0.00    -0.744 OA
ENDBRANCH  40  44
ENDBRANCH  23  37
BRANCH  24  48
ATOM     48  C   UNL A   1      43.238  23.913  27.050  1.00  0.00     0.023 A 
ATOM     49  C   UNL A   1      44.192  23.432  26.125  1.00  0.00     0.031 A 
ATOM     50  C   UNL A   1      42.262  22.989  27.488  1.00  0.00     0.131 A 
ATOM     51  C   UNL A   1      44.146  22.084  25.686  1.00  0.00     0.055 A 
ATOM     52  C   UNL A   1      42.225  21.661  27.056  1.00  0.00     0.041 A 
ATOM     53  F   UNL A   1      41.357  23.329  28.419  1.00  0.00    -0.206 F 
ATOM     54  C   UNL A   1      43.175  21.199  26.160  1.00  0.00     0.022 A 
BRANCH  51  55
ATOM     55  S   UNL A   1      45.408  21.428  24.541  1.00  0.00     0.124 S 
ATOM     56  O   UNL A   1      46.309  20.720  25.444  1.00  0.00    -0.237 OA
ATOM     57  O   UNL A   1      44.617  20.602  23.637  1.00  0.00    -0.237 OA
ATOM     58  O   UNL A   1      45.977  22.629  23.929  1.00  0.00    -0.744 OA
ENDBRANCH  51  55
ENDBRANCH  24  48
BRANCH  36  59
ATOM     59  C   UNL A   1      45.792  29.275  29.238  1.00  0.00     0.023 A 
ATOM     60  C   UNL A   1      44.922  30.038  28.423  1.00  0.00     0.031 A 
ATOM     61  C   UNL A   1      47.173  29.503  29.103  1.00  0.00     0.131 A 
ATOM     62  C   UNL A   1      45.450  30.980  27.517  1.00  0.00     0.055 A 
ATOM     63  C   UNL A   1      47.691  30.451  28.223  1.00  0.00     0.041 A 
ATOM     64  F   UNL A   1      48.051  28.833  29.870  1.00  0.00    -0.206 F 
ATOM     65  C   UNL A   1      46.830  31.191  27.422  1.00  0.00     0.022 A 
BRANCH  62  66
ATOM     66  S   UNL A   1      44.353  31.956  26.437  1.00  0.00     0.124 S 
ATOM     67  O   UNL A   1      43.896  33.039  27.300  1.00  0.00    -0.237 OA
ATOM     68  O   UNL A   1      45.242  32.342  25.344  1.00  0.00    -0.237 OA
ATOM     69  O   UNL A   1      43.310  31.000  26.058  1.00  0.00    -0.744 OA
ENDBRANCH  62  66
ENDBRANCH  36  59
ENDBRANCH  10  11
ENDBRANCH   3   5
ENDBRANCH   2   3
ENDBRANCH   1   2
BRANCH   1  70
ATOM     70  C   UNL A   1      33.871  34.190  28.163  1.00  0.00     0.275 C 
BRANCH  70  71
ATOM     71  O   UNL A   1      33.220  34.289  29.446  1.00  0.00    -0.458 OA
BRANCH  71  72
ATOM     72  C   UNL A   1      32.914  35.547  29.861  1.00  0.00     0.338 C 
ATOM     73  O   UNL A   1      32.256  36.386  29.280  1.00  0.00    -0.246 OA
BRANCH  72  74
ATOM     74  C   UNL A   1      33.629  35.829  31.120  1.00  0.00     0.065 A 
ATOM     75  C   UNL A   1      33.189  36.931  31.848  1.00  0.00     0.036 A 
ATOM     76  C   UNL A   1      34.583  34.948  31.649  1.00  0.00     0.065 A 
ATOM     77  C   UNL A   1      33.708  37.110  33.110  1.00  0.00     0.114 A 
ATOM     78  C   UNL A   1      35.030  35.205  32.943  1.00  0.00     0.157 A 
ATOM     79  N   UNL A   1      34.588  36.263  33.674  1.00  0.00    -0.237 NA
BRANCH  78  80
ATOM     80  N   UNL A   1      35.918  34.319  33.601  1.00  0.00    -0.182 N 
ATOM     81  C   UNL A   1      37.277  34.384  33.741  1.00  0.00     0.254 A 
ATOM     82  N   UNL A   1      35.470  33.281  34.344  1.00  0.00    -0.039 NA
ATOM     83  N   UNL A   1      37.686  33.376  34.476  1.00  0.00    -0.117 NA
ATOM     84  N   UNL A   1      36.554  32.691  34.829  1.00  0.00    -0.024 NA
ENDBRANCH  78  80
ENDBRANCH  72  74
ENDBRANCH  71  72
ENDBRANCH  70  71
ENDBRANCH   1  70
TORSDOF 15
ENDMDL
MODEL 2
REMARK VINA RESULT:     -11.7      4.513      8.828
REMARK SMILES O=C(OCCOC(=O)c1ccnc(-n2cnnn2)c1)c1ccc(-c2c3nc(c(-c4cc(S(=O)(=O)[O-])ccc4F)c4ccc([nH]4)c(-c4cc(S(=O)(=O)[O-])ccc4F)c4nc(c(-c5cc(S(=O)(=O)[O-])ccc5F)c5ccc2[nH]5)C=C4)C=C3)cc1
REMARK SMILES IDX 4 1 3 2 2 3 1 4 20 5 21 6 82 7 22 8 81 9 23 10 24 11 25 12
REMARK SMILES IDX 75 13 26 14 80 15 74 16 76 17 27 18 79 19 73 20 72 21 28 23
REMARK SMILES IDX 60 24 40 25 59 26 41 27 44 28 58 29 77 30 42 31 43 32 57 34
REMARK SMILES IDX 78 35 45 36 29 37 30 38 38 39 31 40 37 41 39 42 36 43 32 44
REMARK SMILES IDX 33 45 34 46 35 47 61 48 62 49 70 50 63 51 69 52 71 53 68 54
REMARK SMILES IDX 64 55 65 56 66 57 67 58 46 59 47 60 55 61 48 62 54 63 56 64
REMARK SMILES IDX 53 65 49 66 50 67 51 68 52 69 5 70 6 71 7 72 8 73 9 74 10 75
REMARK SMILES IDX 19 76 11 77 13 78 12 79 14 80 15 81 18 82 16 83 17 84
REMARK H PARENT 76 22 44 33
REMARK Flexibility Score: inf
ROOT
ATOM      1  C   UNL A   1      34.880  30.598  27.460  1.00  0.00     0.275 C 
ENDROOT
BRANCH   1   2
ATOM      2  O   UNL A   1      35.609  29.425  27.861  1.00  0.00    -0.458 OA
BRANCH   2   3
ATOM      3  C   UNL A   1      36.414  29.517  28.935  1.00  0.00     0.338 C 
ATOM      4  O   UNL A   1      36.029  29.821  30.054  1.00  0.00    -0.246 OA
BRANCH   3   5
ATOM      5  C   UNL A   1      37.807  29.093  28.659  1.00  0.00     0.060 A 
ATOM      6  C   UNL A   1      38.537  29.466  27.522  1.00  0.00     0.016 A 
ATOM      7  C   UNL A   1      38.408  28.315  29.647  1.00  0.00     0.016 A 
ATOM      8  C   UNL A   1      39.854  29.034  27.366  1.00  0.00     0.010 A 
ATOM      9  C   UNL A   1      39.717  27.902  29.495  1.00  0.00     0.010 A 
ATOM     10  C   UNL A   1      40.441  28.227  28.345  1.00  0.00    -0.014 A 
BRANCH  10  11
ATOM     11  C   UNL A   1      41.829  27.772  28.204  1.00  0.00     0.031 A 
ATOM     12  C   UNL A   1      42.027  26.472  27.491  1.00  0.00     0.074 A 
ATOM     13  C   UNL A   1      42.888  28.550  28.530  1.00  0.00     0.049 A 
ATOM     14  N   UNL A   1      42.479  25.361  27.970  1.00  0.00    -0.248 NA
ATOM     15  C   UNL A   1      41.565  26.351  26.101  1.00  0.00     0.031 C 
ATOM     16  C   UNL A   1      42.874  29.937  29.014  1.00  0.00     0.029 A 
ATOM     17  N   UNL A   1      44.222  28.303  28.398  1.00  0.00    -0.354 N 
ATOM     18  C   UNL A   1      42.609  24.486  26.890  1.00  0.00     0.074 A 
ATOM     19  C   UNL A   1      41.869  25.084  25.815  1.00  0.00     0.031 C 
ATOM     20  C   UNL A   1      44.108  30.476  28.902  1.00  0.00     0.029 A 
ATOM     21  C   UNL A   1      45.038  29.428  28.525  1.00  0.00     0.049 A 
ATOM     22  H   UNL A   1      44.581  27.402  28.227  1.00  0.00     0.167 HD
ATOM     23  C   UNL A   1      43.507  23.460  26.915  1.00  0.00     0.034 A 
ATOM     24  C   UNL A   1      46.387  29.513  28.359  1.00  0.00     0.034 A 
ATOM     25  C   UNL A   1      43.929  23.186  28.273  1.00  0.00     0.049 A 
ATOM     26  C   UNL A   1      46.919  28.147  28.572  1.00  0.00     0.074 A 
ATOM     27  C   UNL A   1      43.262  22.862  29.439  1.00  0.00     0.029 A 
ATOM     28  N   UNL A   1      45.169  23.630  28.675  1.00  0.00    -0.354 N 
ATOM     29  N   UNL A   1      46.844  27.531  29.719  1.00  0.00    -0.248 NA
ATOM     30  C   UNL A   1      47.075  27.283  27.412  1.00  0.00     0.031 C 
ATOM     31  C   UNL A   1      43.905  23.644  30.445  1.00  0.00     0.029 A 
ATOM     32  C   UNL A   1      44.989  24.301  29.859  1.00  0.00     0.049 A 
ATOM     33  H   UNL A   1      46.023  23.492  28.204  1.00  0.00     0.167 HD
ATOM     34  C   UNL A   1      46.492  26.228  29.401  1.00  0.00     0.074 A 
ATOM     35  C   UNL A   1      46.752  26.110  27.966  1.00  0.00     0.031 C 
ATOM     36  C   UNL A   1      45.764  25.459  30.263  1.00  0.00     0.034 A 
BRANCH  23  37
ATOM     37  C   UNL A   1      44.302  22.956  25.722  1.00  0.00     0.023 A 
ATOM     38  C   UNL A   1      44.304  21.563  25.508  1.00  0.00     0.031 A 
ATOM     39  C   UNL A   1      45.278  23.681  25.003  1.00  0.00     0.131 A 
ATOM     40  C   UNL A   1      45.325  20.940  24.770  1.00  0.00     0.055 A 
ATOM     41  C   UNL A   1      46.249  23.061  24.206  1.00  0.00     0.041 A 
ATOM     42  F   UNL A   1      45.406  25.008  25.088  1.00  0.00    -0.206 F 
ATOM     43  C   UNL A   1      46.306  21.681  24.122  1.00  0.00     0.022 A 
BRANCH  40  44
ATOM     44  S   UNL A   1      45.463  19.137  24.870  1.00  0.00     0.124 S 
ATOM     45  O   UNL A   1      46.691  18.987  25.645  1.00  0.00    -0.237 OA
ATOM     46  O   UNL A   1      44.223  18.781  25.552  1.00  0.00    -0.237 OA
ATOM     47  O   UNL A   1      45.550  18.726  23.472  1.00  0.00    -0.744 OA
ENDBRANCH  40  44
ENDBRANCH  23  37
BRANCH  24  48
ATOM     48  C   UNL A   1      47.171  30.627  27.750  1.00  0.00     0.023 A 
ATOM     49  C   UNL A   1      46.583  31.710  27.059  1.00  0.00     0.031 A 
ATOM     50  C   UNL A   1      48.540  30.755  28.076  1.00  0.00     0.131 A 
ATOM     51  C   UNL A   1      47.354  32.853  26.730  1.00  0.00     0.055 A 
ATOM     52  C   UNL A   1      49.294  31.888  27.756  1.00  0.00     0.041 A 
ATOM     53  F   UNL A   1      49.171  29.814  28.795  1.00  0.00    -0.206 F 
ATOM     54  C   UNL A   1      48.701  32.947  27.089  1.00  0.00     0.022 A 
BRANCH  51  55
ATOM     55  S   UNL A   1      46.596  34.288  25.894  1.00  0.00     0.124 S 
ATOM     56  O   UNL A   1      47.691  34.783  25.068  1.00  0.00    -0.237 OA
ATOM     57  O   UNL A   1      45.471  33.685  25.188  1.00  0.00    -0.237 OA
ATOM     58  O   UNL A   1      46.218  35.171  26.999  1.00  0.00    -0.744 OA
ENDBRANCH  51  55
ENDBRANCH  24  48
BRANCH  36  59
ATOM     59  C   UNL A   1      45.570  25.938  31.689  1.00  0.00     0.023 A 
ATOM     60  C   UNL A   1      44.387  26.524  32.199  1.00  0.00     0.031 A 
ATOM     61  C   UNL A   1      46.596  25.646  32.606  1.00  0.00     0.131 A 
ATOM     62  C   UNL A   1      44.273  26.797  33.577  1.00  0.00     0.055 A 
ATOM     63  C   UNL A   1      46.471  25.896  33.970  1.00  0.00     0.041 A 
ATOM     64  F   UNL A   1      47.733  25.061  32.191  1.00  0.00    -0.206 F 
ATOM     65  C   UNL A   1      45.309  26.478  34.462  1.00  0.00     0.022 A 
BRANCH  62  66
ATOM     66  S   UNL A   1      42.770  27.576  34.255  1.00  0.00     0.124 S 
ATOM     67  O   UNL A   1      43.281  28.726  34.991  1.00  0.00    -0.237 OA
ATOM     68  O   UNL A   1      41.997  27.878  33.052  1.00  0.00    -0.237 OA
ATOM     69  O   UNL A   1      42.191  26.525  35.096  1.00  0.00    -0.744 OA
ENDBRANCH  62  66
ENDBRANCH  36  59
ENDBRANCH  10  11
ENDBRANCH   3   5
ENDBRANCH   2   3
ENDBRANCH   1   2
BRANCH   1  70
ATOM     70  C   UNL A   1      33.350  30.505  27.409  1.00  0.00     0.275 C 
BRANCH  70  71
ATOM     71  O   UNL A   1      32.892  30.028  26.126  1.00  0.00    -0.458 OA
BRANCH  71  72
ATOM     72  C   UNL A   1      32.208  28.854  26.138  1.00  0.00     0.338 C 
ATOM     73  O   UNL A   1      32.326  27.928  26.914  1.00  0.00    -0.246 OA
BRANCH  72  74
ATOM     74  C   UNL A   1      31.346  28.785  24.943  1.00  0.00     0.065 A 
ATOM     75  C   UNL A   1      30.974  27.511  24.521  1.00  0.00     0.036 A 
ATOM     76  C   UNL A   1      30.786  29.931  24.359  1.00  0.00     0.065 A 
ATOM     77  C   UNL A   1      30.025  27.419  23.529  1.00  0.00     0.114 A 
ATOM     78  C   UNL A   1      29.819  29.730  23.377  1.00  0.00     0.157 A 
ATOM     79  N   UNL A   1      29.429  28.491  22.976  1.00  0.00    -0.237 NA
BRANCH  78  80
ATOM     80  N   UNL A   1      29.125  30.821  22.799  1.00  0.00    -0.182 N 
ATOM     81  C   UNL A   1      28.630  30.973  21.533  1.00  0.00     0.254 A 
ATOM     82  N   UNL A   1      28.724  31.883  23.536  1.00  0.00    -0.039 NA
ATOM     83  N   UNL A   1      28.010  32.127  21.446  1.00  0.00    -0.117 NA
ATOM     84  N   UNL A   1      28.091  32.687  22.693  1.00  0.00    -0.024 NA
ENDBRANCH  78  80
ENDBRANCH  72  74
ENDBRANCH  71  72
ENDBRANCH  70  71
ENDBRANCH   1  70
TORSDOF 15
ENDMDL
MODEL 3
REMARK VINA RESULT:     -11.6      4.097      5.204
REMARK SMILES O=C(OCCOC(=O)c1ccnc(-n2cnnn2)c1)c1ccc(-c2c3nc(c(-c4cc(S(=O)(=O)[O-])ccc4F)c4ccc([nH]4)c(-c4cc(S(=O)(=O)[O-])ccc4F)c4nc(c(-c5cc(S(=O)(=O)[O-])ccc5F)c5ccc2[nH]5)C=C4)C=C3)cc1
REMARK SMILES IDX 4 1 3 2 2 3 1 4 20 5 21 6 82 7 22 8 81 9 23 10 24 11 25 12
REMARK SMILES IDX 75 13 26 14 80 15 74 16 76 17 27 18 79 19 73 20 72 21 28 23
REMARK SMILES IDX 60 24 40 25 59 26 41 27 44 28 58 29 77 30 42 31 43 32 57 34
REMARK SMILES IDX 78 35 45 36 29 37 30 38 38 39 31 40 37 41 39 42 36 43 32 44
REMARK SMILES IDX 33 45 34 46 35 47 61 48 62 49 70 50 63 51 69 52 71 53 68 54
REMARK SMILES IDX 64 55 65 56 66 57 67 58 46 59 47 60 55 61 48 62 54 63 56 64
REMARK SMILES IDX 53 65 49 66 50 67 51 68 52 69 5 70 6 71 7 72 8 73 9 74 10 75
REMARK SMILES IDX 19 76 11 77 13 78 12 79 14 80 15 81 18 82 16 83 17 84
REMARK H PARENT 76 22 44 33
REMARK Flexibility Score: inf
ROOT
ATOM      1  C   UNL A   1      33.851  31.325  27.334  1.00  0.00     0.275 C 
ENDROOT
BRANCH   1   2
ATOM      2  O   UNL A   1      35.283  31.464  27.329  1.00  0.00    -0.458 OA
BRANCH   2   3
ATOM      3  C   UNL A   1      35.882  31.885  28.458  1.00  0.00     0.338 C 
ATOM      4  O   UNL A   1      35.426  32.748  29.192  1.00  0.00    -0.246 OA
BRANCH   3   5
ATOM      5  C   UNL A   1      37.098  31.110  28.796  1.00  0.00     0.060 A 
ATOM      6  C   UNL A   1      38.252  31.659  29.374  1.00  0.00     0.016 A 
ATOM      7  C   UNL A   1      37.026  29.738  28.556  1.00  0.00     0.016 A 
ATOM      8  C   UNL A   1      39.337  30.838  29.680  1.00  0.00     0.010 A 
ATOM      9  C   UNL A   1      38.098  28.928  28.874  1.00  0.00     0.010 A 
ATOM     10  C   UNL A   1      39.271  29.469  29.406  1.00  0.00    -0.014 A 
BRANCH  10  11
ATOM     11  C   UNL A   1      40.399  28.587  29.731  1.00  0.00     0.031 A 
ATOM     12  C   UNL A   1      40.711  28.426  31.185  1.00  0.00     0.074 A 
ATOM     13  C   UNL A   1      41.014  27.818  28.802  1.00  0.00     0.049 A 
ATOM     14  N   UNL A   1      41.769  28.806  31.820  1.00  0.00    -0.248 NA
ATOM     15  C   UNL A   1      39.678  27.874  32.073  1.00  0.00     0.031 C 
ATOM     16  C   UNL A   1      40.677  27.676  27.380  1.00  0.00     0.029 A 
ATOM     17  N   UNL A   1      42.019  26.909  28.954  1.00  0.00    -0.354 N 
ATOM     18  C   UNL A   1      41.654  28.309  33.119  1.00  0.00     0.074 A 
ATOM     19  C   UNL A   1      40.283  27.908  33.261  1.00  0.00     0.031 C 
ATOM     20  C   UNL A   1      41.285  26.584  26.869  1.00  0.00     0.029 A 
ATOM     21  C   UNL A   1      42.204  26.059  27.863  1.00  0.00     0.049 A 
ATOM     22  H   UNL A   1      42.572  26.858  29.768  1.00  0.00     0.167 HD
ATOM     23  C   UNL A   1      42.757  28.061  33.883  1.00  0.00     0.034 A 
ATOM     24  C   UNL A   1      43.060  25.006  27.752  1.00  0.00     0.034 A 
ATOM     25  C   UNL A   1      43.911  28.752  33.348  1.00  0.00     0.049 A 
ATOM     26  C   UNL A   1      44.142  25.244  28.735  1.00  0.00     0.074 A 
ATOM     27  C   UNL A   1      44.191  30.075  33.061  1.00  0.00     0.029 A 
ATOM     28  N   UNL A   1      44.842  28.022  32.642  1.00  0.00    -0.354 N 
ATOM     29  N   UNL A   1      44.967  26.251  28.648  1.00  0.00    -0.248 NA
ATOM     30  C   UNL A   1      43.998  24.673  30.065  1.00  0.00     0.031 C 
ATOM     31  C   UNL A   1      44.869  30.030  31.807  1.00  0.00     0.029 A 
ATOM     32  C   UNL A   1      45.064  28.691  31.464  1.00  0.00     0.049 A 
ATOM     33  H   UNL A   1      45.268  27.182  32.928  1.00  0.00     0.167 HD
ATOM     34  C   UNL A   1      45.093  26.721  29.945  1.00  0.00     0.074 A 
ATOM     35  C   UNL A   1      44.559  25.649  30.786  1.00  0.00     0.031 C 
ATOM     36  C   UNL A   1      45.354  28.038  30.201  1.00  0.00     0.034 A 
BRANCH  23  37
ATOM     37  C   UNL A   1      42.906  26.913  34.867  1.00  0.00     0.023 A 
ATOM     38  C   UNL A   1      43.688  25.819  34.446  1.00  0.00     0.031 A 
ATOM     39  C   UNL A   1      42.107  26.682  36.008  1.00  0.00     0.131 A 
ATOM     40  C   UNL A   1      43.534  24.547  35.024  1.00  0.00     0.055 A 
ATOM     41  C   UNL A   1      42.014  25.430  36.629  1.00  0.00     0.041 A 
ATOM     42  F   UNL A   1      41.313  27.617  36.539  1.00  0.00    -0.206 F 
ATOM     43  C   UNL A   1      42.693  24.342  36.111  1.00  0.00     0.022 A 
BRANCH  40  44
ATOM     44  S   UNL A   1      44.286  23.135  34.175  1.00  0.00     0.124 S 
ATOM     45  O   UNL A   1      43.351  22.934  33.072  1.00  0.00    -0.237 OA
ATOM     46  O   UNL A   1      45.598  23.664  33.820  1.00  0.00    -0.237 OA
ATOM     47  O   UNL A   1      44.287  22.088  35.193  1.00  0.00    -0.744 OA
ENDBRANCH  40  44
ENDBRANCH  23  37
BRANCH  24  48
ATOM     48  C   UNL A   1      42.830  23.702  27.066  1.00  0.00     0.023 A 
ATOM     49  C   UNL A   1      43.801  23.057  26.266  1.00  0.00     0.031 A 
ATOM     50  C   UNL A   1      41.692  22.939  27.412  1.00  0.00     0.131 A 
ATOM     51  C   UNL A   1      43.613  21.713  25.855  1.00  0.00     0.055 A 
ATOM     52  C   UNL A   1      41.515  21.612  27.010  1.00  0.00     0.041 A 
ATOM     53  F   UNL A   1      40.749  23.436  28.227  1.00  0.00    -0.206 F 
ATOM     54  C   UNL A   1      42.481  20.990  26.237  1.00  0.00     0.022 A 
BRANCH  51  55
ATOM     55  S   UNL A   1      44.886  20.845  24.876  1.00  0.00     0.124 S 
ATOM     56  O   UNL A   1      44.559  19.443  25.112  1.00  0.00    -0.237 OA
ATOM     57  O   UNL A   1      44.647  21.348  23.528  1.00  0.00    -0.237 OA
ATOM     58  O   UNL A   1      46.145  21.288  25.476  1.00  0.00    -0.744 OA
ENDBRANCH  51  55
ENDBRANCH  24  48
BRANCH  36  59
ATOM     59  C   UNL A   1      45.777  28.937  29.056  1.00  0.00     0.023 A 
ATOM     60  C   UNL A   1      44.922  29.819  28.353  1.00  0.00     0.031 A 
ATOM     61  C   UNL A   1      47.152  29.001  28.769  1.00  0.00     0.131 A 
ATOM     62  C   UNL A   1      45.458  30.713  27.404  1.00  0.00     0.055 A 
ATOM     63  C   UNL A   1      47.681  29.901  27.847  1.00  0.00     0.041 A 
ATOM     64  F   UNL A   1      48.021  28.212  29.425  1.00  0.00    -0.206 F 
ATOM     65  C   UNL A   1      46.835  30.759  27.156  1.00  0.00     0.022 A 
BRANCH  62  66
ATOM     66  S   UNL A   1      44.376  31.841  26.465  1.00  0.00     0.124 S 
ATOM     67  O   UNL A   1      43.291  30.978  26.013  1.00  0.00    -0.237 OA
ATOM     68  O   UNL A   1      44.019  32.846  27.464  1.00  0.00    -0.237 OA
ATOM     69  O   UNL A   1      45.245  32.336  25.396  1.00  0.00    -0.744 OA
ENDBRANCH  62  66
ENDBRANCH  36  59
ENDBRANCH  10  11
ENDBRANCH   3   5
ENDBRANCH   2   3
ENDBRANCH   1   2
BRANCH   1  70
ATOM     70  C   UNL A   1      33.271  29.910  27.230  1.00  0.00     0.275 C 
BRANCH  70  71
ATOM     71  O   UNL A   1      32.138  29.867  26.338  1.00  0.00    -0.458 OA
BRANCH  71  72
ATOM     72  C   UNL A   1      31.857  28.654  25.792  1.00  0.00     0.338 C 
ATOM     73  O   UNL A   1      32.313  27.572  26.100  1.00  0.00    -0.246 OA
BRANCH  72  74
ATOM     74  C   UNL A   1      30.974  28.843  24.625  1.00  0.00     0.065 A 
ATOM     75  C   UNL A   1      30.456  27.686  24.048  1.00  0.00     0.036 A 
ATOM     76  C   UNL A   1      30.537  30.111  24.217  1.00  0.00     0.065 A 
ATOM     77  C   UNL A   1      29.488  27.834  23.082  1.00  0.00     0.114 A 
ATOM     78  C   UNL A   1      29.538  30.152  23.247  1.00  0.00     0.157 A 
ATOM     79  N   UNL A   1      29.006  29.029  22.695  1.00  0.00    -0.237 NA
BRANCH  78  80
ATOM     80  N   UNL A   1      28.961  31.381  22.841  1.00  0.00    -0.182 N 
ATOM     81  C   UNL A   1      29.092  32.631  23.380  1.00  0.00     0.254 A 
ATOM     82  N   UNL A   1      28.255  31.492  21.693  1.00  0.00    -0.039 NA
ATOM     83  N   UNL A   1      28.422  33.491  22.648  1.00  0.00    -0.117 NA
ATOM     84  N   UNL A   1      27.895  32.765  21.613  1.00  0.00    -0.024 NA
ENDBRANCH  78  80
ENDBRANCH  72  74
ENDBRANCH  71  72
ENDBRANCH  70  71
ENDBRANCH   1  70
TORSDOF 15
ENDMDL
