MODEL 1
REMARK VINA RESULT:     -10.9      0.000      0.000
REMARK SMILES C/C=C/C[C@@H](C(=O)OCCOC(=O)c1ccc(-c2c3nc(c(-c4cc(S(=O)(=O)[O-])ccc4F)c4ccc([nH]4)c(-c4cc(S(=O)(=O)[O-])ccc4F)c4nc(c(-c5cc(S(=O)(=O)[O-])ccc5F)c5ccc2[nH]5)C=C4)C=C3)cc1)c1cccc(Cl)c1
REMARK SMILES IDX 10 1 9 2 8 3 6 4 7 5 5 6 4 7 3 8 1 9 2 10 77 11 78 12 83 13
REMARK SMILES IDX 79 14 81 15 80 16 82 17 11 18 12 19 13 20 14 21 15 22 76 23
REMARK SMILES IDX 16 24 75 25 17 26 18 27 19 28 69 29 20 30 74 31 68 32 70 33
REMARK SMILES IDX 21 34 73 35 67 36 66 37 22 39 54 40 34 41 53 42 35 43 38 44
REMARK SMILES IDX 52 45 71 46 36 47 37 48 51 50 72 51 39 52 23 53 24 54 32 55
REMARK SMILES IDX 25 56 31 57 33 58 30 59 26 60 27 61 28 62 29 63 55 64 56 65
REMARK SMILES IDX 64 66 57 67 63 68 65 69 62 70 58 71 59 72 60 73 61 74 40 75
REMARK SMILES IDX 41 76 49 77 42 78 48 79 50 80 47 81 43 82 44 83 45 84 46 85
REMARK H PARENT 70 38 38 49
REMARK Flexibility Score: inf
ROOT
ATOM      1  C   UNL A   1      36.249  21.018  25.285  1.00  0.00     0.275 C 
ENDROOT
BRANCH   1   2
ATOM      2  C   UNL A   1      35.356  22.015  26.014  1.00  0.00     0.274 C 
BRANCH   2   3
ATOM      3  O   UNL A   1      35.300  23.245  25.265  1.00  0.00    -0.462 OA
BRANCH   3   4
ATOM      4  C   UNL A   1      34.463  23.295  24.194  1.00  0.00     0.313 C 
ATOM      5  O   UNL A   1      34.802  23.702  23.086  1.00  0.00    -0.252 OA
BRANCH   4   6
ATOM      6  C   UNL A   1      33.034  22.836  24.521  1.00  0.00     0.133 C 
BRANCH   6   7
ATOM      7  C   UNL A   1      32.505  21.684  23.635  1.00  0.00     0.047 C 
BRANCH   7   8
ATOM      8  C   UNL A   1      32.356  20.361  24.344  1.00  0.00    -0.030 C 
ATOM      9  C   UNL A   1      32.483  17.874  24.509  1.00  0.00     0.035 C 
ATOM     10  C   UNL A   1      32.577  19.169  23.771  1.00  0.00    -0.035 C 
ENDBRANCH   7   8
ENDBRANCH   6   7
BRANCH   6  11
ATOM     11  C   UNL A   1      32.068  24.026  24.584  1.00  0.00    -0.032 A 
ATOM     12  C   UNL A   1      31.033  24.130  23.636  1.00  0.00     0.005 A 
ATOM     13  C   UNL A   1      32.158  25.027  25.567  1.00  0.00     0.025 A 
ATOM     14  C   UNL A   1      30.133  25.200  23.659  1.00  0.00     0.002 A 
ATOM     15  C   UNL A   1      31.264  26.103  25.577  1.00  0.00     0.041 A 
ATOM     16  C   UNL A   1      30.253  26.194  24.627  1.00  0.00     0.020 A 
ATOM     17  Cl  UNL A   1      31.403  27.308  26.796  1.00  0.00    -0.084 Cl
ENDBRANCH   6  11
ENDBRANCH   4   6
ENDBRANCH   3   4
ENDBRANCH   2   3
ENDBRANCH   1   2
BRANCH   1  18
ATOM     18  O   UNL A   1      37.499  21.658  24.984  1.00  0.00    -0.458 OA
BRANCH  18  19
ATOM     19  C   UNL A   1      38.562  21.235  25.706  1.00  0.00     0.338 C 
ATOM     20  O   UNL A   1      38.986  20.098  25.813  1.00  0.00    -0.246 OA
BRANCH  19  21
ATOM     21  C   UNL A   1      39.193  22.406  26.331  1.00  0.00     0.060 A 
ATOM     22  C   UNL A   1      38.708  23.676  26.026  1.00  0.00     0.016 A 
ATOM     23  C   UNL A   1      40.321  22.253  27.133  1.00  0.00     0.016 A 
ATOM     24  C   UNL A   1      39.409  24.801  26.452  1.00  0.00     0.010 A 
ATOM     25  C   UNL A   1      40.968  23.389  27.633  1.00  0.00     0.010 A 
ATOM     26  C   UNL A   1      40.544  24.680  27.265  1.00  0.00    -0.014 A 
BRANCH  26  27
ATOM     27  C   UNL A   1      41.312  25.893  27.675  1.00  0.00     0.031 A 
ATOM     28  C   UNL A   1      40.676  26.931  28.567  1.00  0.00     0.074 A 
ATOM     29  C   UNL A   1      42.592  26.061  27.281  1.00  0.00     0.049 A 
ATOM     30  N   UNL A   1      41.106  28.125  28.890  1.00  0.00    -0.248 NA
ATOM     31  C   UNL A   1      39.375  26.585  29.159  1.00  0.00     0.031 C 
ATOM     32  C   UNL A   1      43.359  25.118  26.462  1.00  0.00     0.029 A 
ATOM     33  N   UNL A   1      43.482  27.080  27.524  1.00  0.00    -0.354 N 
ATOM     34  C   UNL A   1      40.107  28.691  29.678  1.00  0.00     0.074 A 
ATOM     35  C   UNL A   1      39.047  27.711  29.777  1.00  0.00     0.031 C 
ATOM     36  C   UNL A   1      44.610  25.577  26.314  1.00  0.00     0.029 A 
ATOM     37  C   UNL A   1      44.711  26.892  26.935  1.00  0.00     0.049 A 
ATOM     38  H   UNL A   1      43.260  27.870  28.068  1.00  0.00     0.167 HD
ATOM     39  C   UNL A   1      40.076  29.917  30.260  1.00  0.00     0.034 A 
ATOM     40  C   UNL A   1      45.786  27.702  26.855  1.00  0.00     0.034 A 
ATOM     41  C   UNL A   1      41.158  30.870  30.194  1.00  0.00     0.049 A 
ATOM     42  C   UNL A   1      45.712  29.074  27.467  1.00  0.00     0.074 A 
ATOM     43  C   UNL A   1      41.232  32.133  30.756  1.00  0.00     0.029 A 
ATOM     44  N   UNL A   1      42.361  30.662  29.533  1.00  0.00    -0.354 N 
ATOM     45  N   UNL A   1      44.725  29.630  28.129  1.00  0.00    -0.248 NA
ATOM     46  C   UNL A   1      46.888  29.936  27.298  1.00  0.00     0.031 C 
ATOM     47  C   UNL A   1      42.455  32.708  30.392  1.00  0.00     0.029 A 
ATOM     48  C   UNL A   1      43.173  31.781  29.653  1.00  0.00     0.049 A 
ATOM     49  H   UNL A   1      42.604  29.840  29.050  1.00  0.00     0.167 HD
ATOM     50  C   UNL A   1      45.160  30.912  28.449  1.00  0.00     0.074 A 
ATOM     51  C   UNL A   1      46.509  31.034  27.936  1.00  0.00     0.031 C 
ATOM     52  C   UNL A   1      44.501  31.901  29.104  1.00  0.00     0.034 A 
BRANCH  39  53
ATOM     53  C   UNL A   1      38.799  30.320  30.958  1.00  0.00     0.023 A 
ATOM     54  C   UNL A   1      37.760  30.998  30.297  1.00  0.00     0.031 A 
ATOM     55  C   UNL A   1      38.635  30.036  32.327  1.00  0.00     0.131 A 
ATOM     56  C   UNL A   1      36.631  31.420  31.018  1.00  0.00     0.055 A 
ATOM     57  C   UNL A   1      37.481  30.399  33.023  1.00  0.00     0.041 A 
ATOM     58  F   UNL A   1      39.603  29.410  33.015  1.00  0.00    -0.206 F 
ATOM     59  C   UNL A   1      36.475  31.106  32.371  1.00  0.00     0.022 A 
BRANCH  56  60
ATOM     60  S   UNL A   1      35.417  32.488  30.195  1.00  0.00     0.124 S 
ATOM     61  O   UNL A   1      36.173  33.729  30.038  1.00  0.00    -0.237 OA
ATOM     62  O   UNL A   1      35.130  31.753  28.969  1.00  0.00    -0.237 OA
ATOM     63  O   UNL A   1      34.316  32.558  31.153  1.00  0.00    -0.744 OA
ENDBRANCH  56  60
ENDBRANCH  39  53
BRANCH  40  64
ATOM     64  C   UNL A   1      46.991  27.273  26.091  1.00  0.00     0.023 A 
ATOM     65  C   UNL A   1      47.171  27.640  24.748  1.00  0.00     0.031 A 
ATOM     66  C   UNL A   1      47.974  26.465  26.693  1.00  0.00     0.131 A 
ATOM     67  C   UNL A   1      48.297  27.182  24.045  1.00  0.00     0.055 A 
ATOM     68  C   UNL A   1      49.114  26.053  26.004  1.00  0.00     0.041 A 
ATOM     69  F   UNL A   1      47.846  26.084  27.974  1.00  0.00    -0.206 F 
ATOM     70  C   UNL A   1      49.277  26.405  24.669  1.00  0.00     0.022 A 
BRANCH  67  71
ATOM     71  S   UNL A   1      48.438  27.568  22.279  1.00  0.00     0.124 S 
ATOM     72  O   UNL A   1      47.144  28.182  22.003  1.00  0.00    -0.237 OA
ATOM     73  O   UNL A   1      49.590  28.463  22.255  1.00  0.00    -0.237 OA
ATOM     74  O   UNL A   1      48.654  26.262  21.660  1.00  0.00    -0.744 OA
ENDBRANCH  67  71
ENDBRANCH  40  64
BRANCH  52  75
ATOM     75  C   UNL A   1      45.252  33.192  29.305  1.00  0.00     0.023 A 
ATOM     76  C   UNL A   1      45.235  34.207  28.332  1.00  0.00     0.031 A 
ATOM     77  C   UNL A   1      46.019  33.395  30.464  1.00  0.00     0.131 A 
ATOM     78  C   UNL A   1      46.012  35.360  28.512  1.00  0.00     0.055 A 
ATOM     79  C   UNL A   1      46.753  34.566  30.661  1.00  0.00     0.041 A 
ATOM     80  F   UNL A   1      46.071  32.456  31.422  1.00  0.00    -0.206 F 
ATOM     81  C   UNL A   1      46.762  35.551  29.676  1.00  0.00     0.022 A 
BRANCH  78  82
ATOM     82  S   UNL A   1      46.102  36.573  27.166  1.00  0.00     0.124 S 
ATOM     83  O   UNL A   1      44.981  37.454  27.476  1.00  0.00    -0.237 OA
ATOM     84  O   UNL A   1      47.431  37.145  27.349  1.00  0.00    -0.237 OA
ATOM     85  O   UNL A   1      45.938  35.762  25.962  1.00  0.00    -0.744 OA
ENDBRANCH  78  82
ENDBRANCH  52  75
ENDBRANCH  26  27
ENDBRANCH  19  21
ENDBRANCH  18  19
ENDBRANCH   1  18
TORSDOF 17
ENDMDL
MODEL 2
REMARK VINA RESULT:     -10.9      5.292     10.030
REMARK SMILES C/C=C/C[C@@H](C(=O)OCCOC(=O)c1ccc(-c2c3nc(c(-c4cc(S(=O)(=O)[O-])ccc4F)c4ccc([nH]4)c(-c4cc(S(=O)(=O)[O-])ccc4F)c4nc(c(-c5cc(S(=O)(=O)[O-])ccc5F)c5ccc2[nH]5)C=C4)C=C3)cc1)c1cccc(Cl)c1
REMARK SMILES IDX 10 1 9 2 8 3 6 4 7 5 5 6 4 7 3 8 1 9 2 10 77 11 78 12 83 13
REMARK SMILES IDX 79 14 81 15 80 16 82 17 11 18 12 19 13 20 14 21 15 22 76 23
REMARK SMILES IDX 16 24 75 25 17 26 18 27 19 28 69 29 20 30 74 31 68 32 70 33
REMARK SMILES IDX 21 34 73 35 67 36 66 37 22 39 54 40 34 41 53 42 35 43 38 44
REMARK SMILES IDX 52 45 71 46 36 47 37 48 51 50 72 51 39 52 23 53 24 54 32 55
REMARK SMILES IDX 25 56 31 57 33 58 30 59 26 60 27 61 28 62 29 63 55 64 56 65
REMARK SMILES IDX 64 66 57 67 63 68 65 69 62 70 58 71 59 72 60 73 61 74 40 75
REMARK SMILES IDX 41 76 49 77 42 78 48 79 50 80 47 81 43 82 44 83 45 84 46 85
REMARK H PARENT 70 38 38 49
REMARK Flexibility Score: inf
ROOT
ATOM      1  C   UNL A   1      31.875  30.041  26.405  1.00  0.00     0.275 C 
ENDROOT
BRANCH   1   2
ATOM      2  C   UNL A   1      31.781  28.685  27.095  1.00  0.00     0.274 C 
BRANCH   2   3
ATOM      3  O   UNL A   1      32.497  27.703  26.320  1.00  0.00    -0.462 OA
BRANCH   3   4
ATOM      4  C   UNL A   1      31.849  26.548  26.011  1.00  0.00     0.313 C 
ATOM      5  O   UNL A   1      31.472  25.735  26.850  1.00  0.00    -0.252 OA
BRANCH   4   6
ATOM      6  C   UNL A   1      31.678  26.336  24.498  1.00  0.00     0.133 C 
BRANCH   6   7
ATOM      7  C   UNL A   1      32.941  26.635  23.655  1.00  0.00     0.047 C 
BRANCH   7   8
ATOM      8  C   UNL A   1      33.975  25.537  23.662  1.00  0.00    -0.030 C 
ATOM      9  C   UNL A   1      34.738  23.168  23.471  1.00  0.00     0.035 C 
ATOM     10  C   UNL A   1      33.692  24.234  23.523  1.00  0.00    -0.035 C 
ENDBRANCH   7   8
ENDBRANCH   6   7
BRANCH   6  11
ATOM     11  C   UNL A   1      30.431  27.060  23.973  1.00  0.00    -0.032 A 
ATOM     12  C   UNL A   1      29.166  26.466  24.133  1.00  0.00     0.005 A 
ATOM     13  C   UNL A   1      30.491  28.316  23.342  1.00  0.00     0.025 A 
ATOM     14  C   UNL A   1      28.006  27.094  23.668  1.00  0.00     0.002 A 
ATOM     15  C   UNL A   1      29.329  28.933  22.866  1.00  0.00     0.041 A 
ATOM     16  C   UNL A   1      28.087  28.327  23.026  1.00  0.00     0.020 A 
ATOM     17  Cl  UNL A   1      29.439  30.469  22.102  1.00  0.00    -0.084 Cl
ENDBRANCH   6  11
ENDBRANCH   4   6
ENDBRANCH   3   4
ENDBRANCH   2   3
ENDBRANCH   1   2
BRANCH   1  18
ATOM     18  O   UNL A   1      33.258  30.425  26.338  1.00  0.00    -0.458 OA
BRANCH  18  19
ATOM     19  C   UNL A   1      33.654  31.352  27.239  1.00  0.00     0.338 C 
ATOM     20  O   UNL A   1      33.024  32.312  27.647  1.00  0.00    -0.246 OA
BRANCH  19  21
ATOM     21  C   UNL A   1      34.995  30.990  27.717  1.00  0.00     0.060 A 
ATOM     22  C   UNL A   1      35.263  29.660  28.031  1.00  0.00     0.016 A 
ATOM     23  C   UNL A   1      35.950  31.978  27.949  1.00  0.00     0.016 A 
ATOM     24  C   UNL A   1      36.458  29.329  28.664  1.00  0.00     0.010 A 
ATOM     25  C   UNL A   1      37.185  31.623  28.503  1.00  0.00     0.010 A 
ATOM     26  C   UNL A   1      37.440  30.299  28.906  1.00  0.00    -0.014 A 
BRANCH  26  27
ATOM     27  C   UNL A   1      38.697  29.938  29.628  1.00  0.00     0.031 A 
ATOM     28  C   UNL A   1      39.682  28.979  29.007  1.00  0.00     0.074 A 
ATOM     29  C   UNL A   1      38.980  30.487  30.828  1.00  0.00     0.049 A 
ATOM     30  N   UNL A   1      40.734  28.408  29.538  1.00  0.00    -0.248 NA
ATOM     31  C   UNL A   1      39.442  28.601  27.607  1.00  0.00     0.031 C 
ATOM     32  C   UNL A   1      38.151  31.470  31.530  1.00  0.00     0.029 A 
ATOM     33  N   UNL A   1      40.053  30.307  31.668  1.00  0.00    -0.354 N 
ATOM     34  C   UNL A   1      41.249  27.565  28.558  1.00  0.00     0.074 A 
ATOM     35  C   UNL A   1      40.388  27.695  27.401  1.00  0.00     0.031 C 
ATOM     36  C   UNL A   1      38.765  31.840  32.663  1.00  0.00     0.029 A 
ATOM     37  C   UNL A   1      39.980  31.050  32.824  1.00  0.00     0.049 A 
ATOM     38  H   UNL A   1      40.803  29.704  31.462  1.00  0.00     0.167 HD
ATOM     39  C   UNL A   1      42.335  26.754  28.618  1.00  0.00     0.034 A 
ATOM     40  C   UNL A   1      40.768  31.063  33.917  1.00  0.00     0.034 A 
ATOM     41  C   UNL A   1      43.214  26.666  29.760  1.00  0.00     0.049 A 
ATOM     42  C   UNL A   1      41.940  30.121  33.983  1.00  0.00     0.074 A 
ATOM     43  C   UNL A   1      44.346  25.885  29.920  1.00  0.00     0.029 A 
ATOM     44  N   UNL A   1      43.066  27.390  30.935  1.00  0.00    -0.354 N 
ATOM     45  N   UNL A   1      42.359  29.263  33.084  1.00  0.00    -0.248 NA
ATOM     46  C   UNL A   1      42.728  30.134  35.221  1.00  0.00     0.031 C 
ATOM     47  C   UNL A   1      44.851  26.097  31.209  1.00  0.00     0.029 A 
ATOM     48  C   UNL A   1      44.071  27.057  31.832  1.00  0.00     0.049 A 
ATOM     49  H   UNL A   1      42.352  28.045  31.107  1.00  0.00     0.167 HD
ATOM     50  C   UNL A   1      43.458  28.627  33.653  1.00  0.00     0.074 A 
ATOM     51  C   UNL A   1      43.655  29.224  34.958  1.00  0.00     0.031 C 
ATOM     52  C   UNL A   1      44.232  27.635  33.144  1.00  0.00     0.034 A 
BRANCH  39  53
ATOM     53  C   UNL A   1      42.589  25.844  27.439  1.00  0.00     0.023 A 
ATOM     54  C   UNL A   1      42.089  24.532  27.378  1.00  0.00     0.031 A 
ATOM     55  C   UNL A   1      43.371  26.303  26.363  1.00  0.00     0.131 A 
ATOM     56  C   UNL A   1      42.426  23.706  26.293  1.00  0.00     0.055 A 
ATOM     57  C   UNL A   1      43.648  25.499  25.256  1.00  0.00     0.041 A 
ATOM     58  F   UNL A   1      43.893  27.541  26.376  1.00  0.00    -0.206 F 
ATOM     59  C   UNL A   1      43.183  24.188  25.222  1.00  0.00     0.022 A 
BRANCH  56  60
ATOM     60  S   UNL A   1      41.960  21.953  26.352  1.00  0.00     0.124 S 
ATOM     61  O   UNL A   1      40.527  22.018  26.075  1.00  0.00    -0.237 OA
ATOM     62  O   UNL A   1      42.790  21.371  25.304  1.00  0.00    -0.237 OA
ATOM     63  O   UNL A   1      42.305  21.553  27.715  1.00  0.00    -0.744 OA
ENDBRANCH  56  60
ENDBRANCH  39  53
BRANCH  40  64
ATOM     64  C   UNL A   1      40.425  31.932  35.078  1.00  0.00     0.023 A 
ATOM     65  C   UNL A   1      39.411  31.574  35.981  1.00  0.00     0.031 A 
ATOM     66  C   UNL A   1      41.095  33.152  35.286  1.00  0.00     0.131 A 
ATOM     67  C   UNL A   1      39.082  32.438  37.038  1.00  0.00     0.055 A 
ATOM     68  C   UNL A   1      40.798  33.982  36.365  1.00  0.00     0.041 A 
ATOM     69  F   UNL A   1      42.070  33.541  34.448  1.00  0.00    -0.206 F 
ATOM     70  C   UNL A   1      39.780  33.631  37.245  1.00  0.00     0.022 A 
BRANCH  67  71
ATOM     71  S   UNL A   1      37.686  32.009  38.113  1.00  0.00     0.124 S 
ATOM     72  O   UNL A   1      38.257  32.211  39.439  1.00  0.00    -0.237 OA
ATOM     73  O   UNL A   1      36.674  32.974  37.696  1.00  0.00    -0.237 OA
ATOM     74  O   UNL A   1      37.399  30.619  37.761  1.00  0.00    -0.744 OA
ENDBRANCH  67  71
ENDBRANCH  40  64
BRANCH  52  75
ATOM     75  C   UNL A   1      45.366  27.154  34.012  1.00  0.00     0.023 A 
ATOM     76  C   UNL A   1      45.222  26.036  34.852  1.00  0.00     0.031 A 
ATOM     77  C   UNL A   1      46.592  27.840  34.023  1.00  0.00     0.131 A 
ATOM     78  C   UNL A   1      46.269  25.666  35.708  1.00  0.00     0.055 A 
ATOM     79  C   UNL A   1      47.648  27.439  34.842  1.00  0.00     0.041 A 
ATOM     80  F   UNL A   1      46.780  28.916  33.242  1.00  0.00    -0.206 F 
ATOM     81  C   UNL A   1      47.486  26.354  35.700  1.00  0.00     0.022 A 
BRANCH  78  82
ATOM     82  S   UNL A   1      45.992  24.326  36.899  1.00  0.00     0.124 S 
ATOM     83  O   UNL A   1      47.042  23.379  36.539  1.00  0.00    -0.237 OA
ATOM     84  O   UNL A   1      46.159  25.006  38.179  1.00  0.00    -0.237 OA
ATOM     85  O   UNL A   1      44.631  23.883  36.607  1.00  0.00    -0.744 OA
ENDBRANCH  78  82
ENDBRANCH  52  75
ENDBRANCH  26  27
ENDBRANCH  19  21
ENDBRANCH  18  19
ENDBRANCH   1  18
TORSDOF 17
ENDMDL
MODEL 3
REMARK VINA RESULT:     -10.8      5.307     10.262
REMARK SMILES C/C=C/C[C@@H](C(=O)OCCOC(=O)c1ccc(-c2c3nc(c(-c4cc(S(=O)(=O)[O-])ccc4F)c4ccc([nH]4)c(-c4cc(S(=O)(=O)[O-])ccc4F)c4nc(c(-c5cc(S(=O)(=O)[O-])ccc5F)c5ccc2[nH]5)C=C4)C=C3)cc1)c1cccc(Cl)c1
REMARK SMILES IDX 10 1 9 2 8 3 6 4 7 5 5 6 4 7 3 8 1 9 2 10 77 11 78 12 83 13
REMARK SMILES IDX 79 14 81 15 80 16 82 17 11 18 12 19 13 20 14 21 15 22 76 23
REMARK SMILES IDX 16 24 75 25 17 26 18 27 19 28 69 29 20 30 74 31 68 32 70 33
REMARK SMILES IDX 21 34 73 35 67 36 66 37 22 39 54 40 34 41 53 42 35 43 38 44
REMARK SMILES IDX 52 45 71 46 36 47 37 48 51 50 72 51 39 52 23 53 24 54 32 55
REMARK SMILES IDX 25 56 31 57 33 58 30 59 26 60 27 61 28 62 29 63 55 64 56 65
REMARK SMILES IDX 64 66 57 67 63 68 65 69 62 70 58 71 59 72 60 73 61 74 40 75
REMARK SMILES IDX 41 76 49 77 42 78 48 79 50 80 47 81 43 82 44 83 45 84 46 85
REMARK H PARENT 70 38 38 49
REMARK Flexibility Score: inf
ROOT
ATOM      1  C   UNL A   1      31.812  30.013  26.612  1.00  0.00     0.275 C 
ENDROOT
BRANCH   1   2
ATOM      2  C   UNL A   1      31.806  28.629  27.251  1.00  0.00     0.274 C 
BRANCH   2   3
ATOM      3  O   UNL A   1      32.140  27.641  26.257  1.00  0.00    -0.462 OA
BRANCH   3   4
ATOM      4  C   UNL A   1      31.208  26.691  25.973  1.00  0.00     0.313 C 
ATOM      5  O   UNL A   1      30.615  26.044  26.831  1.00  0.00    -0.252 OA
BRANCH   4   6
ATOM      6  C   UNL A   1      31.007  26.473  24.465  1.00  0.00     0.133 C 
BRANCH   6   7
ATOM      7  C   UNL A   1      29.539  26.567  23.987  1.00  0.00     0.047 C 
BRANCH   7   8
ATOM      8  C   UNL A   1      29.223  27.790  23.163  1.00  0.00    -0.030 C 
ATOM      9  C   UNL A   1      29.794  29.921  21.995  1.00  0.00     0.035 C 
ATOM     10  C   UNL A   1      30.112  28.748  22.864  1.00  0.00    -0.035 C 
ENDBRANCH   7   8
ENDBRANCH   6   7
BRANCH   6  11
ATOM     11  C   UNL A   1      31.702  25.190  23.991  1.00  0.00    -0.032 A 
ATOM     12  C   UNL A   1      30.933  24.146  23.444  1.00  0.00     0.005 A 
ATOM     13  C   UNL A   1      33.095  25.008  24.065  1.00  0.00     0.025 A 
ATOM     14  C   UNL A   1      31.530  22.961  23.002  1.00  0.00     0.002 A 
ATOM     15  C   UNL A   1      33.684  23.815  23.634  1.00  0.00     0.041 A 
ATOM     16  C   UNL A   1      32.908  22.791  23.103  1.00  0.00     0.020 A 
ATOM     17  Cl  UNL A   1      35.391  23.629  23.737  1.00  0.00    -0.084 Cl
ENDBRANCH   6  11
ENDBRANCH   4   6
ENDBRANCH   3   4
ENDBRANCH   2   3
ENDBRANCH   1   2
BRANCH   1  18
ATOM     18  O   UNL A   1      33.175  30.431  26.439  1.00  0.00    -0.458 OA
BRANCH  18  19
ATOM     19  C   UNL A   1      33.587  31.435  27.246  1.00  0.00     0.338 C 
ATOM     20  O   UNL A   1      32.975  32.443  27.554  1.00  0.00    -0.246 OA
BRANCH  19  21
ATOM     21  C   UNL A   1      34.919  31.096  27.765  1.00  0.00     0.060 A 
ATOM     22  C   UNL A   1      35.197  29.772  28.097  1.00  0.00     0.016 A 
ATOM     23  C   UNL A   1      35.852  32.099  28.017  1.00  0.00     0.016 A 
ATOM     24  C   UNL A   1      36.377  29.463  28.766  1.00  0.00     0.010 A 
ATOM     25  C   UNL A   1      37.076  31.766  28.609  1.00  0.00     0.010 A 
ATOM     26  C   UNL A   1      37.338  30.448  29.029  1.00  0.00    -0.014 A 
BRANCH  26  27
ATOM     27  C   UNL A   1      38.579  30.111  29.789  1.00  0.00     0.031 A 
ATOM     28  C   UNL A   1      39.611  29.189  29.189  1.00  0.00     0.074 A 
ATOM     29  C   UNL A   1      38.805  30.649  31.006  1.00  0.00     0.049 A 
ATOM     30  N   UNL A   1      40.659  28.639  29.749  1.00  0.00    -0.248 NA
ATOM     31  C   UNL A   1      39.431  28.826  27.776  1.00  0.00     0.031 C 
ATOM     32  C   UNL A   1      37.925  31.597  31.693  1.00  0.00     0.029 A 
ATOM     33  N   UNL A   1      39.853  30.485  31.881  1.00  0.00    -0.354 N 
ATOM     34  C   UNL A   1      41.232  27.825  28.775  1.00  0.00     0.074 A 
ATOM     35  C   UNL A   1      40.408  27.949  27.591  1.00  0.00     0.031 C 
ATOM     36  C   UNL A   1      38.489  31.967  32.852  1.00  0.00     0.029 A 
ATOM     37  C   UNL A   1      39.719  31.208  33.044  1.00  0.00     0.049 A 
ATOM     38  H   UNL A   1      40.626  29.905  31.692  1.00  0.00     0.167 HD
ATOM     39  C   UNL A   1      42.337  27.043  28.862  1.00  0.00     0.034 A 
ATOM     40  C   UNL A   1      40.468  31.225  34.165  1.00  0.00     0.034 A 
ATOM     41  C   UNL A   1      43.178  26.961  30.032  1.00  0.00     0.049 A 
ATOM     42  C   UNL A   1      41.663  30.315  34.257  1.00  0.00     0.074 A 
ATOM     43  C   UNL A   1      44.325  26.209  30.221  1.00  0.00     0.029 A 
ATOM     44  N   UNL A   1      42.969  27.663  31.212  1.00  0.00    -0.354 N 
ATOM     45  N   UNL A   1      42.136  29.482  33.362  1.00  0.00    -0.248 NA
ATOM     46  C   UNL A   1      42.406  30.330  35.523  1.00  0.00     0.031 C 
ATOM     47  C   UNL A   1      44.779  26.415  31.529  1.00  0.00     0.029 A 
ATOM     48  C   UNL A   1      43.951  27.344  32.139  1.00  0.00     0.049 A 
ATOM     49  H   UNL A   1      42.232  28.296  31.368  1.00  0.00     0.167 HD
ATOM     50  C   UNL A   1      43.232  28.867  33.959  1.00  0.00     0.074 A 
ATOM     51  C   UNL A   1      43.367  29.450  35.279  1.00  0.00     0.031 C 
ATOM     52  C   UNL A   1      44.050  27.905  33.464  1.00  0.00     0.034 A 
BRANCH  39  53
ATOM     53  C   UNL A   1      42.656  26.159  27.679  1.00  0.00     0.023 A 
ATOM     54  C   UNL A   1      42.120  24.868  27.536  1.00  0.00     0.031 A 
ATOM     55  C   UNL A   1      43.540  26.621  26.685  1.00  0.00     0.131 A 
ATOM     56  C   UNL A   1      42.517  24.062  26.457  1.00  0.00     0.055 A 
ATOM     57  C   UNL A   1      43.879  25.839  25.579  1.00  0.00     0.041 A 
ATOM     58  F   UNL A   1      44.099  27.838  26.779  1.00  0.00    -0.206 F 
ATOM     59  C   UNL A   1      43.376  24.546  25.467  1.00  0.00     0.022 A 
BRANCH  56  60
ATOM     60  S   UNL A   1      41.990  22.326  26.422  1.00  0.00     0.124 S 
ATOM     61  O   UNL A   1      40.540  22.454  26.542  1.00  0.00    -0.237 OA
ATOM     62  O   UNL A   1      42.490  21.870  25.130  1.00  0.00    -0.237 OA
ATOM     63  O   UNL A   1      42.653  21.743  27.588  1.00  0.00    -0.744 OA
ENDBRANCH  56  60
ENDBRANCH  39  53
BRANCH  40  64
ATOM     64  C   UNL A   1      40.060  32.067  35.325  1.00  0.00     0.023 A 
ATOM     65  C   UNL A   1      39.129  31.604  36.268  1.00  0.00     0.031 A 
ATOM     66  C   UNL A   1      40.584  33.362  35.493  1.00  0.00     0.131 A 
ATOM     67  C   UNL A   1      38.733  32.440  37.325  1.00  0.00     0.055 A 
ATOM     68  C   UNL A   1      40.224  34.169  36.571  1.00  0.00     0.041 A 
ATOM     69  F   UNL A   1      41.475  33.851  34.616  1.00  0.00    -0.206 F 
ATOM     70  C   UNL A   1      39.287  33.713  37.491  1.00  0.00     0.022 A 
BRANCH  67  71
ATOM     71  S   UNL A   1      37.437  31.864  38.454  1.00  0.00     0.124 S 
ATOM     72  O   UNL A   1      38.088  32.001  39.752  1.00  0.00    -0.237 OA
ATOM     73  O   UNL A   1      36.354  32.802  38.178  1.00  0.00    -0.237 OA
ATOM     74  O   UNL A   1      37.192  30.490  38.020  1.00  0.00    -0.744 OA
ENDBRANCH  67  71
ENDBRANCH  40  64
BRANCH  52  75
ATOM     75  C   UNL A   1      45.167  27.442  34.363  1.00  0.00     0.023 A 
ATOM     76  C   UNL A   1      44.976  26.402  35.290  1.00  0.00     0.031 A 
ATOM     77  C   UNL A   1      46.423  28.069  34.317  1.00  0.00     0.131 A 
ATOM     78  C   UNL A   1      46.010  26.053  36.170  1.00  0.00     0.055 A 
ATOM     79  C   UNL A   1      47.465  27.685  35.162  1.00  0.00     0.041 A 
ATOM     80  F   UNL A   1      46.656  29.069  33.452  1.00  0.00    -0.206 F 
ATOM     81  C   UNL A   1      47.258  26.680  36.104  1.00  0.00     0.022 A 
BRANCH  78  82
ATOM     82  S   UNL A   1      45.679  24.826  37.465  1.00  0.00     0.124 S 
ATOM     83  O   UNL A   1      45.527  23.599  36.689  1.00  0.00    -0.237 OA
ATOM     84  O   UNL A   1      46.879  24.912  38.291  1.00  0.00    -0.237 OA
ATOM     85  O   UNL A   1      44.456  25.315  38.097  1.00  0.00    -0.744 OA
ENDBRANCH  78  82
ENDBRANCH  52  75
ENDBRANCH  26  27
ENDBRANCH  19  21
ENDBRANCH  18  19
ENDBRANCH   1  18
TORSDOF 17
ENDMDL
