MODEL 1
REMARK VINA RESULT:     -10.5      0.000      0.000
REMARK SMILES O=C(N[C@@H](Cc1ccccc1)C(=O)N[C@@H](CS)C(=O)N[C@@H](CO)C(=O)OCCOC(=O)c1ccc(-c2c3nc(c(-c4cc(S(=O)(=O)[O-])ccc4F)c4ccc([nH]4)c(-c4cc(S(=O)(=O)[O-])ccc4F)c4nc(c(-c5cc(S(=O)(=O)[O-])ccc5F)c5ccc2[nH]5)C=C4)C=C3)cc1)c1ccc(F)cc1
REMARK SMILES IDX 26 1 24 2 25 3 21 4 20 5 18 6 19 7 15 9 14 10 12 11 13 12
REMARK SMILES IDX 4 14 3 15 1 16 2 17 95 19 96 20 101 21 97 22 100 23 98 24
REMARK SMILES IDX 99 25 5 26 6 27 7 28 11 29 8 30 10 31 9 32 16 33 17 34 22 36
REMARK SMILES IDX 23 37 27 39 28 40 29 41 30 42 31 43 32 44 33 45 94 46 34 47
REMARK SMILES IDX 93 48 35 49 36 50 37 51 87 52 38 53 92 54 86 55 88 56 39 57
REMARK SMILES IDX 91 58 85 59 84 60 40 62 72 63 52 64 71 65 53 66 56 67 70 68
REMARK SMILES IDX 89 69 54 70 55 71 69 73 90 74 57 75 41 76 42 77 50 78 43 79
REMARK SMILES IDX 49 80 51 81 48 82 44 83 45 84 46 85 47 86 73 87 74 88 82 89
REMARK SMILES IDX 75 90 81 91 83 92 80 93 76 94 77 95 78 96 79 97 58 98 59 99
REMARK SMILES IDX 67 100 60 101 66 102 68 103 65 104 61 105 62 106 63 107
REMARK SMILES IDX 64 108
REMARK H PARENT 20 8 14 13 3 18 17 35 23 38 88 61 56 72
REMARK Flexibility Score: inf
ROOT
ATOM      1  O   UNL A   1      35.707  21.102  25.332  1.00  0.00    -0.460 OA
ENDROOT
BRANCH   1   2
ATOM      2  C   UNL A   1      34.467  21.428  24.866  1.00  0.00     0.331 C 
ATOM      3  O   UNL A   1      34.254  22.132  23.885  1.00  0.00    -0.250 OA
BRANCH   2   4
ATOM      4  C   UNL A   1      33.351  20.907  25.774  1.00  0.00     0.218 C 
BRANCH   4   5
ATOM      5  N   UNL A   1      32.756  21.930  26.659  1.00  0.00    -0.339 N 
ATOM      6  C   UNL A   1      33.137  23.241  26.524  1.00  0.00     0.244 C 
ATOM      7  O   UNL A   1      34.179  23.598  27.079  1.00  0.00    -0.273 OA
ATOM      8  H   UNL A   1      32.093  21.673  27.340  1.00  0.00     0.164 HD
BRANCH   6   9
ATOM      9  C   UNL A   1      32.186  24.237  25.782  1.00  0.00     0.181 C 
BRANCH   9  10
ATOM     10  N   UNL A   1      33.010  24.988  24.829  1.00  0.00    -0.342 N 
ATOM     11  C   UNL A   1      33.016  26.291  24.453  1.00  0.00     0.243 C 
ATOM     12  O   UNL A   1      34.073  26.705  23.960  1.00  0.00    -0.273 OA
ATOM     13  H   UNL A   1      33.692  24.440  24.377  1.00  0.00     0.164 HD
BRANCH  11  14
ATOM     14  C   UNL A   1      31.817  27.253  24.614  1.00  0.00     0.176 C 
BRANCH  14  15
ATOM     15  N   UNL A   1      31.212  27.131  25.937  1.00  0.00    -0.340 N 
ATOM     16  O   UNL A   1      30.763  27.762  28.052  1.00  0.00    -0.269 OA
ATOM     17  C   UNL A   1      31.470  27.888  27.061  1.00  0.00     0.251 C 
ATOM     18  H   UNL A   1      30.535  26.423  26.039  1.00  0.00     0.164 HD
BRANCH  17  19
ATOM     19  C   UNL A   1      32.617  28.828  27.078  1.00  0.00     0.040 A 
ATOM     20  C   UNL A   1      33.937  28.360  27.106  1.00  0.00     0.017 A 
ATOM     21  C   UNL A   1      32.359  30.206  27.080  1.00  0.00     0.017 A 
ATOM     22  C   UNL A   1      34.995  29.268  27.217  1.00  0.00     0.040 A 
ATOM     23  C   UNL A   1      33.422  31.110  27.182  1.00  0.00     0.040 A 
ATOM     24  C   UNL A   1      34.727  30.634  27.267  1.00  0.00     0.123 A 
ATOM     25  F   UNL A   1      35.743  31.498  27.401  1.00  0.00    -0.207 F 
ENDBRANCH  17  19
ENDBRANCH  14  15
BRANCH  14  26
ATOM     26  C   UNL A   1      32.018  28.685  24.077  1.00  0.00     0.070 C 
BRANCH  26  27
ATOM     27  C   UNL A   1      30.851  29.435  23.482  1.00  0.00    -0.045 A 
ATOM     28  C   UNL A   1      30.082  30.302  24.272  1.00  0.00     0.004 A 
ATOM     29  C   UNL A   1      30.497  29.261  22.137  1.00  0.00     0.004 A 
ATOM     30  C   UNL A   1      29.019  31.014  23.714  1.00  0.00     0.000 A 
ATOM     31  C   UNL A   1      29.463  30.008  21.569  1.00  0.00     0.000 A 
ATOM     32  C   UNL A   1      28.724  30.887  22.358  1.00  0.00     0.000 A 
ENDBRANCH  26  27
ENDBRANCH  14  26
ENDBRANCH  11  14
ENDBRANCH   9  10
BRANCH   9  33
ATOM     33  C   UNL A   1      30.925  23.635  25.165  1.00  0.00     0.101 C 
BRANCH  33  34
ATOM     34  S   UNL A   1      31.017  23.553  23.349  1.00  0.00    -0.177 SA
ATOM     35  H   UNL A   1      32.240  23.085  22.978  1.00  0.00     0.102 HD
ENDBRANCH  33  34
ENDBRANCH   9  33
ENDBRANCH   6   9
ENDBRANCH   4   5
BRANCH   4  36
ATOM     36  C   UNL A   1      32.297  20.241  24.870  1.00  0.00     0.193 C 
BRANCH  36  37
ATOM     37  O   UNL A   1      32.889  19.778  23.654  1.00  0.00    -0.394 OA
ATOM     38  H   UNL A   1      33.177  20.537  23.123  1.00  0.00     0.210 HD
ENDBRANCH  36  37
ENDBRANCH   4  36
ENDBRANCH   2   4
ENDBRANCH   1   2
BRANCH   1  39
ATOM     39  C   UNL A   1      36.821  21.712  24.650  1.00  0.00     0.274 C 
BRANCH  39  40
ATOM     40  C   UNL A   1      38.076  21.577  25.506  1.00  0.00     0.275 C 
BRANCH  40  41
ATOM     41  O   UNL A   1      38.329  22.845  26.132  1.00  0.00    -0.458 OA
BRANCH  41  42
ATOM     42  C   UNL A   1      39.587  23.060  26.581  1.00  0.00     0.338 C 
ATOM     43  O   UNL A   1      40.505  22.246  26.578  1.00  0.00    -0.246 OA
BRANCH  42  44
ATOM     44  C   UNL A   1      39.728  24.463  27.038  1.00  0.00     0.060 A 
ATOM     45  C   UNL A   1      40.251  25.430  26.188  1.00  0.00     0.016 A 
ATOM     46  C   UNL A   1      39.441  24.811  28.362  1.00  0.00     0.016 A 
ATOM     47  C   UNL A   1      40.566  26.695  26.689  1.00  0.00     0.010 A 
ATOM     48  C   UNL A   1      39.669  26.123  28.820  1.00  0.00     0.010 A 
ATOM     49  C   UNL A   1      40.278  27.093  28.004  1.00  0.00    -0.014 A 
BRANCH  49  50
ATOM     50  C   UNL A   1      40.658  28.464  28.519  1.00  0.00     0.031 A 
ATOM     51  C   UNL A   1      42.098  28.945  28.466  1.00  0.00     0.074 A 
ATOM     52  C   UNL A   1      39.745  29.343  28.994  1.00  0.00     0.049 A 
ATOM     53  N   UNL A   1      42.687  29.898  29.147  1.00  0.00    -0.248 NA
ATOM     54  C   UNL A   1      42.991  28.245  27.535  1.00  0.00     0.031 C 
ATOM     55  C   UNL A   1      38.295  29.141  29.038  1.00  0.00     0.029 A 
ATOM     56  N   UNL A   1      39.902  30.610  29.516  1.00  0.00    -0.354 N 
ATOM     57  C   UNL A   1      44.036  29.853  28.791  1.00  0.00     0.074 A 
ATOM     58  C   UNL A   1      44.170  28.775  27.833  1.00  0.00     0.031 C 
ATOM     59  C   UNL A   1      37.698  30.270  29.436  1.00  0.00     0.029 A 
ATOM     60  C   UNL A   1      38.718  31.194  29.907  1.00  0.00     0.049 A 
ATOM     61  H   UNL A   1      40.776  31.055  29.600  1.00  0.00     0.167 HD
ATOM     62  C   UNL A   1      45.062  30.631  29.230  1.00  0.00     0.034 A 
ATOM     63  C   UNL A   1      38.449  32.274  30.668  1.00  0.00     0.034 A 
ATOM     64  C   UNL A   1      44.891  31.770  30.110  1.00  0.00     0.049 A 
ATOM     65  C   UNL A   1      39.587  33.034  31.281  1.00  0.00     0.074 A 
ATOM     66  C   UNL A   1      45.853  32.638  30.602  1.00  0.00     0.029 A 
ATOM     67  N   UNL A   1      43.674  32.214  30.613  1.00  0.00    -0.354 N 
ATOM     68  N   UNL A   1      40.876  32.867  31.107  1.00  0.00    -0.248 NA
ATOM     69  C   UNL A   1      39.232  34.090  32.236  1.00  0.00     0.031 C 
ATOM     70  C   UNL A   1      45.230  33.554  31.459  1.00  0.00     0.029 A 
ATOM     71  C   UNL A   1      43.867  33.313  31.441  1.00  0.00     0.049 A 
ATOM     72  H   UNL A   1      42.800  31.809  30.411  1.00  0.00     0.167 HD
ATOM     73  C   UNL A   1      41.490  33.802  31.932  1.00  0.00     0.074 A 
ATOM     74  C   UNL A   1      40.428  34.540  32.588  1.00  0.00     0.031 C 
ATOM     75  C   UNL A   1      42.814  34.026  32.126  1.00  0.00     0.034 A 
BRANCH  62  76
ATOM     76  C   UNL A   1      46.475  30.223  28.850  1.00  0.00     0.023 A 
ATOM     77  C   UNL A   1      47.243  29.305  29.591  1.00  0.00     0.031 A 
ATOM     78  C   UNL A   1      47.071  30.800  27.710  1.00  0.00     0.131 A 
ATOM     79  C   UNL A   1      48.577  29.051  29.228  1.00  0.00     0.055 A 
ATOM     80  C   UNL A   1      48.366  30.478  27.304  1.00  0.00     0.041 A 
ATOM     81  F   UNL A   1      46.403  31.700  26.970  1.00  0.00    -0.206 F 
ATOM     82  C   UNL A   1      49.133  29.610  28.073  1.00  0.00     0.022 A 
BRANCH  79  83
ATOM     83  S   UNL A   1      49.628  28.083  30.350  1.00  0.00     0.124 S 
ATOM     84  O   UNL A   1      50.709  29.019  30.643  1.00  0.00    -0.237 OA
ATOM     85  O   UNL A   1      48.731  27.783  31.459  1.00  0.00    -0.237 OA
ATOM     86  O   UNL A   1      50.022  26.929  29.541  1.00  0.00    -0.744 OA
ENDBRANCH  79  83
ENDBRANCH  62  76
BRANCH  63  87
ATOM     87  C   UNL A   1      37.034  32.595  31.022  1.00  0.00     0.023 A 
ATOM     88  C   UNL A   1      36.217  33.336  30.157  1.00  0.00     0.031 A 
ATOM     89  C   UNL A   1      36.473  32.137  32.232  1.00  0.00     0.131 A 
ATOM     90  C   UNL A   1      34.879  33.584  30.508  1.00  0.00     0.055 A 
ATOM     91  C   UNL A   1      35.130  32.332  32.544  1.00  0.00     0.041 A 
ATOM     92  F   UNL A   1      37.218  31.439  33.104  1.00  0.00    -0.206 F 
ATOM     93  C   UNL A   1      34.324  33.063  31.680  1.00  0.00     0.022 A 
BRANCH  90  94
ATOM     94  S   UNL A   1      33.875  34.636  29.426  1.00  0.00     0.124 S 
ATOM     95  O   UNL A   1      33.281  33.656  28.525  1.00  0.00    -0.237 OA
ATOM     96  O   UNL A   1      32.966  35.271  30.374  1.00  0.00    -0.237 OA
ATOM     97  O   UNL A   1      34.856  35.531  28.815  1.00  0.00    -0.744 OA
ENDBRANCH  90  94
ENDBRANCH  63  87
BRANCH  75  98
ATOM     98  C   UNL A   1      43.176  35.149  33.064  1.00  0.00     0.023 A 
ATOM     99  C   UNL A   1      43.247  36.482  32.622  1.00  0.00     0.031 A 
ATOM    100  C   UNL A   1      43.511  34.875  34.401  1.00  0.00     0.131 A 
ATOM    101  C   UNL A   1      43.705  37.483  33.493  1.00  0.00     0.055 A 
ATOM    102  C   UNL A   1      43.909  35.884  35.279  1.00  0.00     0.041 A 
ATOM    103  F   UNL A   1      43.471  33.619  34.872  1.00  0.00    -0.206 F 
ATOM    104  C   UNL A   1      44.022  37.195  34.823  1.00  0.00     0.022 A 
BRANCH 101 105
ATOM    105  S   UNL A   1      43.983  39.151  32.836  1.00  0.00     0.124 S 
ATOM    106  O   UNL A   1      43.933  38.921  31.396  1.00  0.00    -0.237 OA
ATOM    107  O   UNL A   1      42.867  39.902  33.402  1.00  0.00    -0.237 OA
ATOM    108  O   UNL A   1      45.299  39.512  33.361  1.00  0.00    -0.744 OA
ENDBRANCH 101 105
ENDBRANCH  75  98
ENDBRANCH  49  50
ENDBRANCH  42  44
ENDBRANCH  41  42
ENDBRANCH  40  41
ENDBRANCH  39  40
ENDBRANCH   1  39
TORSDOF 26
ENDMDL
MODEL 2
REMARK VINA RESULT:     -10.3      7.486     10.544
REMARK SMILES O=C(N[C@@H](Cc1ccccc1)C(=O)N[C@@H](CS)C(=O)N[C@@H](CO)C(=O)OCCOC(=O)c1ccc(-c2c3nc(c(-c4cc(S(=O)(=O)[O-])ccc4F)c4ccc([nH]4)c(-c4cc(S(=O)(=O)[O-])ccc4F)c4nc(c(-c5cc(S(=O)(=O)[O-])ccc5F)c5ccc2[nH]5)C=C4)C=C3)cc1)c1ccc(F)cc1
REMARK SMILES IDX 26 1 24 2 25 3 21 4 20 5 18 6 19 7 15 9 14 10 12 11 13 12
REMARK SMILES IDX 4 14 3 15 1 16 2 17 95 19 96 20 101 21 97 22 100 23 98 24
REMARK SMILES IDX 99 25 5 26 6 27 7 28 11 29 8 30 10 31 9 32 16 33 17 34 22 36
REMARK SMILES IDX 23 37 27 39 28 40 29 41 30 42 31 43 32 44 33 45 94 46 34 47
REMARK SMILES IDX 93 48 35 49 36 50 37 51 87 52 38 53 92 54 86 55 88 56 39 57
REMARK SMILES IDX 91 58 85 59 84 60 40 62 72 63 52 64 71 65 53 66 56 67 70 68
REMARK SMILES IDX 89 69 54 70 55 71 69 73 90 74 57 75 41 76 42 77 50 78 43 79
REMARK SMILES IDX 49 80 51 81 48 82 44 83 45 84 46 85 47 86 73 87 74 88 82 89
REMARK SMILES IDX 75 90 81 91 83 92 80 93 76 94 77 95 78 96 79 97 58 98 59 99
REMARK SMILES IDX 67 100 60 101 66 102 68 103 65 104 61 105 62 106 63 107
REMARK SMILES IDX 64 108
REMARK H PARENT 20 8 14 13 3 18 17 35 23 38 88 61 56 72
REMARK Flexibility Score: inf
ROOT
ATOM      1  O   UNL A   1      41.120  23.823  27.391  1.00  0.00    -0.460 OA
ENDROOT
BRANCH   1   2
ATOM      2  C   UNL A   1      39.792  23.787  27.079  1.00  0.00     0.331 C 
ATOM      3  O   UNL A   1      39.017  24.726  27.218  1.00  0.00    -0.250 OA
BRANCH   2   4
ATOM      4  C   UNL A   1      39.340  22.394  26.633  1.00  0.00     0.218 C 
BRANCH   4   5
ATOM      5  N   UNL A   1      38.562  22.378  25.377  1.00  0.00    -0.339 N 
ATOM      6  C   UNL A   1      37.438  21.596  25.292  1.00  0.00     0.244 C 
ATOM      7  O   UNL A   1      37.586  20.401  25.028  1.00  0.00    -0.273 OA
ATOM      8  H   UNL A   1      38.848  22.922  24.609  1.00  0.00     0.164 HD
BRANCH   6   9
ATOM      9  C   UNL A   1      36.031  22.270  25.417  1.00  0.00     0.181 C 
BRANCH   9  10
ATOM     10  N   UNL A   1      35.471  22.346  24.064  1.00  0.00    -0.342 N 
ATOM     11  C   UNL A   1      34.693  23.270  23.447  1.00  0.00     0.243 C 
ATOM     12  O   UNL A   1      34.732  23.268  22.209  1.00  0.00    -0.273 OA
ATOM     13  H   UNL A   1      35.707  21.579  23.493  1.00  0.00     0.164 HD
BRANCH  11  14
ATOM     14  C   UNL A   1      33.801  24.295  24.183  1.00  0.00     0.176 C 
BRANCH  14  15
ATOM     15  N   UNL A   1      32.680  23.641  24.852  1.00  0.00    -0.340 N 
ATOM     16  O   UNL A   1      30.509  23.195  25.254  1.00  0.00    -0.269 OA
ATOM     17  C   UNL A   1      31.338  23.942  24.749  1.00  0.00     0.251 C 
ATOM     18  H   UNL A   1      32.911  22.892  25.449  1.00  0.00     0.164 HD
BRANCH  17  19
ATOM     19  C   UNL A   1      30.904  25.178  24.054  1.00  0.00     0.040 A 
ATOM     20  C   UNL A   1      31.214  25.399  22.706  1.00  0.00     0.017 A 
ATOM     21  C   UNL A   1      30.184  26.141  24.777  1.00  0.00     0.017 A 
ATOM     22  C   UNL A   1      30.874  26.614  22.104  1.00  0.00     0.040 A 
ATOM     23  C   UNL A   1      29.839  27.351  24.167  1.00  0.00     0.040 A 
ATOM     24  C   UNL A   1      30.202  27.584  22.843  1.00  0.00     0.123 A 
ATOM     25  F   UNL A   1      29.903  28.758  22.269  1.00  0.00    -0.207 F 
ENDBRANCH  17  19
ENDBRANCH  14  15
BRANCH  14  26
ATOM     26  C   UNL A   1      34.540  25.386  24.986  1.00  0.00     0.070 C 
BRANCH  26  27
ATOM     27  C   UNL A   1      33.927  26.758  25.130  1.00  0.00    -0.045 A 
ATOM     28  C   UNL A   1      33.419  27.187  26.364  1.00  0.00     0.004 A 
ATOM     29  C   UNL A   1      33.831  27.619  24.028  1.00  0.00     0.004 A 
ATOM     30  C   UNL A   1      32.875  28.465  26.501  1.00  0.00     0.000 A 
ATOM     31  C   UNL A   1      33.328  28.914  24.177  1.00  0.00     0.000 A 
ATOM     32  C   UNL A   1      32.851  29.338  25.415  1.00  0.00     0.000 A 
ENDBRANCH  26  27
ENDBRANCH  14  26
ENDBRANCH  11  14
ENDBRANCH   9  10
BRANCH   9  33
ATOM     33  C   UNL A   1      35.079  21.661  26.444  1.00  0.00     0.101 C 
BRANCH  33  34
ATOM     34  S   UNL A   1      33.922  20.473  25.694  1.00  0.00    -0.177 SA
ATOM     35  H   UNL A   1      32.687  21.038  25.605  1.00  0.00     0.102 HD
ENDBRANCH  33  34
ENDBRANCH   9  33
ENDBRANCH   6   9
ENDBRANCH   4   5
BRANCH   4  36
ATOM     36  C   UNL A   1      40.597  21.509  26.545  1.00  0.00     0.193 C 
BRANCH  36  37
ATOM     37  O   UNL A   1      40.251  20.168  26.189  1.00  0.00    -0.394 OA
ATOM     38  H   UNL A   1      39.286  20.078  26.162  1.00  0.00     0.210 HD
ENDBRANCH  36  37
ENDBRANCH   4  36
ENDBRANCH   2   4
ENDBRANCH   1   2
BRANCH   1  39
ATOM     39  C   UNL A   1      41.877  24.907  26.814  1.00  0.00     0.274 C 
BRANCH  39  40
ATOM     40  C   UNL A   1      43.158  24.357  26.195  1.00  0.00     0.275 C 
BRANCH  40  41
ATOM     41  O   UNL A   1      43.569  23.213  26.960  1.00  0.00    -0.458 OA
BRANCH  41  42
ATOM     42  C   UNL A   1      44.791  23.274  27.536  1.00  0.00     0.338 C 
ATOM     43  O   UNL A   1      45.859  22.995  26.998  1.00  0.00    -0.246 OA
BRANCH  42  44
ATOM     44  C   UNL A   1      44.674  23.789  28.920  1.00  0.00     0.060 A 
ATOM     45  C   UNL A   1      45.415  24.894  29.324  1.00  0.00     0.016 A 
ATOM     46  C   UNL A   1      43.902  23.110  29.868  1.00  0.00     0.016 A 
ATOM     47  C   UNL A   1      45.451  25.247  30.675  1.00  0.00     0.010 A 
ATOM     48  C   UNL A   1      43.871  23.545  31.207  1.00  0.00     0.010 A 
ATOM     49  C   UNL A   1      44.679  24.605  31.656  1.00  0.00    -0.014 A 
BRANCH  49  50
ATOM     50  C   UNL A   1      44.764  24.998  33.115  1.00  0.00     0.031 A 
ATOM     51  C   UNL A   1      44.240  26.342  33.591  1.00  0.00     0.074 A 
ATOM     52  C   UNL A   1      45.251  24.168  34.066  1.00  0.00     0.049 A 
ATOM     53  N   UNL A   1      44.520  27.009  34.685  1.00  0.00    -0.248 NA
ATOM     54  C   UNL A   1      43.290  27.029  32.708  1.00  0.00     0.031 C 
ATOM     55  C   UNL A   1      45.707  22.792  33.858  1.00  0.00     0.029 A 
ATOM     56  N   UNL A   1      45.423  24.354  35.422  1.00  0.00    -0.354 N 
ATOM     57  C   UNL A   1      43.851  28.229  34.579  1.00  0.00     0.074 A 
ATOM     58  C   UNL A   1      43.152  28.202  33.311  1.00  0.00     0.031 C 
ATOM     59  C   UNL A   1      45.986  22.229  35.040  1.00  0.00     0.029 A 
ATOM     60  C   UNL A   1      45.965  23.263  36.063  1.00  0.00     0.049 A 
ATOM     61  H   UNL A   1      45.181  25.188  35.887  1.00  0.00     0.167 HD
ATOM     62  C   UNL A   1      43.830  29.271  35.453  1.00  0.00     0.034 A 
ATOM     63  C   UNL A   1      46.512  23.110  37.286  1.00  0.00     0.034 A 
ATOM     64  C   UNL A   1      44.451  29.238  36.762  1.00  0.00     0.049 A 
ATOM     65  C   UNL A   1      46.630  24.306  38.184  1.00  0.00     0.074 A 
ATOM     66  C   UNL A   1      44.477  30.226  37.735  1.00  0.00     0.029 A 
ATOM     67  N   UNL A   1      45.137  28.152  37.293  1.00  0.00    -0.354 N 
ATOM     68  N   UNL A   1      46.174  25.521  38.000  1.00  0.00    -0.248 NA
ATOM     69  C   UNL A   1      47.387  24.119  39.427  1.00  0.00     0.031 C 
ATOM     70  C   UNL A   1      45.241  29.766  38.816  1.00  0.00     0.029 A 
ATOM     71  C   UNL A   1      45.625  28.462  38.556  1.00  0.00     0.049 A 
ATOM     72  H   UNL A   1      45.260  27.288  36.839  1.00  0.00     0.167 HD
ATOM     73  C   UNL A   1      46.588  26.248  39.111  1.00  0.00     0.074 A 
ATOM     74  C   UNL A   1      47.314  25.329  39.964  1.00  0.00     0.031 C 
ATOM     75  C   UNL A   1      46.382  27.560  39.393  1.00  0.00     0.034 A 
BRANCH  62  76
ATOM     76  C   UNL A   1      43.202  30.574  34.989  1.00  0.00     0.023 A 
ATOM     77  C   UNL A   1      41.850  30.900  35.201  1.00  0.00     0.031 A 
ATOM     78  C   UNL A   1      43.995  31.506  34.291  1.00  0.00     0.131 A 
ATOM     79  C   UNL A   1      41.320  32.084  34.659  1.00  0.00     0.055 A 
ATOM     80  C   UNL A   1      43.485  32.721  33.830  1.00  0.00     0.041 A 
ATOM     81  F   UNL A   1      45.289  31.249  34.034  1.00  0.00    -0.206 F 
ATOM     82  C   UNL A   1      42.136  33.009  33.999  1.00  0.00     0.022 A 
BRANCH  79  83
ATOM     83  S   UNL A   1      39.523  32.351  34.706  1.00  0.00     0.124 S 
ATOM     84  O   UNL A   1      39.357  33.102  35.947  1.00  0.00    -0.237 OA
ATOM     85  O   UNL A   1      39.271  33.093  33.477  1.00  0.00    -0.237 OA
ATOM     86  O   UNL A   1      38.975  30.995  34.736  1.00  0.00    -0.744 OA
ENDBRANCH  79  83
ENDBRANCH  62  76
BRANCH  63  87
ATOM     87  C   UNL A   1      47.136  21.806  37.659  1.00  0.00     0.023 A 
ATOM     88  C   UNL A   1      46.399  20.804  38.304  1.00  0.00     0.031 A 
ATOM     89  C   UNL A   1      48.485  21.538  37.347  1.00  0.00     0.131 A 
ATOM     90  C   UNL A   1      47.011  19.576  38.604  1.00  0.00     0.055 A 
ATOM     91  C   UNL A   1      49.067  20.296  37.590  1.00  0.00     0.041 A 
ATOM     92  F   UNL A   1      49.241  22.471  36.745  1.00  0.00    -0.206 F 
ATOM     93  C   UNL A   1      48.329  19.306  38.226  1.00  0.00     0.022 A 
BRANCH  90  94
ATOM     94  S   UNL A   1      46.070  18.338  39.536  1.00  0.00     0.124 S 
ATOM     95  O   UNL A   1      47.120  17.414  39.948  1.00  0.00    -0.237 OA
ATOM     96  O   UNL A   1      45.471  19.142  40.596  1.00  0.00    -0.237 OA
ATOM     97  O   UNL A   1      45.128  17.812  38.549  1.00  0.00    -0.744 OA
ENDBRANCH  90  94
ENDBRANCH  63  87
BRANCH  75  98
ATOM     98  C   UNL A   1      46.926  28.057  40.708  1.00  0.00     0.023 A 
ATOM     99  C   UNL A   1      46.195  27.923  41.903  1.00  0.00     0.031 A 
ATOM    100  C   UNL A   1      48.161  28.725  40.758  1.00  0.00     0.131 A 
ATOM    101  C   UNL A   1      46.678  28.507  43.085  1.00  0.00     0.055 A 
ATOM    102  C   UNL A   1      48.664  29.252  41.948  1.00  0.00     0.041 A 
ATOM    103  F   UNL A   1      48.893  28.890  39.645  1.00  0.00    -0.206 F 
ATOM    104  C   UNL A   1      47.915  29.157  43.118  1.00  0.00     0.022 A 
BRANCH 101 105
ATOM    105  S   UNL A   1      45.620  28.497  44.558  1.00  0.00     0.124 S 
ATOM    106  O   UNL A   1      45.785  29.859  45.057  1.00  0.00    -0.237 OA
ATOM    107  O   UNL A   1      44.309  28.176  44.002  1.00  0.00    -0.237 OA
ATOM    108  O   UNL A   1      46.206  27.454  45.396  1.00  0.00    -0.744 OA
ENDBRANCH 101 105
ENDBRANCH  75  98
ENDBRANCH  49  50
ENDBRANCH  42  44
ENDBRANCH  41  42
ENDBRANCH  40  41
ENDBRANCH  39  40
ENDBRANCH   1  39
TORSDOF 26
ENDMDL
MODEL 3
REMARK VINA RESULT:     -10.2      7.209     10.403
REMARK SMILES O=C(N[C@@H](Cc1ccccc1)C(=O)N[C@@H](CS)C(=O)N[C@@H](CO)C(=O)OCCOC(=O)c1ccc(-c2c3nc(c(-c4cc(S(=O)(=O)[O-])ccc4F)c4ccc([nH]4)c(-c4cc(S(=O)(=O)[O-])ccc4F)c4nc(c(-c5cc(S(=O)(=O)[O-])ccc5F)c5ccc2[nH]5)C=C4)C=C3)cc1)c1ccc(F)cc1
REMARK SMILES IDX 26 1 24 2 25 3 21 4 20 5 18 6 19 7 15 9 14 10 12 11 13 12
REMARK SMILES IDX 4 14 3 15 1 16 2 17 95 19 96 20 101 21 97 22 100 23 98 24
REMARK SMILES IDX 99 25 5 26 6 27 7 28 11 29 8 30 10 31 9 32 16 33 17 34 22 36
REMARK SMILES IDX 23 37 27 39 28 40 29 41 30 42 31 43 32 44 33 45 94 46 34 47
REMARK SMILES IDX 93 48 35 49 36 50 37 51 87 52 38 53 92 54 86 55 88 56 39 57
REMARK SMILES IDX 91 58 85 59 84 60 40 62 72 63 52 64 71 65 53 66 56 67 70 68
REMARK SMILES IDX 89 69 54 70 55 71 69 73 90 74 57 75 41 76 42 77 50 78 43 79
REMARK SMILES IDX 49 80 51 81 48 82 44 83 45 84 46 85 47 86 73 87 74 88 82 89
REMARK SMILES IDX 75 90 81 91 83 92 80 93 76 94 77 95 78 96 79 97 58 98 59 99
REMARK SMILES IDX 67 100 60 101 66 102 68 103 65 104 61 105 62 106 63 107
REMARK SMILES IDX 64 108
REMARK H PARENT 20 8 14 13 3 18 17 35 23 38 88 61 56 72
REMARK Flexibility Score: inf
ROOT
ATOM      1  O   UNL A   1      41.135  24.032  27.428  1.00  0.00    -0.460 OA
ENDROOT
BRANCH   1   2
ATOM      2  C   UNL A   1      39.843  24.093  26.994  1.00  0.00     0.331 C 
ATOM      3  O   UNL A   1      39.178  25.121  26.926  1.00  0.00    -0.250 OA
BRANCH   2   4
ATOM      4  C   UNL A   1      39.265  22.707  26.699  1.00  0.00     0.218 C 
BRANCH   4   5
ATOM      5  N   UNL A   1      38.519  22.614  25.427  1.00  0.00    -0.339 N 
ATOM      6  C   UNL A   1      37.494  21.710  25.311  1.00  0.00     0.244 C 
ATOM      7  O   UNL A   1      37.784  20.542  25.041  1.00  0.00    -0.273 OA
ATOM      8  H   UNL A   1      38.757  23.196  24.669  1.00  0.00     0.164 HD
BRANCH   6   9
ATOM      9  C   UNL A   1      36.017  22.217  25.410  1.00  0.00     0.181 C 
BRANCH   9  10
ATOM     10  N   UNL A   1      35.499  22.296  24.041  1.00  0.00    -0.342 N 
ATOM     11  C   UNL A   1      34.737  23.220  23.403  1.00  0.00     0.243 C 
ATOM     12  O   UNL A   1      34.814  23.221  22.167  1.00  0.00    -0.273 OA
ATOM     13  H   UNL A   1      35.754  21.532  23.475  1.00  0.00     0.164 HD
BRANCH  11  14
ATOM     14  C   UNL A   1      33.820  24.239  24.115  1.00  0.00     0.176 C 
BRANCH  14  15
ATOM     15  N   UNL A   1      32.675  23.581  24.736  1.00  0.00    -0.340 N 
ATOM     16  O   UNL A   1      30.490  23.144  25.063  1.00  0.00    -0.269 OA
ATOM     17  C   UNL A   1      31.338  23.894  24.598  1.00  0.00     0.251 C 
ATOM     18  H   UNL A   1      32.882  22.819  25.326  1.00  0.00     0.164 HD
BRANCH  17  19
ATOM     19  C   UNL A   1      30.934  25.147  23.914  1.00  0.00     0.040 A 
ATOM     20  C   UNL A   1      31.380  25.441  22.619  1.00  0.00     0.017 A 
ATOM     21  C   UNL A   1      30.104  26.048  24.595  1.00  0.00     0.017 A 
ATOM     22  C   UNL A   1      31.061  26.672  22.037  1.00  0.00     0.040 A 
ATOM     23  C   UNL A   1      29.780  27.274  24.003  1.00  0.00     0.040 A 
ATOM     24  C   UNL A   1      30.275  27.582  22.740  1.00  0.00     0.123 A 
ATOM     25  F   UNL A   1      29.994  28.771  22.187  1.00  0.00    -0.207 F 
ENDBRANCH  17  19
ENDBRANCH  14  15
BRANCH  14  26
ATOM     26  C   UNL A   1      34.530  25.322  24.953  1.00  0.00     0.070 C 
BRANCH  26  27
ATOM     27  C   UNL A   1      33.859  26.655  25.184  1.00  0.00    -0.045 A 
ATOM     28  C   UNL A   1      33.168  26.909  26.378  1.00  0.00     0.004 A 
ATOM     29  C   UNL A   1      33.890  27.653  24.200  1.00  0.00     0.004 A 
ATOM     30  C   UNL A   1      32.569  28.150  26.599  1.00  0.00     0.000 A 
ATOM     31  C   UNL A   1      33.330  28.910  24.441  1.00  0.00     0.000 A 
ATOM     32  C   UNL A   1      32.671  29.159  25.643  1.00  0.00     0.000 A 
ENDBRANCH  26  27
ENDBRANCH  14  26
ENDBRANCH  11  14
ENDBRANCH   9  10
BRANCH   9  33
ATOM     33  C   UNL A   1      35.106  21.458  26.371  1.00  0.00     0.101 C 
BRANCH  33  34
ATOM     34  S   UNL A   1      34.344  22.553  27.609  1.00  0.00    -0.177 SA
ATOM     35  H   UNL A   1      35.093  23.682  27.738  1.00  0.00     0.102 HD
ENDBRANCH  33  34
ENDBRANCH   9  33
ENDBRANCH   6   9
ENDBRANCH   4   5
BRANCH   4  36
ATOM     36  C   UNL A   1      40.428  21.701  26.763  1.00  0.00     0.193 C 
BRANCH  36  37
ATOM     37  O   UNL A   1      41.215  21.757  25.570  1.00  0.00    -0.394 OA
ATOM     38  H   UNL A   1      40.665  21.521  24.806  1.00  0.00     0.210 HD
ENDBRANCH  36  37
ENDBRANCH   4  36
ENDBRANCH   2   4
ENDBRANCH   1   2
BRANCH   1  39
ATOM     39  C   UNL A   1      42.013  25.074  26.956  1.00  0.00     0.274 C 
BRANCH  39  40
ATOM     40  C   UNL A   1      43.189  24.448  26.214  1.00  0.00     0.275 C 
BRANCH  40  41
ATOM     41  O   UNL A   1      43.578  23.256  26.916  1.00  0.00    -0.458 OA
BRANCH  41  42
ATOM     42  C   UNL A   1      44.795  23.269  27.507  1.00  0.00     0.338 C 
ATOM     43  O   UNL A   1      45.856  22.945  26.983  1.00  0.00    -0.246 OA
BRANCH  42  44
ATOM     44  C   UNL A   1      44.681  23.793  28.888  1.00  0.00     0.060 A 
ATOM     45  C   UNL A   1      45.446  24.881  29.293  1.00  0.00     0.016 A 
ATOM     46  C   UNL A   1      43.889  23.135  29.834  1.00  0.00     0.016 A 
ATOM     47  C   UNL A   1      45.482  25.239  30.642  1.00  0.00     0.010 A 
ATOM     48  C   UNL A   1      43.859  23.577  31.172  1.00  0.00     0.010 A 
ATOM     49  C   UNL A   1      44.690  24.618  31.621  1.00  0.00    -0.014 A 
BRANCH  49  50
ATOM     50  C   UNL A   1      44.776  25.015  33.079  1.00  0.00     0.031 A 
ATOM     51  C   UNL A   1      44.253  26.361  33.553  1.00  0.00     0.074 A 
ATOM     52  C   UNL A   1      45.263  24.187  34.032  1.00  0.00     0.049 A 
ATOM     53  N   UNL A   1      44.534  27.030  34.645  1.00  0.00    -0.248 NA
ATOM     54  C   UNL A   1      43.303  27.046  32.668  1.00  0.00     0.031 C 
ATOM     55  C   UNL A   1      45.717  22.810  33.828  1.00  0.00     0.029 A 
ATOM     56  N   UNL A   1      45.435  24.377  35.388  1.00  0.00    -0.354 N 
ATOM     57  C   UNL A   1      43.866  28.250  34.536  1.00  0.00     0.074 A 
ATOM     58  C   UNL A   1      43.167  28.221  33.268  1.00  0.00     0.031 C 
ATOM     59  C   UNL A   1      45.996  22.250  35.011  1.00  0.00     0.029 A 
ATOM     60  C   UNL A   1      45.977  23.286  36.031  1.00  0.00     0.049 A 
ATOM     61  H   UNL A   1      45.194  25.211  35.851  1.00  0.00     0.167 HD
ATOM     62  C   UNL A   1      43.847  29.294  35.407  1.00  0.00     0.034 A 
ATOM     63  C   UNL A   1      46.523  23.137  37.254  1.00  0.00     0.034 A 
ATOM     64  C   UNL A   1      44.468  29.265  36.716  1.00  0.00     0.049 A 
ATOM     65  C   UNL A   1      46.643  24.334  38.149  1.00  0.00     0.074 A 
ATOM     66  C   UNL A   1      44.495  30.254  37.687  1.00  0.00     0.029 A 
ATOM     67  N   UNL A   1      45.153  28.180  37.249  1.00  0.00    -0.354 N 
ATOM     68  N   UNL A   1      46.188  25.549  37.963  1.00  0.00    -0.248 NA
ATOM     69  C   UNL A   1      47.401  24.150  39.393  1.00  0.00     0.031 C 
ATOM     70  C   UNL A   1      45.259  29.797  38.768  1.00  0.00     0.029 A 
ATOM     71  C   UNL A   1      45.642  28.492  38.512  1.00  0.00     0.049 A 
ATOM     72  H   UNL A   1      45.275  27.314  36.797  1.00  0.00     0.167 HD
ATOM     73  C   UNL A   1      46.603  26.279  39.071  1.00  0.00     0.074 A 
ATOM     74  C   UNL A   1      47.329  25.361  39.927  1.00  0.00     0.031 C 
ATOM     75  C   UNL A   1      46.399  27.591  39.350  1.00  0.00     0.034 A 
BRANCH  62  76
ATOM     76  C   UNL A   1      43.219  30.597  34.940  1.00  0.00     0.023 A 
ATOM     77  C   UNL A   1      43.934  31.606  34.269  1.00  0.00     0.031 A 
ATOM     78  C   UNL A   1      41.854  30.831  35.204  1.00  0.00     0.131 A 
ATOM     79  C   UNL A   1      43.304  32.822  33.953  1.00  0.00     0.055 A 
ATOM     80  C   UNL A   1      41.211  32.006  34.810  1.00  0.00     0.041 A 
ATOM     81  F   UNL A   1      41.116  29.920  35.860  1.00  0.00    -0.206 F 
ATOM     82  C   UNL A   1      41.940  33.017  34.194  1.00  0.00     0.022 A 
BRANCH  79  83
ATOM     83  S   UNL A   1      44.311  34.205  33.341  1.00  0.00     0.124 S 
ATOM     84  O   UNL A   1      45.618  33.914  33.921  1.00  0.00    -0.237 OA
ATOM     85  O   UNL A   1      44.214  34.062  31.893  1.00  0.00    -0.237 OA
ATOM     86  O   UNL A   1      43.647  35.385  33.893  1.00  0.00    -0.744 OA
ENDBRANCH  79  83
ENDBRANCH  62  76
BRANCH  63  87
ATOM     87  C   UNL A   1      47.147  21.833  37.630  1.00  0.00     0.023 A 
ATOM     88  C   UNL A   1      46.417  20.844  38.305  1.00  0.00     0.031 A 
ATOM     89  C   UNL A   1      48.487  21.551  37.292  1.00  0.00     0.131 A 
ATOM     90  C   UNL A   1      47.028  19.616  38.607  1.00  0.00     0.055 A 
ATOM     91  C   UNL A   1      49.065  20.308  37.538  1.00  0.00     0.041 A 
ATOM     92  F   UNL A   1      49.236  22.470  36.662  1.00  0.00    -0.206 F 
ATOM     93  C   UNL A   1      48.335  19.331  38.203  1.00  0.00     0.022 A 
BRANCH  90  94
ATOM     94  S   UNL A   1      46.099  18.396  39.575  1.00  0.00     0.124 S 
ATOM     95  O   UNL A   1      45.554  19.220  40.648  1.00  0.00    -0.237 OA
ATOM     96  O   UNL A   1      45.139  17.896  38.598  1.00  0.00    -0.237 OA
ATOM     97  O   UNL A   1      47.123  17.436  39.985  1.00  0.00    -0.744 OA
ENDBRANCH  90  94
ENDBRANCH  63  87
BRANCH  75  98
ATOM     98  C   UNL A   1      46.943  28.091  40.664  1.00  0.00     0.023 A 
ATOM     99  C   UNL A   1      48.223  28.666  40.758  1.00  0.00     0.031 A 
ATOM    100  C   UNL A   1      46.198  27.935  41.845  1.00  0.00     0.131 A 
ATOM    101  C   UNL A   1      48.744  29.006  42.017  1.00  0.00     0.055 A 
ATOM    102  C   UNL A   1      46.697  28.331  43.086  1.00  0.00     0.041 A 
ATOM    103  F   UNL A   1      44.975  27.382  41.813  1.00  0.00    -0.206 F 
ATOM    104  C   UNL A   1      47.983  28.857  43.179  1.00  0.00     0.022 A 
BRANCH 101 105
ATOM    105  S   UNL A   1      50.470  29.551  42.128  1.00  0.00     0.124 S 
ATOM    106  O   UNL A   1      51.181  28.431  41.518  1.00  0.00    -0.237 OA
ATOM    107  O   UNL A   1      50.459  30.793  41.361  1.00  0.00    -0.237 OA
ATOM    108  O   UNL A   1      50.688  29.715  43.564  1.00  0.00    -0.744 OA
ENDBRANCH 101 105
ENDBRANCH  75  98
ENDBRANCH  49  50
ENDBRANCH  42  44
ENDBRANCH  41  42
ENDBRANCH  40  41
ENDBRANCH  39  40
ENDBRANCH   1  39
TORSDOF 26
ENDMDL
