MODEL 1
REMARK VINA RESULT:     -11.0      0.000      0.000
REMARK SMILES C[C@@]1(O)N(CC(=O)OCCOC(=O)c2ccc(-c3c4nc(c(-c5cc(S(=O)(=O)[O-])ccc5F)c5ccc([nH]5)c(-c5cc(S(=O)(=O)[O-])ccc5F)c5nc(c(-c6cc(S(=O)(=O)[O-])ccc6F)c6ccc3[nH]6)C=C5)C=C4)cc2)C(=O)OC12CCCCC2
REMARK SMILES IDX 10 1 9 2 8 3 6 4 7 5 5 6 4 7 1 8 2 9 80 10 77 11 79 12 81 13
REMARK SMILES IDX 85 14 78 15 82 16 84 17 83 18 3 19 11 21 12 22 13 23 14 24
REMARK SMILES IDX 15 25 76 26 16 27 75 28 17 29 18 30 19 31 69 32 20 33 74 34
REMARK SMILES IDX 68 35 70 36 21 37 73 38 67 39 66 40 22 42 54 43 34 44 53 45
REMARK SMILES IDX 35 46 38 47 52 48 71 49 36 50 37 51 51 53 72 54 39 55 23 56
REMARK SMILES IDX 24 57 32 58 25 59 31 60 33 61 30 62 26 63 27 64 28 65 29 66
REMARK SMILES IDX 55 67 56 68 64 69 57 70 63 71 65 72 62 73 58 74 59 75 60 76
REMARK SMILES IDX 61 77 40 78 41 79 49 80 42 81 48 82 50 83 47 84 43 85 44 86
REMARK SMILES IDX 45 87 46 88
REMARK H PARENT 3 20 70 41 38 52
REMARK Flexibility Score: inf
ROOT
ATOM      1  C   UNL A   1      33.502  33.809  27.996  1.00  0.00     0.275 C 
ENDROOT
BRANCH   1   2
ATOM      2  C   UNL A   1      33.771  35.266  28.378  1.00  0.00     0.274 C 
BRANCH   2   3
ATOM      3  O   UNL A   1      32.667  35.856  29.103  1.00  0.00    -0.461 OA
BRANCH   3   4
ATOM      4  C   UNL A   1      32.952  36.293  30.353  1.00  0.00     0.326 C 
ATOM      5  O   UNL A   1      32.941  37.479  30.680  1.00  0.00    -0.250 OA
BRANCH   4   6
ATOM      6  C   UNL A   1      33.291  35.203  31.372  1.00  0.00     0.248 C 
BRANCH   6   7
ATOM      7  N   UNL A   1      34.566  35.089  32.073  1.00  0.00    -0.265 N 
ATOM      8  C   UNL A   1      35.042  32.707  31.571  1.00  0.00     0.072 C 
ATOM      9  C   UNL A   1      35.587  34.108  31.827  1.00  0.00     0.181 C 
ATOM     10  C   UNL A   1      36.485  34.209  33.105  1.00  0.00     0.161 C 
ATOM     11  C   UNL A   1      34.853  35.837  33.182  1.00  0.00     0.413 C 
ATOM     12  O   UNL A   1      35.988  35.390  33.786  1.00  0.00    -0.438 OA
ATOM     13  C   UNL A   1      36.341  33.009  34.073  1.00  0.00     0.054 C 
ATOM     14  C   UNL A   1      37.969  34.485  32.797  1.00  0.00     0.054 C 
ATOM     15  O   UNL A   1      34.182  36.758  33.623  1.00  0.00    -0.224 OA
ATOM     16  C   UNL A   1      37.240  33.089  35.303  1.00  0.00     0.004 C 
ATOM     17  C   UNL A   1      38.825  34.583  34.061  1.00  0.00     0.004 C 
ATOM     18  C   UNL A   1      38.693  33.332  34.920  1.00  0.00     0.000 C 
BRANCH   9  19
ATOM     19  O   UNL A   1      36.300  34.563  30.685  1.00  0.00    -0.367 OA
ATOM     20  H   UNL A   1      35.835  35.320  30.294  1.00  0.00     0.213 HD
ENDBRANCH   9  19
ENDBRANCH   6   7
ENDBRANCH   4   6
ENDBRANCH   3   4
ENDBRANCH   2   3
ENDBRANCH   1   2
BRANCH   1  21
ATOM     21  O   UNL A   1      34.727  33.076  27.811  1.00  0.00    -0.458 OA
BRANCH  21  22
ATOM     22  C   UNL A   1      34.555  31.738  27.760  1.00  0.00     0.338 C 
ATOM     23  O   UNL A   1      33.548  31.145  27.398  1.00  0.00    -0.246 OA
BRANCH  22  24
ATOM     24  C   UNL A   1      35.790  31.016  28.104  1.00  0.00     0.060 A 
ATOM     25  C   UNL A   1      35.694  29.729  28.639  1.00  0.00     0.016 A 
ATOM     26  C   UNL A   1      36.996  31.713  28.146  1.00  0.00     0.016 A 
ATOM     27  C   UNL A   1      36.786  29.180  29.311  1.00  0.00     0.010 A 
ATOM     28  C   UNL A   1      38.117  31.112  28.726  1.00  0.00     0.010 A 
ATOM     29  C   UNL A   1      38.019  29.853  29.341  1.00  0.00    -0.014 A 
BRANCH  29  30
ATOM     30  C   UNL A   1      39.217  29.220  29.961  1.00  0.00     0.031 A 
ATOM     31  C   UNL A   1      39.858  29.801  31.194  1.00  0.00     0.074 A 
ATOM     32  C   UNL A   1      39.759  28.136  29.370  1.00  0.00     0.049 A 
ATOM     33  N   UNL A   1      41.001  29.496  31.754  1.00  0.00    -0.248 NA
ATOM     34  C   UNL A   1      39.124  30.874  31.880  1.00  0.00     0.031 C 
ATOM     35  C   UNL A   1      39.221  27.464  28.184  1.00  0.00     0.029 A 
ATOM     36  N   UNL A   1      40.890  27.419  29.671  1.00  0.00    -0.354 N 
ATOM     37  C   UNL A   1      41.145  30.359  32.837  1.00  0.00     0.074 A 
ATOM     38  C   UNL A   1      39.972  31.210  32.844  1.00  0.00     0.031 C 
ATOM     39  C   UNL A   1      40.011  26.430  27.867  1.00  0.00     0.029 A 
ATOM     40  C   UNL A   1      41.158  26.420  28.764  1.00  0.00     0.049 A 
ATOM     41  H   UNL A   1      41.453  27.601  30.457  1.00  0.00     0.167 HD
ATOM     42  C   UNL A   1      42.163  30.433  33.733  1.00  0.00     0.034 A 
ATOM     43  C   UNL A   1      42.232  25.619  28.625  1.00  0.00     0.034 A 
ATOM     44  C   UNL A   1      43.318  29.563  33.714  1.00  0.00     0.049 A 
ATOM     45  C   UNL A   1      43.372  25.759  29.593  1.00  0.00     0.074 A 
ATOM     46  C   UNL A   1      44.387  29.529  34.596  1.00  0.00     0.029 A 
ATOM     47  N   UNL A   1      43.564  28.579  32.764  1.00  0.00    -0.354 N 
ATOM     48  N   UNL A   1      43.503  26.594  30.598  1.00  0.00    -0.248 NA
ATOM     49  C   UNL A   1      44.510  24.852  29.406  1.00  0.00     0.031 C 
ATOM     50  C   UNL A   1      45.307  28.580  34.138  1.00  0.00     0.029 A 
ATOM     51  C   UNL A   1      44.779  27.960  33.017  1.00  0.00     0.049 A 
ATOM     52  H   UNL A   1      42.961  28.353  32.018  1.00  0.00     0.167 HD
ATOM     53  C   UNL A   1      44.732  26.296  31.178  1.00  0.00     0.074 A 
ATOM     54  C   UNL A   1      45.292  25.194  30.420  1.00  0.00     0.031 C 
ATOM     55  C   UNL A   1      45.340  26.878  32.242  1.00  0.00     0.034 A 
BRANCH  42  56
ATOM     56  C   UNL A   1      42.106  31.527  34.776  1.00  0.00     0.023 A 
ATOM     57  C   UNL A   1      42.452  32.858  34.487  1.00  0.00     0.031 A 
ATOM     58  C   UNL A   1      41.694  31.227  36.089  1.00  0.00     0.131 A 
ATOM     59  C   UNL A   1      42.437  33.825  35.506  1.00  0.00     0.055 A 
ATOM     60  C   UNL A   1      41.609  32.209  37.079  1.00  0.00     0.041 A 
ATOM     61  F   UNL A   1      41.369  29.971  36.433  1.00  0.00    -0.206 F 
ATOM     62  C   UNL A   1      41.994  33.515  36.795  1.00  0.00     0.022 A 
BRANCH  59  63
ATOM     63  S   UNL A   1      43.132  35.464  35.159  1.00  0.00     0.124 S 
ATOM     64  O   UNL A   1      44.366  35.119  34.456  1.00  0.00    -0.237 OA
ATOM     65  O   UNL A   1      42.088  36.084  34.352  1.00  0.00    -0.237 OA
ATOM     66  O   UNL A   1      43.323  36.044  36.488  1.00  0.00    -0.744 OA
ENDBRANCH  59  63
ENDBRANCH  42  56
BRANCH  43  67
ATOM     67  C   UNL A   1      42.299  24.662  27.487  1.00  0.00     0.023 A 
ATOM     68  C   UNL A   1      41.600  23.447  27.522  1.00  0.00     0.031 A 
ATOM     69  C   UNL A   1      43.074  24.948  26.347  1.00  0.00     0.131 A 
ATOM     70  C   UNL A   1      41.712  22.549  26.451  1.00  0.00     0.055 A 
ATOM     71  C   UNL A   1      43.138  24.076  25.261  1.00  0.00     0.041 A 
ATOM     72  F   UNL A   1      43.759  26.100  26.263  1.00  0.00    -0.206 F 
ATOM     73  C   UNL A   1      42.462  22.862  25.314  1.00  0.00     0.022 A 
BRANCH  70  74
ATOM     74  S   UNL A   1      40.916  20.927  26.597  1.00  0.00     0.124 S 
ATOM     75  O   UNL A   1      40.821  20.772  28.042  1.00  0.00    -0.237 OA
ATOM     76  O   UNL A   1      39.659  21.143  25.889  1.00  0.00    -0.237 OA
ATOM     77  O   UNL A   1      41.856  20.027  25.932  1.00  0.00    -0.744 OA
ENDBRANCH  70  74
ENDBRANCH  43  67
BRANCH  55  78
ATOM     78  C   UNL A   1      46.666  26.297  32.666  1.00  0.00     0.023 A 
ATOM     79  C   UNL A   1      46.748  25.240  33.591  1.00  0.00     0.031 A 
ATOM     80  C   UNL A   1      47.866  26.830  32.163  1.00  0.00     0.131 A 
ATOM     81  C   UNL A   1      48.003  24.792  34.029  1.00  0.00     0.055 A 
ATOM     82  C   UNL A   1      49.111  26.339  32.557  1.00  0.00     0.041 A 
ATOM     83  F   UNL A   1      47.846  27.843  31.282  1.00  0.00    -0.206 F 
ATOM     84  C   UNL A   1      49.185  25.323  33.507  1.00  0.00     0.022 A 
BRANCH  81  85
ATOM     85  S   UNL A   1      48.073  23.571  35.369  1.00  0.00     0.124 S 
ATOM     86  O   UNL A   1      47.099  24.104  36.316  1.00  0.00    -0.237 OA
ATOM     87  O   UNL A   1      47.690  22.338  34.689  1.00  0.00    -0.237 OA
ATOM     88  O   UNL A   1      49.464  23.627  35.813  1.00  0.00    -0.744 OA
ENDBRANCH  81  85
ENDBRANCH  55  78
ENDBRANCH  29  30
ENDBRANCH  22  24
ENDBRANCH  21  22
ENDBRANCH   1  21
TORSDOF 16
ENDMDL
MODEL 2
REMARK VINA RESULT:     -10.9      1.901      2.185
REMARK SMILES C[C@@]1(O)N(CC(=O)OCCOC(=O)c2ccc(-c3c4nc(c(-c5cc(S(=O)(=O)[O-])ccc5F)c5ccc([nH]5)c(-c5cc(S(=O)(=O)[O-])ccc5F)c5nc(c(-c6cc(S(=O)(=O)[O-])ccc6F)c6ccc3[nH]6)C=C5)C=C4)cc2)C(=O)OC12CCCCC2
REMARK SMILES IDX 10 1 9 2 8 3 6 4 7 5 5 6 4 7 1 8 2 9 80 10 77 11 79 12 81 13
REMARK SMILES IDX 85 14 78 15 82 16 84 17 83 18 3 19 11 21 12 22 13 23 14 24
REMARK SMILES IDX 15 25 76 26 16 27 75 28 17 29 18 30 19 31 69 32 20 33 74 34
REMARK SMILES IDX 68 35 70 36 21 37 73 38 67 39 66 40 22 42 54 43 34 44 53 45
REMARK SMILES IDX 35 46 38 47 52 48 71 49 36 50 37 51 51 53 72 54 39 55 23 56
REMARK SMILES IDX 24 57 32 58 25 59 31 60 33 61 30 62 26 63 27 64 28 65 29 66
REMARK SMILES IDX 55 67 56 68 64 69 57 70 63 71 65 72 62 73 58 74 59 75 60 76
REMARK SMILES IDX 61 77 40 78 41 79 49 80 42 81 48 82 50 83 47 84 43 85 44 86
REMARK SMILES IDX 45 87 46 88
REMARK H PARENT 3 20 70 41 38 52
REMARK Flexibility Score: inf
ROOT
ATOM      1  C   UNL A   1      33.423  33.754  28.042  1.00  0.00     0.275 C 
ENDROOT
BRANCH   1   2
ATOM      2  C   UNL A   1      33.685  35.234  28.323  1.00  0.00     0.274 C 
BRANCH   2   3
ATOM      3  O   UNL A   1      32.597  35.856  29.047  1.00  0.00    -0.461 OA
BRANCH   3   4
ATOM      4  C   UNL A   1      32.900  36.310  30.287  1.00  0.00     0.326 C 
ATOM      5  O   UNL A   1      32.910  37.501  30.594  1.00  0.00    -0.250 OA
BRANCH   4   6
ATOM      6  C   UNL A   1      33.234  35.231  31.321  1.00  0.00     0.248 C 
BRANCH   6   7
ATOM      7  N   UNL A   1      34.510  35.118  32.020  1.00  0.00    -0.265 N 
ATOM      8  C   UNL A   1      34.945  32.715  31.589  1.00  0.00     0.072 C 
ATOM      9  C   UNL A   1      35.514  34.113  31.800  1.00  0.00     0.181 C 
ATOM     10  C   UNL A   1      36.418  34.238  33.072  1.00  0.00     0.161 C 
ATOM     11  C   UNL A   1      34.813  35.894  33.105  1.00  0.00     0.413 C 
ATOM     12  O   UNL A   1      35.943  35.448  33.718  1.00  0.00    -0.438 OA
ATOM     13  C   UNL A   1      36.260  33.071  34.075  1.00  0.00     0.054 C 
ATOM     14  C   UNL A   1      37.906  34.481  32.750  1.00  0.00     0.054 C 
ATOM     15  O   UNL A   1      34.159  36.839  33.521  1.00  0.00    -0.224 OA
ATOM     16  C   UNL A   1      37.164  33.174  35.300  1.00  0.00     0.004 C 
ATOM     17  C   UNL A   1      38.768  34.603  34.008  1.00  0.00     0.004 C 
ATOM     18  C   UNL A   1      38.620  33.381  34.904  1.00  0.00     0.000 C 
BRANCH   9  19
ATOM     19  O   UNL A   1      36.229  34.522  30.643  1.00  0.00    -0.367 OA
ATOM     20  H   UNL A   1      35.775  35.274  30.231  1.00  0.00     0.213 HD
ENDBRANCH   9  19
ENDBRANCH   6   7
ENDBRANCH   4   6
ENDBRANCH   3   4
ENDBRANCH   2   3
ENDBRANCH   1   2
BRANCH   1  21
ATOM     21  O   UNL A   1      34.650  33.028  27.840  1.00  0.00    -0.458 OA
BRANCH  21  22
ATOM     22  C   UNL A   1      34.504  31.688  27.904  1.00  0.00     0.338 C 
ATOM     23  O   UNL A   1      33.486  31.052  27.665  1.00  0.00    -0.246 OA
BRANCH  22  24
ATOM     24  C   UNL A   1      35.775  31.014  28.208  1.00  0.00     0.060 A 
ATOM     25  C   UNL A   1      35.748  29.720  28.733  1.00  0.00     0.016 A 
ATOM     26  C   UNL A   1      36.953  31.760  28.224  1.00  0.00     0.016 A 
ATOM     27  C   UNL A   1      36.878  29.211  29.370  1.00  0.00     0.010 A 
ATOM     28  C   UNL A   1      38.113  31.200  28.768  1.00  0.00     0.010 A 
ATOM     29  C   UNL A   1      38.084  29.933  29.373  1.00  0.00    -0.014 A 
BRANCH  29  30
ATOM     30  C   UNL A   1      39.323  29.345  29.954  1.00  0.00     0.031 A 
ATOM     31  C   UNL A   1      40.020  29.989  31.123  1.00  0.00     0.074 A 
ATOM     32  C   UNL A   1      39.849  28.243  29.383  1.00  0.00     0.049 A 
ATOM     33  N   UNL A   1      41.197  29.725  31.633  1.00  0.00    -0.248 NA
ATOM     34  C   UNL A   1      39.308  31.083  31.800  1.00  0.00     0.031 C 
ATOM     35  C   UNL A   1      39.259  27.511  28.259  1.00  0.00     0.029 A 
ATOM     36  N   UNL A   1      41.005  27.555  29.653  1.00  0.00    -0.354 N 
ATOM     37  C   UNL A   1      41.386  30.639  32.666  1.00  0.00     0.074 A 
ATOM     38  C   UNL A   1      40.201  31.474  32.700  1.00  0.00     0.031 C 
ATOM     39  C   UNL A   1      40.046  26.474  27.946  1.00  0.00     0.029 A 
ATOM     40  C   UNL A   1      41.240  26.520  28.779  1.00  0.00     0.049 A 
ATOM     41  H   UNL A   1      41.608  27.780  30.399  1.00  0.00     0.167 HD
ATOM     42  C   UNL A   1      42.449  30.767  33.501  1.00  0.00     0.034 A 
ATOM     43  C   UNL A   1      42.317  25.728  28.617  1.00  0.00     0.034 A 
ATOM     44  C   UNL A   1      43.615  29.911  33.458  1.00  0.00     0.049 A 
ATOM     45  C   UNL A   1      43.506  25.926  29.514  1.00  0.00     0.074 A 
ATOM     46  C   UNL A   1      44.730  29.932  34.281  1.00  0.00     0.029 A 
ATOM     47  N   UNL A   1      43.824  28.889  32.541  1.00  0.00    -0.354 N 
ATOM     48  N   UNL A   1      43.678  26.807  30.472  1.00  0.00    -0.248 NA
ATOM     49  C   UNL A   1      44.646  25.026  29.306  1.00  0.00     0.031 C 
ATOM     50  C   UNL A   1      45.639  28.975  33.817  1.00  0.00     0.029 A 
ATOM     51  C   UNL A   1      45.061  28.298  32.755  1.00  0.00     0.049 A 
ATOM     52  H   UNL A   1      43.186  28.621  31.840  1.00  0.00     0.167 HD
ATOM     53  C   UNL A   1      44.941  26.552  30.997  1.00  0.00     0.074 A 
ATOM     54  C   UNL A   1      45.476  25.425  30.259  1.00  0.00     0.031 C 
ATOM     55  C   UNL A   1      45.596  27.190  31.999  1.00  0.00     0.034 A 
BRANCH  42  56
ATOM     56  C   UNL A   1      42.431  31.906  34.497  1.00  0.00     0.023 A 
ATOM     57  C   UNL A   1      41.925  31.757  35.798  1.00  0.00     0.031 A 
ATOM     58  C   UNL A   1      42.936  33.169  34.129  1.00  0.00     0.131 A 
ATOM     59  C   UNL A   1      41.879  32.862  36.665  1.00  0.00     0.055 A 
ATOM     60  C   UNL A   1      42.957  34.244  35.021  1.00  0.00     0.041 A 
ATOM     61  F   UNL A   1      43.416  33.380  32.894  1.00  0.00    -0.206 F 
ATOM     62  C   UNL A   1      42.415  34.098  36.294  1.00  0.00     0.022 A 
BRANCH  59  63
ATOM     63  S   UNL A   1      40.989  32.698  38.237  1.00  0.00     0.124 S 
ATOM     64  O   UNL A   1      39.766  32.019  37.814  1.00  0.00    -0.237 OA
ATOM     65  O   UNL A   1      41.913  31.909  39.041  1.00  0.00    -0.237 OA
ATOM     66  O   UNL A   1      40.804  34.081  38.673  1.00  0.00    -0.744 OA
ENDBRANCH  59  63
ENDBRANCH  42  56
BRANCH  43  67
ATOM     67  C   UNL A   1      42.338  24.720  27.521  1.00  0.00     0.023 A 
ATOM     68  C   UNL A   1      41.745  23.461  27.685  1.00  0.00     0.031 A 
ATOM     69  C   UNL A   1      42.961  25.004  26.290  1.00  0.00     0.131 A 
ATOM     70  C   UNL A   1      41.813  22.519  26.648  1.00  0.00     0.055 A 
ATOM     71  C   UNL A   1      42.977  24.084  25.243  1.00  0.00     0.041 A 
ATOM     72  F   UNL A   1      43.539  26.198  26.081  1.00  0.00    -0.206 F 
ATOM     73  C   UNL A   1      42.409  22.827  25.422  1.00  0.00     0.022 A 
BRANCH  70  74
ATOM     74  S   UNL A   1      41.169  20.852  26.951  1.00  0.00     0.124 S 
ATOM     75  O   UNL A   1      40.807  20.925  28.361  1.00  0.00    -0.237 OA
ATOM     76  O   UNL A   1      40.060  20.780  26.005  1.00  0.00    -0.237 OA
ATOM     77  O   UNL A   1      42.306  19.987  26.642  1.00  0.00    -0.744 OA
ENDBRANCH  70  74
ENDBRANCH  43  67
BRANCH  55  78
ATOM     78  C   UNL A   1      46.952  26.646  32.375  1.00  0.00     0.023 A 
ATOM     79  C   UNL A   1      48.131  27.115  31.770  1.00  0.00     0.031 A 
ATOM     80  C   UNL A   1      47.062  25.618  33.329  1.00  0.00     0.131 A 
ATOM     81  C   UNL A   1      49.362  26.517  32.080  1.00  0.00     0.055 A 
ATOM     82  C   UNL A   1      48.295  25.068  33.678  1.00  0.00     0.041 A 
ATOM     83  F   UNL A   1      45.967  25.129  33.934  1.00  0.00    -0.206 F 
ATOM     84  C   UNL A   1      49.453  25.507  33.042  1.00  0.00     0.022 A 
BRANCH  81  85
ATOM     85  S   UNL A   1      50.832  27.005  31.136  1.00  0.00     0.124 S 
ATOM     86  O   UNL A   1      50.653  26.263  29.893  1.00  0.00    -0.237 OA
ATOM     87  O   UNL A   1      50.675  28.453  31.042  1.00  0.00    -0.237 OA
ATOM     88  O   UNL A   1      51.943  26.556  31.972  1.00  0.00    -0.744 OA
ENDBRANCH  81  85
ENDBRANCH  55  78
ENDBRANCH  29  30
ENDBRANCH  22  24
ENDBRANCH  21  22
ENDBRANCH   1  21
TORSDOF 16
ENDMDL
MODEL 3
REMARK VINA RESULT:     -10.8      0.692      7.957
REMARK SMILES C[C@@]1(O)N(CC(=O)OCCOC(=O)c2ccc(-c3c4nc(c(-c5cc(S(=O)(=O)[O-])ccc5F)c5ccc([nH]5)c(-c5cc(S(=O)(=O)[O-])ccc5F)c5nc(c(-c6cc(S(=O)(=O)[O-])ccc6F)c6ccc3[nH]6)C=C5)C=C4)cc2)C(=O)OC12CCCCC2
REMARK SMILES IDX 10 1 9 2 8 3 6 4 7 5 5 6 4 7 1 8 2 9 80 10 77 11 79 12 81 13
REMARK SMILES IDX 85 14 78 15 82 16 84 17 83 18 3 19 11 21 12 22 13 23 14 24
REMARK SMILES IDX 15 25 76 26 16 27 75 28 17 29 18 30 19 31 69 32 20 33 74 34
REMARK SMILES IDX 68 35 70 36 21 37 73 38 67 39 66 40 22 42 54 43 34 44 53 45
REMARK SMILES IDX 35 46 38 47 52 48 71 49 36 50 37 51 51 53 72 54 39 55 23 56
REMARK SMILES IDX 24 57 32 58 25 59 31 60 33 61 30 62 26 63 27 64 28 65 29 66
REMARK SMILES IDX 55 67 56 68 64 69 57 70 63 71 65 72 62 73 58 74 59 75 60 76
REMARK SMILES IDX 61 77 40 78 41 79 49 80 42 81 48 82 50 83 47 84 43 85 44 86
REMARK SMILES IDX 45 87 46 88
REMARK H PARENT 3 20 70 41 38 52
REMARK Flexibility Score: inf
ROOT
ATOM      1  C   UNL A   1      33.387  33.722  28.134  1.00  0.00     0.275 C 
ENDROOT
BRANCH   1   2
ATOM      2  C   UNL A   1      33.585  35.235  28.252  1.00  0.00     0.274 C 
BRANCH   2   3
ATOM      3  O   UNL A   1      32.534  35.867  29.019  1.00  0.00    -0.461 OA
BRANCH   3   4
ATOM      4  C   UNL A   1      32.889  36.311  30.248  1.00  0.00     0.326 C 
ATOM      5  O   UNL A   1      32.936  37.500  30.557  1.00  0.00    -0.250 OA
BRANCH   4   6
ATOM      6  C   UNL A   1      33.236  35.223  31.268  1.00  0.00     0.248 C 
BRANCH   6   7
ATOM      7  N   UNL A   1      34.507  35.124  31.977  1.00  0.00    -0.265 N 
ATOM      8  C   UNL A   1      34.968  32.723  31.555  1.00  0.00     0.072 C 
ATOM      9  C   UNL A   1      35.522  34.128  31.767  1.00  0.00     0.181 C 
ATOM     10  C   UNL A   1      36.417  34.265  33.044  1.00  0.00     0.161 C 
ATOM     11  C   UNL A   1      34.796  35.906  33.062  1.00  0.00     0.413 C 
ATOM     12  O   UNL A   1      35.926  35.472  33.684  1.00  0.00    -0.438 OA
ATOM     13  C   UNL A   1      36.262  33.099  34.050  1.00  0.00     0.054 C 
ATOM     14  C   UNL A   1      37.904  34.521  32.733  1.00  0.00     0.054 C 
ATOM     15  O   UNL A   1      34.130  36.845  33.470  1.00  0.00    -0.224 OA
ATOM     16  C   UNL A   1      37.157  33.213  35.281  1.00  0.00     0.004 C 
ATOM     17  C   UNL A   1      38.756  34.654  33.996  1.00  0.00     0.004 C 
ATOM     18  C   UNL A   1      38.613  33.434  34.894  1.00  0.00     0.000 C 
BRANCH   9  19
ATOM     19  O   UNL A   1      36.242  34.540  30.613  1.00  0.00    -0.367 OA
ATOM     20  H   UNL A   1      36.613  33.762  30.168  1.00  0.00     0.213 HD
ENDBRANCH   9  19
ENDBRANCH   6   7
ENDBRANCH   4   6
ENDBRANCH   3   4
ENDBRANCH   2   3
ENDBRANCH   1   2
BRANCH   1  21
ATOM     21  O   UNL A   1      34.616  33.053  27.791  1.00  0.00    -0.458 OA
BRANCH  21  22
ATOM     22  C   UNL A   1      34.548  31.709  27.895  1.00  0.00     0.338 C 
ATOM     23  O   UNL A   1      33.556  31.013  27.727  1.00  0.00    -0.246 OA
BRANCH  22  24
ATOM     24  C   UNL A   1      35.870  31.114  28.148  1.00  0.00     0.060 A 
ATOM     25  C   UNL A   1      35.943  29.797  28.605  1.00  0.00     0.016 A 
ATOM     26  C   UNL A   1      36.991  31.942  28.187  1.00  0.00     0.016 A 
ATOM     27  C   UNL A   1      37.118  29.339  29.200  1.00  0.00     0.010 A 
ATOM     28  C   UNL A   1      38.198  31.440  28.685  1.00  0.00     0.010 A 
ATOM     29  C   UNL A   1      38.269  30.145  29.225  1.00  0.00    -0.014 A 
BRANCH  29  30
ATOM     30  C   UNL A   1      39.556  29.619  29.758  1.00  0.00     0.031 A 
ATOM     31  C   UNL A   1      40.254  28.454  29.107  1.00  0.00     0.074 A 
ATOM     32  C   UNL A   1      40.072  30.171  30.874  1.00  0.00     0.049 A 
ATOM     33  N   UNL A   1      41.272  27.752  29.539  1.00  0.00    -0.248 NA
ATOM     34  C   UNL A   1      39.732  28.011  27.806  1.00  0.00     0.031 C 
ATOM     35  C   UNL A   1      39.503  31.319  31.588  1.00  0.00     0.029 A 
ATOM     36  N   UNL A   1      41.176  29.835  31.617  1.00  0.00    -0.354 N 
ATOM     37  C   UNL A   1      41.493  26.763  28.586  1.00  0.00     0.074 A 
ATOM     38  C   UNL A   1      40.490  26.950  27.556  1.00  0.00     0.031 C 
ATOM     39  C   UNL A   1      40.267  31.598  32.653  1.00  0.00     0.029 A 
ATOM     40  C   UNL A   1      41.320  30.597  32.753  1.00  0.00     0.049 A 
ATOM     41  H   UNL A   1      41.802  29.120  31.362  1.00  0.00     0.167 HD
ATOM     42  C   UNL A   1      42.441  25.790  28.577  1.00  0.00     0.034 A 
ATOM     43  C   UNL A   1      42.165  30.476  33.795  1.00  0.00     0.034 A 
ATOM     44  C   UNL A   1      43.442  25.631  29.610  1.00  0.00     0.049 A 
ATOM     45  C   UNL A   1      43.167  29.357  33.792  1.00  0.00     0.074 A 
ATOM     46  C   UNL A   1      44.469  24.703  29.679  1.00  0.00     0.029 A 
ATOM     47  N   UNL A   1      43.539  26.409  30.757  1.00  0.00    -0.354 N 
ATOM     48  N   UNL A   1      43.350  28.417  32.894  1.00  0.00    -0.248 NA
ATOM     49  C   UNL A   1      44.073  29.281  34.944  1.00  0.00     0.031 C 
ATOM     50  C   UNL A   1      45.137  24.874  30.897  1.00  0.00     0.029 A 
ATOM     51  C   UNL A   1      44.582  25.961  31.554  1.00  0.00     0.049 A 
ATOM     52  H   UNL A   1      42.951  27.170  30.973  1.00  0.00     0.167 HD
ATOM     53  C   UNL A   1      44.410  27.649  33.365  1.00  0.00     0.074 A 
ATOM     54  C   UNL A   1      44.834  28.247  34.615  1.00  0.00     0.031 C 
ATOM     55  C   UNL A   1      44.982  26.550  32.810  1.00  0.00     0.034 A 
BRANCH  42  56
ATOM     56  C   UNL A   1      42.410  24.784  27.447  1.00  0.00     0.023 A 
ATOM     57  C   UNL A   1      41.580  23.651  27.475  1.00  0.00     0.031 A 
ATOM     58  C   UNL A   1      43.231  24.969  26.318  1.00  0.00     0.131 A 
ATOM     59  C   UNL A   1      41.631  22.718  26.426  1.00  0.00     0.055 A 
ATOM     60  C   UNL A   1      43.221  24.076  25.244  1.00  0.00     0.041 A 
ATOM     61  F   UNL A   1      44.060  26.022  26.240  1.00  0.00    -0.206 F 
ATOM     62  C   UNL A   1      42.427  22.935  25.299  1.00  0.00     0.022 A 
BRANCH  59  63
ATOM     63  S   UNL A   1      40.742  21.147  26.616  1.00  0.00     0.124 S 
ATOM     64  O   UNL A   1      41.548  20.250  25.791  1.00  0.00    -0.237 OA
ATOM     65  O   UNL A   1      40.805  20.922  28.055  1.00  0.00    -0.237 OA
ATOM     66  O   UNL A   1      39.411  21.440  26.087  1.00  0.00    -0.744 OA
ENDBRANCH  59  63
ENDBRANCH  42  56
BRANCH  43  67
ATOM     67  C   UNL A   1      42.050  31.406  34.953  1.00  0.00     0.023 A 
ATOM     68  C   UNL A   1      42.760  32.615  34.982  1.00  0.00     0.031 A 
ATOM     69  C   UNL A   1      41.230  31.092  36.053  1.00  0.00     0.131 A 
ATOM     70  C   UNL A   1      42.662  33.452  36.102  1.00  0.00     0.055 A 
ATOM     71  C   UNL A   1      41.092  31.955  37.140  1.00  0.00     0.041 A 
ATOM     72  F   UNL A   1      40.526  29.949  36.071  1.00  0.00    -0.206 F 
ATOM     73  C   UNL A   1      41.820  33.140  37.173  1.00  0.00     0.022 A 
BRANCH  70  74
ATOM     74  S   UNL A   1      43.708  34.931  36.171  1.00  0.00     0.124 S 
ATOM     75  O   UNL A   1      43.051  35.712  37.211  1.00  0.00    -0.237 OA
ATOM     76  O   UNL A   1      45.008  34.365  36.516  1.00  0.00    -0.237 OA
ATOM     77  O   UNL A   1      43.609  35.479  34.820  1.00  0.00    -0.744 OA
ENDBRANCH  70  74
ENDBRANCH  43  67
BRANCH  55  78
ATOM     78  C   UNL A   1      46.159  25.956  33.545  1.00  0.00     0.023 A 
ATOM     79  C   UNL A   1      46.003  24.899  34.459  1.00  0.00     0.031 A 
ATOM     80  C   UNL A   1      47.449  26.479  33.353  1.00  0.00     0.131 A 
ATOM     81  C   UNL A   1      47.108  24.439  35.190  1.00  0.00     0.055 A 
ATOM     82  C   UNL A   1      48.555  25.977  34.040  1.00  0.00     0.041 A 
ATOM     83  F   UNL A   1      47.655  27.494  32.497  1.00  0.00    -0.206 F 
ATOM     84  C   UNL A   1      48.386  24.961  34.975  1.00  0.00     0.022 A 
BRANCH  81  85
ATOM     85  S   UNL A   1      46.837  23.216  36.503  1.00  0.00     0.124 S 
ATOM     86  O   UNL A   1      47.069  24.008  37.706  1.00  0.00    -0.237 OA
ATOM     87  O   UNL A   1      45.457  22.806  36.267  1.00  0.00    -0.237 OA
ATOM     88  O   UNL A   1      47.843  22.192  36.232  1.00  0.00    -0.744 OA
ENDBRANCH  81  85
ENDBRANCH  55  78
ENDBRANCH  29  30
ENDBRANCH  22  24
ENDBRANCH  21  22
ENDBRANCH   1  21
TORSDOF 16
ENDMDL
