MODEL 1
REMARK VINA RESULT:     -11.9      0.000      0.000
REMARK SMILES N#CCCn1cc(C(=O)OCCOC(=O)c2ccc(-c3c4nc(c(-c5cc(S(=O)(=O)[O-])ccc5F)c5ccc([nH]5)c(-c5cc(S(=O)(=O)[O-])ccc5F)c5nc(c(-c6cc(S(=O)(=O)[O-])ccc6F)c6ccc3[nH]6)C=C5)C=C4)cc2)c(-c2cccc([N+](=O)[O-])c2)n1
REMARK SMILES IDX 11 1 10 2 8 3 9 4 7 5 5 6 6 7 89 8 79 9 4 10 3 11 2 12 1 13
REMARK SMILES IDX 80 14 81 15 88 16 82 17 84 18 83 19 85 20 86 21 87 22 12 23
REMARK SMILES IDX 13 24 14 25 15 26 16 27 17 28 78 29 18 30 77 31 19 32 20 33
REMARK SMILES IDX 21 34 71 35 22 36 76 37 70 38 72 39 23 40 75 41 69 42 68 43
REMARK SMILES IDX 24 45 56 46 36 47 55 48 37 49 40 50 54 51 73 52 38 53 39 54
REMARK SMILES IDX 53 56 74 57 41 58 25 59 26 60 34 61 27 62 33 63 35 64 32 65
REMARK SMILES IDX 28 66 29 67 30 68 31 69 57 70 58 71 66 72 59 73 65 74 67 75
REMARK SMILES IDX 64 76 60 77 61 78 62 79 63 80 42 81 43 82 51 83 44 84 50 85
REMARK SMILES IDX 52 86 49 87 45 88 46 89 47 90 48 91
REMARK H PARENT 72 44 40 55
REMARK Flexibility Score: inf
ROOT
ATOM      1  C   UNL A   1      33.788  29.372  26.068  1.00  0.00     0.275 C 
ENDROOT
BRANCH   1   2
ATOM      2  O   UNL A   1      32.459  29.246  25.534  1.00  0.00    -0.458 OA
BRANCH   2   3
ATOM      3  C   UNL A   1      32.342  28.829  24.230  1.00  0.00     0.342 C 
ATOM      4  O   UNL A   1      33.288  28.603  23.493  1.00  0.00    -0.246 OA
BRANCH   3   5
ATOM      5  C   UNL A   1      30.951  28.694  23.831  1.00  0.00     0.106 A 
ATOM      6  N   UNL A   1      28.923  29.177  23.141  1.00  0.00    -0.270 N 
ATOM      7  C   UNL A   1      30.081  29.735  23.579  1.00  0.00     0.125 A 
ATOM      8  N   UNL A   1      28.927  27.835  23.201  1.00  0.00    -0.172 NA
ATOM      9  C   UNL A   1      30.150  27.527  23.665  1.00  0.00     0.107 A 
BRANCH   6  10
ATOM     10  C   UNL A   1      27.761  29.853  22.592  1.00  0.00     0.159 C 
BRANCH  10  11
ATOM     11  C   UNL A   1      28.059  30.857  21.482  1.00  0.00     0.144 C 
BRANCH  11  12
ATOM     12  C   UNL A   1      28.151  32.265  22.048  1.00  0.00     0.064 C 
ATOM     13  N   UNL A   1      28.227  33.433  22.518  1.00  0.00    -0.198 NA
ENDBRANCH  11  12
ENDBRANCH  10  11
ENDBRANCH   6  10
BRANCH   9  14
ATOM     14  C   UNL A   1      30.495  26.151  23.988  1.00  0.00     0.010 A 
ATOM     15  C   UNL A   1      30.927  25.299  22.962  1.00  0.00     0.011 A 
ATOM     16  C   UNL A   1      30.386  25.666  25.292  1.00  0.00     0.096 A 
ATOM     17  C   UNL A   1      31.172  23.947  23.207  1.00  0.00     0.008 A 
ATOM     18  C   UNL A   1      30.663  24.313  25.538  1.00  0.00     0.270 A 
ATOM     19  C   UNL A   1      31.029  23.445  24.498  1.00  0.00     0.085 A 
BRANCH  18  20
ATOM     20  N   UNL A   1      30.584  23.799  26.908  1.00  0.00     0.062 N 
ATOM     21  O   UNL A   1      31.645  23.637  27.528  1.00  0.00    -0.258 OA
ATOM     22  O   UNL A   1      29.459  23.566  27.373  1.00  0.00    -0.258 OA
ENDBRANCH  18  20
ENDBRANCH   9  14
ENDBRANCH   3   5
ENDBRANCH   2   3
ENDBRANCH   1   2
BRANCH   1  23
ATOM     23  C   UNL A   1      33.924  30.577  26.993  1.00  0.00     0.275 C 
BRANCH  23  24
ATOM     24  O   UNL A   1      34.787  30.306  28.094  1.00  0.00    -0.458 OA
BRANCH  24  25
ATOM     25  C   UNL A   1      35.790  31.200  28.242  1.00  0.00     0.338 C 
ATOM     26  O   UNL A   1      35.816  32.348  27.826  1.00  0.00    -0.246 OA
BRANCH  25  27
ATOM     27  C   UNL A   1      36.933  30.569  28.896  1.00  0.00     0.060 A 
ATOM     28  C   UNL A   1      38.039  31.380  29.171  1.00  0.00     0.016 A 
ATOM     29  C   UNL A   1      36.980  29.176  29.034  1.00  0.00     0.016 A 
ATOM     30  C   UNL A   1      39.240  30.790  29.495  1.00  0.00     0.010 A 
ATOM     31  C   UNL A   1      38.187  28.585  29.325  1.00  0.00     0.010 A 
ATOM     32  C   UNL A   1      39.310  29.397  29.501  1.00  0.00    -0.014 A 
BRANCH  32  33
ATOM     33  C   UNL A   1      40.586  28.771  29.794  1.00  0.00     0.031 A 
ATOM     34  C   UNL A   1      40.897  28.764  31.252  1.00  0.00     0.074 A 
ATOM     35  C   UNL A   1      41.258  28.153  28.800  1.00  0.00     0.049 A 
ATOM     36  N   UNL A   1      41.949  29.214  31.850  1.00  0.00    -0.248 NA
ATOM     37  C   UNL A   1      39.824  28.363  32.190  1.00  0.00     0.031 C 
ATOM     38  C   UNL A   1      40.822  27.991  27.406  1.00  0.00     0.029 A 
ATOM     39  N   UNL A   1      42.408  27.429  28.827  1.00  0.00    -0.354 N 
ATOM     40  C   UNL A   1      41.782  28.900  33.199  1.00  0.00     0.074 A 
ATOM     41  C   UNL A   1      40.395  28.586  33.372  1.00  0.00     0.031 C 
ATOM     42  C   UNL A   1      41.549  27.018  26.815  1.00  0.00     0.029 A 
ATOM     43  C   UNL A   1      42.575  26.568  27.740  1.00  0.00     0.049 A 
ATOM     44  H   UNL A   1      43.070  27.505  29.552  1.00  0.00     0.167 HD
ATOM     45  C   UNL A   1      42.859  28.626  33.982  1.00  0.00     0.034 A 
ATOM     46  C   UNL A   1      43.430  25.509  27.646  1.00  0.00     0.034 A 
ATOM     47  C   UNL A   1      44.051  29.225  33.431  1.00  0.00     0.049 A 
ATOM     48  C   UNL A   1      44.455  25.705  28.703  1.00  0.00     0.074 A 
ATOM     49  C   UNL A   1      44.449  30.520  33.162  1.00  0.00     0.029 A 
ATOM     50  N   UNL A   1      44.894  28.414  32.706  1.00  0.00    -0.354 N 
ATOM     51  N   UNL A   1      45.297  26.702  28.702  1.00  0.00    -0.248 NA
ATOM     52  C   UNL A   1      44.206  25.108  30.006  1.00  0.00     0.031 C 
ATOM     53  C   UNL A   1      45.180  30.435  31.941  1.00  0.00     0.029 A 
ATOM     54  C   UNL A   1      45.271  29.090  31.572  1.00  0.00     0.049 A 
ATOM     55  H   UNL A   1      45.176  27.506  32.956  1.00  0.00     0.167 HD
ATOM     56  C   UNL A   1      45.343  27.135  30.019  1.00  0.00     0.074 A 
ATOM     57  C   UNL A   1      44.722  26.058  30.791  1.00  0.00     0.031 C 
ATOM     58  C   UNL A   1      45.605  28.443  30.317  1.00  0.00     0.034 A 
BRANCH  45  59
ATOM     59  C   UNL A   1      42.913  27.460  34.953  1.00  0.00     0.023 A 
ATOM     60  C   UNL A   1      43.689  26.351  34.565  1.00  0.00     0.031 A 
ATOM     61  C   UNL A   1      42.025  27.234  36.033  1.00  0.00     0.131 A 
ATOM     62  C   UNL A   1      43.470  25.083  35.129  1.00  0.00     0.055 A 
ATOM     63  C   UNL A   1      41.857  25.983  36.632  1.00  0.00     0.041 A 
ATOM     64  F   UNL A   1      41.208  28.175  36.518  1.00  0.00    -0.206 F 
ATOM     65  C   UNL A   1      42.553  24.888  36.156  1.00  0.00     0.022 A 
BRANCH  62  66
ATOM     66  S   UNL A   1      44.271  23.656  34.355  1.00  0.00     0.124 S 
ATOM     67  O   UNL A   1      45.590  24.196  34.047  1.00  0.00    -0.237 OA
ATOM     68  O   UNL A   1      44.214  22.665  35.425  1.00  0.00    -0.237 OA
ATOM     69  O   UNL A   1      43.423  23.377  33.200  1.00  0.00    -0.744 OA
ENDBRANCH  62  66
ENDBRANCH  45  59
BRANCH  46  70
ATOM     70  C   UNL A   1      43.163  24.184  27.001  1.00  0.00     0.023 A 
ATOM     71  C   UNL A   1      43.998  23.615  26.010  1.00  0.00     0.031 A 
ATOM     72  C   UNL A   1      42.179  23.331  27.552  1.00  0.00     0.131 A 
ATOM     73  C   UNL A   1      43.821  22.263  25.611  1.00  0.00     0.055 A 
ATOM     74  C   UNL A   1      42.012  22.001  27.157  1.00  0.00     0.041 A 
ATOM     75  F   UNL A   1      41.394  23.737  28.562  1.00  0.00    -0.206 F 
ATOM     76  C   UNL A   1      42.838  21.458  26.190  1.00  0.00     0.022 A 
BRANCH  73  77
ATOM     77  S   UNL A   1      44.921  21.495  24.370  1.00  0.00     0.124 S 
ATOM     78  O   UNL A   1      44.602  22.249  23.163  1.00  0.00    -0.237 OA
ATOM     79  O   UNL A   1      46.243  21.713  24.942  1.00  0.00    -0.237 OA
ATOM     80  O   UNL A   1      44.488  20.096  24.348  1.00  0.00    -0.744 OA
ENDBRANCH  73  77
ENDBRANCH  46  70
BRANCH  58  81
ATOM     81  C   UNL A   1      46.131  29.333  29.206  1.00  0.00     0.023 A 
ATOM     82  C   UNL A   1      45.375  30.295  28.492  1.00  0.00     0.031 A 
ATOM     83  C   UNL A   1      47.511  29.267  28.947  1.00  0.00     0.131 A 
ATOM     84  C   UNL A   1      46.011  31.133  27.553  1.00  0.00     0.055 A 
ATOM     85  C   UNL A   1      48.138  30.111  28.035  1.00  0.00     0.041 A 
ATOM     86  F   UNL A   1      48.285  28.394  29.614  1.00  0.00    -0.206 F 
ATOM     87  C   UNL A   1      47.389  31.045  27.330  1.00  0.00     0.022 A 
BRANCH  84  88
ATOM     88  S   UNL A   1      45.058  32.350  26.582  1.00  0.00     0.124 S 
ATOM     89  O   UNL A   1      44.558  33.277  27.592  1.00  0.00    -0.237 OA
ATOM     90  O   UNL A   1      46.061  32.883  25.665  1.00  0.00    -0.237 OA
ATOM     91  O   UNL A   1      44.022  31.537  25.939  1.00  0.00    -0.744 OA
ENDBRANCH  84  88
ENDBRANCH  58  81
ENDBRANCH  32  33
ENDBRANCH  25  27
ENDBRANCH  24  25
ENDBRANCH  23  24
ENDBRANCH   1  23
TORSDOF 19
ENDMDL
MODEL 2
REMARK VINA RESULT:     -11.8      2.251      6.911
REMARK SMILES N#CCCn1cc(C(=O)OCCOC(=O)c2ccc(-c3c4nc(c(-c5cc(S(=O)(=O)[O-])ccc5F)c5ccc([nH]5)c(-c5cc(S(=O)(=O)[O-])ccc5F)c5nc(c(-c6cc(S(=O)(=O)[O-])ccc6F)c6ccc3[nH]6)C=C5)C=C4)cc2)c(-c2cccc([N+](=O)[O-])c2)n1
REMARK SMILES IDX 11 1 10 2 8 3 9 4 7 5 5 6 6 7 89 8 79 9 4 10 3 11 2 12 1 13
REMARK SMILES IDX 80 14 81 15 88 16 82 17 84 18 83 19 85 20 86 21 87 22 12 23
REMARK SMILES IDX 13 24 14 25 15 26 16 27 17 28 78 29 18 30 77 31 19 32 20 33
REMARK SMILES IDX 21 34 71 35 22 36 76 37 70 38 72 39 23 40 75 41 69 42 68 43
REMARK SMILES IDX 24 45 56 46 36 47 55 48 37 49 40 50 54 51 73 52 38 53 39 54
REMARK SMILES IDX 53 56 74 57 41 58 25 59 26 60 34 61 27 62 33 63 35 64 32 65
REMARK SMILES IDX 28 66 29 67 30 68 31 69 57 70 58 71 66 72 59 73 65 74 67 75
REMARK SMILES IDX 64 76 60 77 61 78 62 79 63 80 42 81 43 82 51 83 44 84 50 85
REMARK SMILES IDX 52 86 49 87 45 88 46 89 47 90 48 91
REMARK H PARENT 72 44 40 55
REMARK Flexibility Score: inf
ROOT
ATOM      1  C   UNL A   1      33.546  29.966  26.923  1.00  0.00     0.275 C 
ENDROOT
BRANCH   1   2
ATOM      2  O   UNL A   1      32.600  28.994  26.449  1.00  0.00    -0.458 OA
BRANCH   2   3
ATOM      3  C   UNL A   1      32.688  28.622  25.130  1.00  0.00     0.342 C 
ATOM      4  O   UNL A   1      33.725  28.301  24.574  1.00  0.00    -0.246 OA
BRANCH   3   5
ATOM      5  C   UNL A   1      31.393  28.662  24.472  1.00  0.00     0.106 A 
ATOM      6  N   UNL A   1      29.555  29.406  23.528  1.00  0.00    -0.270 N 
ATOM      7  C   UNL A   1      30.632  29.793  24.257  1.00  0.00     0.125 A 
ATOM      8  N   UNL A   1      29.488  28.076  23.348  1.00  0.00    -0.172 NA
ATOM      9  C   UNL A   1      30.587  27.603  23.960  1.00  0.00     0.107 A 
BRANCH   6  10
ATOM     10  C   UNL A   1      28.548  30.251  22.909  1.00  0.00     0.159 C 
BRANCH  10  11
ATOM     11  C   UNL A   1      28.934  30.831  21.551  1.00  0.00     0.144 C 
BRANCH  11  12
ATOM     12  C   UNL A   1      28.259  32.175  21.335  1.00  0.00     0.064 C 
ATOM     13  N   UNL A   1      27.699  33.291  21.155  1.00  0.00    -0.198 NA
ENDBRANCH  11  12
ENDBRANCH  10  11
ENDBRANCH   6  10
BRANCH   9  14
ATOM     14  C   UNL A   1      30.803  26.171  24.090  1.00  0.00     0.010 A 
ATOM     15  C   UNL A   1      31.136  25.427  22.949  1.00  0.00     0.011 A 
ATOM     16  C   UNL A   1      30.668  25.528  25.321  1.00  0.00     0.096 A 
ATOM     17  C   UNL A   1      31.255  24.038  23.007  1.00  0.00     0.008 A 
ATOM     18  C   UNL A   1      30.818  24.134  25.379  1.00  0.00     0.270 A 
ATOM     19  C   UNL A   1      31.083  23.383  24.225  1.00  0.00     0.085 A 
BRANCH  18  20
ATOM     20  N   UNL A   1      30.711  23.452  26.671  1.00  0.00     0.062 N 
ATOM     21  O   UNL A   1      31.426  23.854  27.600  1.00  0.00    -0.258 OA
ATOM     22  O   UNL A   1      29.903  22.516  26.765  1.00  0.00    -0.258 OA
ENDBRANCH  18  20
ENDBRANCH   9  14
ENDBRANCH   3   5
ENDBRANCH   2   3
ENDBRANCH   1   2
BRANCH   1  23
ATOM     23  C   UNL A   1      34.846  29.320  27.393  1.00  0.00     0.275 C 
BRANCH  23  24
ATOM     24  O   UNL A   1      35.867  30.289  27.623  1.00  0.00    -0.458 OA
BRANCH  24  25
ATOM     25  C   UNL A   1      36.539  30.117  28.784  1.00  0.00     0.338 C 
ATOM     26  O   UNL A   1      36.271  30.615  29.866  1.00  0.00    -0.246 OA
BRANCH  25  27
ATOM     27  C   UNL A   1      37.737  29.313  28.556  1.00  0.00     0.060 A 
ATOM     28  C   UNL A   1      38.141  28.463  29.590  1.00  0.00     0.016 A 
ATOM     29  C   UNL A   1      38.544  29.559  27.439  1.00  0.00     0.016 A 
ATOM     30  C   UNL A   1      39.407  27.924  29.560  1.00  0.00     0.010 A 
ATOM     31  C   UNL A   1      39.820  29.049  27.423  1.00  0.00     0.010 A 
ATOM     32  C   UNL A   1      40.251  28.281  28.508  1.00  0.00    -0.014 A 
BRANCH  32  33
ATOM     33  C   UNL A   1      41.603  27.754  28.498  1.00  0.00     0.031 A 
ATOM     34  C   UNL A   1      41.682  26.396  27.888  1.00  0.00     0.074 A 
ATOM     35  C   UNL A   1      42.623  28.555  28.875  1.00  0.00     0.049 A 
ATOM     36  N   UNL A   1      42.181  25.318  28.394  1.00  0.00    -0.248 NA
ATOM     37  C   UNL A   1      40.958  26.161  26.619  1.00  0.00     0.031 C 
ATOM     38  C   UNL A   1      42.537  29.967  29.271  1.00  0.00     0.029 A 
ATOM     39  N   UNL A   1      43.965  28.339  28.873  1.00  0.00    -0.354 N 
ATOM     40  C   UNL A   1      42.075  24.348  27.398  1.00  0.00     0.074 A 
ATOM     41  C   UNL A   1      41.139  24.854  26.438  1.00  0.00     0.031 C 
ATOM     42  C   UNL A   1      43.764  30.530  29.211  1.00  0.00     0.029 A 
ATOM     43  C   UNL A   1      44.738  29.502  28.887  1.00  0.00     0.049 A 
ATOM     44  H   UNL A   1      44.360  27.437  28.862  1.00  0.00     0.167 HD
ATOM     45  C   UNL A   1      43.002  23.358  27.297  1.00  0.00     0.034 A 
ATOM     46  C   UNL A   1      46.059  29.621  28.569  1.00  0.00     0.034 A 
ATOM     47  C   UNL A   1      43.658  23.149  28.566  1.00  0.00     0.049 A 
ATOM     48  C   UNL A   1      46.632  28.253  28.642  1.00  0.00     0.074 A 
ATOM     49  C   UNL A   1      43.235  22.764  29.823  1.00  0.00     0.029 A 
ATOM     50  N   UNL A   1      44.896  23.722  28.745  1.00  0.00    -0.354 N 
ATOM     51  N   UNL A   1      46.709  27.572  29.753  1.00  0.00    -0.248 NA
ATOM     52  C   UNL A   1      46.637  27.455  27.427  1.00  0.00     0.031 C 
ATOM     53  C   UNL A   1      44.011  23.546  30.729  1.00  0.00     0.029 A 
ATOM     54  C   UNL A   1      44.928  24.299  29.990  1.00  0.00     0.049 A 
ATOM     55  H   UNL A   1      45.631  23.720  28.091  1.00  0.00     0.167 HD
ATOM     56  C   UNL A   1      46.332  26.282  29.410  1.00  0.00     0.074 A 
ATOM     57  C   UNL A   1      46.388  26.249  27.948  1.00  0.00     0.031 C 
ATOM     58  C   UNL A   1      45.726  25.464  30.323  1.00  0.00     0.034 A 
BRANCH  45  59
ATOM     59  C   UNL A   1      43.625  22.925  25.982  1.00  0.00     0.023 A 
ATOM     60  C   UNL A   1      43.753  21.539  25.770  1.00  0.00     0.031 A 
ATOM     61  C   UNL A   1      44.374  23.747  25.105  1.00  0.00     0.131 A 
ATOM     62  C   UNL A   1      44.680  21.031  24.844  1.00  0.00     0.055 A 
ATOM     63  C   UNL A   1      45.249  23.236  24.142  1.00  0.00     0.041 A 
ATOM     64  F   UNL A   1      44.377  25.082  25.176  1.00  0.00    -0.206 F 
ATOM     65  C   UNL A   1      45.436  21.870  24.033  1.00  0.00     0.022 A 
BRANCH  62  66
ATOM     66  S   UNL A   1      45.017  19.253  24.862  1.00  0.00     0.124 S 
ATOM     67  O   UNL A   1      43.888  18.752  25.637  1.00  0.00    -0.237 OA
ATOM     68  O   UNL A   1      45.015  18.935  23.438  1.00  0.00    -0.237 OA
ATOM     69  O   UNL A   1      46.318  19.163  25.520  1.00  0.00    -0.744 OA
ENDBRANCH  62  66
ENDBRANCH  45  59
BRANCH  46  70
ATOM     70  C   UNL A   1      46.712  30.742  27.820  1.00  0.00     0.023 A 
ATOM     71  C   UNL A   1      45.994  31.706  27.072  1.00  0.00     0.031 A 
ATOM     72  C   UNL A   1      48.081  31.019  28.042  1.00  0.00     0.131 A 
ATOM     73  C   UNL A   1      46.646  32.869  26.584  1.00  0.00     0.055 A 
ATOM     74  C   UNL A   1      48.717  32.166  27.560  1.00  0.00     0.041 A 
ATOM     75  F   UNL A   1      48.835  30.220  28.813  1.00  0.00    -0.206 F 
ATOM     76  C   UNL A   1      48.000  33.101  26.836  1.00  0.00     0.022 A 
BRANCH  73  77
ATOM     77  S   UNL A   1      45.726  34.149  25.661  1.00  0.00     0.124 S 
ATOM     78  O   UNL A   1      45.160  34.959  26.733  1.00  0.00    -0.237 OA
ATOM     79  O   UNL A   1      46.771  34.772  24.858  1.00  0.00    -0.237 OA
ATOM     80  O   UNL A   1      44.744  33.380  24.894  1.00  0.00    -0.744 OA
ENDBRANCH  73  77
ENDBRANCH  46  70
BRANCH  58  81
ATOM     81  C   UNL A   1      45.745  25.888  31.780  1.00  0.00     0.023 A 
ATOM     82  C   UNL A   1      44.643  26.406  32.502  1.00  0.00     0.031 A 
ATOM     83  C   UNL A   1      46.931  25.638  32.492  1.00  0.00     0.131 A 
ATOM     84  C   UNL A   1      44.766  26.663  33.884  1.00  0.00     0.055 A 
ATOM     85  C   UNL A   1      47.041  25.873  33.860  1.00  0.00     0.041 A 
ATOM     86  F   UNL A   1      48.002  25.121  31.866  1.00  0.00    -0.206 F 
ATOM     87  C   UNL A   1      45.960  26.392  34.561  1.00  0.00     0.022 A 
BRANCH  84  88
ATOM     88  S   UNL A   1      43.380  27.375  34.835  1.00  0.00     0.124 S 
ATOM     89  O   UNL A   1      44.031  27.969  35.996  1.00  0.00    -0.237 OA
ATOM     90  O   UNL A   1      42.789  28.312  33.883  1.00  0.00    -0.237 OA
ATOM     91  O   UNL A   1      42.542  26.212  35.138  1.00  0.00    -0.744 OA
ENDBRANCH  84  88
ENDBRANCH  58  81
ENDBRANCH  32  33
ENDBRANCH  25  27
ENDBRANCH  24  25
ENDBRANCH  23  24
ENDBRANCH   1  23
TORSDOF 19
ENDMDL
MODEL 3
REMARK VINA RESULT:     -11.6      4.354      9.147
REMARK SMILES N#CCCn1cc(C(=O)OCCOC(=O)c2ccc(-c3c4nc(c(-c5cc(S(=O)(=O)[O-])ccc5F)c5ccc([nH]5)c(-c5cc(S(=O)(=O)[O-])ccc5F)c5nc(c(-c6cc(S(=O)(=O)[O-])ccc6F)c6ccc3[nH]6)C=C5)C=C4)cc2)c(-c2cccc([N+](=O)[O-])c2)n1
REMARK SMILES IDX 11 1 10 2 8 3 9 4 7 5 5 6 6 7 89 8 79 9 4 10 3 11 2 12 1 13
REMARK SMILES IDX 80 14 81 15 88 16 82 17 84 18 83 19 85 20 86 21 87 22 12 23
REMARK SMILES IDX 13 24 14 25 15 26 16 27 17 28 78 29 18 30 77 31 19 32 20 33
REMARK SMILES IDX 21 34 71 35 22 36 76 37 70 38 72 39 23 40 75 41 69 42 68 43
REMARK SMILES IDX 24 45 56 46 36 47 55 48 37 49 40 50 54 51 73 52 38 53 39 54
REMARK SMILES IDX 53 56 74 57 41 58 25 59 26 60 34 61 27 62 33 63 35 64 32 65
REMARK SMILES IDX 28 66 29 67 30 68 31 69 57 70 58 71 66 72 59 73 65 74 67 75
REMARK SMILES IDX 64 76 60 77 61 78 62 79 63 80 42 81 43 82 51 83 44 84 50 85
REMARK SMILES IDX 52 86 49 87 45 88 46 89 47 90 48 91
REMARK H PARENT 72 44 40 55
REMARK Flexibility Score: inf
ROOT
ATOM      1  C   UNL A   1      38.155  21.791  25.518  1.00  0.00     0.275 C 
ENDROOT
BRANCH   1   2
ATOM      2  O   UNL A   1      36.818  21.785  26.043  1.00  0.00    -0.458 OA
BRANCH   2   3
ATOM      3  C   UNL A   1      35.832  22.340  25.264  1.00  0.00     0.342 C 
ATOM      4  O   UNL A   1      35.738  23.532  25.020  1.00  0.00    -0.246 OA
BRANCH   3   5
ATOM      5  C   UNL A   1      34.908  21.335  24.767  1.00  0.00     0.106 A 
ATOM      6  N   UNL A   1      33.998  19.396  24.281  1.00  0.00    -0.270 N 
ATOM      7  C   UNL A   1      35.148  19.977  24.711  1.00  0.00     0.125 A 
ATOM      8  N   UNL A   1      33.053  20.286  23.936  1.00  0.00    -0.172 NA
ATOM      9  C   UNL A   1      33.614  21.480  24.187  1.00  0.00     0.107 A 
BRANCH   6  10
ATOM     10  C   UNL A   1      33.688  17.978  24.215  1.00  0.00     0.159 C 
BRANCH  10  11
ATOM     11  C   UNL A   1      32.995  17.408  25.449  1.00  0.00     0.144 C 
BRANCH  11  12
ATOM     12  C   UNL A   1      33.001  15.888  25.409  1.00  0.00     0.064 C 
ATOM     13  N   UNL A   1      33.007  14.628  25.376  1.00  0.00    -0.198 NA
ENDBRANCH  11  12
ENDBRANCH  10  11
ENDBRANCH   6  10
BRANCH   9  14
ATOM     14  C   UNL A   1      32.933  22.711  23.816  1.00  0.00     0.010 A 
ATOM     15  C   UNL A   1      31.789  23.096  24.528  1.00  0.00     0.011 A 
ATOM     16  C   UNL A   1      33.389  23.499  22.757  1.00  0.00     0.096 A 
ATOM     17  C   UNL A   1      31.047  24.214  24.143  1.00  0.00     0.008 A 
ATOM     18  C   UNL A   1      32.656  24.638  22.395  1.00  0.00     0.270 A 
ATOM     19  C   UNL A   1      31.473  24.985  23.064  1.00  0.00     0.085 A 
BRANCH  18  20
ATOM     20  N   UNL A   1      33.142  25.491  21.307  1.00  0.00     0.062 N 
ATOM     21  O   UNL A   1      33.790  26.503  21.610  1.00  0.00    -0.258 OA
ATOM     22  O   UNL A   1      32.886  25.146  20.144  1.00  0.00    -0.258 OA
ENDBRANCH  18  20
ENDBRANCH   9  14
ENDBRANCH   3   5
ENDBRANCH   2   3
ENDBRANCH   1   2
BRANCH   1  23
ATOM     23  C   UNL A   1      39.132  22.515  26.440  1.00  0.00     0.275 C 
BRANCH  23  24
ATOM     24  O   UNL A   1      38.882  23.918  26.481  1.00  0.00    -0.458 OA
BRANCH  24  25
ATOM     25  C   UNL A   1      39.998  24.674  26.581  1.00  0.00     0.338 C 
ATOM     26  O   UNL A   1      41.113  24.395  26.167  1.00  0.00    -0.246 OA
BRANCH  25  27
ATOM     27  C   UNL A   1      39.724  25.871  27.373  1.00  0.00     0.060 A 
ATOM     28  C   UNL A   1      40.159  27.094  26.851  1.00  0.00     0.016 A 
ATOM     29  C   UNL A   1      39.244  25.751  28.682  1.00  0.00     0.016 A 
ATOM     30  C   UNL A   1      40.207  28.196  27.675  1.00  0.00     0.010 A 
ATOM     31  C   UNL A   1      39.322  26.842  29.515  1.00  0.00     0.010 A 
ATOM     32  C   UNL A   1      39.850  28.034  29.013  1.00  0.00    -0.014 A 
BRANCH  32  33
ATOM     33  C   UNL A   1      39.946  29.181  29.897  1.00  0.00     0.031 A 
ATOM     34  C   UNL A   1      38.701  30.000  29.907  1.00  0.00     0.074 A 
ATOM     35  C   UNL A   1      41.028  29.307  30.696  1.00  0.00     0.049 A 
ATOM     36  N   UNL A   1      38.571  31.265  29.679  1.00  0.00    -0.248 NA
ATOM     37  C   UNL A   1      37.405  29.293  30.011  1.00  0.00     0.031 C 
ATOM     38  C   UNL A   1      42.148  28.365  30.820  1.00  0.00     0.029 A 
ATOM     39  N   UNL A   1      41.314  30.222  31.659  1.00  0.00    -0.354 N 
ATOM     40  C   UNL A   1      37.220  31.549  29.884  1.00  0.00     0.074 A 
ATOM     41  C   UNL A   1      36.535  30.291  29.869  1.00  0.00     0.031 C 
ATOM     42  C   UNL A   1      42.831  28.620  31.958  1.00  0.00     0.029 A 
ATOM     43  C   UNL A   1      42.274  29.807  32.585  1.00  0.00     0.049 A 
ATOM     44  H   UNL A   1      40.882  31.106  31.701  1.00  0.00     0.167 HD
ATOM     45  C   UNL A   1      36.835  32.764  30.358  1.00  0.00     0.034 A 
ATOM     46  C   UNL A   1      42.528  30.345  33.812  1.00  0.00     0.034 A 
ATOM     47  C   UNL A   1      37.840  33.761  30.069  1.00  0.00     0.049 A 
ATOM     48  C   UNL A   1      41.930  31.704  33.804  1.00  0.00     0.074 A 
ATOM     49  C   UNL A   1      38.390  34.273  28.912  1.00  0.00     0.029 A 
ATOM     50  N   UNL A   1      38.706  34.103  31.082  1.00  0.00    -0.354 N 
ATOM     51  N   UNL A   1      42.350  32.662  33.024  1.00  0.00    -0.248 NA
ATOM     52  C   UNL A   1      40.559  31.843  34.269  1.00  0.00     0.031 C 
ATOM     53  C   UNL A   1      39.769  34.472  29.216  1.00  0.00     0.029 A 
ATOM     54  C   UNL A   1      39.975  34.159  30.562  1.00  0.00     0.049 A 
ATOM     55  H   UNL A   1      38.458  34.276  32.018  1.00  0.00     0.167 HD
ATOM     56  C   UNL A   1      41.197  33.274  32.552  1.00  0.00     0.074 A 
ATOM     57  C   UNL A   1      40.128  32.785  33.424  1.00  0.00     0.031 C 
ATOM     58  C   UNL A   1      41.177  33.874  31.325  1.00  0.00     0.034 A 
BRANCH  45  59
ATOM     59  C   UNL A   1      35.807  32.945  31.460  1.00  0.00     0.023 A 
ATOM     60  C   UNL A   1      34.774  33.870  31.215  1.00  0.00     0.031 A 
ATOM     61  C   UNL A   1      35.953  32.538  32.809  1.00  0.00     0.131 A 
ATOM     62  C   UNL A   1      34.052  34.445  32.274  1.00  0.00     0.055 A 
ATOM     63  C   UNL A   1      35.188  33.068  33.852  1.00  0.00     0.041 A 
ATOM     64  F   UNL A   1      36.891  31.676  33.217  1.00  0.00    -0.206 F 
ATOM     65  C   UNL A   1      34.256  34.056  33.594  1.00  0.00     0.022 A 
BRANCH  62  66
ATOM     66  S   UNL A   1      32.976  35.854  31.907  1.00  0.00     0.124 S 
ATOM     67  O   UNL A   1      33.077  35.924  30.454  1.00  0.00    -0.237 OA
ATOM     68  O   UNL A   1      31.697  35.400  32.444  1.00  0.00    -0.237 OA
ATOM     69  O   UNL A   1      33.603  36.955  32.633  1.00  0.00    -0.744 OA
ENDBRANCH  62  66
ENDBRANCH  45  59
BRANCH  46  70
ATOM     70  C   UNL A   1      42.868  29.608  35.071  1.00  0.00     0.023 A 
ATOM     71  C   UNL A   1      42.295  28.364  35.428  1.00  0.00     0.031 A 
ATOM     72  C   UNL A   1      43.978  30.027  35.841  1.00  0.00     0.131 A 
ATOM     73  C   UNL A   1      42.827  27.611  36.508  1.00  0.00     0.055 A 
ATOM     74  C   UNL A   1      44.498  29.281  36.901  1.00  0.00     0.041 A 
ATOM     75  F   UNL A   1      44.654  31.145  35.534  1.00  0.00    -0.206 F 
ATOM     76  C   UNL A   1      43.930  28.065  37.234  1.00  0.00     0.022 A 
BRANCH  73  77
ATOM     77  S   UNL A   1      42.135  25.980  36.951  1.00  0.00     0.124 S 
ATOM     78  O   UNL A   1      43.243  25.354  37.663  1.00  0.00    -0.237 OA
ATOM     79  O   UNL A   1      40.968  26.338  37.749  1.00  0.00    -0.237 OA
ATOM     80  O   UNL A   1      41.823  25.376  35.654  1.00  0.00    -0.744 OA
ENDBRANCH  73  77
ENDBRANCH  46  70
BRANCH  58  81
ATOM     81  C   UNL A   1      42.503  34.115  30.628  1.00  0.00     0.023 A 
ATOM     82  C   UNL A   1      43.027  33.343  29.562  1.00  0.00     0.031 A 
ATOM     83  C   UNL A   1      43.212  35.268  31.007  1.00  0.00     0.131 A 
ATOM     84  C   UNL A   1      44.225  33.738  28.932  1.00  0.00     0.055 A 
ATOM     85  C   UNL A   1      44.383  35.665  30.367  1.00  0.00     0.041 A 
ATOM     86  F   UNL A   1      42.750  36.055  31.993  1.00  0.00    -0.206 F 
ATOM     87  C   UNL A   1      44.898  34.897  29.329  1.00  0.00     0.022 A 
BRANCH  84  88
ATOM     88  S   UNL A   1      44.952  32.739  27.587  1.00  0.00     0.124 S 
ATOM     89  O   UNL A   1      44.122  33.065  26.433  1.00  0.00    -0.237 OA
ATOM     90  O   UNL A   1      46.329  33.222  27.541  1.00  0.00    -0.237 OA
ATOM     91  O   UNL A   1      44.809  31.363  28.069  1.00  0.00    -0.744 OA
ENDBRANCH  84  88
ENDBRANCH  58  81
ENDBRANCH  32  33
ENDBRANCH  25  27
ENDBRANCH  24  25
ENDBRANCH  23  24
ENDBRANCH   1  23
TORSDOF 19
ENDMDL
