MODEL 1
REMARK VINA RESULT:     -10.2      0.000      0.000
REMARK SMILES CCN(CCC(=O)OCCOC(=O)c1ccc(-c2c3nc(c(-c4cc(S(=O)(=O)[O-])ccc4F)c4ccc([nH]4)c(-c4cc(S(=O)(=O)[O-])ccc4F)c4nc(c(-c5cc(S(=O)(=O)[O-])ccc5F)c5ccc2[nH]5)C=C4)C=C3)cc1)S(=O)(=O)c1cn(CC)cn1
REMARK SMILES IDX 9 1 8 2 6 3 7 4 5 5 4 6 3 7 2 8 1 9 77 10 78 11 79 12 80 13
REMARK SMILES IDX 81 14 86 15 82 16 85 17 83 18 84 19 10 20 11 21 12 22 13 23
REMARK SMILES IDX 14 24 15 25 76 26 16 27 75 28 17 29 18 30 19 31 69 32 20 33
REMARK SMILES IDX 74 34 68 35 70 36 21 37 73 38 67 39 66 40 22 42 54 43 34 44
REMARK SMILES IDX 53 45 35 46 38 47 52 48 71 49 36 50 37 51 51 53 72 54 39 55
REMARK SMILES IDX 23 56 24 57 32 58 25 59 31 60 33 61 30 62 26 63 27 64 28 65
REMARK SMILES IDX 29 66 55 67 56 68 64 69 57 70 63 71 65 72 62 73 58 74 59 75
REMARK SMILES IDX 60 76 61 77 40 78 41 79 49 80 42 81 48 82 50 83 47 84 43 85
REMARK SMILES IDX 44 86 45 87 46 88
REMARK H PARENT 70 41 38 52
REMARK Flexibility Score: inf
ROOT
ATOM      1  C   UNL A   1      31.327  28.824  25.405  1.00  0.00     0.274 C 
ENDROOT
BRANCH   1   2
ATOM      2  O   UNL A   1      31.948  27.902  26.323  1.00  0.00    -0.462 OA
BRANCH   2   3
ATOM      3  C   UNL A   1      31.695  26.588  26.153  1.00  0.00     0.307 C 
ATOM      4  O   UNL A   1      30.791  25.975  26.709  1.00  0.00    -0.252 OA
BRANCH   3   5
ATOM      5  C   UNL A   1      32.694  25.903  25.253  1.00  0.00     0.139 C 
BRANCH   5   6
ATOM      6  C   UNL A   1      33.408  24.685  25.837  1.00  0.00     0.114 C 
BRANCH   6   7
ATOM      7  N   UNL A   1      33.479  23.454  24.992  1.00  0.00    -0.196 NA
BRANCH   7   8
ATOM      8  C   UNL A   1      34.466  23.501  23.888  1.00  0.00     0.099 C 
ATOM      9  C   UNL A   1      35.668  22.587  24.032  1.00  0.00     0.022 C 
ENDBRANCH   7   8
BRANCH   7  10
ATOM     10  S   UNL A   1      32.105  22.459  24.854  1.00  0.00     0.262 S 
ATOM     11  O   UNL A   1      31.325  22.585  26.070  1.00  0.00    -0.205 OA
ATOM     12  O   UNL A   1      31.475  22.737  23.575  1.00  0.00    -0.205 OA
BRANCH  10  13
ATOM     13  C   UNL A   1      32.453  20.753  24.737  1.00  0.00     0.188 A 
ATOM     14  C   UNL A   1      32.459  20.025  23.561  1.00  0.00     0.129 A 
ATOM     15  N   UNL A   1      32.799  19.939  25.803  1.00  0.00    -0.224 NA
ATOM     16  N   UNL A   1      32.748  18.743  23.935  1.00  0.00    -0.336 N 
ATOM     17  C   UNL A   1      32.877  18.728  25.295  1.00  0.00     0.201 A 
BRANCH  16  18
ATOM     18  C   UNL A   1      32.891  17.615  23.036  1.00  0.00     0.120 C 
ATOM     19  C   UNL A   1      33.995  16.647  23.436  1.00  0.00     0.027 C 
ENDBRANCH  16  18
ENDBRANCH  10  13
ENDBRANCH   7  10
ENDBRANCH   6   7
ENDBRANCH   5   6
ENDBRANCH   3   5
ENDBRANCH   2   3
ENDBRANCH   1   2
BRANCH   1  20
ATOM     20  C   UNL A   1      31.696  30.277  25.722  1.00  0.00     0.275 C 
BRANCH  20  21
ATOM     21  O   UNL A   1      33.106  30.420  25.986  1.00  0.00    -0.458 OA
BRANCH  21  22
ATOM     22  C   UNL A   1      33.387  31.325  26.949  1.00  0.00     0.338 C 
ATOM     23  O   UNL A   1      32.665  32.227  27.325  1.00  0.00    -0.246 OA
BRANCH  22  24
ATOM     24  C   UNL A   1      34.662  31.044  27.611  1.00  0.00     0.060 A 
ATOM     25  C   UNL A   1      34.906  29.730  28.021  1.00  0.00     0.016 A 
ATOM     26  C   UNL A   1      35.538  32.076  27.946  1.00  0.00     0.016 A 
ATOM     27  C   UNL A   1      36.043  29.436  28.762  1.00  0.00     0.010 A 
ATOM     28  C   UNL A   1      36.684  31.778  28.685  1.00  0.00     0.010 A 
ATOM     29  C   UNL A   1      36.942  30.457  29.091  1.00  0.00    -0.014 A 
BRANCH  29  30
ATOM     30  C   UNL A   1      38.181  30.128  29.827  1.00  0.00     0.031 A 
ATOM     31  C   UNL A   1      39.179  29.177  29.243  1.00  0.00     0.074 A 
ATOM     32  C   UNL A   1      38.384  30.706  31.024  1.00  0.00     0.049 A 
ATOM     33  N   UNL A   1      40.266  28.688  29.779  1.00  0.00    -0.248 NA
ATOM     34  C   UNL A   1      38.916  28.710  27.875  1.00  0.00     0.031 C 
ATOM     35  C   UNL A   1      37.486  31.683  31.646  1.00  0.00     0.029 A 
ATOM     36  N   UNL A   1      39.398  30.558  31.932  1.00  0.00    -0.354 N 
ATOM     37  C   UNL A   1      40.816  27.844  28.821  1.00  0.00     0.074 A 
ATOM     38  C   UNL A   1      39.927  27.874  27.678  1.00  0.00     0.031 C 
ATOM     39  C   UNL A   1      37.990  32.045  32.836  1.00  0.00     0.029 A 
ATOM     40  C   UNL A   1      39.207  31.282  33.086  1.00  0.00     0.049 A 
ATOM     41  H   UNL A   1      40.185  29.988  31.777  1.00  0.00     0.167 HD
ATOM     42  C   UNL A   1      41.956  27.113  28.903  1.00  0.00     0.034 A 
ATOM     43  C   UNL A   1      39.917  31.297  34.230  1.00  0.00     0.034 A 
ATOM     44  C   UNL A   1      42.809  27.097  30.069  1.00  0.00     0.049 A 
ATOM     45  C   UNL A   1      41.137  30.422  34.322  1.00  0.00     0.074 A 
ATOM     46  C   UNL A   1      43.982  26.392  30.277  1.00  0.00     0.029 A 
ATOM     47  N   UNL A   1      42.571  27.817  31.236  1.00  0.00    -0.354 N 
ATOM     48  N   UNL A   1      41.636  29.606  33.420  1.00  0.00    -0.248 NA
ATOM     49  C   UNL A   1      41.889  30.469  35.580  1.00  0.00     0.031 C 
ATOM     50  C   UNL A   1      44.417  26.636  31.585  1.00  0.00     0.029 A 
ATOM     51  C   UNL A   1      43.557  27.551  32.174  1.00  0.00     0.049 A 
ATOM     52  H   UNL A   1      41.812  28.429  31.374  1.00  0.00     0.167 HD
ATOM     53  C   UNL A   1      42.773  29.053  33.999  1.00  0.00     0.074 A 
ATOM     54  C   UNL A   1      42.893  29.645  35.317  1.00  0.00     0.031 C 
ATOM     55  C   UNL A   1      43.639  28.139  33.491  1.00  0.00     0.034 A 
BRANCH  42  56
ATOM     56  C   UNL A   1      42.295  26.226  27.727  1.00  0.00     0.023 A 
ATOM     57  C   UNL A   1      41.843  24.897  27.640  1.00  0.00     0.031 A 
ATOM     58  C   UNL A   1      43.121  26.707  26.694  1.00  0.00     0.131 A 
ATOM     59  C   UNL A   1      42.278  24.076  26.587  1.00  0.00     0.055 A 
ATOM     60  C   UNL A   1      43.488  25.907  25.609  1.00  0.00     0.041 A 
ATOM     61  F   UNL A   1      43.604  27.959  26.732  1.00  0.00    -0.206 F 
ATOM     62  C   UNL A   1      43.080  24.578  25.559  1.00  0.00     0.022 A 
BRANCH  59  63
ATOM     63  S   UNL A   1      41.903  22.302  26.654  1.00  0.00     0.124 S 
ATOM     64  O   UNL A   1      42.469  21.832  25.392  1.00  0.00    -0.237 OA
ATOM     65  O   UNL A   1      42.599  21.878  27.864  1.00  0.00    -0.237 OA
ATOM     66  O   UNL A   1      40.444  22.261  26.727  1.00  0.00    -0.744 OA
ENDBRANCH  59  63
ENDBRANCH  42  56
BRANCH  43  67
ATOM     67  C   UNL A   1      39.460  32.120  35.383  1.00  0.00     0.023 A 
ATOM     68  C   UNL A   1      39.895  33.443  35.551  1.00  0.00     0.031 A 
ATOM     69  C   UNL A   1      38.585  31.586  36.349  1.00  0.00     0.131 A 
ATOM     70  C   UNL A   1      39.480  34.178  36.673  1.00  0.00     0.055 A 
ATOM     71  C   UNL A   1      38.136  32.336  37.436  1.00  0.00     0.041 A 
ATOM     72  F   UNL A   1      38.136  30.325  36.234  1.00  0.00    -0.206 F 
ATOM     73  C   UNL A   1      38.594  33.639  37.608  1.00  0.00     0.022 A 
BRANCH  70  74
ATOM     74  S   UNL A   1      40.173  35.833  36.930  1.00  0.00     0.124 S 
ATOM     75  O   UNL A   1      41.606  35.561  36.923  1.00  0.00    -0.237 OA
ATOM     76  O   UNL A   1      39.652  36.563  35.780  1.00  0.00    -0.237 OA
ATOM     77  O   UNL A   1      39.621  36.236  38.224  1.00  0.00    -0.744 OA
ENDBRANCH  70  74
ENDBRANCH  43  67
BRANCH  55  78
ATOM     78  C   UNL A   1      44.805  27.763  34.369  1.00  0.00     0.023 A 
ATOM     79  C   UNL A   1      44.738  26.670  35.249  1.00  0.00     0.031 A 
ATOM     80  C   UNL A   1      45.983  28.529  34.347  1.00  0.00     0.131 A 
ATOM     81  C   UNL A   1      45.810  26.407  36.116  1.00  0.00     0.055 A 
ATOM     82  C   UNL A   1      47.068  28.228  35.171  1.00  0.00     0.041 A 
ATOM     83  F   UNL A   1      46.095  29.586  33.526  1.00  0.00    -0.206 F 
ATOM     84  C   UNL A   1      46.979  27.170  36.071  1.00  0.00     0.022 A 
BRANCH  81  85
ATOM     85  S   UNL A   1      45.618  25.108  37.367  1.00  0.00     0.124 S 
ATOM     86  O   UNL A   1      44.190  25.174  37.655  1.00  0.00    -0.237 OA
ATOM     87  O   UNL A   1      46.071  23.917  36.654  1.00  0.00    -0.237 OA
ATOM     88  O   UNL A   1      46.492  25.548  38.453  1.00  0.00    -0.744 OA
ENDBRANCH  81  85
ENDBRANCH  55  78
ENDBRANCH  29  30
ENDBRANCH  22  24
ENDBRANCH  21  22
ENDBRANCH  20  21
ENDBRANCH   1  20
TORSDOF 20
ENDMDL
MODEL 2
REMARK VINA RESULT:     -10.2      1.250      1.895
REMARK SMILES CCN(CCC(=O)OCCOC(=O)c1ccc(-c2c3nc(c(-c4cc(S(=O)(=O)[O-])ccc4F)c4ccc([nH]4)c(-c4cc(S(=O)(=O)[O-])ccc4F)c4nc(c(-c5cc(S(=O)(=O)[O-])ccc5F)c5ccc2[nH]5)C=C4)C=C3)cc1)S(=O)(=O)c1cn(CC)cn1
REMARK SMILES IDX 9 1 8 2 6 3 7 4 5 5 4 6 3 7 2 8 1 9 77 10 78 11 79 12 80 13
REMARK SMILES IDX 81 14 86 15 82 16 85 17 83 18 84 19 10 20 11 21 12 22 13 23
REMARK SMILES IDX 14 24 15 25 76 26 16 27 75 28 17 29 18 30 19 31 69 32 20 33
REMARK SMILES IDX 74 34 68 35 70 36 21 37 73 38 67 39 66 40 22 42 54 43 34 44
REMARK SMILES IDX 53 45 35 46 38 47 52 48 71 49 36 50 37 51 51 53 72 54 39 55
REMARK SMILES IDX 23 56 24 57 32 58 25 59 31 60 33 61 30 62 26 63 27 64 28 65
REMARK SMILES IDX 29 66 55 67 56 68 64 69 57 70 63 71 65 72 62 73 58 74 59 75
REMARK SMILES IDX 60 76 61 77 40 78 41 79 49 80 42 81 48 82 50 83 47 84 43 85
REMARK SMILES IDX 44 86 45 87 46 88
REMARK H PARENT 70 41 38 52
REMARK Flexibility Score: inf
ROOT
ATOM      1  C   UNL A   1      31.065  29.930  24.640  1.00  0.00     0.274 C 
ENDROOT
BRANCH   1   2
ATOM      2  O   UNL A   1      31.502  28.575  24.410  1.00  0.00    -0.462 OA
BRANCH   2   3
ATOM      3  C   UNL A   1      31.513  28.131  23.136  1.00  0.00     0.307 C 
ATOM      4  O   UNL A   1      30.512  27.846  22.489  1.00  0.00    -0.252 OA
BRANCH   3   5
ATOM      5  C   UNL A   1      32.906  27.941  22.586  1.00  0.00     0.139 C 
BRANCH   5   6
ATOM      6  C   UNL A   1      33.282  26.519  22.173  1.00  0.00     0.114 C 
BRANCH   6   7
ATOM      7  N   UNL A   1      33.285  25.467  23.235  1.00  0.00    -0.196 NA
BRANCH   7   8
ATOM      8  C   UNL A   1      33.982  25.836  24.489  1.00  0.00     0.099 C 
ATOM      9  C   UNL A   1      33.189  25.652  25.769  1.00  0.00     0.022 C 
ENDBRANCH   7   8
BRANCH   7  10
ATOM     10  S   UNL A   1      33.170  23.829  22.785  1.00  0.00     0.262 S 
ATOM     11  O   UNL A   1      31.841  23.354  23.123  1.00  0.00    -0.205 OA
ATOM     12  O   UNL A   1      33.642  23.703  21.417  1.00  0.00    -0.205 OA
BRANCH  10  13
ATOM     13  C   UNL A   1      34.245  22.762  23.651  1.00  0.00     0.188 A 
ATOM     14  C   UNL A   1      35.627  22.818  23.601  1.00  0.00     0.129 A 
ATOM     15  N   UNL A   1      33.840  21.760  24.518  1.00  0.00    -0.224 NA
ATOM     16  N   UNL A   1      36.055  21.793  24.397  1.00  0.00    -0.336 N 
ATOM     17  C   UNL A   1      34.949  21.146  24.870  1.00  0.00     0.201 A 
BRANCH  16  18
ATOM     18  C   UNL A   1      37.439  21.468  24.678  1.00  0.00     0.120 C 
ATOM     19  C   UNL A   1      37.674  19.998  24.989  1.00  0.00     0.027 C 
ENDBRANCH  16  18
ENDBRANCH  10  13
ENDBRANCH   7  10
ENDBRANCH   6   7
ENDBRANCH   5   6
ENDBRANCH   3   5
ENDBRANCH   2   3
ENDBRANCH   1   2
BRANCH   1  20
ATOM     20  C   UNL A   1      31.487  30.436  26.023  1.00  0.00     0.275 C 
BRANCH  20  21
ATOM     21  O   UNL A   1      32.919  30.574  26.122  1.00  0.00    -0.458 OA
BRANCH  21  22
ATOM     22  C   UNL A   1      33.311  31.550  26.971  1.00  0.00     0.338 C 
ATOM     23  O   UNL A   1      32.684  32.550  27.261  1.00  0.00    -0.246 OA
BRANCH  22  24
ATOM     24  C   UNL A   1      34.578  31.229  27.630  1.00  0.00     0.060 A 
ATOM     25  C   UNL A   1      34.754  29.924  28.099  1.00  0.00     0.016 A 
ATOM     26  C   UNL A   1      35.516  32.224  27.903  1.00  0.00     0.016 A 
ATOM     27  C   UNL A   1      35.884  29.601  28.839  1.00  0.00     0.010 A 
ATOM     28  C   UNL A   1      36.655  31.896  28.641  1.00  0.00     0.010 A 
ATOM     29  C   UNL A   1      36.844  30.584  29.107  1.00  0.00    -0.014 A 
BRANCH  29  30
ATOM     30  C   UNL A   1      38.074  30.219  29.843  1.00  0.00     0.031 A 
ATOM     31  C   UNL A   1      39.056  29.259  29.247  1.00  0.00     0.074 A 
ATOM     32  C   UNL A   1      38.283  30.774  31.049  1.00  0.00     0.049 A 
ATOM     33  N   UNL A   1      40.132  28.742  29.779  1.00  0.00    -0.248 NA
ATOM     34  C   UNL A   1      38.790  28.819  27.870  1.00  0.00     0.031 C 
ATOM     35  C   UNL A   1      37.401  31.759  31.683  1.00  0.00     0.029 A 
ATOM     36  N   UNL A   1      39.289  30.593  31.959  1.00  0.00    -0.354 N 
ATOM     37  C   UNL A   1      40.669  27.903  28.810  1.00  0.00     0.074 A 
ATOM     38  C   UNL A   1      39.786  27.968  27.664  1.00  0.00     0.031 C 
ATOM     39  C   UNL A   1      37.906  32.091  32.881  1.00  0.00     0.029 A 
ATOM     40  C   UNL A   1      39.108  31.302  33.123  1.00  0.00     0.049 A 
ATOM     41  H   UNL A   1      40.067  30.011  31.797  1.00  0.00     0.167 HD
ATOM     42  C   UNL A   1      41.795  27.149  28.884  1.00  0.00     0.034 A 
ATOM     43  C   UNL A   1      39.813  31.285  34.270  1.00  0.00     0.034 A 
ATOM     44  C   UNL A   1      42.643  27.099  30.054  1.00  0.00     0.049 A 
ATOM     45  C   UNL A   1      41.016  30.387  34.353  1.00  0.00     0.074 A 
ATOM     46  C   UNL A   1      43.802  26.369  30.254  1.00  0.00     0.029 A 
ATOM     47  N   UNL A   1      42.414  27.804  31.231  1.00  0.00    -0.354 N 
ATOM     48  N   UNL A   1      41.504  29.576  33.440  1.00  0.00    -0.248 NA
ATOM     49  C   UNL A   1      41.764  30.399  35.614  1.00  0.00     0.031 C 
ATOM     50  C   UNL A   1      44.236  26.584  31.568  1.00  0.00     0.029 A 
ATOM     51  C   UNL A   1      43.390  27.505  32.168  1.00  0.00     0.049 A 
ATOM     52  H   UNL A   1      41.666  28.428  31.376  1.00  0.00     0.167 HD
ATOM     53  C   UNL A   1      42.627  28.992  34.014  1.00  0.00     0.074 A 
ATOM     54  C   UNL A   1      42.753  29.561  35.342  1.00  0.00     0.031 C 
ATOM     55  C   UNL A   1      43.478  28.071  33.495  1.00  0.00     0.034 A 
BRANCH  42  56
ATOM     56  C   UNL A   1      42.123  26.275  27.696  1.00  0.00     0.023 A 
ATOM     57  C   UNL A   1      41.690  24.940  27.611  1.00  0.00     0.031 A 
ATOM     58  C   UNL A   1      42.918  26.775  26.648  1.00  0.00     0.131 A 
ATOM     59  C   UNL A   1      42.115  24.132  26.543  1.00  0.00     0.055 A 
ATOM     60  C   UNL A   1      43.274  25.988  25.551  1.00  0.00     0.041 A 
ATOM     61  F   UNL A   1      43.382  28.035  26.684  1.00  0.00    -0.206 F 
ATOM     62  C   UNL A   1      42.886  24.653  25.501  1.00  0.00     0.022 A 
BRANCH  59  63
ATOM     63  S   UNL A   1      41.770  22.352  26.607  1.00  0.00     0.124 S 
ATOM     64  O   UNL A   1      40.310  22.335  26.631  1.00  0.00    -0.237 OA
ATOM     65  O   UNL A   1      42.395  21.865  25.382  1.00  0.00    -0.237 OA
ATOM     66  O   UNL A   1      42.411  21.922  27.848  1.00  0.00    -0.744 OA
ENDBRANCH  59  63
ENDBRANCH  42  56
BRANCH  43  67
ATOM     67  C   UNL A   1      39.366  32.099  35.435  1.00  0.00     0.023 A 
ATOM     68  C   UNL A   1      39.765  33.435  35.584  1.00  0.00     0.031 A 
ATOM     69  C   UNL A   1      38.539  31.541  36.429  1.00  0.00     0.131 A 
ATOM     70  C   UNL A   1      39.363  34.162  36.717  1.00  0.00     0.055 A 
ATOM     71  C   UNL A   1      38.101  32.282  37.527  1.00  0.00     0.041 A 
ATOM     72  F   UNL A   1      38.127  30.267  36.332  1.00  0.00    -0.206 F 
ATOM     73  C   UNL A   1      38.523  33.599  37.681  1.00  0.00     0.022 A 
BRANCH  70  74
ATOM     74  S   UNL A   1      40.011  35.839  36.947  1.00  0.00     0.124 S 
ATOM     75  O   UNL A   1      39.278  36.283  38.127  1.00  0.00    -0.237 OA
ATOM     76  O   UNL A   1      41.437  35.590  37.133  1.00  0.00    -0.237 OA
ATOM     77  O   UNL A   1      39.655  36.516  35.700  1.00  0.00    -0.744 OA
ENDBRANCH  70  74
ENDBRANCH  43  67
BRANCH  55  78
ATOM     78  C   UNL A   1      44.633  27.659  34.371  1.00  0.00     0.023 A 
ATOM     79  C   UNL A   1      44.542  26.556  35.236  1.00  0.00     0.031 A 
ATOM     80  C   UNL A   1      45.827  28.401  34.363  1.00  0.00     0.131 A 
ATOM     81  C   UNL A   1      45.605  26.259  36.102  1.00  0.00     0.055 A 
ATOM     82  C   UNL A   1      46.902  28.067  35.186  1.00  0.00     0.041 A 
ATOM     83  F   UNL A   1      45.963  29.467  33.557  1.00  0.00    -0.206 F 
ATOM     84  C   UNL A   1      46.790  26.998  36.072  1.00  0.00     0.022 A 
BRANCH  81  85
ATOM     85  S   UNL A   1      45.382  24.947  37.334  1.00  0.00     0.124 S 
ATOM     86  O   UNL A   1      45.332  23.752  36.500  1.00  0.00    -0.237 OA
ATOM     87  O   UNL A   1      46.572  25.095  38.167  1.00  0.00    -0.237 OA
ATOM     88  O   UNL A   1      44.123  25.302  37.987  1.00  0.00    -0.744 OA
ENDBRANCH  81  85
ENDBRANCH  55  78
ENDBRANCH  29  30
ENDBRANCH  22  24
ENDBRANCH  21  22
ENDBRANCH  20  21
ENDBRANCH   1  20
TORSDOF 20
ENDMDL
MODEL 3
REMARK VINA RESULT:     -10.2      1.925      2.406
REMARK SMILES CCN(CCC(=O)OCCOC(=O)c1ccc(-c2c3nc(c(-c4cc(S(=O)(=O)[O-])ccc4F)c4ccc([nH]4)c(-c4cc(S(=O)(=O)[O-])ccc4F)c4nc(c(-c5cc(S(=O)(=O)[O-])ccc5F)c5ccc2[nH]5)C=C4)C=C3)cc1)S(=O)(=O)c1cn(CC)cn1
REMARK SMILES IDX 9 1 8 2 6 3 7 4 5 5 4 6 3 7 2 8 1 9 77 10 78 11 79 12 80 13
REMARK SMILES IDX 81 14 86 15 82 16 85 17 83 18 84 19 10 20 11 21 12 22 13 23
REMARK SMILES IDX 14 24 15 25 76 26 16 27 75 28 17 29 18 30 19 31 69 32 20 33
REMARK SMILES IDX 74 34 68 35 70 36 21 37 73 38 67 39 66 40 22 42 54 43 34 44
REMARK SMILES IDX 53 45 35 46 38 47 52 48 71 49 36 50 37 51 51 53 72 54 39 55
REMARK SMILES IDX 23 56 24 57 32 58 25 59 31 60 33 61 30 62 26 63 27 64 28 65
REMARK SMILES IDX 29 66 55 67 56 68 64 69 57 70 63 71 65 72 62 73 58 74 59 75
REMARK SMILES IDX 60 76 61 77 40 78 41 79 49 80 42 81 48 82 50 83 47 84 43 85
REMARK SMILES IDX 44 86 45 87 46 88
REMARK H PARENT 70 41 38 52
REMARK Flexibility Score: inf
ROOT
ATOM      1  C   UNL A   1      31.750  28.474  26.841  1.00  0.00     0.274 C 
ENDROOT
BRANCH   1   2
ATOM      2  O   UNL A   1      31.804  27.623  25.678  1.00  0.00    -0.462 OA
BRANCH   2   3
ATOM      3  C   UNL A   1      31.165  26.437  25.743  1.00  0.00     0.307 C 
ATOM      4  O   UNL A   1      31.350  25.593  26.612  1.00  0.00    -0.252 OA
BRANCH   3   5
ATOM      5  C   UNL A   1      30.232  26.201  24.580  1.00  0.00     0.139 C 
BRANCH   5   6
ATOM      6  C   UNL A   1      30.574  25.027  23.664  1.00  0.00     0.114 C 
BRANCH   6   7
ATOM      7  N   UNL A   1      31.890  25.062  22.956  1.00  0.00    -0.196 NA
BRANCH   7   8
ATOM      8  C   UNL A   1      32.038  26.139  21.950  1.00  0.00     0.099 C 
ATOM      9  C   UNL A   1      32.986  27.265  22.316  1.00  0.00     0.022 C 
ENDBRANCH   7   8
BRANCH   7  10
ATOM     10  S   UNL A   1      32.784  23.623  22.789  1.00  0.00     0.262 S 
ATOM     11  O   UNL A   1      31.909  22.504  23.085  1.00  0.00    -0.205 OA
ATOM     12  O   UNL A   1      33.473  23.666  21.511  1.00  0.00    -0.205 OA
BRANCH  10  13
ATOM     13  C   UNL A   1      34.103  23.452  23.920  1.00  0.00     0.188 A 
ATOM     14  C   UNL A   1      34.750  22.263  24.206  1.00  0.00     0.129 A 
ATOM     15  N   UNL A   1      34.678  24.491  24.631  1.00  0.00    -0.224 NA
ATOM     16  N   UNL A   1      35.682  22.583  25.153  1.00  0.00    -0.336 N 
ATOM     17  C   UNL A   1      35.556  23.916  25.424  1.00  0.00     0.201 A 
BRANCH  16  18
ATOM     18  C   UNL A   1      36.629  21.661  25.748  1.00  0.00     0.120 C 
ATOM     19  C   UNL A   1      37.504  20.940  24.734  1.00  0.00     0.027 C 
ENDBRANCH  16  18
ENDBRANCH  10  13
ENDBRANCH   7  10
ENDBRANCH   6   7
ENDBRANCH   5   6
ENDBRANCH   3   5
ENDBRANCH   2   3
ENDBRANCH   1   2
BRANCH   1  20
ATOM     20  C   UNL A   1      31.785  29.958  26.461  1.00  0.00     0.275 C 
BRANCH  20  21
ATOM     21  O   UNL A   1      33.137  30.424  26.271  1.00  0.00    -0.458 OA
BRANCH  21  22
ATOM     22  C   UNL A   1      33.511  31.373  27.158  1.00  0.00     0.338 C 
ATOM     23  O   UNL A   1      32.860  32.340  27.499  1.00  0.00    -0.246 OA
BRANCH  22  24
ATOM     24  C   UNL A   1      34.795  31.060  27.787  1.00  0.00     0.060 A 
ATOM     25  C   UNL A   1      34.968  29.774  28.307  1.00  0.00     0.016 A 
ATOM     26  C   UNL A   1      35.756  32.051  27.986  1.00  0.00     0.016 A 
ATOM     27  C   UNL A   1      36.117  29.465  29.022  1.00  0.00     0.010 A 
ATOM     28  C   UNL A   1      36.914  31.737  28.699  1.00  0.00     0.010 A 
ATOM     29  C   UNL A   1      37.100  30.443  29.215  1.00  0.00    -0.014 A 
BRANCH  29  30
ATOM     30  C   UNL A   1      38.348  30.091  29.925  1.00  0.00     0.031 A 
ATOM     31  C   UNL A   1      39.317  29.122  29.319  1.00  0.00     0.074 A 
ATOM     32  C   UNL A   1      38.588  30.665  31.117  1.00  0.00     0.049 A 
ATOM     33  N   UNL A   1      40.406  28.614  29.832  1.00  0.00    -0.248 NA
ATOM     34  C   UNL A   1      39.016  28.661  27.957  1.00  0.00     0.031 C 
ATOM     35  C   UNL A   1      37.721  31.658  31.757  1.00  0.00     0.029 A 
ATOM     36  N   UNL A   1      39.618  30.498  32.003  1.00  0.00    -0.354 N 
ATOM     37  C   UNL A   1      40.919  27.760  28.862  1.00  0.00     0.074 A 
ATOM     38  C   UNL A   1      40.007  27.807  27.739  1.00  0.00     0.031 C 
ATOM     39  C   UNL A   1      38.257  32.010  32.937  1.00  0.00     0.029 A 
ATOM     40  C   UNL A   1      39.465  31.226  33.160  1.00  0.00     0.049 A 
ATOM     41  H   UNL A   1      40.391  29.915  31.831  1.00  0.00     0.167 HD
ATOM     42  C   UNL A   1      42.048  27.009  28.919  1.00  0.00     0.034 A 
ATOM     43  C   UNL A   1      40.199  31.227  34.289  1.00  0.00     0.034 A 
ATOM     44  C   UNL A   1      42.925  26.977  30.067  1.00  0.00     0.049 A 
ATOM     45  C   UNL A   1      41.405  30.331  34.355  1.00  0.00     0.074 A 
ATOM     46  C   UNL A   1      44.089  26.251  30.249  1.00  0.00     0.029 A 
ATOM     47  N   UNL A   1      42.726  27.701  31.238  1.00  0.00    -0.354 N 
ATOM     48  N   UNL A   1      41.870  29.506  33.442  1.00  0.00    -0.248 NA
ATOM     49  C   UNL A   1      42.185  30.364  35.596  1.00  0.00     0.031 C 
ATOM     50  C   UNL A   1      44.557  26.488  31.548  1.00  0.00     0.029 A 
ATOM     51  C   UNL A   1      43.726  27.417  32.155  1.00  0.00     0.049 A 
ATOM     52  H   UNL A   1      41.981  28.327  31.393  1.00  0.00     0.167 HD
ATOM     53  C   UNL A   1      43.009  28.932  33.997  1.00  0.00     0.074 A 
ATOM     54  C   UNL A   1      43.168  29.522  35.312  1.00  0.00     0.031 C 
ATOM     55  C   UNL A   1      43.848  28.004  33.470  1.00  0.00     0.034 A 
BRANCH  42  56
ATOM     56  C   UNL A   1      42.345  26.117  27.737  1.00  0.00     0.023 A 
ATOM     57  C   UNL A   1      41.856  24.801  27.653  1.00  0.00     0.031 A 
ATOM     58  C   UNL A   1      43.169  26.577  26.693  1.00  0.00     0.131 A 
ATOM     59  C   UNL A   1      42.253  23.971  26.592  1.00  0.00     0.055 A 
ATOM     60  C   UNL A   1      43.499  25.771  25.601  1.00  0.00     0.041 A 
ATOM     61  F   UNL A   1      43.687  27.816  26.727  1.00  0.00    -0.206 F 
ATOM     62  C   UNL A   1      43.053  24.454  25.553  1.00  0.00     0.022 A 
BRANCH  59  63
ATOM     63  S   UNL A   1      41.831  22.208  26.660  1.00  0.00     0.124 S 
ATOM     64  O   UNL A   1      42.330  21.734  25.372  1.00  0.00    -0.237 OA
ATOM     65  O   UNL A   1      42.564  21.753  27.836  1.00  0.00    -0.237 OA
ATOM     66  O   UNL A   1      40.376  22.207  26.794  1.00  0.00    -0.744 OA
ENDBRANCH  59  63
ENDBRANCH  42  56
BRANCH  43  67
ATOM     67  C   UNL A   1      39.782  32.058  35.452  1.00  0.00     0.023 A 
ATOM     68  C   UNL A   1      38.910  31.556  36.429  1.00  0.00     0.031 A 
ATOM     69  C   UNL A   1      40.244  33.381  35.595  1.00  0.00     0.131 A 
ATOM     70  C   UNL A   1      38.502  32.380  37.490  1.00  0.00     0.055 A 
ATOM     71  C   UNL A   1      39.874  34.179  36.678  1.00  0.00     0.041 A 
ATOM     72  F   UNL A   1      41.082  33.909  34.688  1.00  0.00    -0.206 F 
ATOM     73  C   UNL A   1      38.988  33.683  37.628  1.00  0.00     0.022 A 
BRANCH  70  74
ATOM     74  S   UNL A   1      37.266  31.746  38.655  1.00  0.00     0.124 S 
ATOM     75  O   UNL A   1      36.185  32.712  38.499  1.00  0.00    -0.237 OA
ATOM     76  O   UNL A   1      37.014  30.408  38.131  1.00  0.00    -0.237 OA
ATOM     77  O   UNL A   1      37.959  31.789  39.943  1.00  0.00    -0.744 OA
ENDBRANCH  70  74
ENDBRANCH  43  67
BRANCH  55  78
ATOM     78  C   UNL A   1      45.025  27.607  34.323  1.00  0.00     0.023 A 
ATOM     79  C   UNL A   1      44.948  26.534  35.228  1.00  0.00     0.031 A 
ATOM     80  C   UNL A   1      46.227  28.332  34.252  1.00  0.00     0.131 A 
ATOM     81  C   UNL A   1      46.035  26.253  36.069  1.00  0.00     0.055 A 
ATOM     82  C   UNL A   1      47.324  28.011  35.051  1.00  0.00     0.041 A 
ATOM     83  F   UNL A   1      46.350  29.368  33.405  1.00  0.00    -0.206 F 
ATOM     84  C   UNL A   1      47.227  26.975  35.975  1.00  0.00     0.022 A 
BRANCH  81  85
ATOM     85  S   UNL A   1      45.836  24.987  37.352  1.00  0.00     0.124 S 
ATOM     86  O   UNL A   1      46.579  23.865  36.789  1.00  0.00    -0.237 OA
ATOM     87  O   UNL A   1      46.433  25.628  38.520  1.00  0.00    -0.237 OA
ATOM     88  O   UNL A   1      44.388  24.798  37.424  1.00  0.00    -0.744 OA
ENDBRANCH  81  85
ENDBRANCH  55  78
ENDBRANCH  29  30
ENDBRANCH  22  24
ENDBRANCH  21  22
ENDBRANCH  20  21
ENDBRANCH   1  20
TORSDOF 20
ENDMDL
