MODEL 1
REMARK VINA RESULT:     -12.0      0.000      0.000
REMARK SMILES Cc1oc(-c2ccc(Cl)cc2[N+](=O)[O-])cc1C(=O)OCCOC(=O)c1ccc(-c2c3nc(c(-c4cc(S(=O)(=O)[O-])ccc4F)c4ccc([nH]4)c(-c4cc(S(=O)(=O)[O-])ccc4F)c4nc(c(-c5cc(S(=O)(=O)[O-])ccc5F)c5ccc2[nH]5)C=C4)C=C3)cc1
REMARK SMILES IDX 21 1 20 2 19 3 17 4 18 5 16 6 1 7 2 8 3 9 4 10 15 11 5 12
REMARK SMILES IDX 6 13 11 14 7 15 10 16 8 17 9 18 12 19 13 20 14 21 22 22
REMARK SMILES IDX 23 23 24 24 25 25 26 26 87 27 27 28 86 29 28 30 29 31 30 32
REMARK SMILES IDX 80 33 31 34 85 35 79 36 81 37 32 38 84 39 78 40 77 41 33 43
REMARK SMILES IDX 65 44 45 45 64 46 46 47 49 48 63 49 82 50 47 51 48 52 62 54
REMARK SMILES IDX 83 55 50 56 34 57 35 58 43 59 36 60 42 61 44 62 41 63 37 64
REMARK SMILES IDX 38 65 39 66 40 67 66 68 67 69 75 70 68 71 74 72 76 73 73 74
REMARK SMILES IDX 69 75 70 76 71 77 72 78 51 79 52 80 60 81 53 82 59 83 61 84
REMARK SMILES IDX 58 85 54 86 55 87 56 88 57 89
REMARK H PARENT 81 42 49 53
REMARK Flexibility Score: inf
ROOT
ATOM      1  C   UNL A   1      36.449  20.431  25.010  1.00  0.00     0.275 C 
ENDROOT
BRANCH   1   2
ATOM      2  C   UNL A   1      35.066  20.993  25.344  1.00  0.00     0.275 C 
BRANCH   2   3
ATOM      3  O   UNL A   1      35.144  22.398  25.658  1.00  0.00    -0.458 OA
BRANCH   3   4
ATOM      4  C   UNL A   1      34.528  23.233  24.770  1.00  0.00     0.341 C 
ATOM      5  O   UNL A   1      34.534  23.071  23.559  1.00  0.00    -0.246 OA
BRANCH   4   6
ATOM      6  C   UNL A   1      33.741  24.280  25.402  1.00  0.00     0.101 A 
ATOM      7  C   UNL A   1      31.842  23.075  26.793  1.00  0.00     0.088 C 
ATOM      8  C   UNL A   1      32.604  24.189  26.189  1.00  0.00     0.116 A 
ATOM      9  O   UNL A   1      32.125  25.443  26.475  1.00  0.00    -0.460 OA
ATOM     10  C   UNL A   1      32.971  26.335  25.898  1.00  0.00     0.142 A 
ATOM     11  C   UNL A   1      34.016  25.676  25.302  1.00  0.00     0.067 A 
BRANCH  10  12
ATOM     12  C   UNL A   1      32.623  27.739  25.983  1.00  0.00     0.095 A 
ATOM     13  C   UNL A   1      33.058  28.464  27.106  1.00  0.00     0.021 A 
ATOM     14  C   UNL A   1      31.812  28.398  25.049  1.00  0.00     0.281 A 
ATOM     15  C   UNL A   1      32.675  29.798  27.292  1.00  0.00     0.022 A 
ATOM     16  C   UNL A   1      31.423  29.735  25.224  1.00  0.00     0.107 A 
ATOM     17  C   UNL A   1      31.856  30.423  26.354  1.00  0.00     0.047 A 
ATOM     18  Cl  UNL A   1      31.371  32.056  26.590  1.00  0.00    -0.084 Cl
BRANCH  14  19
ATOM     19  N   UNL A   1      31.336  27.717  23.855  1.00  0.00     0.063 N 
ATOM     20  O   UNL A   1      30.197  27.229  23.907  1.00  0.00    -0.258 OA
ATOM     21  O   UNL A   1      32.103  27.628  22.889  1.00  0.00    -0.258 OA
ENDBRANCH  14  19
ENDBRANCH  10  12
ENDBRANCH   4   6
ENDBRANCH   3   4
ENDBRANCH   2   3
ENDBRANCH   1   2
BRANCH   1  22
ATOM     22  O   UNL A   1      37.453  21.455  25.133  1.00  0.00    -0.458 OA
BRANCH  22  23
ATOM     23  C   UNL A   1      38.623  21.070  25.696  1.00  0.00     0.338 C 
ATOM     24  O   UNL A   1      39.107  19.952  25.704  1.00  0.00    -0.246 OA
BRANCH  23  25
ATOM     25  C   UNL A   1      39.291  22.242  26.283  1.00  0.00     0.060 A 
ATOM     26  C   UNL A   1      38.701  23.493  26.124  1.00  0.00     0.016 A 
ATOM     27  C   UNL A   1      40.546  22.129  26.879  1.00  0.00     0.016 A 
ATOM     28  C   UNL A   1      39.375  24.648  26.517  1.00  0.00     0.010 A 
ATOM     29  C   UNL A   1      41.200  23.286  27.326  1.00  0.00     0.010 A 
ATOM     30  C   UNL A   1      40.633  24.559  27.127  1.00  0.00    -0.014 A 
BRANCH  30  31
ATOM     31  C   UNL A   1      41.377  25.799  27.491  1.00  0.00     0.031 A 
ATOM     32  C   UNL A   1      40.728  26.831  28.376  1.00  0.00     0.074 A 
ATOM     33  C   UNL A   1      42.640  25.992  27.063  1.00  0.00     0.049 A 
ATOM     34  N   UNL A   1      41.143  28.029  28.699  1.00  0.00    -0.248 NA
ATOM     35  C   UNL A   1      39.432  26.464  28.968  1.00  0.00     0.031 C 
ATOM     36  C   UNL A   1      43.410  25.050  26.248  1.00  0.00     0.029 A 
ATOM     37  N   UNL A   1      43.503  27.045  27.254  1.00  0.00    -0.354 N 
ATOM     38  C   UNL A   1      40.143  28.578  29.496  1.00  0.00     0.074 A 
ATOM     39  C   UNL A   1      39.095  27.582  29.593  1.00  0.00     0.031 C 
ATOM     40  C   UNL A   1      44.634  25.556  26.030  1.00  0.00     0.029 A 
ATOM     41  C   UNL A   1      44.714  26.889  26.620  1.00  0.00     0.049 A 
ATOM     42  H   UNL A   1      43.276  27.835  27.795  1.00  0.00     0.167 HD
ATOM     43  C   UNL A   1      40.102  29.797  30.092  1.00  0.00     0.034 A 
ATOM     44  C   UNL A   1      45.755  27.736  26.490  1.00  0.00     0.034 A 
ATOM     45  C   UNL A   1      41.165  30.770  30.010  1.00  0.00     0.049 A 
ATOM     46  C   UNL A   1      45.667  29.106  27.112  1.00  0.00     0.074 A 
ATOM     47  C   UNL A   1      41.227  32.032  30.579  1.00  0.00     0.029 A 
ATOM     48  N   UNL A   1      42.358  30.591  29.320  1.00  0.00    -0.354 N 
ATOM     49  N   UNL A   1      44.689  29.632  27.813  1.00  0.00    -0.248 NA
ATOM     50  C   UNL A   1      46.817  29.997  26.918  1.00  0.00     0.031 C 
ATOM     51  C   UNL A   1      42.430  32.634  30.189  1.00  0.00     0.029 A 
ATOM     52  C   UNL A   1      43.150  31.725  29.432  1.00  0.00     0.049 A 
ATOM     53  H   UNL A   1      42.606  29.776  28.826  1.00  0.00     0.167 HD
ATOM     54  C   UNL A   1      45.115  30.914  28.153  1.00  0.00     0.074 A 
ATOM     55  C   UNL A   1      46.444  31.071  27.599  1.00  0.00     0.031 C 
ATOM     56  C   UNL A   1      44.466  31.874  28.859  1.00  0.00     0.034 A 
BRANCH  43  57
ATOM     57  C   UNL A   1      38.837  30.164  30.829  1.00  0.00     0.023 A 
ATOM     58  C   UNL A   1      37.782  30.849  30.204  1.00  0.00     0.031 A 
ATOM     59  C   UNL A   1      38.703  29.853  32.195  1.00  0.00     0.131 A 
ATOM     60  C   UNL A   1      36.674  31.267  30.959  1.00  0.00     0.055 A 
ATOM     61  C   UNL A   1      37.563  30.203  32.922  1.00  0.00     0.041 A 
ATOM     62  F   UNL A   1      39.687  29.218  32.851  1.00  0.00    -0.206 F 
ATOM     63  C   UNL A   1      36.547  30.928  32.308  1.00  0.00     0.022 A 
BRANCH  60  64
ATOM     64  S   UNL A   1      35.473  32.386  30.188  1.00  0.00     0.124 S 
ATOM     65  O   UNL A   1      35.142  31.666  28.961  1.00  0.00    -0.237 OA
ATOM     66  O   UNL A   1      34.418  32.456  31.191  1.00  0.00    -0.237 OA
ATOM     67  O   UNL A   1      36.231  33.620  29.991  1.00  0.00    -0.744 OA
ENDBRANCH  60  64
ENDBRANCH  43  57
BRANCH  44  68
ATOM     68  C   UNL A   1      46.947  27.347  25.681  1.00  0.00     0.023 A 
ATOM     69  C   UNL A   1      47.102  27.783  24.357  1.00  0.00     0.031 A 
ATOM     70  C   UNL A   1      47.929  26.492  26.214  1.00  0.00     0.131 A 
ATOM     71  C   UNL A   1      48.197  27.336  23.598  1.00  0.00     0.055 A 
ATOM     72  C   UNL A   1      49.042  26.094  25.473  1.00  0.00     0.041 A 
ATOM     73  F   UNL A   1      47.825  26.042  27.475  1.00  0.00    -0.206 F 
ATOM     74  C   UNL A   1      49.175  26.507  24.152  1.00  0.00     0.022 A 
BRANCH  71  75
ATOM     75  S   UNL A   1      48.286  27.796  21.845  1.00  0.00     0.124 S 
ATOM     76  O   UNL A   1      49.397  28.742  21.843  1.00  0.00    -0.237 OA
ATOM     77  O   UNL A   1      48.536  26.509  21.206  1.00  0.00    -0.237 OA
ATOM     78  O   UNL A   1      46.971  28.377  21.580  1.00  0.00    -0.744 OA
ENDBRANCH  71  75
ENDBRANCH  44  68
BRANCH  56  79
ATOM     79  C   UNL A   1      45.211  33.164  29.097  1.00  0.00     0.023 A 
ATOM     80  C   UNL A   1      45.121  34.244  28.202  1.00  0.00     0.031 A 
ATOM     81  C   UNL A   1      46.039  33.303  30.224  1.00  0.00     0.131 A 
ATOM     82  C   UNL A   1      45.888  35.398  28.424  1.00  0.00     0.055 A 
ATOM     83  C   UNL A   1      46.760  34.472  30.467  1.00  0.00     0.041 A 
ATOM     84  F   UNL A   1      46.162  32.300  31.109  1.00  0.00    -0.206 F 
ATOM     85  C   UNL A   1      46.696  35.524  29.557  1.00  0.00     0.022 A 
BRANCH  82  86
ATOM     86  S   UNL A   1      45.879  36.706  27.166  1.00  0.00     0.124 S 
ATOM     87  O   UNL A   1      44.498  36.669  26.698  1.00  0.00    -0.237 OA
ATOM     88  O   UNL A   1      46.260  37.885  27.938  1.00  0.00    -0.237 OA
ATOM     89  O   UNL A   1      46.875  36.255  26.195  1.00  0.00    -0.744 OA
ENDBRANCH  82  86
ENDBRANCH  56  79
ENDBRANCH  30  31
ENDBRANCH  23  25
ENDBRANCH  22  23
ENDBRANCH   1  22
TORSDOF 16
ENDMDL
MODEL 2
REMARK VINA RESULT:     -11.8      5.230     10.437
REMARK SMILES Cc1oc(-c2ccc(Cl)cc2[N+](=O)[O-])cc1C(=O)OCCOC(=O)c1ccc(-c2c3nc(c(-c4cc(S(=O)(=O)[O-])ccc4F)c4ccc([nH]4)c(-c4cc(S(=O)(=O)[O-])ccc4F)c4nc(c(-c5cc(S(=O)(=O)[O-])ccc5F)c5ccc2[nH]5)C=C4)C=C3)cc1
REMARK SMILES IDX 21 1 20 2 19 3 17 4 18 5 16 6 1 7 2 8 3 9 4 10 15 11 5 12
REMARK SMILES IDX 6 13 11 14 7 15 10 16 8 17 9 18 12 19 13 20 14 21 22 22
REMARK SMILES IDX 23 23 24 24 25 25 26 26 87 27 27 28 86 29 28 30 29 31 30 32
REMARK SMILES IDX 80 33 31 34 85 35 79 36 81 37 32 38 84 39 78 40 77 41 33 43
REMARK SMILES IDX 65 44 45 45 64 46 46 47 49 48 63 49 82 50 47 51 48 52 62 54
REMARK SMILES IDX 83 55 50 56 34 57 35 58 43 59 36 60 42 61 44 62 41 63 37 64
REMARK SMILES IDX 38 65 39 66 40 67 66 68 67 69 75 70 68 71 74 72 76 73 73 74
REMARK SMILES IDX 69 75 70 76 71 77 72 78 51 79 52 80 60 81 53 82 59 83 61 84
REMARK SMILES IDX 58 85 54 86 55 87 56 88 57 89
REMARK H PARENT 81 42 49 53
REMARK Flexibility Score: inf
ROOT
ATOM      1  C   UNL A   1      31.422  30.802  25.736  1.00  0.00     0.275 C 
ENDROOT
BRANCH   1   2
ATOM      2  C   UNL A   1      31.468  29.512  24.915  1.00  0.00     0.275 C 
BRANCH   2   3
ATOM      3  O   UNL A   1      32.625  28.725  25.258  1.00  0.00    -0.458 OA
BRANCH   3   4
ATOM      4  C   UNL A   1      32.365  27.449  25.671  1.00  0.00     0.341 C 
ATOM      5  O   UNL A   1      31.458  27.145  26.431  1.00  0.00    -0.246 OA
BRANCH   4   6
ATOM      6  C   UNL A   1      33.191  26.445  25.020  1.00  0.00     0.101 A 
ATOM      7  C   UNL A   1      32.891  26.780  22.414  1.00  0.00     0.088 C 
ATOM      8  C   UNL A   1      33.349  26.155  23.674  1.00  0.00     0.116 A 
ATOM      9  O   UNL A   1      34.142  25.046  23.518  1.00  0.00    -0.460 OA
ATOM     10  C   UNL A   1      34.515  24.644  24.761  1.00  0.00     0.142 A 
ATOM     11  C   UNL A   1      34.028  25.513  25.703  1.00  0.00     0.067 A 
BRANCH  10  12
ATOM     12  C   UNL A   1      35.291  23.424  24.866  1.00  0.00     0.095 A 
ATOM     13  C   UNL A   1      36.690  23.532  24.947  1.00  0.00     0.021 A 
ATOM     14  C   UNL A   1      34.732  22.140  24.811  1.00  0.00     0.281 A 
ATOM     15  C   UNL A   1      37.499  22.389  24.955  1.00  0.00     0.022 A 
ATOM     16  C   UNL A   1      35.533  20.987  24.819  1.00  0.00     0.107 A 
ATOM     17  C   UNL A   1      36.916  21.125  24.886  1.00  0.00     0.047 A 
ATOM     18  Cl  UNL A   1      37.909  19.721  24.877  1.00  0.00    -0.084 Cl
BRANCH  14  19
ATOM     19  N   UNL A   1      33.291  21.950  24.739  1.00  0.00     0.063 N 
ATOM     20  O   UNL A   1      32.676  21.931  25.815  1.00  0.00    -0.258 OA
ATOM     21  O   UNL A   1      32.780  21.778  23.626  1.00  0.00    -0.258 OA
ENDBRANCH  14  19
ENDBRANCH  10  12
ENDBRANCH   4   6
ENDBRANCH   3   4
ENDBRANCH   2   3
ENDBRANCH   1   2
BRANCH   1  22
ATOM     22  O   UNL A   1      32.294  30.705  26.878  1.00  0.00    -0.458 OA
BRANCH  22  23
ATOM     23  C   UNL A   1      32.919  31.850  27.241  1.00  0.00     0.338 C 
ATOM     24  O   UNL A   1      32.476  32.983  27.192  1.00  0.00    -0.246 OA
BRANCH  23  25
ATOM     25  C   UNL A   1      34.252  31.528  27.775  1.00  0.00     0.060 A 
ATOM     26  C   UNL A   1      34.536  30.205  28.103  1.00  0.00     0.016 A 
ATOM     27  C   UNL A   1      35.171  32.536  28.066  1.00  0.00     0.016 A 
ATOM     28  C   UNL A   1      35.720  29.878  28.762  1.00  0.00     0.010 A 
ATOM     29  C   UNL A   1      36.386  32.200  28.678  1.00  0.00     0.010 A 
ATOM     30  C   UNL A   1      36.663  30.872  29.056  1.00  0.00    -0.014 A 
BRANCH  30  31
ATOM     31  C   UNL A   1      37.900  30.529  29.814  1.00  0.00     0.031 A 
ATOM     32  C   UNL A   1      38.952  29.658  29.179  1.00  0.00     0.074 A 
ATOM     33  C   UNL A   1      38.103  31.018  31.053  1.00  0.00     0.049 A 
ATOM     34  N   UNL A   1      40.027  29.133  29.708  1.00  0.00    -0.248 NA
ATOM     35  C   UNL A   1      38.759  29.327  27.759  1.00  0.00     0.031 C 
ATOM     36  C   UNL A   1      37.195  31.919  31.766  1.00  0.00     0.029 A 
ATOM     37  N   UNL A   1      39.140  30.830  31.935  1.00  0.00    -0.354 N 
ATOM     38  C   UNL A   1      40.618  28.375  28.702  1.00  0.00     0.074 A 
ATOM     39  C   UNL A   1      39.769  28.500  27.535  1.00  0.00     0.031 C 
ATOM     40  C   UNL A   1      37.725  32.222  32.962  1.00  0.00     0.029 A 
ATOM     41  C   UNL A   1      38.969  31.479  33.136  1.00  0.00     0.049 A 
ATOM     42  H   UNL A   1      39.932  30.283  31.726  1.00  0.00     0.167 HD
ATOM     43  C   UNL A   1      41.761  27.644  28.746  1.00  0.00     0.034 A 
ATOM     44  C   UNL A   1      39.705  31.448  34.266  1.00  0.00     0.034 A 
ATOM     45  C   UNL A   1      42.614  27.550  29.906  1.00  0.00     0.049 A 
ATOM     46  C   UNL A   1      40.941  30.587  34.312  1.00  0.00     0.074 A 
ATOM     47  C   UNL A   1      43.795  26.842  30.056  1.00  0.00     0.029 A 
ATOM     48  N   UNL A   1      42.382  28.188  31.119  1.00  0.00    -0.354 N 
ATOM     49  N   UNL A   1      41.454  29.829  33.371  1.00  0.00    -0.248 NA
ATOM     50  C   UNL A   1      41.690  30.570  35.575  1.00  0.00     0.031 C 
ATOM     51  C   UNL A   1      44.246  27.007  31.371  1.00  0.00     0.029 A 
ATOM     52  C   UNL A   1      43.384  27.872  32.025  1.00  0.00     0.049 A 
ATOM     53  H   UNL A   1      41.617  28.779  31.307  1.00  0.00     0.167 HD
ATOM     54  C   UNL A   1      42.594  29.255  33.927  1.00  0.00     0.074 A 
ATOM     55  C   UNL A   1      42.704  29.771  35.276  1.00  0.00     0.031 C 
ATOM     56  C   UNL A   1      43.471  28.380  33.373  1.00  0.00     0.034 A 
BRANCH  43  57
ATOM     57  C   UNL A   1      42.115  26.840  27.518  1.00  0.00     0.023 A 
ATOM     58  C   UNL A   1      41.827  25.469  27.416  1.00  0.00     0.031 A 
ATOM     59  C   UNL A   1      42.788  27.453  26.444  1.00  0.00     0.131 A 
ATOM     60  C   UNL A   1      42.276  24.741  26.302  1.00  0.00     0.055 A 
ATOM     61  C   UNL A   1      43.162  26.739  25.304  1.00  0.00     0.041 A 
ATOM     62  F   UNL A   1      43.108  28.756  26.494  1.00  0.00    -0.206 F 
ATOM     63  C   UNL A   1      42.920  25.371  25.236  1.00  0.00     0.022 A 
BRANCH  60  64
ATOM     64  S   UNL A   1      42.135  22.933  26.337  1.00  0.00     0.124 S 
ATOM     65  O   UNL A   1      42.646  22.571  25.017  1.00  0.00    -0.237 OA
ATOM     66  O   UNL A   1      42.980  22.572  27.469  1.00  0.00    -0.237 OA
ATOM     67  O   UNL A   1      40.704  22.703  26.527  1.00  0.00    -0.744 OA
ENDBRANCH  60  64
ENDBRANCH  43  57
BRANCH  44  68
ATOM     68  C   UNL A   1      39.261  32.202  35.475  1.00  0.00     0.023 A 
ATOM     69  C   UNL A   1      38.572  31.565  36.517  1.00  0.00     0.031 A 
ATOM     70  C   UNL A   1      39.486  33.586  35.581  1.00  0.00     0.131 A 
ATOM     71  C   UNL A   1      38.100  32.318  37.606  1.00  0.00     0.055 A 
ATOM     72  C   UNL A   1      39.062  34.321  36.689  1.00  0.00     0.041 A 
ATOM     73  F   UNL A   1      40.137  34.245  34.609  1.00  0.00    -0.206 F 
ATOM     74  C   UNL A   1      38.354  33.688  37.705  1.00  0.00     0.022 A 
BRANCH  71  75
ATOM     75  S   UNL A   1      37.082  31.491  38.859  1.00  0.00     0.124 S 
ATOM     76  O   UNL A   1      35.869  32.301  38.837  1.00  0.00    -0.237 OA
ATOM     77  O   UNL A   1      36.965  30.143  38.314  1.00  0.00    -0.237 OA
ATOM     78  O   UNL A   1      37.886  31.603  40.075  1.00  0.00    -0.744 OA
ENDBRANCH  71  75
ENDBRANCH  44  68
BRANCH  56  79
ATOM     79  C   UNL A   1      44.644  27.962  34.224  1.00  0.00     0.023 A 
ATOM     80  C   UNL A   1      44.591  26.822  35.045  1.00  0.00     0.031 A 
ATOM     81  C   UNL A   1      45.822  28.729  34.228  1.00  0.00     0.131 A 
ATOM     82  C   UNL A   1      45.677  26.510  35.876  1.00  0.00     0.055 A 
ATOM     83  C   UNL A   1      46.919  28.385  35.018  1.00  0.00     0.041 A 
ATOM     84  F   UNL A   1      45.924  29.828  33.464  1.00  0.00    -0.206 F 
ATOM     85  C   UNL A   1      46.846  27.276  35.858  1.00  0.00     0.022 A 
BRANCH  82  86
ATOM     86  S   UNL A   1      45.514  25.132  37.045  1.00  0.00     0.124 S 
ATOM     87  O   UNL A   1      46.423  25.531  38.114  1.00  0.00    -0.237 OA
ATOM     88  O   UNL A   1      44.091  25.166  37.372  1.00  0.00    -0.237 OA
ATOM     89  O   UNL A   1      45.942  23.969  36.268  1.00  0.00    -0.744 OA
ENDBRANCH  82  86
ENDBRANCH  56  79
ENDBRANCH  30  31
ENDBRANCH  23  25
ENDBRANCH  22  23
ENDBRANCH   1  22
TORSDOF 16
ENDMDL
MODEL 3
REMARK VINA RESULT:     -11.8      1.678      7.769
REMARK SMILES Cc1oc(-c2ccc(Cl)cc2[N+](=O)[O-])cc1C(=O)OCCOC(=O)c1ccc(-c2c3nc(c(-c4cc(S(=O)(=O)[O-])ccc4F)c4ccc([nH]4)c(-c4cc(S(=O)(=O)[O-])ccc4F)c4nc(c(-c5cc(S(=O)(=O)[O-])ccc5F)c5ccc2[nH]5)C=C4)C=C3)cc1
REMARK SMILES IDX 21 1 20 2 19 3 17 4 18 5 16 6 1 7 2 8 3 9 4 10 15 11 5 12
REMARK SMILES IDX 6 13 11 14 7 15 10 16 8 17 9 18 12 19 13 20 14 21 22 22
REMARK SMILES IDX 23 23 24 24 25 25 26 26 87 27 27 28 86 29 28 30 29 31 30 32
REMARK SMILES IDX 80 33 31 34 85 35 79 36 81 37 32 38 84 39 78 40 77 41 33 43
REMARK SMILES IDX 65 44 45 45 64 46 46 47 49 48 63 49 82 50 47 51 48 52 62 54
REMARK SMILES IDX 83 55 50 56 34 57 35 58 43 59 36 60 42 61 44 62 41 63 37 64
REMARK SMILES IDX 38 65 39 66 40 67 66 68 67 69 75 70 68 71 74 72 76 73 73 74
REMARK SMILES IDX 69 75 70 76 71 77 72 78 51 79 52 80 60 81 53 82 59 83 61 84
REMARK SMILES IDX 58 85 54 86 55 87 56 88 57 89
REMARK H PARENT 81 42 49 53
REMARK Flexibility Score: inf
ROOT
ATOM      1  C   UNL A   1      37.902  19.941  25.019  1.00  0.00     0.275 C 
ENDROOT
BRANCH   1   2
ATOM      2  C   UNL A   1      36.418  20.228  24.780  1.00  0.00     0.275 C 
BRANCH   2   3
ATOM      3  O   UNL A   1      36.099  21.594  25.111  1.00  0.00    -0.458 OA
BRANCH   3   4
ATOM      4  C   UNL A   1      35.864  22.416  24.045  1.00  0.00     0.341 C 
ATOM      5  O   UNL A   1      36.678  22.646  23.163  1.00  0.00    -0.246 OA
BRANCH   4   6
ATOM      6  C   UNL A   1      34.496  22.903  23.973  1.00  0.00     0.101 A 
ATOM      7  C   UNL A   1      32.933  20.775  23.814  1.00  0.00     0.088 C 
ATOM      8  C   UNL A   1      33.307  22.206  23.824  1.00  0.00     0.116 A 
ATOM      9  O   UNL A   1      32.258  23.081  23.688  1.00  0.00    -0.460 OA
ATOM     10  C   UNL A   1      32.771  24.336  23.780  1.00  0.00     0.142 A 
ATOM     11  C   UNL A   1      34.118  24.277  24.035  1.00  0.00     0.067 A 
BRANCH  10  12
ATOM     12  C   UNL A   1      31.864  25.447  23.573  1.00  0.00     0.095 A 
ATOM     13  C   UNL A   1      30.773  25.585  24.449  1.00  0.00     0.021 A 
ATOM     14  C   UNL A   1      31.966  26.347  22.504  1.00  0.00     0.281 A 
ATOM     15  C   UNL A   1      29.810  26.580  24.245  1.00  0.00     0.022 A 
ATOM     16  C   UNL A   1      31.008  27.349  22.290  1.00  0.00     0.107 A 
ATOM     17  C   UNL A   1      29.930  27.453  23.164  1.00  0.00     0.047 A 
ATOM     18  Cl  UNL A   1      28.739  28.664  22.903  1.00  0.00    -0.084 Cl
BRANCH  14  19
ATOM     19  N   UNL A   1      33.076  26.274  21.565  1.00  0.00     0.063 N 
ATOM     20  O   UNL A   1      34.037  27.027  21.777  1.00  0.00    -0.258 OA
ATOM     21  O   UNL A   1      32.974  25.507  20.600  1.00  0.00    -0.258 OA
ENDBRANCH  14  19
ENDBRANCH  10  12
ENDBRANCH   4   6
ENDBRANCH   3   4
ENDBRANCH   2   3
ENDBRANCH   1   2
BRANCH   1  22
ATOM     22  O   UNL A   1      38.358  20.605  26.213  1.00  0.00    -0.458 OA
BRANCH  22  23
ATOM     23  C   UNL A   1      39.700  20.638  26.392  1.00  0.00     0.338 C 
ATOM     24  O   UNL A   1      40.495  19.736  26.200  1.00  0.00    -0.246 OA
BRANCH  23  25
ATOM     25  C   UNL A   1      40.100  21.986  26.826  1.00  0.00     0.060 A 
ATOM     26  C   UNL A   1      39.436  23.084  26.283  1.00  0.00     0.016 A 
ATOM     27  C   UNL A   1      41.199  22.174  27.662  1.00  0.00     0.016 A 
ATOM     28  C   UNL A   1      39.886  24.378  26.536  1.00  0.00     0.010 A 
ATOM     29  C   UNL A   1      41.618  23.478  27.962  1.00  0.00     0.010 A 
ATOM     30  C   UNL A   1      40.982  24.593  27.381  1.00  0.00    -0.014 A 
BRANCH  30  31
ATOM     31  C   UNL A   1      41.499  25.975  27.601  1.00  0.00     0.031 A 
ATOM     32  C   UNL A   1      42.817  26.387  27.000  1.00  0.00     0.074 A 
ATOM     33  C   UNL A   1      40.781  26.871  28.307  1.00  0.00     0.049 A 
ATOM     34  N   UNL A   1      43.505  27.485  27.180  1.00  0.00    -0.248 NA
ATOM     35  C   UNL A   1      43.446  25.428  26.080  1.00  0.00     0.031 C 
ATOM     36  C   UNL A   1      39.464  26.623  28.896  1.00  0.00     0.029 A 
ATOM     37  N   UNL A   1      41.056  28.174  28.647  1.00  0.00    -0.354 N 
ATOM     38  C   UNL A   1      44.669  27.334  26.432  1.00  0.00     0.074 A 
ATOM     39  C   UNL A   1      44.595  26.029  25.808  1.00  0.00     0.031 C 
ATOM     40  C   UNL A   1      39.037  27.742  29.504  1.00  0.00     0.029 A 
ATOM     41  C   UNL A   1      40.078  28.762  29.417  1.00  0.00     0.049 A 
ATOM     42  H   UNL A   1      41.874  28.643  28.366  1.00  0.00     0.167 HD
ATOM     43  C   UNL A   1      45.702  28.202  26.279  1.00  0.00     0.034 A 
ATOM     44  C   UNL A   1      40.039  29.966  30.021  1.00  0.00     0.034 A 
ATOM     45  C   UNL A   1      45.750  29.511  26.883  1.00  0.00     0.049 A 
ATOM     46  C   UNL A   1      41.220  30.893  29.883  1.00  0.00     0.074 A 
ATOM     47  C   UNL A   1      46.746  30.470  26.789  1.00  0.00     0.029 A 
ATOM     48  N   UNL A   1      44.759  30.053  27.693  1.00  0.00    -0.354 N 
ATOM     49  N   UNL A   1      42.339  30.711  29.221  1.00  0.00    -0.248 NA
ATOM     50  C   UNL A   1      41.136  32.182  30.582  1.00  0.00     0.031 C 
ATOM     51  C   UNL A   1      46.382  31.564  27.583  1.00  0.00     0.029 A 
ATOM     52  C   UNL A   1      45.130  31.319  28.121  1.00  0.00     0.049 A 
ATOM     53  H   UNL A   1      43.915  29.602  27.928  1.00  0.00     0.167 HD
ATOM     54  C   UNL A   1      43.086  31.870  29.415  1.00  0.00     0.074 A 
ATOM     55  C   UNL A   1      42.282  32.750  30.238  1.00  0.00     0.031 C 
ATOM     56  C   UNL A   1      44.325  32.179  28.956  1.00  0.00     0.034 A 
BRANCH  43  57
ATOM     57  C   UNL A   1      46.888  27.729  25.473  1.00  0.00     0.023 A 
ATOM     58  C   UNL A   1      47.082  28.114  24.137  1.00  0.00     0.031 A 
ATOM     59  C   UNL A   1      47.821  26.845  26.047  1.00  0.00     0.131 A 
ATOM     60  C   UNL A   1      48.138  27.560  23.396  1.00  0.00     0.055 A 
ATOM     61  C   UNL A   1      48.913  26.358  25.327  1.00  0.00     0.041 A 
ATOM     62  F   UNL A   1      47.675  26.426  27.314  1.00  0.00    -0.206 F 
ATOM     63  C   UNL A   1      49.068  26.703  23.988  1.00  0.00     0.022 A 
BRANCH  60  64
ATOM     64  S   UNL A   1      48.190  27.859  21.607  1.00  0.00     0.124 S 
ATOM     65  O   UNL A   1      49.251  28.857  21.506  1.00  0.00    -0.237 OA
ATOM     66  O   UNL A   1      48.505  26.538  21.076  1.00  0.00    -0.237 OA
ATOM     67  O   UNL A   1      46.849  28.352  21.302  1.00  0.00    -0.744 OA
ENDBRANCH  60  64
ENDBRANCH  43  57
BRANCH  44  68
ATOM     68  C   UNL A   1      38.873  30.346  30.871  1.00  0.00     0.023 A 
ATOM     69  C   UNL A   1      37.772  31.030  30.334  1.00  0.00     0.031 A 
ATOM     70  C   UNL A   1      38.867  30.064  32.249  1.00  0.00     0.131 A 
ATOM     71  C   UNL A   1      36.726  31.440  31.177  1.00  0.00     0.055 A 
ATOM     72  C   UNL A   1      37.801  30.427  33.072  1.00  0.00     0.041 A 
ATOM     73  F   UNL A   1      39.898  29.416  32.814  1.00  0.00    -0.206 F 
ATOM     74  C   UNL A   1      36.727  31.131  32.539  1.00  0.00     0.022 A 
BRANCH  71  75
ATOM     75  S   UNL A   1      35.393  32.454  30.478  1.00  0.00     0.124 S 
ATOM     76  O   UNL A   1      35.127  31.767  29.219  1.00  0.00    -0.237 OA
ATOM     77  O   UNL A   1      34.360  32.343  31.502  1.00  0.00    -0.237 OA
ATOM     78  O   UNL A   1      36.004  33.776  30.352  1.00  0.00    -0.744 OA
ENDBRANCH  71  75
ENDBRANCH  44  68
BRANCH  56  79
ATOM     79  C   UNL A   1      44.861  33.544  29.309  1.00  0.00     0.023 A 
ATOM     80  C   UNL A   1      44.635  34.661  28.486  1.00  0.00     0.031 A 
ATOM     81  C   UNL A   1      45.626  33.722  30.475  1.00  0.00     0.131 A 
ATOM     82  C   UNL A   1      45.213  35.896  28.813  1.00  0.00     0.055 A 
ATOM     83  C   UNL A   1      46.155  34.965  30.823  1.00  0.00     0.041 A 
ATOM     84  F   UNL A   1      45.872  32.688  31.295  1.00  0.00    -0.206 F 
ATOM     85  C   UNL A   1      45.960  36.059  29.983  1.00  0.00     0.022 A 
BRANCH  82  86
ATOM     86  S   UNL A   1      45.045  37.275  27.646  1.00  0.00     0.124 S 
ATOM     87  O   UNL A   1      43.710  37.052  27.102  1.00  0.00    -0.237 OA
ATOM     88  O   UNL A   1      45.194  38.440  28.514  1.00  0.00    -0.237 OA
ATOM     89  O   UNL A   1      46.142  37.063  26.703  1.00  0.00    -0.744 OA
ENDBRANCH  82  86
ENDBRANCH  56  79
ENDBRANCH  30  31
ENDBRANCH  23  25
ENDBRANCH  22  23
ENDBRANCH   1  22
TORSDOF 16
ENDMDL
