MODEL 1
REMARK VINA RESULT:      -9.2      0.000      0.000
REMARK SMILES CCCC[C@H](O)[C@H](F)C(=O)OCCOC(=O)c1ccc(-c2c3nc(c(-c4cc(S(=O)(=O)[O-])ccc4F)c4ccc([nH]4)c(-c4cc(S(=O)(=O)[O-])ccc4F)c4nc(c(-c5cc(S(=O)(=O)[O-])ccc5F)c5ccc2[nH]5)C=C4)C=C3)cc1
REMARK SMILES IDX 12 1 11 2 9 3 10 4 7 5 8 6 5 7 4 8 3 9 2 10 1 11 6 12 13 14
REMARK SMILES IDX 14 15 15 16 16 17 17 18 18 19 79 20 19 21 78 22 20 23 21 24
REMARK SMILES IDX 22 25 72 26 23 27 77 28 71 29 73 30 24 31 76 32 70 33 69 34
REMARK SMILES IDX 25 36 57 37 37 38 56 39 38 40 41 41 55 42 74 43 39 44 40 45
REMARK SMILES IDX 54 47 75 48 42 49 26 50 27 51 35 52 28 53 34 54 36 55 33 56
REMARK SMILES IDX 29 57 30 58 31 59 32 60 58 61 59 62 67 63 60 64 66 65 68 66
REMARK SMILES IDX 65 67 61 68 62 69 63 70 64 71 43 72 44 73 52 74 45 75 51 76
REMARK SMILES IDX 53 77 50 78 46 79 47 80 48 81 49 82
REMARK H PARENT 6 13 73 35 41 46
REMARK Flexibility Score: inf
ROOT
ATOM      1  C   UNL A   1      33.302  35.149  28.724  1.00  0.00     0.274 C 
ENDROOT
BRANCH   1   2
ATOM      2  O   UNL A   1      32.755  35.055  30.051  1.00  0.00    -0.460 OA
BRANCH   2   3
ATOM      3  C   UNL A   1      33.120  36.036  30.926  1.00  0.00     0.343 C 
ATOM      4  O   UNL A   1      32.530  37.104  31.034  1.00  0.00    -0.249 OA
BRANCH   3   5
ATOM      5  C   UNL A   1      34.249  35.571  31.834  1.00  0.00     0.304 C 
ATOM      6  F   UNL A   1      34.750  36.596  32.609  1.00  0.00    -0.232 F 
BRANCH   5   7
ATOM      7  C   UNL A   1      33.899  34.444  32.811  1.00  0.00     0.160 C 
BRANCH   7   8
ATOM      8  C   UNL A   1      34.393  33.022  32.519  1.00  0.00     0.035 C 
BRANCH   8   9
ATOM      9  C   UNL A   1      35.833  32.842  32.034  1.00  0.00     0.002 C 
BRANCH   9  10
ATOM     10  C   UNL A   1      36.942  33.305  32.976  1.00  0.00    -0.003 C 
ATOM     11  C   UNL A   1      37.748  34.479  32.451  1.00  0.00     0.004 C 
ENDBRANCH   9  10
ENDBRANCH   8   9
ENDBRANCH   7   8
BRANCH   7  12
ATOM     12  O   UNL A   1      32.469  34.386  32.975  1.00  0.00    -0.389 OA
ATOM     13  H   UNL A   1      32.188  33.461  33.044  1.00  0.00     0.211 HD
ENDBRANCH   7  12
ENDBRANCH   5   7
ENDBRANCH   3   5
ENDBRANCH   2   3
ENDBRANCH   1   2
BRANCH   1  14
ATOM     14  C   UNL A   1      33.371  33.771  28.053  1.00  0.00     0.275 C 
BRANCH  14  15
ATOM     15  O   UNL A   1      34.141  32.817  28.814  1.00  0.00    -0.458 OA
BRANCH  15  16
ATOM     16  C   UNL A   1      34.403  31.650  28.175  1.00  0.00     0.338 C 
ATOM     17  O   UNL A   1      33.706  31.122  27.324  1.00  0.00    -0.246 OA
BRANCH  16  18
ATOM     18  C   UNL A   1      35.743  31.136  28.529  1.00  0.00     0.060 A 
ATOM     19  C   UNL A   1      35.798  29.887  29.154  1.00  0.00     0.016 A 
ATOM     20  C   UNL A   1      36.917  31.864  28.321  1.00  0.00     0.016 A 
ATOM     21  C   UNL A   1      37.016  29.351  29.556  1.00  0.00     0.010 A 
ATOM     22  C   UNL A   1      38.147  31.329  28.737  1.00  0.00     0.010 A 
ATOM     23  C   UNL A   1      38.201  30.068  29.355  1.00  0.00    -0.014 A 
BRANCH  23  24
ATOM     24  C   UNL A   1      39.472  29.475  29.840  1.00  0.00     0.031 A 
ATOM     25  C   UNL A   1      40.125  30.009  31.082  1.00  0.00     0.074 A 
ATOM     26  C   UNL A   1      39.974  28.388  29.224  1.00  0.00     0.049 A 
ATOM     27  N   UNL A   1      41.212  29.604  31.686  1.00  0.00    -0.248 NA
ATOM     28  C   UNL A   1      39.456  31.143  31.738  1.00  0.00     0.031 C 
ATOM     29  C   UNL A   1      39.385  27.739  28.051  1.00  0.00     0.029 A 
ATOM     30  N   UNL A   1      41.082  27.629  29.505  1.00  0.00    -0.354 N 
ATOM     31  C   UNL A   1      41.356  30.421  32.801  1.00  0.00     0.074 A 
ATOM     32  C   UNL A   1      40.259  31.368  32.769  1.00  0.00     0.031 C 
ATOM     33  C   UNL A   1      40.137  26.678  27.715  1.00  0.00     0.029 A 
ATOM     34  C   UNL A   1      41.281  26.594  28.620  1.00  0.00     0.049 A 
ATOM     35  H   UNL A   1      41.679  27.807  30.267  1.00  0.00     0.167 HD
ATOM     36  C   UNL A   1      42.310  30.380  33.764  1.00  0.00     0.034 A 
ATOM     37  C   UNL A   1      42.284  25.697  28.536  1.00  0.00     0.034 A 
ATOM     38  C   UNL A   1      43.413  29.448  33.770  1.00  0.00     0.049 A 
ATOM     39  C   UNL A   1      43.388  25.738  29.564  1.00  0.00     0.074 A 
ATOM     40  C   UNL A   1      44.453  29.347  34.679  1.00  0.00     0.029 A 
ATOM     41  N   UNL A   1      43.625  28.458  32.818  1.00  0.00    -0.354 N 
ATOM     42  N   UNL A   1      43.525  26.536  30.598  1.00  0.00    -0.248 NA
ATOM     43  C   UNL A   1      44.467  24.755  29.416  1.00  0.00     0.031 C 
ATOM     44  C   UNL A   1      45.323  28.339  34.245  1.00  0.00     0.029 A 
ATOM     45  C   UNL A   1      44.790  27.762  33.103  1.00  0.00     0.049 A 
ATOM     46  H   UNL A   1      43.033  28.277  32.053  1.00  0.00     0.167 HD
ATOM     47  C   UNL A   1      44.698  26.136  31.232  1.00  0.00     0.074 A 
ATOM     48  C   UNL A   1      45.211  25.007  30.482  1.00  0.00     0.031 C 
ATOM     49  C   UNL A   1      45.301  26.653  32.333  1.00  0.00     0.034 A 
BRANCH  36  50
ATOM     50  C   UNL A   1      42.228  31.413  34.859  1.00  0.00     0.023 A 
ATOM     51  C   UNL A   1      42.866  32.661  34.748  1.00  0.00     0.031 A 
ATOM     52  C   UNL A   1      41.517  31.137  36.041  1.00  0.00     0.131 A 
ATOM     53  C   UNL A   1      42.822  33.565  35.819  1.00  0.00     0.055 A 
ATOM     54  C   UNL A   1      41.424  32.067  37.077  1.00  0.00     0.041 A 
ATOM     55  F   UNL A   1      40.909  29.951  36.209  1.00  0.00    -0.206 F 
ATOM     56  C   UNL A   1      42.087  33.286  36.975  1.00  0.00     0.022 A 
BRANCH  53  57
ATOM     57  S   UNL A   1      43.834  35.069  35.732  1.00  0.00     0.124 S 
ATOM     58  O   UNL A   1      42.907  36.013  35.112  1.00  0.00    -0.237 OA
ATOM     59  O   UNL A   1      44.156  35.314  37.132  1.00  0.00    -0.237 OA
ATOM     60  O   UNL A   1      44.963  34.674  34.893  1.00  0.00    -0.744 OA
ENDBRANCH  53  57
ENDBRANCH  36  50
BRANCH  37  61
ATOM     61  C   UNL A   1      42.337  24.720  27.408  1.00  0.00     0.023 A 
ATOM     62  C   UNL A   1      41.562  23.550  27.415  1.00  0.00     0.031 A 
ATOM     63  C   UNL A   1      43.237  24.909  26.343  1.00  0.00     0.131 A 
ATOM     64  C   UNL A   1      41.742  22.589  26.408  1.00  0.00     0.055 A 
ATOM     65  C   UNL A   1      43.370  23.977  25.313  1.00  0.00     0.041 A 
ATOM     66  F   UNL A   1      44.007  26.008  26.290  1.00  0.00    -0.206 F 
ATOM     67  C   UNL A   1      42.630  22.799  25.351  1.00  0.00     0.022 A 
BRANCH  64  68
ATOM     68  S   UNL A   1      40.876  21.001  26.559  1.00  0.00     0.124 S 
ATOM     69  O   UNL A   1      40.870  20.801  28.004  1.00  0.00    -0.237 OA
ATOM     70  O   UNL A   1      39.585  21.302  25.947  1.00  0.00    -0.237 OA
ATOM     71  O   UNL A   1      41.722  20.079  25.804  1.00  0.00    -0.744 OA
ENDBRANCH  64  68
ENDBRANCH  37  61
BRANCH  49  72
ATOM     72  C   UNL A   1      46.569  25.975  32.793  1.00  0.00     0.023 A 
ATOM     73  C   UNL A   1      47.818  26.290  32.231  1.00  0.00     0.031 A 
ATOM     74  C   UNL A   1      46.520  24.970  33.776  1.00  0.00     0.131 A 
ATOM     75  C   UNL A   1      48.958  25.564  32.607  1.00  0.00     0.055 A 
ATOM     76  C   UNL A   1      47.668  24.292  34.190  1.00  0.00     0.041 A 
ATOM     77  F   UNL A   1      45.355  24.627  34.347  1.00  0.00    -0.206 F 
ATOM     78  C   UNL A   1      48.893  24.576  33.593  1.00  0.00     0.022 A 
BRANCH  75  79
ATOM     79  S   UNL A   1      50.510  25.854  31.713  1.00  0.00     0.124 S 
ATOM     80  O   UNL A   1      51.504  25.710  32.771  1.00  0.00    -0.237 OA
ATOM     81  O   UNL A   1      50.493  24.795  30.707  1.00  0.00    -0.237 OA
ATOM     82  O   UNL A   1      50.356  27.209  31.186  1.00  0.00    -0.744 OA
ENDBRANCH  75  79
ENDBRANCH  49  72
ENDBRANCH  23  24
ENDBRANCH  16  18
ENDBRANCH  15  16
ENDBRANCH  14  15
ENDBRANCH   1  14
TORSDOF 19
ENDMDL
MODEL 2
REMARK VINA RESULT:      -9.1      2.520      2.868
REMARK SMILES CCCC[C@H](O)[C@H](F)C(=O)OCCOC(=O)c1ccc(-c2c3nc(c(-c4cc(S(=O)(=O)[O-])ccc4F)c4ccc([nH]4)c(-c4cc(S(=O)(=O)[O-])ccc4F)c4nc(c(-c5cc(S(=O)(=O)[O-])ccc5F)c5ccc2[nH]5)C=C4)C=C3)cc1
REMARK SMILES IDX 12 1 11 2 9 3 10 4 7 5 8 6 5 7 4 8 3 9 2 10 1 11 6 12 13 14
REMARK SMILES IDX 14 15 15 16 16 17 17 18 18 19 79 20 19 21 78 22 20 23 21 24
REMARK SMILES IDX 22 25 72 26 23 27 77 28 71 29 73 30 24 31 76 32 70 33 69 34
REMARK SMILES IDX 25 36 57 37 37 38 56 39 38 40 41 41 55 42 74 43 39 44 40 45
REMARK SMILES IDX 54 47 75 48 42 49 26 50 27 51 35 52 28 53 34 54 36 55 33 56
REMARK SMILES IDX 29 57 30 58 31 59 32 60 58 61 59 62 67 63 60 64 66 65 68 66
REMARK SMILES IDX 65 67 61 68 62 69 63 70 64 71 43 72 44 73 52 74 45 75 51 76
REMARK SMILES IDX 53 77 50 78 46 79 47 80 48 81 49 82
REMARK H PARENT 6 13 73 35 41 46
REMARK Flexibility Score: inf
ROOT
ATOM      1  C   UNL A   1      33.326  35.662  28.800  1.00  0.00     0.274 C 
ENDROOT
BRANCH   1   2
ATOM      2  O   UNL A   1      33.677  35.621  30.195  1.00  0.00    -0.460 OA
BRANCH   2   3
ATOM      3  C   UNL A   1      32.977  36.452  31.020  1.00  0.00     0.343 C 
ATOM      4  O   UNL A   1      31.755  36.453  31.104  1.00  0.00    -0.249 OA
BRANCH   3   5
ATOM      5  C   UNL A   1      33.912  37.259  31.910  1.00  0.00     0.304 C 
ATOM      6  F   UNL A   1      33.479  38.558  32.077  1.00  0.00    -0.232 F 
BRANCH   5   7
ATOM      7  C   UNL A   1      34.128  36.708  33.323  1.00  0.00     0.160 C 
BRANCH   7   8
ATOM      8  C   UNL A   1      34.596  35.258  33.496  1.00  0.00     0.035 C 
BRANCH   8   9
ATOM      9  C   UNL A   1      35.851  34.809  32.744  1.00  0.00     0.002 C 
BRANCH   9  10
ATOM     10  C   UNL A   1      35.950  33.328  32.387  1.00  0.00    -0.003 C 
ATOM     11  C   UNL A   1      34.665  32.740  31.834  1.00  0.00     0.004 C 
ENDBRANCH   9  10
ENDBRANCH   8   9
ENDBRANCH   7   8
BRANCH   7  12
ATOM     12  O   UNL A   1      32.917  36.871  34.086  1.00  0.00    -0.389 OA
ATOM     13  H   UNL A   1      32.802  37.806  34.317  1.00  0.00     0.211 HD
ENDBRANCH   7  12
ENDBRANCH   5   7
ENDBRANCH   3   5
ENDBRANCH   2   3
ENDBRANCH   1   2
BRANCH   1  14
ATOM     14  C   UNL A   1      33.014  34.259  28.265  1.00  0.00     0.275 C 
BRANCH  14  15
ATOM     15  O   UNL A   1      34.164  33.619  27.673  1.00  0.00    -0.458 OA
BRANCH  15  16
ATOM     16  C   UNL A   1      34.169  32.265  27.747  1.00  0.00     0.338 C 
ATOM     17  O   UNL A   1      33.288  31.518  27.352  1.00  0.00    -0.246 OA
BRANCH  16  18
ATOM     18  C   UNL A   1      35.466  31.761  28.246  1.00  0.00     0.060 A 
ATOM     19  C   UNL A   1      35.503  30.437  28.692  1.00  0.00     0.016 A 
ATOM     20  C   UNL A   1      36.608  32.561  28.342  1.00  0.00     0.016 A 
ATOM     21  C   UNL A   1      36.674  29.900  29.215  1.00  0.00     0.010 A 
ATOM     22  C   UNL A   1      37.787  32.023  28.881  1.00  0.00     0.010 A 
ATOM     23  C   UNL A   1      37.825  30.688  29.318  1.00  0.00    -0.014 A 
BRANCH  23  24
ATOM     24  C   UNL A   1      39.037  30.084  29.924  1.00  0.00     0.031 A 
ATOM     25  C   UNL A   1      39.471  30.490  31.303  1.00  0.00     0.074 A 
ATOM     26  C   UNL A   1      39.680  29.094  29.275  1.00  0.00     0.049 A 
ATOM     27  N   UNL A   1      40.476  30.052  32.017  1.00  0.00    -0.248 NA
ATOM     28  C   UNL A   1      38.656  31.516  31.970  1.00  0.00     0.031 C 
ATOM     29  C   UNL A   1      39.306  28.568  27.960  1.00  0.00     0.029 A 
ATOM     30  N   UNL A   1      40.770  28.344  29.635  1.00  0.00    -0.354 N 
ATOM     31  C   UNL A   1      40.411  30.737  33.224  1.00  0.00     0.074 A 
ATOM     32  C   UNL A   1      39.285  31.644  33.130  1.00  0.00     0.031 C 
ATOM     33  C   UNL A   1      40.152  27.580  27.627  1.00  0.00     0.029 A 
ATOM     34  C   UNL A   1      41.151  27.428  28.682  1.00  0.00     0.049 A 
ATOM     35  H   UNL A   1      41.238  28.451  30.495  1.00  0.00     0.167 HD
ATOM     36  C   UNL A   1      41.213  30.614  34.312  1.00  0.00     0.034 A 
ATOM     37  C   UNL A   1      42.199  26.580  28.653  1.00  0.00     0.034 A 
ATOM     38  C   UNL A   1      42.348  29.724  34.384  1.00  0.00     0.049 A 
ATOM     39  C   UNL A   1      43.135  26.537  29.837  1.00  0.00     0.074 A 
ATOM     40  C   UNL A   1      43.245  29.552  35.424  1.00  0.00     0.029 A 
ATOM     41  N   UNL A   1      42.748  28.861  33.371  1.00  0.00    -0.354 N 
ATOM     42  N   UNL A   1      43.076  27.212  30.962  1.00  0.00    -0.248 NA
ATOM     43  C   UNL A   1      44.272  25.613  29.747  1.00  0.00     0.031 C 
ATOM     44  C   UNL A   1      44.219  28.631  35.019  1.00  0.00     0.029 A 
ATOM     45  C   UNL A   1      43.892  28.175  33.752  1.00  0.00     0.049 A 
ATOM     46  H   UNL A   1      42.287  28.752  32.509  1.00  0.00     0.167 HD
ATOM     47  C   UNL A   1      44.161  26.778  31.720  1.00  0.00     0.074 A 
ATOM     48  C   UNL A   1      44.835  25.763  30.936  1.00  0.00     0.031 C 
ATOM     49  C   UNL A   1      44.566  27.182  32.951  1.00  0.00     0.034 A 
BRANCH  36  50
ATOM     50  C   UNL A   1      40.917  31.508  35.490  1.00  0.00     0.023 A 
ATOM     51  C   UNL A   1      39.687  31.453  36.168  1.00  0.00     0.031 A 
ATOM     52  C   UNL A   1      41.872  32.441  35.928  1.00  0.00     0.131 A 
ATOM     53  C   UNL A   1      39.425  32.350  37.215  1.00  0.00     0.055 A 
ATOM     54  C   UNL A   1      41.630  33.287  37.011  1.00  0.00     0.041 A 
ATOM     55  F   UNL A   1      43.054  32.552  35.301  1.00  0.00    -0.206 F 
ATOM     56  C   UNL A   1      40.397  33.252  37.656  1.00  0.00     0.022 A 
BRANCH  53  57
ATOM     57  S   UNL A   1      37.755  32.402  37.922  1.00  0.00     0.124 S 
ATOM     58  O   UNL A   1      36.983  32.960  36.814  1.00  0.00    -0.237 OA
ATOM     59  O   UNL A   1      37.502  31.002  38.237  1.00  0.00    -0.237 OA
ATOM     60  O   UNL A   1      37.900  33.285  39.078  1.00  0.00    -0.744 OA
ENDBRANCH  53  57
ENDBRANCH  36  50
BRANCH  37  61
ATOM     61  C   UNL A   1      42.469  25.746  27.445  1.00  0.00     0.023 A 
ATOM     62  C   UNL A   1      42.033  24.414  27.363  1.00  0.00     0.031 A 
ATOM     63  C   UNL A   1      43.246  26.251  26.388  1.00  0.00     0.131 A 
ATOM     64  C   UNL A   1      42.425  23.618  26.275  1.00  0.00     0.055 A 
ATOM     65  C   UNL A   1      43.584  25.473  25.280  1.00  0.00     0.041 A 
ATOM     66  F   UNL A   1      43.694  27.517  26.418  1.00  0.00    -0.206 F 
ATOM     67  C   UNL A   1      43.186  24.141  25.228  1.00  0.00     0.022 A 
BRANCH  64  68
ATOM     68  S   UNL A   1      42.018  21.849  26.302  1.00  0.00     0.124 S 
ATOM     69  O   UNL A   1      42.879  21.329  25.245  1.00  0.00    -0.237 OA
ATOM     70  O   UNL A   1      42.379  21.477  27.666  1.00  0.00    -0.237 OA
ATOM     71  O   UNL A   1      40.586  21.826  26.009  1.00  0.00    -0.744 OA
ENDBRANCH  64  68
ENDBRANCH  37  61
BRANCH  49  72
ATOM     72  C   UNL A   1      45.784  26.496  33.522  1.00  0.00     0.023 A 
ATOM     73  C   UNL A   1      45.678  25.312  34.272  1.00  0.00     0.031 A 
ATOM     74  C   UNL A   1      47.062  27.057  33.349  1.00  0.00     0.131 A 
ATOM     75  C   UNL A   1      46.818  24.762  34.878  1.00  0.00     0.055 A 
ATOM     76  C   UNL A   1      48.202  26.472  33.904  1.00  0.00     0.041 A 
ATOM     77  F   UNL A   1      47.223  28.187  32.643  1.00  0.00    -0.206 F 
ATOM     78  C   UNL A   1      48.081  25.327  34.687  1.00  0.00     0.022 A 
BRANCH  75  79
ATOM     79  S   UNL A   1      46.613  23.357  36.008  1.00  0.00     0.124 S 
ATOM     80  O   UNL A   1      46.076  22.329  35.123  1.00  0.00    -0.237 OA
ATOM     81  O   UNL A   1      47.975  23.140  36.485  1.00  0.00    -0.237 OA
ATOM     82  O   UNL A   1      45.678  23.858  37.015  1.00  0.00    -0.744 OA
ENDBRANCH  75  79
ENDBRANCH  49  72
ENDBRANCH  23  24
ENDBRANCH  16  18
ENDBRANCH  15  16
ENDBRANCH  14  15
ENDBRANCH   1  14
TORSDOF 19
ENDMDL
MODEL 3
REMARK VINA RESULT:      -9.1      4.257     12.128
REMARK SMILES CCCC[C@H](O)[C@H](F)C(=O)OCCOC(=O)c1ccc(-c2c3nc(c(-c4cc(S(=O)(=O)[O-])ccc4F)c4ccc([nH]4)c(-c4cc(S(=O)(=O)[O-])ccc4F)c4nc(c(-c5cc(S(=O)(=O)[O-])ccc5F)c5ccc2[nH]5)C=C4)C=C3)cc1
REMARK SMILES IDX 12 1 11 2 9 3 10 4 7 5 8 6 5 7 4 8 3 9 2 10 1 11 6 12 13 14
REMARK SMILES IDX 14 15 15 16 16 17 17 18 18 19 79 20 19 21 78 22 20 23 21 24
REMARK SMILES IDX 22 25 72 26 23 27 77 28 71 29 73 30 24 31 76 32 70 33 69 34
REMARK SMILES IDX 25 36 57 37 37 38 56 39 38 40 41 41 55 42 74 43 39 44 40 45
REMARK SMILES IDX 54 47 75 48 42 49 26 50 27 51 35 52 28 53 34 54 36 55 33 56
REMARK SMILES IDX 29 57 30 58 31 59 32 60 58 61 59 62 67 63 60 64 66 65 68 66
REMARK SMILES IDX 65 67 61 68 62 69 63 70 64 71 43 72 44 73 52 74 45 75 51 76
REMARK SMILES IDX 53 77 50 78 46 79 47 80 48 81 49 82
REMARK H PARENT 6 13 73 35 41 46
REMARK Flexibility Score: inf
ROOT
ATOM      1  C   UNL A   1      42.848  18.974  26.061  1.00  0.00     0.274 C 
ENDROOT
BRANCH   1   2
ATOM      2  O   UNL A   1      43.067  19.121  24.646  1.00  0.00    -0.460 OA
BRANCH   2   3
ATOM      3  C   UNL A   1      44.341  18.914  24.207  1.00  0.00     0.343 C 
ATOM      4  O   UNL A   1      44.626  18.666  23.042  1.00  0.00    -0.249 OA
BRANCH   3   5
ATOM      5  C   UNL A   1      45.353  19.175  25.314  1.00  0.00     0.304 C 
ATOM      6  F   UNL A   1      46.049  18.036  25.661  1.00  0.00    -0.232 F 
BRANCH   5   7
ATOM      7  C   UNL A   1      46.416  20.235  25.010  1.00  0.00     0.160 C 
BRANCH   7   8
ATOM      8  C   UNL A   1      46.001  21.710  24.941  1.00  0.00     0.035 C 
BRANCH   8   9
ATOM      9  C   UNL A   1      44.910  22.108  23.944  1.00  0.00     0.002 C 
BRANCH   9  10
ATOM     10  C   UNL A   1      43.882  23.133  24.418  1.00  0.00    -0.003 C 
ATOM     11  C   UNL A   1      44.141  23.666  25.814  1.00  0.00     0.004 C 
ENDBRANCH   9  10
ENDBRANCH   8   9
ENDBRANCH   7   8
BRANCH   7  12
ATOM     12  O   UNL A   1      47.074  19.907  23.771  1.00  0.00    -0.389 OA
ATOM     13  H   UNL A   1      48.000  20.189  23.811  1.00  0.00     0.211 HD
ENDBRANCH   7  12
ENDBRANCH   5   7
ENDBRANCH   3   5
ENDBRANCH   2   3
ENDBRANCH   1   2
BRANCH   1  14
ATOM     14  C   UNL A   1      41.588  19.726  26.510  1.00  0.00     0.275 C 
BRANCH  14  15
ATOM     15  O   UNL A   1      41.549  21.086  26.029  1.00  0.00    -0.458 OA
BRANCH  15  16
ATOM     16  C   UNL A   1      40.420  21.771  26.335  1.00  0.00     0.338 C 
ATOM     17  O   UNL A   1      39.276  21.358  26.233  1.00  0.00    -0.246 OA
BRANCH  16  18
ATOM     18  C   UNL A   1      40.736  23.071  26.964  1.00  0.00     0.060 A 
ATOM     19  C   UNL A   1      40.434  24.221  26.231  1.00  0.00     0.016 A 
ATOM     20  C   UNL A   1      41.367  23.182  28.207  1.00  0.00     0.016 A 
ATOM     21  C   UNL A   1      40.738  25.480  26.735  1.00  0.00     0.010 A 
ATOM     22  C   UNL A   1      41.686  24.453  28.711  1.00  0.00     0.010 A 
ATOM     23  C   UNL A   1      41.370  25.609  27.977  1.00  0.00    -0.014 A 
BRANCH  23  24
ATOM     24  C   UNL A   1      41.715  26.971  28.452  1.00  0.00     0.031 A 
ATOM     25  C   UNL A   1      43.144  27.429  28.449  1.00  0.00     0.074 A 
ATOM     26  C   UNL A   1      40.729  27.827  28.783  1.00  0.00     0.049 A 
ATOM     27  N   UNL A   1      43.642  28.591  28.789  1.00  0.00    -0.248 NA
ATOM     28  C   UNL A   1      44.144  26.454  27.988  1.00  0.00     0.031 C 
ATOM     29  C   UNL A   1      39.299  27.514  28.756  1.00  0.00     0.029 A 
ATOM     30  N   UNL A   1      40.776  29.136  29.190  1.00  0.00    -0.354 N 
ATOM     31  C   UNL A   1      45.012  28.495  28.572  1.00  0.00     0.074 A 
ATOM     32  C   UNL A   1      45.268  27.148  28.103  1.00  0.00     0.031 C 
ATOM     33  C   UNL A   1      38.606  28.602  29.128  1.00  0.00     0.029 A 
ATOM     34  C   UNL A   1      39.539  29.676  29.459  1.00  0.00     0.049 A 
ATOM     35  H   UNL A   1      41.615  29.642  29.282  1.00  0.00     0.167 HD
ATOM     36  C   UNL A   1      45.965  29.445  28.744  1.00  0.00     0.034 A 
ATOM     37  C   UNL A   1      39.201  30.890  29.939  1.00  0.00     0.034 A 
ATOM     38  C   UNL A   1      45.700  30.776  29.237  1.00  0.00     0.049 A 
ATOM     39  C   UNL A   1      40.292  31.894  30.217  1.00  0.00     0.074 A 
ATOM     40  C   UNL A   1      46.599  31.801  29.482  1.00  0.00     0.029 A 
ATOM     41  N   UNL A   1      44.443  31.267  29.568  1.00  0.00    -0.354 N 
ATOM     42  N   UNL A   1      41.588  31.780  30.033  1.00  0.00    -0.248 NA
ATOM     43  C   UNL A   1      39.874  33.193  30.759  1.00  0.00     0.031 C 
ATOM     44  C   UNL A   1      45.895  32.887  30.015  1.00  0.00     0.029 A 
ATOM     45  C   UNL A   1      44.547  32.568  30.039  1.00  0.00     0.049 A 
ATOM     46  H   UNL A   1      43.602  30.765  29.481  1.00  0.00     0.167 HD
ATOM     47  C   UNL A   1      42.135  32.999  30.423  1.00  0.00     0.074 A 
ATOM     48  C   UNL A   1      41.026  33.843  30.820  1.00  0.00     0.031 C 
ATOM     49  C   UNL A   1      43.435  33.389  30.453  1.00  0.00     0.034 A 
BRANCH  36  50
ATOM     50  C   UNL A   1      47.390  29.053  28.446  1.00  0.00     0.023 A 
ATOM     51  C   UNL A   1      47.835  28.829  27.131  1.00  0.00     0.031 A 
ATOM     52  C   UNL A   1      48.311  28.881  29.494  1.00  0.00     0.131 A 
ATOM     53  C   UNL A   1      49.150  28.397  26.903  1.00  0.00     0.055 A 
ATOM     54  C   UNL A   1      49.636  28.514  29.255  1.00  0.00     0.041 A 
ATOM     55  F   UNL A   1      47.933  29.059  30.770  1.00  0.00    -0.206 F 
ATOM     56  C   UNL A   1      50.061  28.259  27.955  1.00  0.00     0.022 A 
BRANCH  53  57
ATOM     57  S   UNL A   1      49.628  27.906  25.223  1.00  0.00     0.124 S 
ATOM     58  O   UNL A   1      48.398  28.167  24.478  1.00  0.00    -0.237 OA
ATOM     59  O   UNL A   1      50.747  28.796  24.941  1.00  0.00    -0.237 OA
ATOM     60  O   UNL A   1      49.975  26.494  25.364  1.00  0.00    -0.744 OA
ENDBRANCH  53  57
ENDBRANCH  36  50
BRANCH  37  61
ATOM     61  C   UNL A   1      37.778  31.213  30.254  1.00  0.00     0.023 A 
ATOM     62  C   UNL A   1      36.899  31.688  29.267  1.00  0.00     0.031 A 
ATOM     63  C   UNL A   1      37.302  31.129  31.575  1.00  0.00     0.131 A 
ATOM     64  C   UNL A   1      35.611  32.114  29.628  1.00  0.00     0.055 A 
ATOM     65  C   UNL A   1      36.002  31.499  31.918  1.00  0.00     0.041 A 
ATOM     66  F   UNL A   1      38.103  30.687  32.559  1.00  0.00    -0.206 F 
ATOM     67  C   UNL A   1      35.152  32.011  30.943  1.00  0.00     0.022 A 
BRANCH  64  68
ATOM     68  S   UNL A   1      34.577  32.912  28.368  1.00  0.00     0.124 S 
ATOM     69  O   UNL A   1      35.578  33.555  27.523  1.00  0.00    -0.237 OA
ATOM     70  O   UNL A   1      33.880  31.772  27.782  1.00  0.00    -0.237 OA
ATOM     71  O   UNL A   1      33.737  33.822  29.144  1.00  0.00    -0.744 OA
ENDBRANCH  64  68
ENDBRANCH  37  61
BRANCH  49  72
ATOM     72  C   UNL A   1      43.708  34.802  30.910  1.00  0.00     0.023 A 
ATOM     73  C   UNL A   1      43.702  35.881  30.009  1.00  0.00     0.031 A 
ATOM     74  C   UNL A   1      44.021  35.066  32.255  1.00  0.00     0.131 A 
ATOM     75  C   UNL A   1      44.066  37.163  30.448  1.00  0.00     0.055 A 
ATOM     76  C   UNL A   1      44.324  36.354  32.700  1.00  0.00     0.041 A 
ATOM     77  F   UNL A   1      44.042  34.074  33.159  1.00  0.00    -0.206 F 
ATOM     78  C   UNL A   1      44.364  37.408  31.791  1.00  0.00     0.022 A 
BRANCH  75  79
ATOM     79  S   UNL A   1      44.251  38.486  29.221  1.00  0.00     0.124 S 
ATOM     80  O   UNL A   1      43.821  37.825  27.993  1.00  0.00    -0.237 OA
ATOM     81  O   UNL A   1      43.354  39.516  29.737  1.00  0.00    -0.237 OA
ATOM     82  O   UNL A   1      45.673  38.817  29.282  1.00  0.00    -0.744 OA
ENDBRANCH  75  79
ENDBRANCH  49  72
ENDBRANCH  23  24
ENDBRANCH  16  18
ENDBRANCH  15  16
ENDBRANCH  14  15
ENDBRANCH   1  14
TORSDOF 19
ENDMDL
