MODEL 1
REMARK VINA RESULT:      -8.7      0.000      0.000
REMARK SMILES CCCCCCNC(=O)Oc1cccc(-c2ccc([C@@H](C)C(=O)OCCOC(=O)c3ccc(-c4c5nc(c(-c6cc(S(=O)(=O)[O-])ccc6F)c6ccc([nH]6)c(-c6cc(S(=O)(=O)[O-])ccc6F)c6nc(c(-c7cc(S(=O)(=O)[O-])ccc7F)c7ccc4[nH]7)C=C6)C=C5)cc3)cc2O)c1
REMARK SMILES IDX 20 1 21 2 19 3 16 4 17 5 94 6 18 7 93 8 15 9 11 10 12 11
REMARK SMILES IDX 96 12 13 13 14 14 10 15 8 16 7 17 9 19 6 20 5 21 4 22 3 23
REMARK SMILES IDX 2 24 1 25 95 26 22 28 23 29 24 30 25 31 26 32 27 33 28 34
REMARK SMILES IDX 29 35 30 36 31 37 92 38 32 39 91 40 33 41 34 42 35 43 85 44
REMARK SMILES IDX 36 45 90 46 84 47 86 48 37 49 89 50 83 51 82 52 38 54 70 55
REMARK SMILES IDX 50 56 69 57 51 58 54 59 68 60 87 61 52 62 53 63 67 65 88 66
REMARK SMILES IDX 55 67 39 68 40 69 48 70 41 71 47 72 49 73 46 74 42 75 43 76
REMARK SMILES IDX 44 77 45 78 71 79 72 80 80 81 73 82 79 83 81 84 78 85 74 86
REMARK SMILES IDX 75 87 76 88 77 89 56 90 57 91 65 92 58 93 64 94 66 95 63 96
REMARK SMILES IDX 59 97 60 98 61 99 62 100
REMARK H PARENT 7 18 95 27 86 53 54 64
REMARK Flexibility Score: inf
ROOT
ATOM      1  C   UNL A   1      41.496  26.928  28.697  1.00  0.00     0.126 C 
ATOM      2  C   UNL A   1      42.157  27.078  30.065  1.00  0.00     0.025 C 
ENDROOT
BRANCH   1   3
ATOM      3  C   UNL A   1      40.235  27.770  28.572  1.00  0.00    -0.030 A 
ATOM      4  C   UNL A   1      37.862  29.342  28.406  1.00  0.00     0.024 A 
ATOM      5  C   UNL A   1      38.741  29.222  27.316  1.00  0.00     0.013 A 
ATOM      6  C   UNL A   1      38.194  28.647  29.577  1.00  0.00     0.123 A 
ATOM      7  C   UNL A   1      39.900  28.442  27.391  1.00  0.00     0.005 A 
ATOM      8  C   UNL A   1      39.360  27.881  29.663  1.00  0.00     0.051 A 
BRANCH   4   9
ATOM      9  C   UNL A   1      36.643  30.158  28.261  1.00  0.00    -0.011 A 
ATOM     10  C   UNL A   1      34.391  30.495  27.429  1.00  0.00     0.133 A 
ATOM     11  C   UNL A   1      34.341  31.766  27.999  1.00  0.00     0.047 A 
ATOM     12  C   UNL A   1      35.527  29.692  27.547  1.00  0.00     0.056 A 
ATOM     13  C   UNL A   1      35.435  32.234  28.719  1.00  0.00     0.004 A 
ATOM     14  C   UNL A   1      36.576  31.438  28.845  1.00  0.00     0.009 A 
BRANCH  10  15
ATOM     15  O   UNL A   1      33.301  30.124  26.624  1.00  0.00    -0.410 OA
BRANCH  15  16
ATOM     16  C   UNL A   1      32.717  28.884  26.836  1.00  0.00     0.412 C 
ATOM     17  N   UNL A   1      32.891  28.024  25.785  1.00  0.00    -0.321 N 
ATOM     18  H   UNL A   1      32.523  27.117  25.894  1.00  0.00     0.167 HD
ATOM     19  O   UNL A   1      32.074  28.549  27.824  1.00  0.00    -0.224 OA
BRANCH  17  20
ATOM     20  C   UNL A   1      33.558  28.307  24.529  1.00  0.00     0.119 C 
BRANCH  20  21
ATOM     21  C   UNL A   1      32.628  28.952  23.503  1.00  0.00     0.021 C 
BRANCH  21  22
ATOM     22  C   UNL A   1      31.540  28.029  22.941  1.00  0.00     0.002 C 
BRANCH  22  23
ATOM     23  C   UNL A   1      30.123  28.266  23.475  1.00  0.00    -0.000 C 
BRANCH  23  24
ATOM     24  C   UNL A   1      29.196  29.070  22.559  1.00  0.00    -0.003 C 
ATOM     25  C   UNL A   1      28.793  30.417  23.140  1.00  0.00     0.004 C 
ENDBRANCH  23  24
ENDBRANCH  22  23
ENDBRANCH  21  22
ENDBRANCH  20  21
ENDBRANCH  17  20
ENDBRANCH  15  16
ENDBRANCH  10  15
ENDBRANCH   4   9
BRANCH   6  26
ATOM     26  O   UNL A   1      37.405  28.632  30.696  1.00  0.00    -0.507 OA
ATOM     27  H   UNL A   1      36.908  27.866  30.908  1.00  0.00     0.293 HD
ENDBRANCH   6  26
ENDBRANCH   1   3
BRANCH   1  28
ATOM     28  C   UNL A   1      41.355  25.449  28.351  1.00  0.00     0.313 C 
ATOM     29  O   UNL A   1      40.267  24.882  28.339  1.00  0.00    -0.252 OA
BRANCH  28  30
ATOM     30  O   UNL A   1      42.526  24.852  28.005  1.00  0.00    -0.462 OA
BRANCH  30  31
ATOM     31  C   UNL A   1      42.460  23.812  27.012  1.00  0.00     0.274 C 
BRANCH  31  32
ATOM     32  C   UNL A   1      42.780  24.357  25.620  1.00  0.00     0.275 C 
BRANCH  32  33
ATOM     33  O   UNL A   1      42.810  25.795  25.623  1.00  0.00    -0.458 OA
BRANCH  33  34
ATOM     34  C   UNL A   1      44.043  26.343  25.496  1.00  0.00     0.338 C 
ATOM     35  O   UNL A   1      44.988  25.895  24.875  1.00  0.00    -0.246 OA
BRANCH  34  36
ATOM     36  C   UNL A   1      44.054  27.658  26.152  1.00  0.00     0.060 A 
ATOM     37  C   UNL A   1      44.990  27.888  27.161  1.00  0.00     0.016 A 
ATOM     38  C   UNL A   1      43.105  28.629  25.827  1.00  0.00     0.016 A 
ATOM     39  C   UNL A   1      44.981  29.091  27.862  1.00  0.00     0.010 A 
ATOM     40  C   UNL A   1      43.103  29.841  26.524  1.00  0.00     0.010 A 
ATOM     41  C   UNL A   1      44.033  30.075  27.553  1.00  0.00    -0.014 A 
BRANCH  41  42
ATOM     42  C   UNL A   1      43.989  31.330  28.343  1.00  0.00     0.031 A 
ATOM     43  C   UNL A   1      44.954  32.438  28.035  1.00  0.00     0.074 A 
ATOM     44  C   UNL A   1      43.075  31.474  29.321  1.00  0.00     0.049 A 
ATOM     45  N   UNL A   1      45.142  33.573  28.659  1.00  0.00    -0.248 NA
ATOM     46  C   UNL A   1      45.829  32.237  26.871  1.00  0.00     0.031 C 
ATOM     47  C   UNL A   1      42.058  30.483  29.676  1.00  0.00     0.029 A 
ATOM     48  N   UNL A   1      42.856  32.506  30.198  1.00  0.00    -0.354 N 
ATOM     49  C   UNL A   1      46.168  34.216  27.975  1.00  0.00     0.074 A 
ATOM     50  C   UNL A   1      46.579  33.329  26.905  1.00  0.00     0.031 C 
ATOM     51  C   UNL A   1      41.323  30.956  30.695  1.00  0.00     0.029 A 
ATOM     52  C   UNL A   1      41.850  32.256  31.101  1.00  0.00     0.049 A 
ATOM     53  H   UNL A   1      43.371  33.345  30.182  1.00  0.00     0.167 HD
ATOM     54  C   UNL A   1      46.712  35.435  28.219  1.00  0.00     0.034 A 
ATOM     55  C   UNL A   1      41.423  32.978  32.158  1.00  0.00     0.034 A 
ATOM     56  C   UNL A   1      46.286  36.303  29.292  1.00  0.00     0.049 A 
ATOM     57  C   UNL A   1      42.094  34.294  32.456  1.00  0.00     0.074 A 
ATOM     58  C   UNL A   1      46.758  37.561  29.624  1.00  0.00     0.029 A 
ATOM     59  N   UNL A   1      45.294  35.997  30.216  1.00  0.00    -0.354 N 
ATOM     60  N   UNL A   1      43.076  34.885  31.813  1.00  0.00    -0.248 NA
ATOM     61  C   UNL A   1      41.601  35.040  33.620  1.00  0.00     0.031 C 
ATOM     62  C   UNL A   1      46.096  37.988  30.782  1.00  0.00     0.029 A 
ATOM     63  C   UNL A   1      45.161  37.028  31.134  1.00  0.00     0.049 A 
ATOM     64  H   UNL A   1      44.762  35.169  30.217  1.00  0.00     0.167 HD
ATOM     65  C   UNL A   1      43.302  36.083  32.485  1.00  0.00     0.074 A 
ATOM     66  C   UNL A   1      42.345  36.136  33.573  1.00  0.00     0.031 C 
ATOM     67  C   UNL A   1      44.213  37.055  32.224  1.00  0.00     0.034 A 
BRANCH  54  68
ATOM     68  C   UNL A   1      47.867  35.864  27.345  1.00  0.00     0.023 A 
ATOM     69  C   UNL A   1      49.201  35.552  27.663  1.00  0.00     0.031 A 
ATOM     70  C   UNL A   1      47.628  36.630  26.190  1.00  0.00     0.131 A 
ATOM     71  C   UNL A   1      50.246  36.062  26.877  1.00  0.00     0.055 A 
ATOM     72  C   UNL A   1      48.668  37.072  25.369  1.00  0.00     0.041 A 
ATOM     73  F   UNL A   1      46.377  36.979  25.847  1.00  0.00    -0.206 F 
ATOM     74  C   UNL A   1      49.987  36.801  25.719  1.00  0.00     0.022 A 
BRANCH  71  75
ATOM     75  S   UNL A   1      51.953  35.867  27.460  1.00  0.00     0.124 S 
ATOM     76  O   UNL A   1      51.753  35.607  28.884  1.00  0.00    -0.237 OA
ATOM     77  O   UNL A   1      52.432  34.742  26.665  1.00  0.00    -0.237 OA
ATOM     78  O   UNL A   1      52.572  37.155  27.153  1.00  0.00    -0.744 OA
ENDBRANCH  71  75
ENDBRANCH  54  68
BRANCH  55  79
ATOM     79  C   UNL A   1      40.347  32.451  33.043  1.00  0.00     0.023 A 
ATOM     80  C   UNL A   1      39.009  32.839  32.873  1.00  0.00     0.031 A 
ATOM     81  C   UNL A   1      40.651  31.573  34.101  1.00  0.00     0.131 A 
ATOM     82  C   UNL A   1      38.030  32.379  33.768  1.00  0.00     0.055 A 
ATOM     83  C   UNL A   1      39.666  31.081  34.957  1.00  0.00     0.041 A 
ATOM     84  F   UNL A   1      41.916  31.173  34.308  1.00  0.00    -0.206 F 
ATOM     85  C   UNL A   1      38.347  31.493  34.800  1.00  0.00     0.022 A 
BRANCH  82  86
ATOM     86  S   UNL A   1      36.339  33.017  33.610  1.00  0.00     0.124 S 
ATOM     87  O   UNL A   1      35.694  31.963  32.834  1.00  0.00    -0.237 OA
ATOM     88  O   UNL A   1      35.927  33.131  35.005  1.00  0.00    -0.237 OA
ATOM     89  O   UNL A   1      36.518  34.287  32.910  1.00  0.00    -0.744 OA
ENDBRANCH  82  86
ENDBRANCH  55  79
BRANCH  67  90
ATOM     90  C   UNL A   1      44.182  38.272  33.114  1.00  0.00     0.023 A 
ATOM     91  C   UNL A   1      43.408  39.402  32.797  1.00  0.00     0.031 A 
ATOM     92  C   UNL A   1      44.952  38.304  34.290  1.00  0.00     0.131 A 
ATOM     93  C   UNL A   1      43.456  40.535  33.621  1.00  0.00     0.055 A 
ATOM     94  C   UNL A   1      44.956  39.415  35.135  1.00  0.00     0.041 A 
ATOM     95  F   UNL A   1      45.711  37.254  34.639  1.00  0.00    -0.206 F 
ATOM     96  C   UNL A   1      44.214  40.543  34.797  1.00  0.00     0.022 A 
BRANCH  93  97
ATOM     97  S   UNL A   1      42.574  42.033  33.102  1.00  0.00     0.124 S 
ATOM     98  O   UNL A   1      41.711  41.525  32.042  1.00  0.00    -0.237 OA
ATOM     99  O   UNL A   1      41.903  42.443  34.331  1.00  0.00    -0.237 OA
ATOM    100  O   UNL A   1      43.644  42.925  32.656  1.00  0.00    -0.744 OA
ENDBRANCH  93  97
ENDBRANCH  67  90
ENDBRANCH  41  42
ENDBRANCH  34  36
ENDBRANCH  33  34
ENDBRANCH  32  33
ENDBRANCH  31  32
ENDBRANCH  30  31
ENDBRANCH  28  30
ENDBRANCH   1  28
TORSDOF 24
ENDMDL
MODEL 2
REMARK VINA RESULT:      -8.6      4.922     11.856
REMARK SMILES CCCCCCNC(=O)Oc1cccc(-c2ccc([C@@H](C)C(=O)OCCOC(=O)c3ccc(-c4c5nc(c(-c6cc(S(=O)(=O)[O-])ccc6F)c6ccc([nH]6)c(-c6cc(S(=O)(=O)[O-])ccc6F)c6nc(c(-c7cc(S(=O)(=O)[O-])ccc7F)c7ccc4[nH]7)C=C6)C=C5)cc3)cc2O)c1
REMARK SMILES IDX 20 1 21 2 19 3 16 4 17 5 94 6 18 7 93 8 15 9 11 10 12 11
REMARK SMILES IDX 96 12 13 13 14 14 10 15 8 16 7 17 9 19 6 20 5 21 4 22 3 23
REMARK SMILES IDX 2 24 1 25 95 26 22 28 23 29 24 30 25 31 26 32 27 33 28 34
REMARK SMILES IDX 29 35 30 36 31 37 92 38 32 39 91 40 33 41 34 42 35 43 85 44
REMARK SMILES IDX 36 45 90 46 84 47 86 48 37 49 89 50 83 51 82 52 38 54 70 55
REMARK SMILES IDX 50 56 69 57 51 58 54 59 68 60 87 61 52 62 53 63 67 65 88 66
REMARK SMILES IDX 55 67 39 68 40 69 48 70 41 71 47 72 49 73 46 74 42 75 43 76
REMARK SMILES IDX 44 77 45 78 71 79 72 80 80 81 73 82 79 83 81 84 78 85 74 86
REMARK SMILES IDX 75 87 76 88 77 89 56 90 57 91 65 92 58 93 64 94 66 95 63 96
REMARK SMILES IDX 59 97 60 98 61 99 62 100
REMARK H PARENT 7 18 95 27 86 53 54 64
REMARK Flexibility Score: inf
ROOT
ATOM      1  C   UNL A   1      35.233  34.642  33.161  1.00  0.00     0.126 C 
ATOM      2  C   UNL A   1      34.669  36.050  32.986  1.00  0.00     0.025 C 
ENDROOT
BRANCH   1   3
ATOM      3  C   UNL A   1      36.747  34.607  33.017  1.00  0.00    -0.030 A 
ATOM      4  C   UNL A   1      39.579  34.557  32.680  1.00  0.00     0.024 A 
ATOM      5  C   UNL A   1      38.991  34.551  33.957  1.00  0.00     0.013 A 
ATOM      6  C   UNL A   1      38.714  34.576  31.577  1.00  0.00     0.123 A 
ATOM      7  C   UNL A   1      37.602  34.564  34.125  1.00  0.00     0.005 A 
ATOM      8  C   UNL A   1      37.326  34.608  31.739  1.00  0.00     0.051 A 
BRANCH   4   9
ATOM      9  C   UNL A   1      41.048  34.517  32.564  1.00  0.00    -0.011 A 
ATOM     10  C   UNL A   1      43.087  33.610  31.617  1.00  0.00     0.133 A 
ATOM     11  C   UNL A   1      43.862  34.470  32.392  1.00  0.00     0.047 A 
ATOM     12  C   UNL A   1      41.692  33.620  31.697  1.00  0.00     0.056 A 
ATOM     13  C   UNL A   1      43.235  35.371  33.246  1.00  0.00     0.004 A 
ATOM     14  C   UNL A   1      41.841  35.391  33.332  1.00  0.00     0.009 A 
BRANCH  10  15
ATOM     15  O   UNL A   1      43.779  32.652  30.858  1.00  0.00    -0.410 OA
BRANCH  15  16
ATOM     16  C   UNL A   1      43.045  31.680  30.195  1.00  0.00     0.412 C 
ATOM     17  N   UNL A   1      43.628  30.442  30.243  1.00  0.00    -0.321 N 
ATOM     18  H   UNL A   1      43.134  29.707  29.814  1.00  0.00     0.167 HD
ATOM     19  O   UNL A   1      41.998  31.859  29.584  1.00  0.00    -0.224 OA
BRANCH  17  20
ATOM     20  C   UNL A   1      44.896  30.100  30.858  1.00  0.00     0.119 C 
BRANCH  20  21
ATOM     21  C   UNL A   1      45.957  29.703  29.833  1.00  0.00     0.021 C 
BRANCH  21  22
ATOM     22  C   UNL A   1      45.664  28.413  29.059  1.00  0.00     0.002 C 
BRANCH  22  23
ATOM     23  C   UNL A   1      45.725  28.521  27.532  1.00  0.00    -0.000 C 
BRANCH  23  24
ATOM     24  C   UNL A   1      46.309  27.307  26.804  1.00  0.00    -0.003 C 
ATOM     25  C   UNL A   1      47.286  26.509  27.653  1.00  0.00     0.004 C 
ENDBRANCH  23  24
ENDBRANCH  22  23
ENDBRANCH  21  22
ENDBRANCH  20  21
ENDBRANCH  17  20
ENDBRANCH  15  16
ENDBRANCH  10  15
ENDBRANCH   4   9
BRANCH   6  26
ATOM     26  O   UNL A   1      39.147  34.532  30.278  1.00  0.00    -0.507 OA
ATOM     27  H   UNL A   1      40.065  34.485  30.092  1.00  0.00     0.293 HD
ENDBRANCH   6  26
ENDBRANCH   1   3
BRANCH   1  28
ATOM     28  C   UNL A   1      34.453  33.660  32.292  1.00  0.00     0.313 C 
ATOM     29  O   UNL A   1      34.027  32.596  32.729  1.00  0.00    -0.252 OA
BRANCH  28  30
ATOM     30  O   UNL A   1      34.230  34.104  31.027  1.00  0.00    -0.462 OA
BRANCH  30  31
ATOM     31  C   UNL A   1      34.316  33.131  29.969  1.00  0.00     0.274 C 
BRANCH  31  32
ATOM     32  C   UNL A   1      34.191  33.794  28.598  1.00  0.00     0.275 C 
BRANCH  32  33
ATOM     33  O   UNL A   1      34.921  33.060  27.600  1.00  0.00    -0.458 OA
BRANCH  33  34
ATOM     34  C   UNL A   1      34.737  31.718  27.627  1.00  0.00     0.338 C 
ATOM     35  O   UNL A   1      33.840  31.086  27.101  1.00  0.00    -0.246 OA
BRANCH  34  36
ATOM     36  C   UNL A   1      35.871  31.092  28.320  1.00  0.00     0.060 A 
ATOM     37  C   UNL A   1      37.135  31.666  28.177  1.00  0.00     0.016 A 
ATOM     38  C   UNL A   1      35.705  29.911  29.045  1.00  0.00     0.016 A 
ATOM     39  C   UNL A   1      38.249  31.059  28.751  1.00  0.00     0.010 A 
ATOM     40  C   UNL A   1      36.822  29.306  29.630  1.00  0.00     0.010 A 
ATOM     41  C   UNL A   1      38.102  29.870  29.478  1.00  0.00    -0.014 A 
BRANCH  41  42
ATOM     42  C   UNL A   1      39.298  29.195  30.036  1.00  0.00     0.031 A 
ATOM     43  C   UNL A   1      39.921  29.709  31.302  1.00  0.00     0.074 A 
ATOM     44  C   UNL A   1      39.811  28.117  29.414  1.00  0.00     0.049 A 
ATOM     45  N   UNL A   1      41.015  29.322  31.906  1.00  0.00    -0.248 NA
ATOM     46  C   UNL A   1      39.218  30.811  31.974  1.00  0.00     0.031 C 
ATOM     47  C   UNL A   1      39.261  27.502  28.204  1.00  0.00     0.029 A 
ATOM     48  N   UNL A   1      40.910  27.350  29.707  1.00  0.00    -0.354 N 
ATOM     49  C   UNL A   1      41.144  30.143  33.020  1.00  0.00     0.074 A 
ATOM     50  C   UNL A   1      40.028  31.067  32.991  1.00  0.00     0.031 C 
ATOM     51  C   UNL A   1      40.025  26.452  27.860  1.00  0.00     0.029 A 
ATOM     52  C   UNL A   1      41.146  26.353  28.790  1.00  0.00     0.049 A 
ATOM     53  H   UNL A   1      41.475  27.500  30.499  1.00  0.00     0.167 HD
ATOM     54  C   UNL A   1      42.104  30.123  33.979  1.00  0.00     0.034 A 
ATOM     55  C   UNL A   1      42.169  25.480  28.691  1.00  0.00     0.034 A 
ATOM     56  C   UNL A   1      43.209  29.192  33.988  1.00  0.00     0.049 A 
ATOM     57  C   UNL A   1      43.266  25.527  29.724  1.00  0.00     0.074 A 
ATOM     58  C   UNL A   1      44.231  29.074  34.914  1.00  0.00     0.029 A 
ATOM     59  N   UNL A   1      43.441  28.224  33.017  1.00  0.00    -0.354 N 
ATOM     60  N   UNL A   1      43.387  26.320  30.765  1.00  0.00    -0.248 NA
ATOM     61  C   UNL A   1      44.363  24.563  29.570  1.00  0.00     0.031 C 
ATOM     62  C   UNL A   1      45.113  28.079  34.471  1.00  0.00     0.029 A 
ATOM     63  C   UNL A   1      44.605  27.528  33.306  1.00  0.00     0.049 A 
ATOM     64  H   UNL A   1      42.862  28.058  32.239  1.00  0.00     0.167 HD
ATOM     65  C   UNL A   1      44.563  25.934  31.401  1.00  0.00     0.074 A 
ATOM     66  C   UNL A   1      45.106  24.830  30.634  1.00  0.00     0.031 C 
ATOM     67  C   UNL A   1      45.141  26.441  32.519  1.00  0.00     0.034 A 
BRANCH  54  68
ATOM     68  C   UNL A   1      42.029  31.180  35.056  1.00  0.00     0.023 A 
ATOM     69  C   UNL A   1      40.931  31.281  35.928  1.00  0.00     0.031 A 
ATOM     70  C   UNL A   1      43.062  32.126  35.186  1.00  0.00     0.131 A 
ATOM     71  C   UNL A   1      40.858  32.344  36.842  1.00  0.00     0.055 A 
ATOM     72  C   UNL A   1      43.019  33.137  36.149  1.00  0.00     0.041 A 
ATOM     73  F   UNL A   1      44.126  32.095  34.367  1.00  0.00    -0.206 F 
ATOM     74  C   UNL A   1      41.906  33.259  36.974  1.00  0.00     0.022 A 
BRANCH  71  75
ATOM     75  S   UNL A   1      39.316  32.599  37.763  1.00  0.00     0.124 S 
ATOM     76  O   UNL A   1      38.459  31.555  37.205  1.00  0.00    -0.237 OA
ATOM     77  O   UNL A   1      39.738  32.408  39.146  1.00  0.00    -0.237 OA
ATOM     78  O   UNL A   1      38.926  33.963  37.413  1.00  0.00    -0.744 OA
ENDBRANCH  71  75
ENDBRANCH  54  68
BRANCH  55  79
ATOM     79  C   UNL A   1      42.238  24.529  27.546  1.00  0.00     0.023 A 
ATOM     80  C   UNL A   1      41.684  23.242  27.635  1.00  0.00     0.031 A 
ATOM     81  C   UNL A   1      42.894  24.885  26.353  1.00  0.00     0.131 A 
ATOM     82  C   UNL A   1      41.828  22.346  26.564  1.00  0.00     0.055 A 
ATOM     83  C   UNL A   1      42.991  24.007  25.274  1.00  0.00     0.041 A 
ATOM     84  F   UNL A   1      43.443  26.103  26.219  1.00  0.00    -0.206 F 
ATOM     85  C   UNL A   1      42.465  22.723  25.380  1.00  0.00     0.022 A 
BRANCH  82  86
ATOM     86  S   UNL A   1      41.232  20.645  26.768  1.00  0.00     0.124 S 
ATOM     87  O   UNL A   1      40.777  20.652  28.154  1.00  0.00    -0.237 OA
ATOM     88  O   UNL A   1      40.189  20.564  25.751  1.00  0.00    -0.237 OA
ATOM     89  O   UNL A   1      42.419  19.834  26.506  1.00  0.00    -0.744 OA
ENDBRANCH  82  86
ENDBRANCH  55  79
BRANCH  67  90
ATOM     90  C   UNL A   1      46.406  25.771  32.995  1.00  0.00     0.023 A 
ATOM     91  C   UNL A   1      47.668  26.127  32.488  1.00  0.00     0.031 A 
ATOM     92  C   UNL A   1      46.343  24.753  33.963  1.00  0.00     0.131 A 
ATOM     93  C   UNL A   1      48.812  25.436  32.915  1.00  0.00     0.055 A 
ATOM     94  C   UNL A   1      47.490  24.105  34.423  1.00  0.00     0.041 A 
ATOM     95  F   UNL A   1      45.163  24.374  34.479  1.00  0.00    -0.206 F 
ATOM     96  C   UNL A   1      48.732  24.438  33.891  1.00  0.00     0.022 A 
BRANCH  93  97
ATOM     97  S   UNL A   1      50.402  25.806  32.124  1.00  0.00     0.124 S 
ATOM     98  O   UNL A   1      50.860  26.961  32.889  1.00  0.00    -0.237 OA
ATOM     99  O   UNL A   1      51.148  24.568  32.328  1.00  0.00    -0.237 OA
ATOM    100  O   UNL A   1      50.039  26.087  30.735  1.00  0.00    -0.744 OA
ENDBRANCH  93  97
ENDBRANCH  67  90
ENDBRANCH  41  42
ENDBRANCH  34  36
ENDBRANCH  33  34
ENDBRANCH  32  33
ENDBRANCH  31  32
ENDBRANCH  30  31
ENDBRANCH  28  30
ENDBRANCH   1  28
TORSDOF 24
ENDMDL
MODEL 3
REMARK VINA RESULT:      -8.5      4.779     10.856
REMARK SMILES CCCCCCNC(=O)Oc1cccc(-c2ccc([C@@H](C)C(=O)OCCOC(=O)c3ccc(-c4c5nc(c(-c6cc(S(=O)(=O)[O-])ccc6F)c6ccc([nH]6)c(-c6cc(S(=O)(=O)[O-])ccc6F)c6nc(c(-c7cc(S(=O)(=O)[O-])ccc7F)c7ccc4[nH]7)C=C6)C=C5)cc3)cc2O)c1
REMARK SMILES IDX 20 1 21 2 19 3 16 4 17 5 94 6 18 7 93 8 15 9 11 10 12 11
REMARK SMILES IDX 96 12 13 13 14 14 10 15 8 16 7 17 9 19 6 20 5 21 4 22 3 23
REMARK SMILES IDX 2 24 1 25 95 26 22 28 23 29 24 30 25 31 26 32 27 33 28 34
REMARK SMILES IDX 29 35 30 36 31 37 92 38 32 39 91 40 33 41 34 42 35 43 85 44
REMARK SMILES IDX 36 45 90 46 84 47 86 48 37 49 89 50 83 51 82 52 38 54 70 55
REMARK SMILES IDX 50 56 69 57 51 58 54 59 68 60 87 61 52 62 53 63 67 65 88 66
REMARK SMILES IDX 55 67 39 68 40 69 48 70 41 71 47 72 49 73 46 74 42 75 43 76
REMARK SMILES IDX 44 77 45 78 71 79 72 80 80 81 73 82 79 83 81 84 78 85 74 86
REMARK SMILES IDX 75 87 76 88 77 89 56 90 57 91 65 92 58 93 64 94 66 95 63 96
REMARK SMILES IDX 59 97 60 98 61 99 62 100
REMARK H PARENT 7 18 95 27 86 53 54 64
REMARK Flexibility Score: inf
ROOT
ATOM      1  C   UNL A   1      33.968  35.211  33.271  1.00  0.00     0.126 C 
ATOM      2  C   UNL A   1      34.733  36.532  33.247  1.00  0.00     0.025 C 
ENDROOT
BRANCH   1   3
ATOM      3  C   UNL A   1      34.898  34.008  33.223  1.00  0.00    -0.030 A 
ATOM      4  C   UNL A   1      36.674  31.777  33.188  1.00  0.00     0.024 A 
ATOM      5  C   UNL A   1      35.505  31.797  32.408  1.00  0.00     0.013 A 
ATOM      6  C   UNL A   1      36.938  32.905  33.976  1.00  0.00     0.123 A 
ATOM      7  C   UNL A   1      34.637  32.895  32.415  1.00  0.00     0.005 A 
ATOM      8  C   UNL A   1      36.065  33.997  34.001  1.00  0.00     0.051 A 
BRANCH   4   9
ATOM      9  C   UNL A   1      37.563  30.603  33.121  1.00  0.00    -0.011 A 
ATOM     10  C   UNL A   1      39.510  29.360  33.857  1.00  0.00     0.133 A 
ATOM     11  C   UNL A   1      39.241  28.344  32.942  1.00  0.00     0.047 A 
ATOM     12  C   UNL A   1      38.690  30.486  33.951  1.00  0.00     0.056 A 
ATOM     13  C   UNL A   1      38.122  28.442  32.123  1.00  0.00     0.004 A 
ATOM     14  C   UNL A   1      37.293  29.563  32.211  1.00  0.00     0.009 A 
BRANCH  10  15
ATOM     15  O   UNL A   1      40.712  29.256  34.576  1.00  0.00    -0.410 OA
BRANCH  15  16
ATOM     16  C   UNL A   1      41.845  28.817  33.907  1.00  0.00     0.412 C 
ATOM     17  N   UNL A   1      42.406  27.705  34.477  1.00  0.00    -0.321 N 
ATOM     18  H   UNL A   1      43.196  27.331  34.025  1.00  0.00     0.167 HD
ATOM     19  O   UNL A   1      42.354  29.347  32.927  1.00  0.00    -0.224 OA
BRANCH  17  20
ATOM     20  C   UNL A   1      41.960  27.021  35.676  1.00  0.00     0.119 C 
BRANCH  20  21
ATOM     21  C   UNL A   1      41.218  25.722  35.368  1.00  0.00     0.021 C 
BRANCH  21  22
ATOM     22  C   UNL A   1      42.057  24.446  35.505  1.00  0.00     0.002 C 
BRANCH  22  23
ATOM     23  C   UNL A   1      43.363  24.416  34.704  1.00  0.00    -0.000 C 
BRANCH  23  24
ATOM     24  C   UNL A   1      43.639  23.120  33.937  1.00  0.00    -0.003 C 
ATOM     25  C   UNL A   1      45.116  22.764  33.866  1.00  0.00     0.004 C 
ENDBRANCH  23  24
ENDBRANCH  22  23
ENDBRANCH  21  22
ENDBRANCH  20  21
ENDBRANCH  17  20
ENDBRANCH  15  16
ENDBRANCH  10  15
ENDBRANCH   4   9
BRANCH   6  26
ATOM     26  O   UNL A   1      38.064  33.043  34.744  1.00  0.00    -0.507 OA
ATOM     27  H   UNL A   1      38.165  33.795  35.295  1.00  0.00     0.293 HD
ENDBRANCH   6  26
ENDBRANCH   1   3
BRANCH   1  28
ATOM     28  C   UNL A   1      32.852  35.241  32.231  1.00  0.00     0.313 C 
ATOM     29  O   UNL A   1      31.683  35.008  32.521  1.00  0.00    -0.252 OA
BRANCH  28  30
ATOM     30  O   UNL A   1      33.269  35.603  30.989  1.00  0.00    -0.462 OA
BRANCH  30  31
ATOM     31  C   UNL A   1      33.250  34.585  29.972  1.00  0.00     0.274 C 
BRANCH  31  32
ATOM     32  C   UNL A   1      33.267  35.202  28.573  1.00  0.00     0.275 C 
BRANCH  32  33
ATOM     33  O   UNL A   1      34.066  34.418  27.671  1.00  0.00    -0.458 OA
BRANCH  33  34
ATOM     34  C   UNL A   1      34.038  33.082  27.894  1.00  0.00     0.338 C 
ATOM     35  O   UNL A   1      33.137  32.309  27.627  1.00  0.00    -0.246 OA
BRANCH  34  36
ATOM     36  C   UNL A   1      35.338  32.657  28.432  1.00  0.00     0.060 A 
ATOM     37  C   UNL A   1      36.390  33.575  28.426  1.00  0.00     0.016 A 
ATOM     38  C   UNL A   1      35.539  31.348  28.869  1.00  0.00     0.016 A 
ATOM     39  C   UNL A   1      37.657  33.187  28.852  1.00  0.00     0.010 A 
ATOM     40  C   UNL A   1      36.810  30.961  29.305  1.00  0.00     0.010 A 
ATOM     41  C   UNL A   1      37.879  31.875  29.289  1.00  0.00    -0.014 A 
BRANCH  41  42
ATOM     42  C   UNL A   1      39.245  31.451  29.684  1.00  0.00     0.031 A 
ATOM     43  C   UNL A   1      40.017  32.264  30.683  1.00  0.00     0.074 A 
ATOM     44  C   UNL A   1      39.778  30.333  29.157  1.00  0.00     0.049 A 
ATOM     45  N   UNL A   1      41.251  32.119  31.095  1.00  0.00    -0.248 NA
ATOM     46  C   UNL A   1      39.305  33.395  31.294  1.00  0.00     0.031 C 
ATOM     47  C   UNL A   1      39.100  29.441  28.214  1.00  0.00     0.029 A 
ATOM     48  N   UNL A   1      41.011  29.758  29.333  1.00  0.00    -0.354 N 
ATOM     49  C   UNL A   1      41.471  33.150  32.001  1.00  0.00     0.074 A 
ATOM     50  C   UNL A   1      40.249  33.927  32.056  1.00  0.00     0.031 C 
ATOM     51  C   UNL A   1      39.927  28.431  27.897  1.00  0.00     0.029 A 
ATOM     52  C   UNL A   1      41.208  28.633  28.568  1.00  0.00     0.049 A 
ATOM     53  H   UNL A   1      41.690  30.118  29.949  1.00  0.00     0.167 HD
ATOM     54  C   UNL A   1      42.590  33.418  32.722  1.00  0.00     0.034 A 
ATOM     55  C   UNL A   1      42.307  27.870  28.400  1.00  0.00     0.034 A 
ATOM     56  C   UNL A   1      43.797  32.628  32.651  1.00  0.00     0.049 A 
ATOM     57  C   UNL A   1      43.563  28.232  29.152  1.00  0.00     0.074 A 
ATOM     58  C   UNL A   1      44.983  32.800  33.343  1.00  0.00     0.029 A 
ATOM     59  N   UNL A   1      43.975  31.520  31.830  1.00  0.00    -0.354 N 
ATOM     60  N   UNL A   1      43.766  29.220  29.994  1.00  0.00    -0.248 NA
ATOM     61  C   UNL A   1      44.736  27.378  28.931  1.00  0.00     0.031 C 
ATOM     62  C   UNL A   1      45.897  31.837  32.895  1.00  0.00     0.029 A 
ATOM     63  C   UNL A   1      45.261  31.019  31.975  1.00  0.00     0.049 A 
ATOM     64  H   UNL A   1      43.289  31.146  31.232  1.00  0.00     0.167 HD
ATOM     65  C   UNL A   1      45.085  29.091  30.419  1.00  0.00     0.074 A 
ATOM     66  C   UNL A   1      45.624  27.923  29.751  1.00  0.00     0.031 C 
ATOM     67  C   UNL A   1      45.787  29.863  31.287  1.00  0.00     0.034 A 
BRANCH  54  68
ATOM     68  C   UNL A   1      42.571  34.649  33.596  1.00  0.00     0.023 A 
ATOM     69  C   UNL A   1      41.916  34.673  34.840  1.00  0.00     0.031 A 
ATOM     70  C   UNL A   1      43.192  35.832  33.157  1.00  0.00     0.131 A 
ATOM     71  C   UNL A   1      41.836  35.870  35.567  1.00  0.00     0.055 A 
ATOM     72  C   UNL A   1      43.174  37.002  33.921  1.00  0.00     0.041 A 
ATOM     73  F   UNL A   1      43.814  35.879  31.968  1.00  0.00    -0.206 F 
ATOM     74  C   UNL A   1      42.481  37.029  35.127  1.00  0.00     0.022 A 
BRANCH  71  75
ATOM     75  S   UNL A   1      40.765  35.935  37.030  1.00  0.00     0.124 S 
ATOM     76  O   UNL A   1      41.499  36.854  37.897  1.00  0.00    -0.237 OA
ATOM     77  O   UNL A   1      39.510  36.437  36.481  1.00  0.00    -0.237 OA
ATOM     78  O   UNL A   1      40.731  34.549  37.495  1.00  0.00    -0.744 OA
ENDBRANCH  71  75
ENDBRANCH  54  68
BRANCH  55  79
ATOM     79  C   UNL A   1      42.292  26.728  27.444  1.00  0.00     0.023 A 
ATOM     80  C   UNL A   1      41.898  25.443  27.851  1.00  0.00     0.031 A 
ATOM     81  C   UNL A   1      42.707  26.900  26.110  1.00  0.00     0.131 A 
ATOM     82  C   UNL A   1      41.961  24.374  26.944  1.00  0.00     0.055 A 
ATOM     83  C   UNL A   1      42.721  25.843  25.200  1.00  0.00     0.041 A 
ATOM     84  F   UNL A   1      43.096  28.108  25.672  1.00  0.00    -0.206 F 
ATOM     85  C   UNL A   1      42.358  24.567  25.618  1.00  0.00     0.022 A 
BRANCH  82  86
ATOM     86  S   UNL A   1      41.588  22.703  27.542  1.00  0.00     0.124 S 
ATOM     87  O   UNL A   1      42.321  22.666  28.803  1.00  0.00    -0.237 OA
ATOM     88  O   UNL A   1      40.133  22.735  27.645  1.00  0.00    -0.237 OA
ATOM     89  O   UNL A   1      42.116  21.838  26.488  1.00  0.00    -0.744 OA
ENDBRANCH  82  86
ENDBRANCH  55  79
BRANCH  67  90
ATOM     90  C   UNL A   1      47.202  29.436  31.587  1.00  0.00     0.023 A 
ATOM     91  C   UNL A   1      47.500  28.541  32.629  1.00  0.00     0.031 A 
ATOM     92  C   UNL A   1      48.268  29.945  30.823  1.00  0.00     0.131 A 
ATOM     93  C   UNL A   1      48.836  28.218  32.911  1.00  0.00     0.055 A 
ATOM     94  C   UNL A   1      49.591  29.580  31.075  1.00  0.00     0.041 A 
ATOM     95  F   UNL A   1      48.039  30.805  29.818  1.00  0.00    -0.206 F 
ATOM     96  C   UNL A   1      49.882  28.721  32.130  1.00  0.00     0.022 A 
BRANCH  93  97
ATOM     97  S   UNL A   1      49.199  27.190  34.360  1.00  0.00     0.124 S 
ATOM     98  O   UNL A   1      48.794  25.866  33.903  1.00  0.00    -0.237 OA
ATOM     99  O   UNL A   1      50.633  27.393  34.536  1.00  0.00    -0.237 OA
ATOM    100  O   UNL A   1      48.360  27.767  35.410  1.00  0.00    -0.744 OA
ENDBRANCH  93  97
ENDBRANCH  67  90
ENDBRANCH  41  42
ENDBRANCH  34  36
ENDBRANCH  33  34
ENDBRANCH  32  33
ENDBRANCH  31  32
ENDBRANCH  30  31
ENDBRANCH  28  30
ENDBRANCH   1  28
TORSDOF 24
ENDMDL
