MODEL 1
REMARK VINA RESULT:     -10.9      0.000      0.000
REMARK SMILES CC(C)C[N@@H+](C1CC1)[C@@H](C)c1ccc(C(=O)OCCOC(=O)c2ccc(-c3c4nc(c(-c5cc(S(=O)(=O)[O-])ccc5F)c5ccc([nH]5)c(-c5cc(S(=O)(=O)[O-])ccc5F)c5nc(c(-c6cc(S(=O)(=O)[O-])ccc6F)c6ccc3[nH]6)C=C5)C=C4)cc2)o1
REMARK SMILES IDX 18 1 17 2 15 3 16 4 14 5 11 6 12 7 86 8 13 9 9 10 10 11 5 12
REMARK SMILES IDX 4 14 2 15 1 16 3 17 6 18 7 19 8 20 19 21 20 22 21 23 22 24
REMARK SMILES IDX 23 25 24 26 85 27 25 28 84 29 26 30 27 31 28 32 78 33 29 34
REMARK SMILES IDX 83 35 77 36 79 37 30 38 82 39 76 40 75 41 31 43 63 44 43 45
REMARK SMILES IDX 62 46 44 47 47 48 61 49 80 50 45 51 46 52 60 54 81 55 48 56
REMARK SMILES IDX 32 57 33 58 41 59 34 60 40 61 42 62 39 63 35 64 36 65 37 66
REMARK SMILES IDX 38 67 64 68 65 69 73 70 66 71 72 72 74 73 71 74 67 75 68 76
REMARK SMILES IDX 69 77 70 78 49 79 50 80 58 81 51 82 57 83 59 84 56 85 52 86
REMARK SMILES IDX 53 87 54 88 55 89
REMARK H PARENT 5 13 79 42 47 53
REMARK Flexibility Score: inf
ROOT
ATOM      1  C   UNL A   1      35.463  21.682  25.633  1.00  0.00     0.275 C 
ENDROOT
BRANCH   1   2
ATOM      2  O   UNL A   1      34.906  22.443  24.542  1.00  0.00    -0.456 OA
BRANCH   2   3
ATOM      3  C   UNL A   1      34.928  23.788  24.767  1.00  0.00     0.374 C 
ATOM      4  O   UNL A   1      35.499  24.301  25.726  1.00  0.00    -0.242 OA
BRANCH   3   5
ATOM      5  C   UNL A   1      34.194  24.530  23.770  1.00  0.00     0.212 A 
ATOM      6  C   UNL A   1      33.115  26.370  23.154  1.00  0.00     0.162 A 
ATOM      7  C   UNL A   1      32.736  25.371  22.278  1.00  0.00     0.053 A 
ATOM      8  O   UNL A   1      34.058  25.873  23.996  1.00  0.00    -0.448 OA
ATOM      9  C   UNL A   1      33.456  24.195  22.651  1.00  0.00     0.059 A 
BRANCH   6  10
ATOM     10  C   UNL A   1      32.788  27.835  23.285  1.00  0.00     0.248 C 
ATOM     11  C   UNL A   1      34.034  28.718  23.129  1.00  0.00     0.084 C 
BRANCH  10  12
ATOM     12  N   UNL A   1      31.898  28.218  24.438  1.00  0.00    -0.324 N 
ATOM     13  H   UNL A   1      31.919  27.443  25.101  1.00  0.00     0.348 HD
BRANCH  12  14
ATOM     14  C   UNL A   1      32.356  29.356  25.282  1.00  0.00     0.265 C 
BRANCH  14  15
ATOM     15  C   UNL A   1      32.654  29.186  26.798  1.00  0.00     0.038 C 
ATOM     16  C   UNL A   1      31.713  28.272  27.550  1.00  0.00     0.013 C 
ATOM     17  C   UNL A   1      34.069  28.601  26.971  1.00  0.00     0.013 C 
ENDBRANCH  14  15
ENDBRANCH  12  14
BRANCH  12  18
ATOM     18  C   UNL A   1      30.502  28.450  23.877  1.00  0.00     0.185 C 
ATOM     19  C   UNL A   1      30.275  28.189  22.410  1.00  0.00     0.071 C 
ATOM     20  C   UNL A   1      29.516  27.396  23.430  1.00  0.00     0.071 C 
ENDBRANCH  12  18
ENDBRANCH  10  12
ENDBRANCH   6  10
ENDBRANCH   3   5
ENDBRANCH   2   3
ENDBRANCH   1   2
BRANCH   1  21
ATOM     21  C   UNL A   1      36.589  20.729  25.205  1.00  0.00     0.275 C 
BRANCH  21  22
ATOM     22  O   UNL A   1      37.836  21.404  24.942  1.00  0.00    -0.458 OA
BRANCH  22  23
ATOM     23  C   UNL A   1      38.858  21.076  25.772  1.00  0.00     0.338 C 
ATOM     24  O   UNL A   1      39.325  19.966  25.945  1.00  0.00    -0.246 OA
BRANCH  23  25
ATOM     25  C   UNL A   1      39.399  22.283  26.428  1.00  0.00     0.060 A 
ATOM     26  C   UNL A   1      38.921  23.529  26.032  1.00  0.00     0.016 A 
ATOM     27  C   UNL A   1      40.478  22.201  27.309  1.00  0.00     0.016 A 
ATOM     28  C   UNL A   1      39.534  24.696  26.482  1.00  0.00     0.010 A 
ATOM     29  C   UNL A   1      41.080  23.379  27.780  1.00  0.00     0.010 A 
ATOM     30  C   UNL A   1      40.631  24.638  27.344  1.00  0.00    -0.014 A 
BRANCH  30  31
ATOM     31  C   UNL A   1      41.347  25.897  27.692  1.00  0.00     0.031 A 
ATOM     32  C   UNL A   1      40.656  26.942  28.526  1.00  0.00     0.074 A 
ATOM     33  C   UNL A   1      42.635  26.075  27.337  1.00  0.00     0.049 A 
ATOM     34  N   UNL A   1      41.049  28.149  28.844  1.00  0.00    -0.248 NA
ATOM     35  C   UNL A   1      39.344  26.571  29.077  1.00  0.00     0.031 C 
ATOM     36  C   UNL A   1      43.457  25.098  26.621  1.00  0.00     0.029 A 
ATOM     37  N   UNL A   1      43.482  27.138  27.537  1.00  0.00    -0.354 N 
ATOM     38  C   UNL A   1      40.018  28.699  29.599  1.00  0.00     0.074 A 
ATOM     39  C   UNL A   1      38.977  27.694  29.677  1.00  0.00     0.031 C 
ATOM     40  C   UNL A   1      44.689  25.603  26.451  1.00  0.00     0.029 A 
ATOM     41  C   UNL A   1      44.725  26.965  26.973  1.00  0.00     0.049 A 
ATOM     42  H   UNL A   1      43.223  27.948  28.035  1.00  0.00     0.167 HD
ATOM     43  C   UNL A   1      39.947  29.928  30.171  1.00  0.00     0.034 A 
ATOM     44  C   UNL A   1      45.759  27.822  26.850  1.00  0.00     0.034 A 
ATOM     45  C   UNL A   1      41.003  30.911  30.098  1.00  0.00     0.049 A 
ATOM     46  C   UNL A   1      45.621  29.218  27.400  1.00  0.00     0.074 A 
ATOM     47  C   UNL A   1      41.035  32.186  30.635  1.00  0.00     0.029 A 
ATOM     48  N   UNL A   1      42.217  30.728  29.447  1.00  0.00    -0.354 N 
ATOM     49  N   UNL A   1      44.614  29.756  28.049  1.00  0.00    -0.248 NA
ATOM     50  C   UNL A   1      46.755  30.127  27.191  1.00  0.00     0.031 C 
ATOM     51  C   UNL A   1      42.235  32.798  30.251  1.00  0.00     0.029 A 
ATOM     52  C   UNL A   1      42.989  31.878  29.539  1.00  0.00     0.049 A 
ATOM     53  H   UNL A   1      42.491  29.902  28.986  1.00  0.00     0.167 HD
ATOM     54  C   UNL A   1      45.002  31.060  28.340  1.00  0.00     0.074 A 
ATOM     55  C   UNL A   1      46.342  31.222  27.813  1.00  0.00     0.031 C 
ATOM     56  C   UNL A   1      44.316  32.034  28.990  1.00  0.00     0.034 A 
BRANCH  43  57
ATOM     57  C   UNL A   1      38.651  30.298  30.855  1.00  0.00     0.023 A 
ATOM     58  C   UNL A   1      37.600  30.937  30.175  1.00  0.00     0.031 A 
ATOM     59  C   UNL A   1      38.489  30.052  32.231  1.00  0.00     0.131 A 
ATOM     60  C   UNL A   1      36.472  31.378  30.887  1.00  0.00     0.055 A 
ATOM     61  C   UNL A   1      37.331  30.420  32.917  1.00  0.00     0.041 A 
ATOM     62  F   UNL A   1      39.468  29.465  32.940  1.00  0.00    -0.206 F 
ATOM     63  C   UNL A   1      36.320  31.104  32.248  1.00  0.00     0.022 A 
BRANCH  60  64
ATOM     64  S   UNL A   1      35.280  32.455  30.042  1.00  0.00     0.124 S 
ATOM     65  O   UNL A   1      36.122  33.586  29.659  1.00  0.00    -0.237 OA
ATOM     66  O   UNL A   1      34.808  31.609  28.951  1.00  0.00    -0.237 OA
ATOM     67  O   UNL A   1      34.290  32.748  31.078  1.00  0.00    -0.744 OA
ENDBRANCH  60  64
ENDBRANCH  43  57
BRANCH  44  68
ATOM     68  C   UNL A   1      46.988  27.414  26.108  1.00  0.00     0.023 A 
ATOM     69  C   UNL A   1      47.177  27.764  24.762  1.00  0.00     0.031 A 
ATOM     70  C   UNL A   1      47.976  26.630  26.731  1.00  0.00     0.131 A 
ATOM     71  C   UNL A   1      48.310  27.303  24.074  1.00  0.00     0.055 A 
ATOM     72  C   UNL A   1      49.126  26.217  26.058  1.00  0.00     0.041 A 
ATOM     73  F   UNL A   1      47.841  26.262  28.016  1.00  0.00    -0.206 F 
ATOM     74  C   UNL A   1      49.293  26.546  24.717  1.00  0.00     0.022 A 
BRANCH  71  75
ATOM     75  S   UNL A   1      48.454  27.650  22.300  1.00  0.00     0.124 S 
ATOM     76  O   UNL A   1      48.585  26.308  21.744  1.00  0.00    -0.237 OA
ATOM     77  O   UNL A   1      47.199  28.340  22.022  1.00  0.00    -0.237 OA
ATOM     78  O   UNL A   1      49.652  28.482  22.211  1.00  0.00    -0.744 OA
ENDBRANCH  71  75
ENDBRANCH  44  68
BRANCH  56  79
ATOM     79  C   UNL A   1      45.027  33.349  29.197  1.00  0.00     0.023 A 
ATOM     80  C   UNL A   1      44.802  34.453  28.356  1.00  0.00     0.031 A 
ATOM     81  C   UNL A   1      45.961  33.491  30.240  1.00  0.00     0.131 A 
ATOM     82  C   UNL A   1      45.537  35.635  28.540  1.00  0.00     0.055 A 
ATOM     83  C   UNL A   1      46.648  34.687  30.452  1.00  0.00     0.041 A 
ATOM     84  F   UNL A   1      46.217  32.468  31.070  1.00  0.00    -0.206 F 
ATOM     85  C   UNL A   1      46.448  35.763  29.593  1.00  0.00     0.022 A 
BRANCH  82  86
ATOM     86  S   UNL A   1      45.355  36.975  27.331  1.00  0.00     0.124 S 
ATOM     87  O   UNL A   1      45.509  38.161  28.167  1.00  0.00    -0.237 OA
ATOM     88  O   UNL A   1      46.445  36.706  26.399  1.00  0.00    -0.237 OA
ATOM     89  O   UNL A   1      44.013  36.769  26.790  1.00  0.00    -0.744 OA
ENDBRANCH  82  86
ENDBRANCH  56  79
ENDBRANCH  30  31
ENDBRANCH  23  25
ENDBRANCH  22  23
ENDBRANCH  21  22
ENDBRANCH   1  21
TORSDOF 19
ENDMDL
MODEL 2
REMARK VINA RESULT:     -10.6      1.756      2.152
REMARK SMILES CC(C)C[N@@H+](C1CC1)[C@@H](C)c1ccc(C(=O)OCCOC(=O)c2ccc(-c3c4nc(c(-c5cc(S(=O)(=O)[O-])ccc5F)c5ccc([nH]5)c(-c5cc(S(=O)(=O)[O-])ccc5F)c5nc(c(-c6cc(S(=O)(=O)[O-])ccc6F)c6ccc3[nH]6)C=C5)C=C4)cc2)o1
REMARK SMILES IDX 18 1 17 2 15 3 16 4 14 5 11 6 12 7 86 8 13 9 9 10 10 11 5 12
REMARK SMILES IDX 4 14 2 15 1 16 3 17 6 18 7 19 8 20 19 21 20 22 21 23 22 24
REMARK SMILES IDX 23 25 24 26 85 27 25 28 84 29 26 30 27 31 28 32 78 33 29 34
REMARK SMILES IDX 83 35 77 36 79 37 30 38 82 39 76 40 75 41 31 43 63 44 43 45
REMARK SMILES IDX 62 46 44 47 47 48 61 49 80 50 45 51 46 52 60 54 81 55 48 56
REMARK SMILES IDX 32 57 33 58 41 59 34 60 40 61 42 62 39 63 35 64 36 65 37 66
REMARK SMILES IDX 38 67 64 68 65 69 73 70 66 71 72 72 74 73 71 74 67 75 68 76
REMARK SMILES IDX 69 77 70 78 49 79 50 80 58 81 51 82 57 83 59 84 56 85 52 86
REMARK SMILES IDX 53 87 54 88 55 89
REMARK H PARENT 5 13 79 42 47 53
REMARK Flexibility Score: inf
ROOT
ATOM      1  C   UNL A   1      34.907  21.167  24.754  1.00  0.00     0.275 C 
ENDROOT
BRANCH   1   2
ATOM      2  O   UNL A   1      33.942  21.140  25.825  1.00  0.00    -0.456 OA
BRANCH   2   3
ATOM      3  C   UNL A   1      32.665  20.954  25.386  1.00  0.00     0.374 C 
ATOM      4  O   UNL A   1      32.249  19.880  24.958  1.00  0.00    -0.242 OA
BRANCH   3   5
ATOM      5  C   UNL A   1      31.871  22.157  25.461  1.00  0.00     0.212 A 
ATOM      6  C   UNL A   1      31.645  24.335  25.089  1.00  0.00     0.162 A 
ATOM      7  C   UNL A   1      30.688  23.986  26.022  1.00  0.00     0.053 A 
ATOM      8  O   UNL A   1      32.296  23.209  24.696  1.00  0.00    -0.448 OA
ATOM      9  C   UNL A   1      30.808  22.579  26.236  1.00  0.00     0.059 A 
BRANCH   6  10
ATOM     10  C   UNL A   1      32.016  25.617  24.390  1.00  0.00     0.248 C 
ATOM     11  C   UNL A   1      33.533  25.746  24.193  1.00  0.00     0.084 C 
BRANCH  10  12
ATOM     12  N   UNL A   1      31.350  26.868  24.896  1.00  0.00    -0.324 N 
ATOM     13  H   UNL A   1      30.406  26.608  25.184  1.00  0.00     0.348 HD
BRANCH  12  14
ATOM     14  C   UNL A   1      31.901  27.455  26.150  1.00  0.00     0.265 C 
BRANCH  14  15
ATOM     15  C   UNL A   1      32.630  28.828  26.161  1.00  0.00     0.038 C 
ATOM     16  C   UNL A   1      32.119  29.831  27.170  1.00  0.00     0.013 C 
ATOM     17  C   UNL A   1      34.121  28.603  26.478  1.00  0.00     0.013 C 
ENDBRANCH  14  15
ENDBRANCH  12  14
BRANCH  12  18
ATOM     18  C   UNL A   1      31.340  27.873  23.753  1.00  0.00     0.185 C 
ATOM     19  C   UNL A   1      30.790  27.427  22.422  1.00  0.00     0.071 C 
ATOM     20  C   UNL A   1      30.134  28.557  23.155  1.00  0.00     0.071 C 
ENDBRANCH  12  18
ENDBRANCH  10  12
ENDBRANCH   6  10
ENDBRANCH   3   5
ENDBRANCH   2   3
ENDBRANCH   1   2
BRANCH   1  21
ATOM     21  C   UNL A   1      36.261  20.549  25.131  1.00  0.00     0.275 C 
BRANCH  21  22
ATOM     22  O   UNL A   1      37.363  21.470  25.001  1.00  0.00    -0.458 OA
BRANCH  22  23
ATOM     23  C   UNL A   1      38.499  21.110  25.649  1.00  0.00     0.338 C 
ATOM     24  O   UNL A   1      39.009  20.005  25.660  1.00  0.00    -0.246 OA
BRANCH  23  25
ATOM     25  C   UNL A   1      39.103  22.276  26.324  1.00  0.00     0.060 A 
ATOM     26  C   UNL A   1      38.589  23.542  26.056  1.00  0.00     0.016 A 
ATOM     27  C   UNL A   1      40.264  22.145  27.087  1.00  0.00     0.016 A 
ATOM     28  C   UNL A   1      39.243  24.681  26.515  1.00  0.00     0.010 A 
ATOM     29  C   UNL A   1      40.909  23.294  27.569  1.00  0.00     0.010 A 
ATOM     30  C   UNL A   1      40.420  24.576  27.260  1.00  0.00    -0.014 A 
BRANCH  30  31
ATOM     31  C   UNL A   1      41.168  25.814  27.614  1.00  0.00     0.031 A 
ATOM     32  C   UNL A   1      40.501  26.875  28.449  1.00  0.00     0.074 A 
ATOM     33  C   UNL A   1      42.461  25.960  27.265  1.00  0.00     0.049 A 
ATOM     34  N   UNL A   1      40.924  28.070  28.771  1.00  0.00    -0.248 NA
ATOM     35  C   UNL A   1      39.177  26.538  28.993  1.00  0.00     0.031 C 
ATOM     36  C   UNL A   1      43.260  24.963  26.550  1.00  0.00     0.029 A 
ATOM     37  N   UNL A   1      43.335  26.999  27.471  1.00  0.00    -0.354 N 
ATOM     38  C   UNL A   1      39.905  28.645  29.524  1.00  0.00     0.074 A 
ATOM     39  C   UNL A   1      38.838  27.669  29.594  1.00  0.00     0.031 C 
ATOM     40  C   UNL A   1      44.506  25.435  26.387  1.00  0.00     0.029 A 
ATOM     41  C   UNL A   1      44.576  26.795  26.913  1.00  0.00     0.049 A 
ATOM     42  H   UNL A   1      43.096  27.814  27.971  1.00  0.00     0.167 HD
ATOM     43  C   UNL A   1      39.864  29.874  30.099  1.00  0.00     0.034 A 
ATOM     44  C   UNL A   1      45.633  27.624  26.797  1.00  0.00     0.034 A 
ATOM     45  C   UNL A   1      40.946  30.829  30.033  1.00  0.00     0.049 A 
ATOM     46  C   UNL A   1      45.529  29.022  27.350  1.00  0.00     0.074 A 
ATOM     47  C   UNL A   1      41.010  32.102  30.574  1.00  0.00     0.029 A 
ATOM     48  N   UNL A   1      42.157  30.616  29.386  1.00  0.00    -0.354 N 
ATOM     49  N   UNL A   1      44.534  29.584  27.996  1.00  0.00    -0.248 NA
ATOM     50  C   UNL A   1      46.688  29.901  27.148  1.00  0.00     0.031 C 
ATOM     51  C   UNL A   1      42.227  32.682  30.197  1.00  0.00     0.029 A 
ATOM     52  C   UNL A   1      42.959  31.745  29.485  1.00  0.00     0.049 A 
ATOM     53  H   UNL A   1      42.411  29.785  28.924  1.00  0.00     0.167 HD
ATOM     54  C   UNL A   1      44.955  30.877  28.292  1.00  0.00     0.074 A 
ATOM     55  C   UNL A   1      46.301  31.005  27.771  1.00  0.00     0.031 C 
ATOM     56  C   UNL A   1      44.292  31.868  28.942  1.00  0.00     0.034 A 
BRANCH  43  57
ATOM     57  C   UNL A   1      38.575  30.276  30.778  1.00  0.00     0.023 A 
ATOM     58  C   UNL A   1      37.542  30.939  30.094  1.00  0.00     0.031 A 
ATOM     59  C   UNL A   1      38.404  30.037  32.155  1.00  0.00     0.131 A 
ATOM     60  C   UNL A   1      36.424  31.409  30.802  1.00  0.00     0.055 A 
ATOM     61  C   UNL A   1      37.253  30.435  32.836  1.00  0.00     0.041 A 
ATOM     62  F   UNL A   1      39.367  29.428  32.867  1.00  0.00    -0.206 F 
ATOM     63  C   UNL A   1      36.261  31.141  32.163  1.00  0.00     0.022 A 
BRANCH  60  64
ATOM     64  S   UNL A   1      35.259  32.512  29.952  1.00  0.00     0.124 S 
ATOM     65  O   UNL A   1      34.698  31.625  28.936  1.00  0.00    -0.237 OA
ATOM     66  O   UNL A   1      34.356  32.906  31.028  1.00  0.00    -0.237 OA
ATOM     67  O   UNL A   1      36.114  33.579  29.433  1.00  0.00    -0.744 OA
ENDBRANCH  60  64
ENDBRANCH  43  57
BRANCH  44  68
ATOM     68  C   UNL A   1      46.853  27.186  26.058  1.00  0.00     0.023 A 
ATOM     69  C   UNL A   1      47.086  27.585  24.733  1.00  0.00     0.031 A 
ATOM     70  C   UNL A   1      47.787  26.325  26.662  1.00  0.00     0.131 A 
ATOM     71  C   UNL A   1      48.208  27.095  24.045  1.00  0.00     0.055 A 
ATOM     72  C   UNL A   1      48.928  25.883  25.992  1.00  0.00     0.041 A 
ATOM     73  F   UNL A   1      47.608  25.908  27.927  1.00  0.00    -0.206 F 
ATOM     74  C   UNL A   1      49.138  26.261  24.670  1.00  0.00     0.022 A 
BRANCH  71  75
ATOM     75  S   UNL A   1      48.404  27.513  22.290  1.00  0.00     0.124 S 
ATOM     76  O   UNL A   1      47.133  28.165  21.996  1.00  0.00    -0.237 OA
ATOM     77  O   UNL A   1      49.579  28.377  22.313  1.00  0.00    -0.237 OA
ATOM     78  O   UNL A   1      48.602  26.214  21.651  1.00  0.00    -0.744 OA
ENDBRANCH  71  75
ENDBRANCH  44  68
BRANCH  56  79
ATOM     79  C   UNL A   1      45.038  33.163  29.155  1.00  0.00     0.023 A 
ATOM     80  C   UNL A   1      45.870  33.363  30.271  1.00  0.00     0.031 A 
ATOM     81  C   UNL A   1      44.896  34.219  28.237  1.00  0.00     0.131 A 
ATOM     82  C   UNL A   1      46.488  34.608  30.468  1.00  0.00     0.055 A 
ATOM     83  C   UNL A   1      45.558  35.435  28.409  1.00  0.00     0.041 A 
ATOM     84  F   UNL A   1      44.111  34.083  27.157  1.00  0.00    -0.206 F 
ATOM     85  C   UNL A   1      46.349  35.640  29.535  1.00  0.00     0.022 A 
BRANCH  82  86
ATOM     86  S   UNL A   1      47.407  34.894  32.006  1.00  0.00     0.124 S 
ATOM     87  O   UNL A   1      48.725  34.361  31.676  1.00  0.00    -0.237 OA
ATOM     88  O   UNL A   1      47.324  36.343  32.155  1.00  0.00    -0.237 OA
ATOM     89  O   UNL A   1      46.659  34.125  33.000  1.00  0.00    -0.744 OA
ENDBRANCH  82  86
ENDBRANCH  56  79
ENDBRANCH  30  31
ENDBRANCH  23  25
ENDBRANCH  22  23
ENDBRANCH  21  22
ENDBRANCH   1  21
TORSDOF 19
ENDMDL
MODEL 3
REMARK VINA RESULT:     -10.5      5.176     10.350
REMARK SMILES CC(C)C[N@@H+](C1CC1)[C@@H](C)c1ccc(C(=O)OCCOC(=O)c2ccc(-c3c4nc(c(-c5cc(S(=O)(=O)[O-])ccc5F)c5ccc([nH]5)c(-c5cc(S(=O)(=O)[O-])ccc5F)c5nc(c(-c6cc(S(=O)(=O)[O-])ccc6F)c6ccc3[nH]6)C=C5)C=C4)cc2)o1
REMARK SMILES IDX 18 1 17 2 15 3 16 4 14 5 11 6 12 7 86 8 13 9 9 10 10 11 5 12
REMARK SMILES IDX 4 14 2 15 1 16 3 17 6 18 7 19 8 20 19 21 20 22 21 23 22 24
REMARK SMILES IDX 23 25 24 26 85 27 25 28 84 29 26 30 27 31 28 32 78 33 29 34
REMARK SMILES IDX 83 35 77 36 79 37 30 38 82 39 76 40 75 41 31 43 63 44 43 45
REMARK SMILES IDX 62 46 44 47 47 48 61 49 80 50 45 51 46 52 60 54 81 55 48 56
REMARK SMILES IDX 32 57 33 58 41 59 34 60 40 61 42 62 39 63 35 64 36 65 37 66
REMARK SMILES IDX 38 67 64 68 65 69 73 70 66 71 72 72 74 73 71 74 67 75 68 76
REMARK SMILES IDX 69 77 70 78 49 79 50 80 58 81 51 82 57 83 59 84 56 85 52 86
REMARK SMILES IDX 53 87 54 88 55 89
REMARK H PARENT 5 13 79 42 47 53
REMARK Flexibility Score: inf
ROOT
ATOM      1  C   UNL A   1      32.621  29.125  24.959  1.00  0.00     0.275 C 
ENDROOT
BRANCH   1   2
ATOM      2  O   UNL A   1      31.848  28.024  24.442  1.00  0.00    -0.456 OA
BRANCH   2   3
ATOM      3  C   UNL A   1      32.568  26.871  24.337  1.00  0.00     0.374 C 
ATOM      4  O   UNL A   1      33.792  26.830  24.447  1.00  0.00    -0.242 OA
BRANCH   3   5
ATOM      5  C   UNL A   1      31.740  25.721  24.064  1.00  0.00     0.212 A 
ATOM      6  C   UNL A   1      31.083  23.664  24.579  1.00  0.00     0.162 A 
ATOM      7  C   UNL A   1      30.701  23.891  23.270  1.00  0.00     0.053 A 
ATOM      8  O   UNL A   1      31.632  24.803  25.074  1.00  0.00    -0.448 OA
ATOM      9  C   UNL A   1      31.092  25.226  22.949  1.00  0.00     0.059 A 
BRANCH   6  10
ATOM     10  C   UNL A   1      30.926  22.510  25.535  1.00  0.00     0.248 C 
ATOM     11  C   UNL A   1      30.321  22.953  26.875  1.00  0.00     0.084 C 
BRANCH  10  12
ATOM     12  N   UNL A   1      32.108  21.587  25.665  1.00  0.00    -0.324 N 
ATOM     13  H   UNL A   1      31.827  20.826  26.283  1.00  0.00     0.348 HD
BRANCH  12  14
ATOM     14  C   UNL A   1      32.515  20.850  24.436  1.00  0.00     0.265 C 
BRANCH  14  15
ATOM     15  C   UNL A   1      32.600  19.299  24.400  1.00  0.00     0.038 C 
ATOM     16  C   UNL A   1      32.153  18.650  23.109  1.00  0.00     0.013 C 
ATOM     17  C   UNL A   1      34.062  18.869  24.627  1.00  0.00     0.013 C 
ENDBRANCH  14  15
ENDBRANCH  12  14
BRANCH  12  18
ATOM     18  C   UNL A   1      33.256  22.399  26.249  1.00  0.00     0.185 C 
ATOM     19  C   UNL A   1      33.677  22.113  27.668  1.00  0.00     0.071 C 
ATOM     20  C   UNL A   1      34.653  21.910  26.549  1.00  0.00     0.071 C 
ENDBRANCH  12  18
ENDBRANCH  10  12
ENDBRANCH   6  10
ENDBRANCH   3   5
ENDBRANCH   2   3
ENDBRANCH   1   2
BRANCH   1  21
ATOM     21  C   UNL A   1      31.791  30.130  25.773  1.00  0.00     0.275 C 
BRANCH  21  22
ATOM     22  O   UNL A   1      32.309  30.354  27.099  1.00  0.00    -0.458 OA
BRANCH  22  23
ATOM     23  C   UNL A   1      33.032  31.492  27.254  1.00  0.00     0.338 C 
ATOM     24  O   UNL A   1      32.635  32.631  27.097  1.00  0.00    -0.246 OA
BRANCH  23  25
ATOM     25  C   UNL A   1      34.401  31.177  27.709  1.00  0.00     0.060 A 
ATOM     26  C   UNL A   1      34.712  29.858  28.026  1.00  0.00     0.016 A 
ATOM     27  C   UNL A   1      35.322  32.191  27.973  1.00  0.00     0.016 A 
ATOM     28  C   UNL A   1      35.923  29.545  28.638  1.00  0.00     0.010 A 
ATOM     29  C   UNL A   1      36.553  31.870  28.568  1.00  0.00     0.010 A 
ATOM     30  C   UNL A   1      36.850  30.546  28.935  1.00  0.00    -0.014 A 
BRANCH  30  31
ATOM     31  C   UNL A   1      38.070  30.196  29.714  1.00  0.00     0.031 A 
ATOM     32  C   UNL A   1      39.091  29.261  29.122  1.00  0.00     0.074 A 
ATOM     33  C   UNL A   1      38.311  30.771  30.909  1.00  0.00     0.049 A 
ATOM     34  N   UNL A   1      40.157  28.736  29.669  1.00  0.00    -0.248 NA
ATOM     35  C   UNL A   1      38.877  28.868  27.721  1.00  0.00     0.031 C 
ATOM     36  C   UNL A   1      37.460  31.775  31.549  1.00  0.00     0.029 A 
ATOM     37  N   UNL A   1      39.347  30.599  31.795  1.00  0.00    -0.354 N 
ATOM     38  C   UNL A   1      40.723  27.920  28.694  1.00  0.00     0.074 A 
ATOM     39  C   UNL A   1      39.868  28.010  27.528  1.00  0.00     0.031 C 
ATOM     40  C   UNL A   1      38.012  32.136  32.719  1.00  0.00     0.029 A 
ATOM     41  C   UNL A   1      39.212  31.336  32.949  1.00  0.00     0.049 A 
ATOM     42  H   UNL A   1      40.112  30.004  31.621  1.00  0.00     0.167 HD
ATOM     43  C   UNL A   1      41.847  27.163  28.769  1.00  0.00     0.034 A 
ATOM     44  C   UNL A   1      39.944  31.334  34.082  1.00  0.00     0.034 A 
ATOM     45  C   UNL A   1      42.698  27.100  29.935  1.00  0.00     0.049 A 
ATOM     46  C   UNL A   1      41.129  30.409  34.184  1.00  0.00     0.074 A 
ATOM     47  C   UNL A   1      43.855  26.364  30.121  1.00  0.00     0.029 A 
ATOM     48  N   UNL A   1      42.482  27.798  31.117  1.00  0.00    -0.354 N 
ATOM     49  N   UNL A   1      41.614  29.584  33.285  1.00  0.00    -0.248 NA
ATOM     50  C   UNL A   1      41.858  30.406  35.459  1.00  0.00     0.031 C 
ATOM     51  C   UNL A   1      44.300  26.564  31.434  1.00  0.00     0.029 A 
ATOM     52  C   UNL A   1      43.464  27.485  32.045  1.00  0.00     0.049 A 
ATOM     53  H   UNL A   1      41.739  28.425  31.273  1.00  0.00     0.167 HD
ATOM     54  C   UNL A   1      42.717  28.979  33.881  1.00  0.00     0.074 A 
ATOM     55  C   UNL A   1      42.834  29.546  35.209  1.00  0.00     0.031 C 
ATOM     56  C   UNL A   1      43.559  28.042  33.375  1.00  0.00     0.034 A 
BRANCH  43  57
ATOM     57  C   UNL A   1      42.171  26.288  27.580  1.00  0.00     0.023 A 
ATOM     58  C   UNL A   1      41.760  24.946  27.503  1.00  0.00     0.031 A 
ATOM     59  C   UNL A   1      42.955  26.797  26.527  1.00  0.00     0.131 A 
ATOM     60  C   UNL A   1      42.201  24.140  26.440  1.00  0.00     0.055 A 
ATOM     61  C   UNL A   1      43.321  26.013  25.433  1.00  0.00     0.041 A 
ATOM     62  F   UNL A   1      43.397  28.065  26.556  1.00  0.00    -0.206 F 
ATOM     63  C   UNL A   1      42.959  24.670  25.393  1.00  0.00     0.022 A 
BRANCH  60  64
ATOM     64  S   UNL A   1      41.902  22.352  26.526  1.00  0.00     0.124 S 
ATOM     65  O   UNL A   1      42.494  22.015  27.819  1.00  0.00    -0.237 OA
ATOM     66  O   UNL A   1      40.448  22.271  26.447  1.00  0.00    -0.237 OA
ATOM     67  O   UNL A   1      42.621  21.828  25.365  1.00  0.00    -0.744 OA
ENDBRANCH  60  64
ENDBRANCH  43  57
BRANCH  44  68
ATOM     68  C   UNL A   1      39.533  32.176  35.243  1.00  0.00     0.023 A 
ATOM     69  C   UNL A   1      38.776  31.645  36.299  1.00  0.00     0.031 A 
ATOM     70  C   UNL A   1      39.861  33.544  35.289  1.00  0.00     0.131 A 
ATOM     71  C   UNL A   1      38.346  32.483  37.339  1.00  0.00     0.055 A 
ATOM     72  C   UNL A   1      39.476  34.361  36.352  1.00  0.00     0.041 A 
ATOM     73  F   UNL A   1      40.578  34.104  34.301  1.00  0.00    -0.206 F 
ATOM     74  C   UNL A   1      38.704  33.833  37.381  1.00  0.00     0.022 A 
BRANCH  71  75
ATOM     75  S   UNL A   1      37.250  31.799  38.612  1.00  0.00     0.124 S 
ATOM     76  O   UNL A   1      36.106  32.701  38.536  1.00  0.00    -0.237 OA
ATOM     77  O   UNL A   1      37.029  30.441  38.127  1.00  0.00    -0.237 OA
ATOM     78  O   UNL A   1      38.043  31.899  39.835  1.00  0.00    -0.744 OA
ENDBRANCH  71  75
ENDBRANCH  44  68
BRANCH  56  79
ATOM     79  C   UNL A   1      44.705  27.607  34.255  1.00  0.00     0.023 A 
ATOM     80  C   UNL A   1      44.616  26.472  35.080  1.00  0.00     0.031 A 
ATOM     81  C   UNL A   1      45.898  28.353  34.284  1.00  0.00     0.131 A 
ATOM     82  C   UNL A   1      45.679  26.143  35.936  1.00  0.00     0.055 A 
ATOM     83  C   UNL A   1      46.972  27.989  35.096  1.00  0.00     0.041 A 
ATOM     84  F   UNL A   1      46.036  29.447  33.519  1.00  0.00    -0.206 F 
ATOM     85  C   UNL A   1      46.862  26.886  35.937  1.00  0.00     0.022 A 
BRANCH  82  86
ATOM     86  S   UNL A   1      45.462  24.782  37.116  1.00  0.00     0.124 S 
ATOM     87  O   UNL A   1      46.822  24.269  37.241  1.00  0.00    -0.237 OA
ATOM     88  O   UNL A   1      44.929  25.467  38.289  1.00  0.00    -0.237 OA
ATOM     89  O   UNL A   1      44.522  23.889  36.441  1.00  0.00    -0.744 OA
ENDBRANCH  82  86
ENDBRANCH  56  79
ENDBRANCH  30  31
ENDBRANCH  23  25
ENDBRANCH  22  23
ENDBRANCH  21  22
ENDBRANCH   1  21
TORSDOF 19
ENDMDL
