MODEL 1
REMARK VINA RESULT:     -11.6      0.000      0.000
REMARK SMILES O=C(N[C@@H]1C=C[C@@H](C(=O)OCCOC(=O)c2ccc(-c3c4nc(c(-c5cc(S(=O)(=O)[O-])ccc5F)c5ccc([nH]5)c(-c5cc(S(=O)(=O)[O-])ccc5F)c5nc(c(-c6cc(S(=O)(=O)[O-])ccc6F)c6ccc3[nH]6)C=C5)C=C4)cc2)C1)Oc1ccccc1
REMARK SMILES IDX 11 1 10 2 8 3 9 4 7 5 4 6 5 7 79 8 6 9 3 10 1 11 2 12 80 14
REMARK SMILES IDX 81 15 82 16 86 17 83 18 85 19 84 20 12 21 13 22 14 23 15 24
REMARK SMILES IDX 16 25 17 26 78 27 18 28 77 29 19 30 20 31 21 32 71 33 22 34
REMARK SMILES IDX 76 35 70 36 72 37 23 38 75 39 69 40 68 41 24 43 56 44 36 45
REMARK SMILES IDX 55 46 37 47 40 48 54 49 73 50 38 51 39 52 53 54 74 55 41 56
REMARK SMILES IDX 25 57 26 58 34 59 27 60 33 61 35 62 32 63 28 64 29 65 30 66
REMARK SMILES IDX 31 67 57 68 58 69 66 70 59 71 65 72 67 73 64 74 60 75 61 76
REMARK SMILES IDX 62 77 63 78 42 79 43 80 51 81 44 82 50 83 52 84 49 85 45 86
REMARK SMILES IDX 46 87 47 88 48 89
REMARK H PARENT 3 13 72 42 40 53
REMARK Flexibility Score: inf
ROOT
ATOM      1  C   UNL A   1      31.549  28.696  25.723  1.00  0.00     0.274 C 
ENDROOT
BRANCH   1   2
ATOM      2  O   UNL A   1      31.603  28.963  24.309  1.00  0.00    -0.462 OA
BRANCH   2   3
ATOM      3  C   UNL A   1      30.411  28.969  23.651  1.00  0.00     0.312 C 
ATOM      4  O   UNL A   1      29.675  29.948  23.568  1.00  0.00    -0.252 OA
BRANCH   3   5
ATOM      5  C   UNL A   1      30.189  27.668  22.878  1.00  0.00     0.124 C 
ATOM      6  C   UNL A   1      31.594  25.708  23.294  1.00  0.00     0.109 C 
ATOM      7  C   UNL A   1      30.270  25.587  23.966  1.00  0.00    -0.006 C 
ATOM      8  C   UNL A   1      31.438  26.934  22.389  1.00  0.00     0.049 C 
ATOM      9  C   UNL A   1      29.501  26.655  23.743  1.00  0.00    -0.014 C 
BRANCH   6  10
ATOM     10  N   UNL A   1      31.848  24.495  22.553  1.00  0.00    -0.315 N 
ATOM     11  O   UNL A   1      32.919  22.692  21.774  1.00  0.00    -0.224 OA
ATOM     12  C   UNL A   1      33.001  23.809  22.282  1.00  0.00     0.413 C 
ATOM     13  H   UNL A   1      31.039  24.085  22.169  1.00  0.00     0.167 HD
BRANCH  12  14
ATOM     14  O   UNL A   1      34.263  24.329  22.618  1.00  0.00    -0.410 OA
BRANCH  14  15
ATOM     15  C   UNL A   1      35.127  23.816  23.600  1.00  0.00     0.132 A 
ATOM     16  C   UNL A   1      36.171  22.967  23.237  1.00  0.00     0.047 A 
ATOM     17  C   UNL A   1      34.916  24.203  24.923  1.00  0.00     0.047 A 
ATOM     18  C   UNL A   1      37.068  22.553  24.219  1.00  0.00     0.004 A 
ATOM     19  C   UNL A   1      35.827  23.798  25.894  1.00  0.00     0.004 A 
ATOM     20  C   UNL A   1      36.906  22.981  25.542  1.00  0.00     0.000 A 
ENDBRANCH  14  15
ENDBRANCH  12  14
ENDBRANCH   6  10
ENDBRANCH   3   5
ENDBRANCH   2   3
ENDBRANCH   1   2
BRANCH   1  21
ATOM     21  C   UNL A   1      31.749  29.996  26.502  1.00  0.00     0.275 C 
BRANCH  21  22
ATOM     22  O   UNL A   1      33.029  30.582  26.195  1.00  0.00    -0.458 OA
BRANCH  22  23
ATOM     23  C   UNL A   1      33.453  31.504  27.089  1.00  0.00     0.338 C 
ATOM     24  O   UNL A   1      32.827  32.467  27.513  1.00  0.00    -0.246 OA
BRANCH  23  25
ATOM     25  C   UNL A   1      34.798  31.173  27.570  1.00  0.00     0.060 A 
ATOM     26  C   UNL A   1      35.098  29.849  27.887  1.00  0.00     0.016 A 
ATOM     27  C   UNL A   1      35.692  32.195  27.886  1.00  0.00     0.016 A 
ATOM     28  C   UNL A   1      36.230  29.558  28.641  1.00  0.00     0.010 A 
ATOM     29  C   UNL A   1      36.891  31.880  28.533  1.00  0.00     0.010 A 
ATOM     30  C   UNL A   1      37.153  30.565  28.959  1.00  0.00    -0.014 A 
BRANCH  30  31
ATOM     31  C   UNL A   1      38.372  30.242  29.754  1.00  0.00     0.031 A 
ATOM     32  C   UNL A   1      39.429  29.327  29.190  1.00  0.00     0.074 A 
ATOM     33  C   UNL A   1      38.533  30.771  30.983  1.00  0.00     0.049 A 
ATOM     34  N   UNL A   1      40.460  28.784  29.786  1.00  0.00    -0.248 NA
ATOM     35  C   UNL A   1      39.290  28.955  27.775  1.00  0.00     0.031 C 
ATOM     36  C   UNL A   1      37.601  31.693  31.637  1.00  0.00     0.029 A 
ATOM     37  N   UNL A   1      39.540  30.613  31.901  1.00  0.00    -0.354 N 
ATOM     38  C   UNL A   1      41.057  27.956  28.838  1.00  0.00     0.074 A 
ATOM     39  C   UNL A   1      40.261  28.065  27.633  1.00  0.00     0.031 C 
ATOM     40  C   UNL A   1      38.096  32.047  32.831  1.00  0.00     0.029 A 
ATOM     41  C   UNL A   1      39.329  31.307  33.071  1.00  0.00     0.049 A 
ATOM     42  H   UNL A   1      40.337  30.058  31.741  1.00  0.00     0.167 HD
ATOM     43  C   UNL A   1      42.163  27.178  28.968  1.00  0.00     0.034 A 
ATOM     44  C   UNL A   1      40.015  31.311  34.229  1.00  0.00     0.034 A 
ATOM     45  C   UNL A   1      42.970  27.124  30.165  1.00  0.00     0.049 A 
ATOM     46  C   UNL A   1      41.229  30.437  34.356  1.00  0.00     0.074 A 
ATOM     47  C   UNL A   1      44.129  26.401  30.394  1.00  0.00     0.029 A 
ATOM     48  N   UNL A   1      42.706  27.826  31.335  1.00  0.00    -0.354 N 
ATOM     49  N   UNL A   1      41.749  29.616  33.473  1.00  0.00    -0.248 NA
ATOM     50  C   UNL A   1      41.939  30.479  35.640  1.00  0.00     0.031 C 
ATOM     51  C   UNL A   1      44.533  26.623  31.717  1.00  0.00     0.029 A 
ATOM     52  C   UNL A   1      43.663  27.533  32.296  1.00  0.00     0.049 A 
ATOM     53  H   UNL A   1      41.949  28.441  31.463  1.00  0.00     0.167 HD
ATOM     54  C   UNL A   1      42.846  29.037  34.098  1.00  0.00     0.074 A 
ATOM     55  C   UNL A   1      42.929  29.625  35.422  1.00  0.00     0.031 C 
ATOM     56  C   UNL A   1      43.708  28.102  33.623  1.00  0.00     0.034 A 
BRANCH  43  57
ATOM     57  C   UNL A   1      42.514  26.277  27.805  1.00  0.00     0.023 A 
ATOM     58  C   UNL A   1      41.922  25.014  27.629  1.00  0.00     0.031 A 
ATOM     59  C   UNL A   1      43.505  26.670  26.887  1.00  0.00     0.131 A 
ATOM     60  C   UNL A   1      42.389  24.157  26.620  1.00  0.00     0.055 A 
ATOM     61  C   UNL A   1      43.906  25.845  25.834  1.00  0.00     0.041 A 
ATOM     62  F   UNL A   1      44.121  27.856  27.013  1.00  0.00    -0.206 F 
ATOM     63  C   UNL A   1      43.361  24.572  25.707  1.00  0.00     0.022 A 
BRANCH  60  64
ATOM     64  S   UNL A   1      41.830  22.430  26.622  1.00  0.00     0.124 S 
ATOM     65  O   UNL A   1      42.408  21.930  25.378  1.00  0.00    -0.237 OA
ATOM     66  O   UNL A   1      42.413  21.913  27.854  1.00  0.00    -0.237 OA
ATOM     67  O   UNL A   1      40.372  22.542  26.620  1.00  0.00    -0.744 OA
ENDBRANCH  60  64
ENDBRANCH  43  57
BRANCH  44  68
ATOM     68  C   UNL A   1      39.515  32.114  35.378  1.00  0.00     0.023 A 
ATOM     69  C   UNL A   1      39.949  33.430  35.590  1.00  0.00     0.031 A 
ATOM     70  C   UNL A   1      38.573  31.570  36.272  1.00  0.00     0.131 A 
ATOM     71  C   UNL A   1      39.449  34.158  36.682  1.00  0.00     0.055 A 
ATOM     72  C   UNL A   1      38.049  32.312  37.330  1.00  0.00     0.041 A 
ATOM     73  F   UNL A   1      38.121  30.318  36.102  1.00  0.00    -0.206 F 
ATOM     74  C   UNL A   1      38.492  33.613  37.543  1.00  0.00     0.022 A 
BRANCH  71  75
ATOM     75  S   UNL A   1      40.089  35.828  36.980  1.00  0.00     0.124 S 
ATOM     76  O   UNL A   1      39.416  36.188  38.223  1.00  0.00    -0.237 OA
ATOM     77  O   UNL A   1      41.525  35.593  37.072  1.00  0.00    -0.237 OA
ATOM     78  O   UNL A   1      39.657  36.573  35.798  1.00  0.00    -0.744 OA
ENDBRANCH  71  75
ENDBRANCH  44  68
BRANCH  56  79
ATOM     79  C   UNL A   1      44.816  27.677  34.551  1.00  0.00     0.023 A 
ATOM     80  C   UNL A   1      44.643  26.622  35.464  1.00  0.00     0.031 A 
ATOM     81  C   UNL A   1      46.044  28.361  34.547  1.00  0.00     0.131 A 
ATOM     82  C   UNL A   1      45.666  26.312  36.372  1.00  0.00     0.055 A 
ATOM     83  C   UNL A   1      47.076  28.016  35.420  1.00  0.00     0.041 A 
ATOM     84  F   UNL A   1      46.256  29.379  33.699  1.00  0.00    -0.206 F 
ATOM     85  C   UNL A   1      46.885  26.995  36.348  1.00  0.00     0.022 A 
BRANCH  82  86
ATOM     86  S   UNL A   1      45.349  25.061  37.646  1.00  0.00     0.124 S 
ATOM     87  O   UNL A   1      46.598  25.073  38.401  1.00  0.00    -0.237 OA
ATOM     88  O   UNL A   1      44.181  25.601  38.333  1.00  0.00    -0.237 OA
ATOM     89  O   UNL A   1      45.104  23.842  36.875  1.00  0.00    -0.744 OA
ENDBRANCH  82  86
ENDBRANCH  56  79
ENDBRANCH  30  31
ENDBRANCH  23  25
ENDBRANCH  22  23
ENDBRANCH  21  22
ENDBRANCH   1  21
TORSDOF 17
ENDMDL
MODEL 2
REMARK VINA RESULT:     -11.6      5.145     10.072
REMARK SMILES O=C(N[C@@H]1C=C[C@@H](C(=O)OCCOC(=O)c2ccc(-c3c4nc(c(-c5cc(S(=O)(=O)[O-])ccc5F)c5ccc([nH]5)c(-c5cc(S(=O)(=O)[O-])ccc5F)c5nc(c(-c6cc(S(=O)(=O)[O-])ccc6F)c6ccc3[nH]6)C=C5)C=C4)cc2)C1)Oc1ccccc1
REMARK SMILES IDX 11 1 10 2 8 3 9 4 7 5 4 6 5 7 79 8 6 9 3 10 1 11 2 12 80 14
REMARK SMILES IDX 81 15 82 16 86 17 83 18 85 19 84 20 12 21 13 22 14 23 15 24
REMARK SMILES IDX 16 25 17 26 78 27 18 28 77 29 19 30 20 31 21 32 71 33 22 34
REMARK SMILES IDX 76 35 70 36 72 37 23 38 75 39 69 40 68 41 24 43 56 44 36 45
REMARK SMILES IDX 55 46 37 47 40 48 54 49 73 50 38 51 39 52 53 54 74 55 41 56
REMARK SMILES IDX 25 57 26 58 34 59 27 60 33 61 35 62 32 63 28 64 29 65 30 66
REMARK SMILES IDX 31 67 57 68 58 69 66 70 59 71 65 72 67 73 64 74 60 75 61 76
REMARK SMILES IDX 62 77 63 78 42 79 43 80 51 81 44 82 50 83 52 84 49 85 45 86
REMARK SMILES IDX 46 87 47 88 48 89
REMARK H PARENT 3 13 72 42 40 53
REMARK Flexibility Score: inf
ROOT
ATOM      1  C   UNL A   1      35.207  20.653  25.212  1.00  0.00     0.274 C 
ENDROOT
BRANCH   1   2
ATOM      2  O   UNL A   1      34.873  21.777  24.376  1.00  0.00    -0.462 OA
BRANCH   2   3
ATOM      3  C   UNL A   1      33.566  21.889  24.011  1.00  0.00     0.312 C 
ATOM      4  O   UNL A   1      32.845  20.936  23.732  1.00  0.00    -0.252 OA
BRANCH   3   5
ATOM      5  C   UNL A   1      33.059  23.323  24.169  1.00  0.00     0.124 C 
ATOM      6  C   UNL A   1      30.682  23.848  23.916  1.00  0.00     0.109 C 
ATOM      7  C   UNL A   1      31.080  23.782  25.350  1.00  0.00    -0.006 C 
ATOM      8  C   UNL A   1      32.015  23.802  23.160  1.00  0.00     0.049 C 
ATOM      9  C   UNL A   1      32.376  23.495  25.492  1.00  0.00    -0.014 C 
BRANCH   6  10
ATOM     10  N   UNL A   1      29.957  25.076  23.694  1.00  0.00    -0.315 N 
ATOM     11  O   UNL A   1      29.554  27.225  23.218  1.00  0.00    -0.224 OA
ATOM     12  C   UNL A   1      30.364  26.379  23.593  1.00  0.00     0.413 C 
ATOM     13  H   UNL A   1      28.984  24.953  23.598  1.00  0.00     0.167 HD
BRANCH  12  14
ATOM     14  O   UNL A   1      31.692  26.756  23.857  1.00  0.00    -0.410 OA
BRANCH  14  15
ATOM     15  C   UNL A   1      32.173  27.273  25.072  1.00  0.00     0.132 A 
ATOM     16  C   UNL A   1      33.492  27.711  25.171  1.00  0.00     0.047 A 
ATOM     17  C   UNL A   1      31.288  27.347  26.146  1.00  0.00     0.047 A 
ATOM     18  C   UNL A   1      33.911  28.307  26.359  1.00  0.00     0.004 A 
ATOM     19  C   UNL A   1      31.710  27.958  27.323  1.00  0.00     0.004 A 
ATOM     20  C   UNL A   1      33.017  28.445  27.427  1.00  0.00     0.000 A 
ENDBRANCH  14  15
ENDBRANCH  12  14
ENDBRANCH   6  10
ENDBRANCH   3   5
ENDBRANCH   2   3
ENDBRANCH   1   2
BRANCH   1  21
ATOM     21  C   UNL A   1      36.666  20.257  24.987  1.00  0.00     0.275 C 
BRANCH  21  22
ATOM     22  O   UNL A   1      37.537  21.389  25.181  1.00  0.00    -0.458 OA
BRANCH  22  23
ATOM     23  C   UNL A   1      38.715  21.095  25.776  1.00  0.00     0.338 C 
ATOM     24  O   UNL A   1      39.314  20.029  25.746  1.00  0.00    -0.246 OA
BRANCH  23  25
ATOM     25  C   UNL A   1      39.259  22.279  26.450  1.00  0.00     0.060 A 
ATOM     26  C   UNL A   1      38.738  23.535  26.140  1.00  0.00     0.016 A 
ATOM     27  C   UNL A   1      40.404  22.163  27.237  1.00  0.00     0.016 A 
ATOM     28  C   UNL A   1      39.437  24.681  26.503  1.00  0.00     0.010 A 
ATOM     29  C   UNL A   1      41.032  23.321  27.706  1.00  0.00     0.010 A 
ATOM     30  C   UNL A   1      40.583  24.594  27.307  1.00  0.00    -0.014 A 
BRANCH  30  31
ATOM     31  C   UNL A   1      41.317  25.828  27.705  1.00  0.00     0.031 A 
ATOM     32  C   UNL A   1      40.640  26.879  28.547  1.00  0.00     0.074 A 
ATOM     33  C   UNL A   1      42.594  26.007  27.312  1.00  0.00     0.049 A 
ATOM     34  N   UNL A   1      41.040  28.090  28.842  1.00  0.00    -0.248 NA
ATOM     35  C   UNL A   1      39.329  26.527  29.109  1.00  0.00     0.031 C 
ATOM     36  C   UNL A   1      43.378  25.058  26.518  1.00  0.00     0.029 A 
ATOM     37  N   UNL A   1      43.460  27.049  27.529  1.00  0.00    -0.354 N 
ATOM     38  C   UNL A   1      40.003  28.668  29.570  1.00  0.00     0.074 A 
ATOM     39  C   UNL A   1      38.955  27.672  29.660  1.00  0.00     0.031 C 
ATOM     40  C   UNL A   1      44.615  25.541  26.347  1.00  0.00     0.029 A 
ATOM     41  C   UNL A   1      44.688  26.873  26.934  1.00  0.00     0.049 A 
ATOM     42  H   UNL A   1      43.228  27.845  28.060  1.00  0.00     0.167 HD
ATOM     43  C   UNL A   1      39.935  29.913  30.109  1.00  0.00     0.034 A 
ATOM     44  C   UNL A   1      45.740  27.706  26.821  1.00  0.00     0.034 A 
ATOM     45  C   UNL A   1      41.014  30.872  30.050  1.00  0.00     0.049 A 
ATOM     46  C   UNL A   1      45.643  29.082  27.414  1.00  0.00     0.074 A 
ATOM     47  C   UNL A   1      41.069  32.146  30.590  1.00  0.00     0.029 A 
ATOM     48  N   UNL A   1      42.233  30.661  29.415  1.00  0.00    -0.354 N 
ATOM     49  N   UNL A   1      44.636  29.636  28.049  1.00  0.00    -0.248 NA
ATOM     50  C   UNL A   1      46.817  29.949  27.262  1.00  0.00     0.031 C 
ATOM     51  C   UNL A   1      42.296  32.723  30.237  1.00  0.00     0.029 A 
ATOM     52  C   UNL A   1      43.034  31.788  29.529  1.00  0.00     0.049 A 
ATOM     53  H   UNL A   1      42.490  29.832  28.952  1.00  0.00     0.167 HD
ATOM     54  C   UNL A   1      45.054  30.922  28.368  1.00  0.00     0.074 A 
ATOM     55  C   UNL A   1      46.413  31.050  27.880  1.00  0.00     0.031 C 
ATOM     56  C   UNL A   1      44.373  31.910  29.004  1.00  0.00     0.034 A 
BRANCH  43  57
ATOM     57  C   UNL A   1      38.625  30.321  30.743  1.00  0.00     0.023 A 
ATOM     58  C   UNL A   1      37.589  30.923  30.007  1.00  0.00     0.031 A 
ATOM     59  C   UNL A   1      38.434  30.157  32.127  1.00  0.00     0.131 A 
ATOM     60  C   UNL A   1      36.454  31.416  30.670  1.00  0.00     0.055 A 
ATOM     61  C   UNL A   1      37.266  30.575  32.768  1.00  0.00     0.041 A 
ATOM     62  F   UNL A   1      39.394  29.606  32.889  1.00  0.00    -0.206 F 
ATOM     63  C   UNL A   1      36.275  31.226  32.042  1.00  0.00     0.022 A 
BRANCH  60  64
ATOM     64  S   UNL A   1      35.295  32.461  29.743  1.00  0.00     0.124 S 
ATOM     65  O   UNL A   1      34.367  32.877  30.792  1.00  0.00    -0.237 OA
ATOM     66  O   UNL A   1      36.167  33.499  29.208  1.00  0.00    -0.237 OA
ATOM     67  O   UNL A   1      34.729  31.548  28.751  1.00  0.00    -0.744 OA
ENDBRANCH  60  64
ENDBRANCH  43  57
BRANCH  44  68
ATOM     68  C   UNL A   1      46.938  27.279  26.048  1.00  0.00     0.023 A 
ATOM     69  C   UNL A   1      47.120  27.666  24.713  1.00  0.00     0.031 A 
ATOM     70  C   UNL A   1      47.933  26.490  26.655  1.00  0.00     0.131 A 
ATOM     71  C   UNL A   1      48.267  27.249  24.020  1.00  0.00     0.055 A 
ATOM     72  C   UNL A   1      49.091  26.114  25.974  1.00  0.00     0.041 A 
ATOM     73  F   UNL A   1      47.808  26.105  27.934  1.00  0.00    -0.206 F 
ATOM     74  C   UNL A   1      49.260  26.489  24.645  1.00  0.00     0.022 A 
BRANCH  71  75
ATOM     75  S   UNL A   1      48.435  27.694  22.270  1.00  0.00     0.124 S 
ATOM     76  O   UNL A   1      48.572  26.385  21.642  1.00  0.00    -0.237 OA
ATOM     77  O   UNL A   1      47.186  28.403  22.014  1.00  0.00    -0.237 OA
ATOM     78  O   UNL A   1      49.636  28.527  22.246  1.00  0.00    -0.744 OA
ENDBRANCH  71  75
ENDBRANCH  44  68
BRANCH  56  79
ATOM     79  C   UNL A   1      45.113  33.207  29.211  1.00  0.00     0.023 A 
ATOM     80  C   UNL A   1      45.185  34.178  28.197  1.00  0.00     0.031 A 
ATOM     81  C   UNL A   1      45.783  33.454  30.421  1.00  0.00     0.131 A 
ATOM     82  C   UNL A   1      45.954  35.334  28.394  1.00  0.00     0.055 A 
ATOM     83  C   UNL A   1      46.507  34.629  30.629  1.00  0.00     0.041 A 
ATOM     84  F   UNL A   1      45.749  32.556  31.417  1.00  0.00    -0.206 F 
ATOM     85  C   UNL A   1      46.606  35.571  29.607  1.00  0.00     0.022 A 
BRANCH  82  86
ATOM     86  S   UNL A   1      46.164  36.487  27.010  1.00  0.00     0.124 S 
ATOM     87  O   UNL A   1      47.541  36.934  27.193  1.00  0.00    -0.237 OA
ATOM     88  O   UNL A   1      45.918  35.633  25.852  1.00  0.00    -0.237 OA
ATOM     89  O   UNL A   1      45.144  37.505  27.255  1.00  0.00    -0.744 OA
ENDBRANCH  82  86
ENDBRANCH  56  79
ENDBRANCH  30  31
ENDBRANCH  23  25
ENDBRANCH  22  23
ENDBRANCH  21  22
ENDBRANCH   1  21
TORSDOF 17
ENDMDL
MODEL 3
REMARK VINA RESULT:     -11.5      4.746     10.028
REMARK SMILES O=C(N[C@@H]1C=C[C@@H](C(=O)OCCOC(=O)c2ccc(-c3c4nc(c(-c5cc(S(=O)(=O)[O-])ccc5F)c5ccc([nH]5)c(-c5cc(S(=O)(=O)[O-])ccc5F)c5nc(c(-c6cc(S(=O)(=O)[O-])ccc6F)c6ccc3[nH]6)C=C5)C=C4)cc2)C1)Oc1ccccc1
REMARK SMILES IDX 11 1 10 2 8 3 9 4 7 5 4 6 5 7 79 8 6 9 3 10 1 11 2 12 80 14
REMARK SMILES IDX 81 15 82 16 86 17 83 18 85 19 84 20 12 21 13 22 14 23 15 24
REMARK SMILES IDX 16 25 17 26 78 27 18 28 77 29 19 30 20 31 21 32 71 33 22 34
REMARK SMILES IDX 76 35 70 36 72 37 23 38 75 39 69 40 68 41 24 43 56 44 36 45
REMARK SMILES IDX 55 46 37 47 40 48 54 49 73 50 38 51 39 52 53 54 74 55 41 56
REMARK SMILES IDX 25 57 26 58 34 59 27 60 33 61 35 62 32 63 28 64 29 65 30 66
REMARK SMILES IDX 31 67 57 68 58 69 66 70 59 71 65 72 67 73 64 74 60 75 61 76
REMARK SMILES IDX 62 77 63 78 42 79 43 80 51 81 44 82 50 83 52 84 49 85 45 86
REMARK SMILES IDX 46 87 47 88 48 89
REMARK H PARENT 3 13 72 42 40 53
REMARK Flexibility Score: inf
ROOT
ATOM      1  C   UNL A   1      35.076  20.706  24.947  1.00  0.00     0.274 C 
ENDROOT
BRANCH   1   2
ATOM      2  O   UNL A   1      34.943  22.082  25.351  1.00  0.00    -0.462 OA
BRANCH   2   3
ATOM      3  C   UNL A   1      34.172  22.316  26.449  1.00  0.00     0.312 C 
ATOM      4  O   UNL A   1      34.289  21.716  27.512  1.00  0.00    -0.252 OA
BRANCH   3   5
ATOM      5  C   UNL A   1      33.272  23.537  26.253  1.00  0.00     0.124 C 
ATOM      6  C   UNL A   1      31.136  23.343  25.075  1.00  0.00     0.109 C 
ATOM      7  C   UNL A   1      30.946  23.384  26.552  1.00  0.00    -0.006 C 
ATOM      8  C   UNL A   1      32.614  23.697  24.882  1.00  0.00     0.049 C 
ATOM      9  C   UNL A   1      32.109  23.488  27.198  1.00  0.00    -0.014 C 
BRANCH   6  10
ATOM     10  N   UNL A   1      30.248  24.306  24.468  1.00  0.00    -0.315 N 
ATOM     11  O   UNL A   1      29.542  26.179  23.467  1.00  0.00    -0.224 OA
ATOM     12  C   UNL A   1      30.404  25.629  24.150  1.00  0.00     0.413 C 
ATOM     13  H   UNL A   1      29.360  23.944  24.243  1.00  0.00     0.167 HD
BRANCH  12  14
ATOM     14  O   UNL A   1      31.547  26.347  24.540  1.00  0.00    -0.410 OA
BRANCH  14  15
ATOM     15  C   UNL A   1      31.566  27.455  25.404  1.00  0.00     0.132 A 
ATOM     16  C   UNL A   1      31.576  27.263  26.784  1.00  0.00     0.047 A 
ATOM     17  C   UNL A   1      31.595  28.727  24.836  1.00  0.00     0.047 A 
ATOM     18  C   UNL A   1      31.692  28.377  27.614  1.00  0.00     0.004 A 
ATOM     19  C   UNL A   1      31.728  29.832  25.671  1.00  0.00     0.004 A 
ATOM     20  C   UNL A   1      31.784  29.657  27.057  1.00  0.00     0.000 A 
ENDBRANCH  14  15
ENDBRANCH  12  14
ENDBRANCH   6  10
ENDBRANCH   3   5
ENDBRANCH   2   3
ENDBRANCH   1   2
BRANCH   1  21
ATOM     21  C   UNL A   1      36.545  20.288  25.010  1.00  0.00     0.275 C 
BRANCH  21  22
ATOM     22  O   UNL A   1      37.391  21.433  25.234  1.00  0.00    -0.458 OA
BRANCH  22  23
ATOM     23  C   UNL A   1      38.601  21.141  25.763  1.00  0.00     0.338 C 
ATOM     24  O   UNL A   1      39.217  20.088  25.664  1.00  0.00    -0.246 OA
BRANCH  23  25
ATOM     25  C   UNL A   1      39.154  22.310  26.455  1.00  0.00     0.060 A 
ATOM     26  C   UNL A   1      38.683  23.579  26.124  1.00  0.00     0.016 A 
ATOM     27  C   UNL A   1      40.265  22.162  27.284  1.00  0.00     0.016 A 
ATOM     28  C   UNL A   1      39.402  24.705  26.512  1.00  0.00     0.010 A 
ATOM     29  C   UNL A   1      40.909  23.301  27.776  1.00  0.00     0.010 A 
ATOM     30  C   UNL A   1      40.514  24.585  27.358  1.00  0.00    -0.014 A 
BRANCH  30  31
ATOM     31  C   UNL A   1      41.269  25.798  27.782  1.00  0.00     0.031 A 
ATOM     32  C   UNL A   1      40.597  26.864  28.610  1.00  0.00     0.074 A 
ATOM     33  C   UNL A   1      42.560  25.945  27.425  1.00  0.00     0.049 A 
ATOM     34  N   UNL A   1      41.020  28.062  28.922  1.00  0.00    -0.248 NA
ATOM     35  C   UNL A   1      39.263  26.544  29.135  1.00  0.00     0.031 C 
ATOM     36  C   UNL A   1      43.340  24.978  26.648  1.00  0.00     0.029 A 
ATOM     37  N   UNL A   1      43.448  26.962  27.670  1.00  0.00    -0.354 N 
ATOM     38  C   UNL A   1      39.979  28.665  29.624  1.00  0.00     0.074 A 
ATOM     39  C   UNL A   1      38.904  27.697  29.680  1.00  0.00     0.031 C 
ATOM     40  C   UNL A   1      44.595  25.429  26.513  1.00  0.00     0.029 A 
ATOM     41  C   UNL A   1      44.687  26.757  27.108  1.00  0.00     0.049 A 
ATOM     42  H   UNL A   1      43.222  27.762  28.198  1.00  0.00     0.167 HD
ATOM     43  C   UNL A   1      39.930  29.909  30.166  1.00  0.00     0.034 A 
ATOM     44  C   UNL A   1      45.762  27.562  27.028  1.00  0.00     0.034 A 
ATOM     45  C   UNL A   1      41.035  30.840  30.141  1.00  0.00     0.049 A 
ATOM     46  C   UNL A   1      45.686  28.937  27.625  1.00  0.00     0.074 A 
ATOM     47  C   UNL A   1      41.109  32.109  30.689  1.00  0.00     0.029 A 
ATOM     48  N   UNL A   1      42.265  30.599  29.539  1.00  0.00    -0.354 N 
ATOM     49  N   UNL A   1      44.676  29.516  28.235  1.00  0.00    -0.248 NA
ATOM     50  C   UNL A   1      46.886  29.773  27.509  1.00  0.00     0.031 C 
ATOM     51  C   UNL A   1      42.360  32.655  30.372  1.00  0.00     0.029 A 
ATOM     52  C   UNL A   1      43.092  31.704  29.680  1.00  0.00     0.049 A 
ATOM     53  H   UNL A   1      42.512  29.765  29.079  1.00  0.00     0.167 HD
ATOM     54  C   UNL A   1      45.119  30.789  28.570  1.00  0.00     0.074 A 
ATOM     55  C   UNL A   1      46.495  30.883  28.121  1.00  0.00     0.031 C 
ATOM     56  C   UNL A   1      44.448  31.792  29.193  1.00  0.00     0.034 A 
BRANCH  43  57
ATOM     57  C   UNL A   1      38.614  30.350  30.766  1.00  0.00     0.023 A 
ATOM     58  C   UNL A   1      37.634  31.022  30.015  1.00  0.00     0.031 A 
ATOM     59  C   UNL A   1      38.363  30.142  32.135  1.00  0.00     0.131 A 
ATOM     60  C   UNL A   1      36.495  31.539  30.654  1.00  0.00     0.055 A 
ATOM     61  C   UNL A   1      37.189  30.586  32.747  1.00  0.00     0.041 A 
ATOM     62  F   UNL A   1      39.268  29.523  32.910  1.00  0.00    -0.206 F 
ATOM     63  C   UNL A   1      36.255  31.306  32.010  1.00  0.00     0.022 A 
BRANCH  60  64
ATOM     64  S   UNL A   1      35.417  32.666  29.725  1.00  0.00     0.124 S 
ATOM     65  O   UNL A   1      34.297  32.831  30.647  1.00  0.00    -0.237 OA
ATOM     66  O   UNL A   1      36.271  33.833  29.538  1.00  0.00    -0.237 OA
ATOM     67  O   UNL A   1      35.106  31.918  28.509  1.00  0.00    -0.744 OA
ENDBRANCH  60  64
ENDBRANCH  43  57
BRANCH  44  68
ATOM     68  C   UNL A   1      46.970  27.107  26.287  1.00  0.00     0.023 A 
ATOM     69  C   UNL A   1      48.046  26.498  26.949  1.00  0.00     0.031 A 
ATOM     70  C   UNL A   1      47.048  27.259  24.889  1.00  0.00     0.131 A 
ATOM     71  C   UNL A   1      49.165  26.076  26.214  1.00  0.00     0.055 A 
ATOM     72  C   UNL A   1      48.144  26.800  24.159  1.00  0.00     0.041 A 
ATOM     73  F   UNL A   1      46.038  27.826  24.211  1.00  0.00    -0.206 F 
ATOM     74  C   UNL A   1      49.214  26.209  24.823  1.00  0.00     0.022 A 
BRANCH  71  75
ATOM     75  S   UNL A   1      50.576  25.369  27.107  1.00  0.00     0.124 S 
ATOM     76  O   UNL A   1      50.997  26.492  27.935  1.00  0.00    -0.237 OA
ATOM     77  O   UNL A   1      49.961  24.248  27.809  1.00  0.00    -0.237 OA
ATOM     78  O   UNL A   1      51.502  24.998  26.038  1.00  0.00    -0.744 OA
ENDBRANCH  71  75
ENDBRANCH  44  68
BRANCH  56  79
ATOM     79  C   UNL A   1      45.216  33.068  29.425  1.00  0.00     0.023 A 
ATOM     80  C   UNL A   1      45.119  34.153  28.537  1.00  0.00     0.031 A 
ATOM     81  C   UNL A   1      46.081  33.182  30.528  1.00  0.00     0.131 A 
ATOM     82  C   UNL A   1      45.915  35.291  28.739  1.00  0.00     0.055 A 
ATOM     83  C   UNL A   1      46.832  34.337  30.750  1.00  0.00     0.041 A 
ATOM     84  F   UNL A   1      46.212  32.172  31.401  1.00  0.00    -0.206 F 
ATOM     85  C   UNL A   1      46.761  35.394  29.845  1.00  0.00     0.022 A 
BRANCH  82  86
ATOM     86  S   UNL A   1      45.893  36.601  27.486  1.00  0.00     0.124 S 
ATOM     87  O   UNL A   1      44.549  36.470  26.932  1.00  0.00    -0.237 OA
ATOM     88  O   UNL A   1      46.142  37.799  28.281  1.00  0.00    -0.237 OA
ATOM     89  O   UNL A   1      46.975  36.226  26.578  1.00  0.00    -0.744 OA
ENDBRANCH  82  86
ENDBRANCH  56  79
ENDBRANCH  30  31
ENDBRANCH  23  25
ENDBRANCH  22  23
ENDBRANCH  21  22
ENDBRANCH   1  21
TORSDOF 17
ENDMDL
