MODEL 1
REMARK VINA RESULT:      -9.9      0.000      0.000
REMARK SMILES C[C@]([NH3+])(C(=O)OCCOC(=O)c1ccc(-c2c3nc(c(-c4cc(S(=O)(=O)[O-])ccc4F)c4ccc([nH]4)c(-c4cc(S(=O)(=O)[O-])ccc4F)c4nc(c(-c5cc(S(=O)(=O)[O-])ccc5F)c5ccc2[nH]5)C=C4)C=C3)cc1)c1ccc(F)c(Br)c1
REMARK SMILES IDX 8 1 7 2 6 3 4 4 5 5 2 6 1 7 75 8 76 9 82 10 77 11 80 12
REMARK SMILES IDX 78 13 81 14 79 15 3 16 9 20 10 21 11 22 12 23 13 24 74 25
REMARK SMILES IDX 14 26 73 27 15 28 16 29 17 30 67 31 18 32 72 33 66 34 68 35
REMARK SMILES IDX 19 36 71 37 65 38 64 39 20 41 52 42 32 43 51 44 33 45 36 46
REMARK SMILES IDX 50 47 69 48 34 49 35 50 49 52 70 53 37 54 21 55 22 56 30 57
REMARK SMILES IDX 23 58 29 59 31 60 28 61 24 62 25 63 26 64 27 65 53 66 54 67
REMARK SMILES IDX 62 68 55 69 61 70 63 71 60 72 56 73 57 74 58 75 59 76 38 77
REMARK SMILES IDX 39 78 47 79 40 80 46 81 48 82 45 83 41 84 42 85 43 86 44 87
REMARK H PARENT 3 17 3 18 3 19 68 40 36 51
REMARK Flexibility Score: inf
ROOT
ATOM      1  C   UNL A   1      32.917  33.812  28.236  1.00  0.00     0.275 C 
ENDROOT
BRANCH   1   2
ATOM      2  C   UNL A   1      33.306  34.983  29.139  1.00  0.00     0.274 C 
BRANCH   2   3
ATOM      3  O   UNL A   1      34.379  34.607  30.026  1.00  0.00    -0.457 OA
BRANCH   3   4
ATOM      4  C   UNL A   1      34.181  34.795  31.368  1.00  0.00     0.372 C 
ATOM      5  O   UNL A   1      33.564  35.743  31.839  1.00  0.00    -0.244 OA
BRANCH   4   6
ATOM      6  C   UNL A   1      34.899  33.682  32.214  1.00  0.00     0.215 C 
ATOM      7  C   UNL A   1      34.777  32.367  31.422  1.00  0.00     0.098 C 
BRANCH   6   8
ATOM      8  C   UNL A   1      36.385  34.022  32.460  1.00  0.00     0.025 A 
ATOM      9  C   UNL A   1      36.885  34.163  33.773  1.00  0.00     0.014 A 
ATOM     10  C   UNL A   1      37.306  34.175  31.399  1.00  0.00     0.029 A 
ATOM     11  C   UNL A   1      38.233  34.446  34.014  1.00  0.00     0.041 A 
ATOM     12  C   UNL A   1      38.657  34.447  31.644  1.00  0.00     0.054 A 
ATOM     13  C   UNL A   1      39.112  34.590  32.947  1.00  0.00     0.137 A 
ATOM     14  Br  UNL A   1      39.857  34.571  30.188  1.00  0.00    -0.048 Br
ATOM     15  F   UNL A   1      40.404  34.838  33.206  1.00  0.00    -0.206 F 
ENDBRANCH   6   8
BRANCH   6  16
ATOM     16  N   UNL A   1      34.166  33.469  33.496  1.00  0.00    -0.340 N 
ATOM     17  H   UNL A   1      34.381  32.541  33.860  1.00  0.00     0.345 HD
ATOM     18  H   UNL A   1      33.161  33.545  33.330  1.00  0.00     0.345 HD
ATOM     19  H   UNL A   1      34.452  34.175  34.173  1.00  0.00     0.345 HD
ENDBRANCH   6  16
ENDBRANCH   4   6
ENDBRANCH   3   4
ENDBRANCH   2   3
ENDBRANCH   1   2
BRANCH   1  20
ATOM     20  O   UNL A   1      34.086  33.161  27.709  1.00  0.00    -0.458 OA
BRANCH  20  21
ATOM     21  C   UNL A   1      34.009  31.812  27.634  1.00  0.00     0.338 C 
ATOM     22  O   UNL A   1      33.086  31.149  27.194  1.00  0.00    -0.246 OA
BRANCH  21  23
ATOM     23  C   UNL A   1      35.308  31.240  28.013  1.00  0.00     0.060 A 
ATOM     24  C   UNL A   1      35.336  29.887  28.331  1.00  0.00     0.016 A 
ATOM     25  C   UNL A   1      36.448  32.026  28.172  1.00  0.00     0.016 A 
ATOM     26  C   UNL A   1      36.476  29.329  28.899  1.00  0.00     0.010 A 
ATOM     27  C   UNL A   1      37.620  31.440  28.674  1.00  0.00     0.010 A 
ATOM     28  C   UNL A   1      37.635  30.092  29.080  1.00  0.00    -0.014 A 
BRANCH  28  29
ATOM     29  C   UNL A   1      38.815  29.480  29.758  1.00  0.00     0.031 A 
ATOM     30  C   UNL A   1      39.183  29.904  31.156  1.00  0.00     0.074 A 
ATOM     31  C   UNL A   1      39.513  28.492  29.162  1.00  0.00     0.049 A 
ATOM     32  N   UNL A   1      40.254  29.622  31.854  1.00  0.00    -0.248 NA
ATOM     33  C   UNL A   1      38.227  30.776  31.854  1.00  0.00     0.031 C 
ATOM     34  C   UNL A   1      39.225  27.925  27.843  1.00  0.00     0.029 A 
ATOM     35  N   UNL A   1      40.595  27.767  29.600  1.00  0.00    -0.354 N 
ATOM     36  C   UNL A   1      40.132  30.331  33.045  1.00  0.00     0.074 A 
ATOM     37  C   UNL A   1      38.880  31.057  32.972  1.00  0.00     0.031 C 
ATOM     38  C   UNL A   1      40.064  26.904  27.608  1.00  0.00     0.029 A 
ATOM     39  C   UNL A   1      41.013  26.804  28.710  1.00  0.00     0.049 A 
ATOM     40  H   UNL A   1      41.030  27.922  30.470  1.00  0.00     0.167 HD
ATOM     41  C   UNL A   1      40.990  30.379  34.094  1.00  0.00     0.034 A 
ATOM     42  C   UNL A   1      42.066  25.963  28.752  1.00  0.00     0.034 A 
ATOM     43  C   UNL A   1      42.203  29.600  34.179  1.00  0.00     0.049 A 
ATOM     44  C   UNL A   1      43.014  26.045  29.918  1.00  0.00     0.074 A 
ATOM     45  C   UNL A   1      43.153  29.583  35.188  1.00  0.00     0.029 A 
ATOM     46  N   UNL A   1      42.621  28.678  33.229  1.00  0.00    -0.354 N 
ATOM     47  N   UNL A   1      42.960  26.822  30.972  1.00  0.00    -0.248 NA
ATOM     48  C   UNL A   1      44.185  25.158  29.880  1.00  0.00     0.031 C 
ATOM     49  C   UNL A   1      44.165  28.685  34.826  1.00  0.00     0.029 A 
ATOM     50  C   UNL A   1      43.820  28.099  33.620  1.00  0.00     0.049 A 
ATOM     51  H   UNL A   1      42.138  28.466  32.398  1.00  0.00     0.167 HD
ATOM     52  C   UNL A   1      44.094  26.526  31.720  1.00  0.00     0.074 A 
ATOM     53  C   UNL A   1      44.798  25.476  31.010  1.00  0.00     0.031 C 
ATOM     54  C   UNL A   1      44.522  27.078  32.883  1.00  0.00     0.034 A 
BRANCH  41  55
ATOM     55  C   UNL A   1      40.683  31.367  35.193  1.00  0.00     0.023 A 
ATOM     56  C   UNL A   1      39.639  31.172  36.113  1.00  0.00     0.031 A 
ATOM     57  C   UNL A   1      41.436  32.552  35.290  1.00  0.00     0.131 A 
ATOM     58  C   UNL A   1      39.336  32.177  37.047  1.00  0.00     0.055 A 
ATOM     59  C   UNL A   1      41.174  33.515  36.266  1.00  0.00     0.041 A 
ATOM     60  F   UNL A   1      42.431  32.802  34.423  1.00  0.00    -0.206 F 
ATOM     61  C   UNL A   1      40.110  33.337  37.142  1.00  0.00     0.022 A 
BRANCH  58  62
ATOM     62  S   UNL A   1      37.834  32.012  38.051  1.00  0.00     0.124 S 
ATOM     63  O   UNL A   1      37.402  30.658  37.715  1.00  0.00    -0.237 OA
ATOM     64  O   UNL A   1      38.335  32.207  39.405  1.00  0.00    -0.237 OA
ATOM     65  O   UNL A   1      36.966  33.076  37.548  1.00  0.00    -0.744 OA
ENDBRANCH  58  62
ENDBRANCH  41  55
BRANCH  42  66
ATOM     66  C   UNL A   1      42.332  25.032  27.619  1.00  0.00     0.023 A 
ATOM     67  C   UNL A   1      41.767  23.748  27.583  1.00  0.00     0.031 A 
ATOM     68  C   UNL A   1      43.186  25.410  26.567  1.00  0.00     0.131 A 
ATOM     69  C   UNL A   1      42.083  22.877  26.529  1.00  0.00     0.055 A 
ATOM     70  C   UNL A   1      43.459  24.557  25.497  1.00  0.00     0.041 A 
ATOM     71  F   UNL A   1      43.754  26.626  26.555  1.00  0.00    -0.206 F 
ATOM     72  C   UNL A   1      42.913  23.278  25.478  1.00  0.00     0.022 A 
BRANCH  69  73
ATOM     73  S   UNL A   1      41.439  21.181  26.573  1.00  0.00     0.124 S 
ATOM     74  O   UNL A   1      42.654  20.396  26.378  1.00  0.00    -0.237 OA
ATOM     75  O   UNL A   1      40.840  21.117  27.901  1.00  0.00    -0.237 OA
ATOM     76  O   UNL A   1      40.491  21.148  25.462  1.00  0.00    -0.744 OA
ENDBRANCH  69  73
ENDBRANCH  42  66
BRANCH  54  77
ATOM     77  C   UNL A   1      45.809  26.539  33.449  1.00  0.00     0.023 A 
ATOM     78  C   UNL A   1      45.825  25.398  34.270  1.00  0.00     0.031 A 
ATOM     79  C   UNL A   1      47.026  27.190  33.186  1.00  0.00     0.131 A 
ATOM     80  C   UNL A   1      47.032  24.965  34.836  1.00  0.00     0.055 A 
ATOM     81  C   UNL A   1      48.231  26.729  33.719  1.00  0.00     0.041 A 
ATOM     82  F   UNL A   1      47.062  28.285  32.411  1.00  0.00    -0.206 F 
ATOM     83  C   UNL A   1      48.237  25.617  34.558  1.00  0.00     0.022 A 
BRANCH  80  84
ATOM     84  S   UNL A   1      47.001  23.573  36.000  1.00  0.00     0.124 S 
ATOM     85  O   UNL A   1      45.604  23.155  35.937  1.00  0.00    -0.237 OA
ATOM     86  O   UNL A   1      47.970  22.653  35.414  1.00  0.00    -0.237 OA
ATOM     87  O   UNL A   1      47.411  24.177  37.267  1.00  0.00    -0.744 OA
ENDBRANCH  80  84
ENDBRANCH  54  77
ENDBRANCH  28  29
ENDBRANCH  21  23
ENDBRANCH  20  21
ENDBRANCH   1  20
TORSDOF 16
ENDMDL
MODEL 2
REMARK VINA RESULT:      -9.9      6.795     10.326
REMARK SMILES C[C@]([NH3+])(C(=O)OCCOC(=O)c1ccc(-c2c3nc(c(-c4cc(S(=O)(=O)[O-])ccc4F)c4ccc([nH]4)c(-c4cc(S(=O)(=O)[O-])ccc4F)c4nc(c(-c5cc(S(=O)(=O)[O-])ccc5F)c5ccc2[nH]5)C=C4)C=C3)cc1)c1ccc(F)c(Br)c1
REMARK SMILES IDX 8 1 7 2 6 3 4 4 5 5 2 6 1 7 75 8 76 9 82 10 77 11 80 12
REMARK SMILES IDX 78 13 81 14 79 15 3 16 9 20 10 21 11 22 12 23 13 24 74 25
REMARK SMILES IDX 14 26 73 27 15 28 16 29 17 30 67 31 18 32 72 33 66 34 68 35
REMARK SMILES IDX 19 36 71 37 65 38 64 39 20 41 52 42 32 43 51 44 33 45 36 46
REMARK SMILES IDX 50 47 69 48 34 49 35 50 49 52 70 53 37 54 21 55 22 56 30 57
REMARK SMILES IDX 23 58 29 59 31 60 28 61 24 62 25 63 26 64 27 65 53 66 54 67
REMARK SMILES IDX 62 68 55 69 61 70 63 71 60 72 56 73 57 74 58 75 59 76 38 77
REMARK SMILES IDX 39 78 47 79 40 80 46 81 48 82 45 83 41 84 42 85 43 86 44 87
REMARK H PARENT 3 17 3 18 3 19 68 40 36 51
REMARK Flexibility Score: inf
ROOT
ATOM      1  C   UNL A   1      37.007  21.246  24.431  1.00  0.00     0.275 C 
ENDROOT
BRANCH   1   2
ATOM      2  C   UNL A   1      36.451  22.498  23.749  1.00  0.00     0.274 C 
BRANCH   2   3
ATOM      3  O   UNL A   1      35.011  22.516  23.818  1.00  0.00    -0.457 OA
BRANCH   3   4
ATOM      4  C   UNL A   1      34.443  22.922  24.997  1.00  0.00     0.372 C 
ATOM      5  O   UNL A   1      34.593  24.039  25.476  1.00  0.00    -0.244 OA
BRANCH   4   6
ATOM      6  C   UNL A   1      33.639  21.754  25.676  1.00  0.00     0.215 C 
ATOM      7  C   UNL A   1      32.395  22.385  26.329  1.00  0.00     0.098 C 
BRANCH   6   8
ATOM      8  C   UNL A   1      33.218  20.680  24.650  1.00  0.00     0.025 A 
ATOM      9  C   UNL A   1      32.362  21.006  23.574  1.00  0.00     0.014 A 
ATOM     10  C   UNL A   1      33.684  19.349  24.723  1.00  0.00     0.029 A 
ATOM     11  C   UNL A   1      31.990  20.051  22.623  1.00  0.00     0.041 A 
ATOM     12  C   UNL A   1      33.319  18.397  23.763  1.00  0.00     0.054 A 
ATOM     13  C   UNL A   1      32.468  18.750  22.724  1.00  0.00     0.137 A 
ATOM     14  Br  UNL A   1      34.031  16.649  23.870  1.00  0.00    -0.048 Br
ATOM     15  F   UNL A   1      32.115  17.860  21.786  1.00  0.00    -0.206 F 
ENDBRANCH   6   8
BRANCH   6  16
ATOM     16  N   UNL A   1      34.444  21.167  26.787  1.00  0.00    -0.340 N 
ATOM     17  H   UNL A   1      34.879  21.917  27.325  1.00  0.00     0.345 HD
ATOM     18  H   UNL A   1      35.169  20.562  26.400  1.00  0.00     0.345 HD
ATOM     19  H   UNL A   1      33.835  20.620  27.395  1.00  0.00     0.345 HD
ENDBRANCH   6  16
ENDBRANCH   4   6
ENDBRANCH   3   4
ENDBRANCH   2   3
ENDBRANCH   1   2
BRANCH   1  20
ATOM     20  O   UNL A   1      37.449  21.544  25.766  1.00  0.00    -0.458 OA
BRANCH  20  21
ATOM     21  C   UNL A   1      38.757  21.291  26.008  1.00  0.00     0.338 C 
ATOM     22  O   UNL A   1      39.397  20.314  25.660  1.00  0.00    -0.246 OA
BRANCH  21  23
ATOM     23  C   UNL A   1      39.364  22.478  26.626  1.00  0.00     0.060 A 
ATOM     24  C   UNL A   1      38.868  23.718  26.240  1.00  0.00     0.016 A 
ATOM     25  C   UNL A   1      40.468  22.391  27.471  1.00  0.00     0.016 A 
ATOM     26  C   UNL A   1      39.529  24.880  26.618  1.00  0.00     0.010 A 
ATOM     27  C   UNL A   1      41.088  23.571  27.913  1.00  0.00     0.010 A 
ATOM     28  C   UNL A   1      40.647  24.829  27.459  1.00  0.00    -0.014 A 
BRANCH  28  29
ATOM     29  C   UNL A   1      41.375  26.090  27.785  1.00  0.00     0.031 A 
ATOM     30  C   UNL A   1      40.734  27.121  28.678  1.00  0.00     0.074 A 
ATOM     31  C   UNL A   1      42.637  26.286  27.350  1.00  0.00     0.049 A 
ATOM     32  N   UNL A   1      41.121  28.343  28.947  1.00  0.00    -0.248 NA
ATOM     33  C   UNL A   1      39.481  26.731  29.340  1.00  0.00     0.031 C 
ATOM     34  C   UNL A   1      43.413  25.342  26.543  1.00  0.00     0.029 A 
ATOM     35  N   UNL A   1      43.503  27.334  27.550  1.00  0.00    -0.354 N 
ATOM     36  C   UNL A   1      40.130  28.888  29.757  1.00  0.00     0.074 A 
ATOM     37  C   UNL A   1      39.124  27.861  29.933  1.00  0.00     0.031 C 
ATOM     38  C   UNL A   1      44.653  25.823  26.371  1.00  0.00     0.029 A 
ATOM     39  C   UNL A   1      44.736  27.152  26.968  1.00  0.00     0.049 A 
ATOM     40  H   UNL A   1      43.263  28.140  28.062  1.00  0.00     0.167 HD
ATOM     41  C   UNL A   1      40.063  30.132  30.292  1.00  0.00     0.034 A 
ATOM     42  C   UNL A   1      45.801  27.974  26.884  1.00  0.00     0.034 A 
ATOM     43  C   UNL A   1      41.105  31.123  30.160  1.00  0.00     0.049 A 
ATOM     44  C   UNL A   1      45.699  29.356  27.470  1.00  0.00     0.074 A 
ATOM     45  C   UNL A   1      41.134  32.420  30.647  1.00  0.00     0.029 A 
ATOM     46  N   UNL A   1      42.315  30.919  29.512  1.00  0.00    -0.354 N 
ATOM     47  N   UNL A   1      44.698  29.907  28.114  1.00  0.00    -0.248 NA
ATOM     48  C   UNL A   1      46.859  30.238  27.289  1.00  0.00     0.031 C 
ATOM     49  C   UNL A   1      42.343  33.011  30.256  1.00  0.00     0.029 A 
ATOM     50  C   UNL A   1      43.091  32.067  29.573  1.00  0.00     0.049 A 
ATOM     51  H   UNL A   1      42.586  30.080  29.072  1.00  0.00     0.167 HD
ATOM     52  C   UNL A   1      45.104  31.205  28.405  1.00  0.00     0.074 A 
ATOM     53  C   UNL A   1      46.453  31.343  27.894  1.00  0.00     0.031 C 
ATOM     54  C   UNL A   1      44.421  32.196  29.030  1.00  0.00     0.034 A 
BRANCH  41  55
ATOM     55  C   UNL A   1      38.785  30.512  30.999  1.00  0.00     0.023 A 
ATOM     56  C   UNL A   1      37.708  31.122  30.335  1.00  0.00     0.031 A 
ATOM     57  C   UNL A   1      38.667  30.290  32.384  1.00  0.00     0.131 A 
ATOM     58  C   UNL A   1      36.587  31.547  31.068  1.00  0.00     0.055 A 
ATOM     59  C   UNL A   1      37.521  30.652  33.094  1.00  0.00     0.041 A 
ATOM     60  F   UNL A   1      39.674  29.732  33.075  1.00  0.00    -0.206 F 
ATOM     61  C   UNL A   1      36.479  31.297  32.439  1.00  0.00     0.022 A 
BRANCH  58  62
ATOM     62  S   UNL A   1      35.328  32.551  30.234  1.00  0.00     0.124 S 
ATOM     63  O   UNL A   1      34.284  32.623  31.252  1.00  0.00    -0.237 OA
ATOM     64  O   UNL A   1      36.043  33.791  29.959  1.00  0.00    -0.237 OA
ATOM     65  O   UNL A   1      34.982  31.758  29.055  1.00  0.00    -0.744 OA
ENDBRANCH  58  62
ENDBRANCH  41  55
BRANCH  42  66
ATOM     66  C   UNL A   1      47.023  27.550  26.144  1.00  0.00     0.023 A 
ATOM     67  C   UNL A   1      47.176  27.821  24.775  1.00  0.00     0.031 A 
ATOM     68  C   UNL A   1      48.047  26.839  26.796  1.00  0.00     0.131 A 
ATOM     69  C   UNL A   1      48.315  27.360  24.096  1.00  0.00     0.055 A 
ATOM     70  C   UNL A   1      49.198  26.424  26.127  1.00  0.00     0.041 A 
ATOM     71  F   UNL A   1      47.948  26.552  28.104  1.00  0.00    -0.206 F 
ATOM     72  C   UNL A   1      49.333  26.677  24.766  1.00  0.00     0.022 A 
BRANCH  69  73
ATOM     73  S   UNL A   1      48.426  27.614  22.303  1.00  0.00     0.124 S 
ATOM     74  O   UNL A   1      49.579  28.501  22.198  1.00  0.00    -0.237 OA
ATOM     75  O   UNL A   1      48.618  26.252  21.814  1.00  0.00    -0.237 OA
ATOM     76  O   UNL A   1      47.140  28.218  21.964  1.00  0.00    -0.744 OA
ENDBRANCH  69  73
ENDBRANCH  42  66
BRANCH  54  77
ATOM     77  C   UNL A   1      45.139  33.509  29.192  1.00  0.00     0.023 A 
ATOM     78  C   UNL A   1      44.933  34.571  28.295  1.00  0.00     0.031 A 
ATOM     79  C   UNL A   1      46.058  33.689  30.240  1.00  0.00     0.131 A 
ATOM     80  C   UNL A   1      45.670  35.755  28.436  1.00  0.00     0.055 A 
ATOM     81  C   UNL A   1      46.759  34.885  30.399  1.00  0.00     0.041 A 
ATOM     82  F   UNL A   1      46.292  32.704  31.121  1.00  0.00    -0.206 F 
ATOM     83  C   UNL A   1      46.575  35.923  29.489  1.00  0.00     0.022 A 
BRANCH  80  84
ATOM     84  S   UNL A   1      45.484  37.055  27.183  1.00  0.00     0.124 S 
ATOM     85  O   UNL A   1      45.784  38.261  27.949  1.00  0.00    -0.237 OA
ATOM     86  O   UNL A   1      46.475  36.670  26.184  1.00  0.00    -0.237 OA
ATOM     87  O   UNL A   1      44.092  36.922  26.756  1.00  0.00    -0.744 OA
ENDBRANCH  80  84
ENDBRANCH  54  77
ENDBRANCH  28  29
ENDBRANCH  21  23
ENDBRANCH  20  21
ENDBRANCH   1  20
TORSDOF 16
ENDMDL
MODEL 3
REMARK VINA RESULT:      -9.7      3.690      9.552
REMARK SMILES C[C@]([NH3+])(C(=O)OCCOC(=O)c1ccc(-c2c3nc(c(-c4cc(S(=O)(=O)[O-])ccc4F)c4ccc([nH]4)c(-c4cc(S(=O)(=O)[O-])ccc4F)c4nc(c(-c5cc(S(=O)(=O)[O-])ccc5F)c5ccc2[nH]5)C=C4)C=C3)cc1)c1ccc(F)c(Br)c1
REMARK SMILES IDX 8 1 7 2 6 3 4 4 5 5 2 6 1 7 75 8 76 9 82 10 77 11 80 12
REMARK SMILES IDX 78 13 81 14 79 15 3 16 9 20 10 21 11 22 12 23 13 24 74 25
REMARK SMILES IDX 14 26 73 27 15 28 16 29 17 30 67 31 18 32 72 33 66 34 68 35
REMARK SMILES IDX 19 36 71 37 65 38 64 39 20 41 52 42 32 43 51 44 33 45 36 46
REMARK SMILES IDX 50 47 69 48 34 49 35 50 49 52 70 53 37 54 21 55 22 56 30 57
REMARK SMILES IDX 23 58 29 59 31 60 28 61 24 62 25 63 26 64 27 65 53 66 54 67
REMARK SMILES IDX 62 68 55 69 61 70 63 71 60 72 56 73 57 74 58 75 59 76 38 77
REMARK SMILES IDX 39 78 47 79 40 80 46 81 48 82 45 83 41 84 42 85 43 86 44 87
REMARK H PARENT 3 17 3 18 3 19 68 40 36 51
REMARK Flexibility Score: inf
ROOT
ATOM      1  C   UNL A   1      31.407  29.897  25.932  1.00  0.00     0.275 C 
ENDROOT
BRANCH   1   2
ATOM      2  C   UNL A   1      31.021  29.647  24.473  1.00  0.00     0.274 C 
BRANCH   2   3
ATOM      3  O   UNL A   1      31.112  28.243  24.157  1.00  0.00    -0.457 OA
BRANCH   3   4
ATOM      4  C   UNL A   1      31.180  27.899  22.833  1.00  0.00     0.372 C 
ATOM      5  O   UNL A   1      30.329  28.204  22.006  1.00  0.00    -0.244 OA
BRANCH   4   6
ATOM      6  C   UNL A   1      32.446  27.017  22.535  1.00  0.00     0.215 C 
ATOM      7  C   UNL A   1      33.621  27.983  22.294  1.00  0.00     0.098 C 
BRANCH   6   8
ATOM      8  C   UNL A   1      32.768  26.066  23.708  1.00  0.00     0.025 A 
ATOM      9  C   UNL A   1      33.955  26.223  24.459  1.00  0.00     0.014 A 
ATOM     10  C   UNL A   1      31.890  25.031  24.098  1.00  0.00     0.029 A 
ATOM     11  C   UNL A   1      34.250  25.385  25.540  1.00  0.00     0.041 A 
ATOM     12  C   UNL A   1      32.182  24.201  25.187  1.00  0.00     0.054 A 
ATOM     13  C   UNL A   1      33.363  24.377  25.896  1.00  0.00     0.137 A 
ATOM     14  Br  UNL A   1      30.936  22.878  25.708  1.00  0.00    -0.048 Br
ATOM     15  F   UNL A   1      33.658  23.603  26.951  1.00  0.00    -0.206 F 
ENDBRANCH   6   8
BRANCH   6  16
ATOM     16  N   UNL A   1      32.251  26.268  21.259  1.00  0.00    -0.340 N 
ATOM     17  H   UNL A   1      32.949  26.569  20.579  1.00  0.00     0.345 HD
ATOM     18  H   UNL A   1      31.317  26.456  20.893  1.00  0.00     0.345 HD
ATOM     19  H   UNL A   1      32.353  25.269  21.432  1.00  0.00     0.345 HD
ENDBRANCH   6  16
ENDBRANCH   4   6
ENDBRANCH   3   4
ENDBRANCH   2   3
ENDBRANCH   1   2
BRANCH   1  20
ATOM     20  O   UNL A   1      32.809  30.196  26.045  1.00  0.00    -0.458 OA
BRANCH  20  21
ATOM     21  C   UNL A   1      33.113  31.218  26.879  1.00  0.00     0.338 C 
ATOM     22  O   UNL A   1      32.375  32.113  27.251  1.00  0.00    -0.246 OA
BRANCH  21  23
ATOM     23  C   UNL A   1      34.458  30.998  27.430  1.00  0.00     0.060 A 
ATOM     24  C   UNL A   1      34.827  29.684  27.695  1.00  0.00     0.016 A 
ATOM     25  C   UNL A   1      35.294  32.052  27.790  1.00  0.00     0.016 A 
ATOM     26  C   UNL A   1      35.990  29.418  28.408  1.00  0.00     0.010 A 
ATOM     27  C   UNL A   1      36.506  31.774  28.443  1.00  0.00     0.010 A 
ATOM     28  C   UNL A   1      36.849  30.454  28.792  1.00  0.00    -0.014 A 
BRANCH  28  29
ATOM     29  C   UNL A   1      38.051  30.139  29.619  1.00  0.00     0.031 A 
ATOM     30  C   UNL A   1      39.169  29.313  29.038  1.00  0.00     0.074 A 
ATOM     31  C   UNL A   1      38.184  30.652  30.860  1.00  0.00     0.049 A 
ATOM     32  N   UNL A   1      40.212  28.792  29.634  1.00  0.00    -0.248 NA
ATOM     33  C   UNL A   1      39.092  29.018  27.600  1.00  0.00     0.031 C 
ATOM     34  C   UNL A   1      37.219  31.532  31.523  1.00  0.00     0.029 A 
ATOM     35  N   UNL A   1      39.200  30.531  31.776  1.00  0.00    -0.354 N 
ATOM     36  C   UNL A   1      40.880  28.057  28.659  1.00  0.00     0.074 A 
ATOM     37  C   UNL A   1      40.121  28.201  27.434  1.00  0.00     0.031 C 
ATOM     38  C   UNL A   1      37.716  31.919  32.707  1.00  0.00     0.029 A 
ATOM     39  C   UNL A   1      38.987  31.241  32.936  1.00  0.00     0.049 A 
ATOM     40  H   UNL A   1      40.006  29.987  31.618  1.00  0.00     0.167 HD
ATOM     41  C   UNL A   1      42.015  27.323  28.782  1.00  0.00     0.034 A 
ATOM     42  C   UNL A   1      39.708  31.309  34.073  1.00  0.00     0.034 A 
ATOM     43  C   UNL A   1      42.794  27.242  29.994  1.00  0.00     0.049 A 
ATOM     44  C   UNL A   1      40.954  30.472  34.193  1.00  0.00     0.074 A 
ATOM     45  C   UNL A   1      43.949  26.515  30.234  1.00  0.00     0.029 A 
ATOM     46  N   UNL A   1      42.513  27.930  31.166  1.00  0.00    -0.354 N 
ATOM     47  N   UNL A   1      41.498  29.672  33.308  1.00  0.00    -0.248 NA
ATOM     48  C   UNL A   1      41.663  30.525  35.478  1.00  0.00     0.031 C 
ATOM     49  C   UNL A   1      44.340  26.732  31.562  1.00  0.00     0.029 A 
ATOM     50  C   UNL A   1      43.461  27.636  32.134  1.00  0.00     0.049 A 
ATOM     51  H   UNL A   1      41.750  28.540  31.292  1.00  0.00     0.167 HD
ATOM     52  C   UNL A   1      42.609  29.117  33.934  1.00  0.00     0.074 A 
ATOM     53  C   UNL A   1      42.674  29.698  35.260  1.00  0.00     0.031 C 
ATOM     54  C   UNL A   1      43.491  28.201  33.461  1.00  0.00     0.034 A 
BRANCH  41  55
ATOM     55  C   UNL A   1      42.428  26.488  27.594  1.00  0.00     0.023 A 
ATOM     56  C   UNL A   1      42.003  25.161  27.419  1.00  0.00     0.031 A 
ATOM     57  C   UNL A   1      43.306  27.032  26.637  1.00  0.00     0.131 A 
ATOM     58  C   UNL A   1      42.506  24.403  26.349  1.00  0.00     0.055 A 
ATOM     59  C   UNL A   1      43.747  26.295  25.537  1.00  0.00     0.041 A 
ATOM     60  F   UNL A   1      43.763  28.288  26.766  1.00  0.00    -0.206 F 
ATOM     61  C   UNL A   1      43.358  24.968  25.396  1.00  0.00     0.022 A 
BRANCH  58  62
ATOM     62  S   UNL A   1      42.139  22.627  26.289  1.00  0.00     0.124 S 
ATOM     63  O   UNL A   1      42.766  22.238  25.029  1.00  0.00    -0.237 OA
ATOM     64  O   UNL A   1      42.776  22.131  27.503  1.00  0.00    -0.237 OA
ATOM     65  O   UNL A   1      40.677  22.579  26.289  1.00  0.00    -0.744 OA
ENDBRANCH  58  62
ENDBRANCH  41  55
BRANCH  42  66
ATOM     66  C   UNL A   1      39.228  32.127  35.222  1.00  0.00     0.023 A 
ATOM     67  C   UNL A   1      38.576  31.536  36.315  1.00  0.00     0.031 A 
ATOM     68  C   UNL A   1      39.392  33.524  35.225  1.00  0.00     0.131 A 
ATOM     69  C   UNL A   1      38.087  32.342  37.355  1.00  0.00     0.055 A 
ATOM     70  C   UNL A   1      38.946  34.316  36.284  1.00  0.00     0.041 A 
ATOM     71  F   UNL A   1      40.007  34.139  34.203  1.00  0.00    -0.206 F 
ATOM     72  C   UNL A   1      38.281  33.726  37.354  1.00  0.00     0.022 A 
BRANCH  69  73
ATOM     73  S   UNL A   1      37.137  31.565  38.692  1.00  0.00     0.124 S 
ATOM     74  O   UNL A   1      38.028  31.744  39.833  1.00  0.00    -0.237 OA
ATOM     75  O   UNL A   1      35.915  32.362  38.700  1.00  0.00    -0.237 OA
ATOM     76  O   UNL A   1      36.974  30.187  38.237  1.00  0.00    -0.744 OA
ENDBRANCH  69  73
ENDBRANCH  42  66
BRANCH  54  77
ATOM     77  C   UNL A   1      44.599  27.789  34.393  1.00  0.00     0.023 A 
ATOM     78  C   UNL A   1      44.448  26.703  35.272  1.00  0.00     0.031 A 
ATOM     79  C   UNL A   1      45.806  28.507  34.419  1.00  0.00     0.131 A 
ATOM     80  C   UNL A   1      45.474  26.390  36.175  1.00  0.00     0.055 A 
ATOM     81  C   UNL A   1      46.840  28.165  35.291  1.00  0.00     0.041 A 
ATOM     82  F   UNL A   1      45.997  29.553  33.601  1.00  0.00    -0.206 F 
ATOM     83  C   UNL A   1      46.674  27.108  36.183  1.00  0.00     0.022 A 
BRANCH  80  84
ATOM     84  S   UNL A   1      45.196  25.072  37.391  1.00  0.00     0.124 S 
ATOM     85  O   UNL A   1      44.016  25.556  38.100  1.00  0.00    -0.237 OA
ATOM     86  O   UNL A   1      44.996  23.901  36.542  1.00  0.00    -0.237 OA
ATOM     87  O   UNL A   1      46.430  25.063  38.175  1.00  0.00    -0.744 OA
ENDBRANCH  80  84
ENDBRANCH  54  77
ENDBRANCH  28  29
ENDBRANCH  21  23
ENDBRANCH  20  21
ENDBRANCH   1  20
TORSDOF 16
ENDMDL
