MODEL 1
REMARK VINA RESULT:     -11.4      0.000      0.000
REMARK SMILES O=C(OCCOC(=O)c1cc(-c2ccc[nH]c2=O)ccc1Cl)c1ccc(-c2c3nc(c(-c4cc(S(=O)(=O)[O-])ccc4F)c4ccc([nH]4)c(-c4cc(S(=O)(=O)[O-])ccc4F)c4nc(c(-c5cc(S(=O)(=O)[O-])ccc5F)c5ccc2[nH]5)C=C4)C=C3)cc1
REMARK SMILES IDX 4 1 3 2 2 3 1 4 23 5 24 6 85 7 25 8 84 9 26 10 27 11 28 12
REMARK SMILES IDX 78 13 29 14 83 15 77 16 79 17 30 18 82 19 76 20 75 21 31 23
REMARK SMILES IDX 63 24 43 25 62 26 44 27 47 28 61 29 80 30 45 31 46 32 60 34
REMARK SMILES IDX 81 35 48 36 32 37 33 38 41 39 34 40 40 41 42 42 39 43 35 44
REMARK SMILES IDX 36 45 37 46 38 47 64 48 65 49 73 50 66 51 72 52 74 53 71 54
REMARK SMILES IDX 67 55 68 56 69 57 70 58 49 59 50 60 58 61 51 62 57 63 59 64
REMARK SMILES IDX 56 65 52 66 53 67 54 68 55 69 5 70 6 71 7 72 8 73 9 74 10 75
REMARK SMILES IDX 21 76 11 77 20 78 22 79 19 80 12 81 13 82 17 83 14 84 16 85
REMARK SMILES IDX 18 86 15 87
REMARK H PARENT 79 22 47 33 16 88
REMARK Flexibility Score: inf
ROOT
ATOM      1  C   UNL A   1      36.417  22.847  25.827  1.00  0.00     0.275 C 
ENDROOT
BRANCH   1   2
ATOM      2  O   UNL A   1      37.738  22.332  25.633  1.00  0.00    -0.458 OA
BRANCH   2   3
ATOM      3  C   UNL A   1      38.870  22.605  26.319  1.00  0.00     0.338 C 
ATOM      4  O   UNL A   1      39.601  21.655  26.604  1.00  0.00    -0.246 OA
BRANCH   3   5
ATOM      5  C   UNL A   1      39.235  23.959  26.870  1.00  0.00     0.060 A 
ATOM      6  C   UNL A   1      39.109  24.436  28.179  1.00  0.00     0.016 A 
ATOM      7  C   UNL A   1      39.834  24.819  25.942  1.00  0.00     0.016 A 
ATOM      8  C   UNL A   1      39.634  25.679  28.567  1.00  0.00     0.010 A 
ATOM      9  C   UNL A   1      40.415  26.027  26.326  1.00  0.00     0.010 A 
ATOM     10  C   UNL A   1      40.302  26.478  27.645  1.00  0.00    -0.014 A 
BRANCH  10  11
ATOM     11  C   UNL A   1      40.683  27.879  27.947  1.00  0.00     0.031 A 
ATOM     12  C   UNL A   1      42.149  28.198  27.937  1.00  0.00     0.074 A 
ATOM     13  C   UNL A   1      39.778  28.816  28.283  1.00  0.00     0.049 A 
ATOM     14  N   UNL A   1      42.778  29.260  28.359  1.00  0.00    -0.248 NA
ATOM     15  C   UNL A   1      43.028  27.146  27.399  1.00  0.00     0.031 C 
ATOM     16  C   UNL A   1      38.329  28.646  28.248  1.00  0.00     0.029 A 
ATOM     17  N   UNL A   1      39.948  30.087  28.769  1.00  0.00    -0.354 N 
ATOM     18  C   UNL A   1      44.124  29.000  28.137  1.00  0.00     0.074 A 
ATOM     19  C   UNL A   1      44.223  27.634  27.672  1.00  0.00     0.031 C 
ATOM     20  C   UNL A   1      37.741  29.731  28.782  1.00  0.00     0.029 A 
ATOM     21  C   UNL A   1      38.776  30.671  29.197  1.00  0.00     0.049 A 
ATOM     22  H   UNL A   1      40.823  30.538  28.809  1.00  0.00     0.167 HD
ATOM     23  C   UNL A   1      45.176  29.845  28.247  1.00  0.00     0.034 A 
ATOM     24  C   UNL A   1      38.572  31.821  29.871  1.00  0.00     0.034 A 
ATOM     25  C   UNL A   1      45.037  31.196  28.718  1.00  0.00     0.049 A 
ATOM     26  C   UNL A   1      39.760  32.710  30.134  1.00  0.00     0.074 A 
ATOM     27  C   UNL A   1      46.005  32.170  28.861  1.00  0.00     0.029 A 
ATOM     28  N   UNL A   1      43.836  31.758  29.142  1.00  0.00    -0.354 N 
ATOM     29  N   UNL A   1      41.030  32.480  29.878  1.00  0.00    -0.248 NA
ATOM     30  C   UNL A   1      39.494  34.027  30.723  1.00  0.00     0.031 C 
ATOM     31  C   UNL A   1      45.405  33.292  29.441  1.00  0.00     0.029 A 
ATOM     32  C   UNL A   1      44.044  33.052  29.579  1.00  0.00     0.049 A 
ATOM     33  H   UNL A   1      42.964  31.298  29.134  1.00  0.00     0.167 HD
ATOM     34  C   UNL A   1      41.703  33.652  30.204  1.00  0.00     0.074 A 
ATOM     35  C   UNL A   1      40.703  34.574  30.711  1.00  0.00     0.031 C 
ATOM     36  C   UNL A   1      43.020  33.952  30.063  1.00  0.00     0.034 A 
BRANCH  23  37
ATOM     37  C   UNL A   1      46.530  29.285  27.881  1.00  0.00     0.023 A 
ATOM     38  C   UNL A   1      46.884  29.047  26.539  1.00  0.00     0.031 A 
ATOM     39  C   UNL A   1      47.416  28.846  28.879  1.00  0.00     0.131 A 
ATOM     40  C   UNL A   1      48.002  28.256  26.239  1.00  0.00     0.055 A 
ATOM     41  C   UNL A   1      48.592  28.161  28.566  1.00  0.00     0.041 A 
ATOM     42  F   UNL A   1      47.128  29.024  30.178  1.00  0.00    -0.206 F 
ATOM     43  C   UNL A   1      48.876  27.834  27.241  1.00  0.00     0.022 A 
BRANCH  40  44
ATOM     44  S   UNL A   1      48.150  27.583  24.558  1.00  0.00     0.124 S 
ATOM     45  O   UNL A   1      49.497  28.012  24.187  1.00  0.00    -0.237 OA
ATOM     46  O   UNL A   1      47.974  26.151  24.774  1.00  0.00    -0.237 OA
ATOM     47  O   UNL A   1      47.070  28.243  23.827  1.00  0.00    -0.744 OA
ENDBRANCH  40  44
ENDBRANCH  23  37
BRANCH  24  48
ATOM     48  C   UNL A   1      37.204  32.181  30.342  1.00  0.00     0.023 A 
ATOM     49  C   UNL A   1      36.304  32.884  29.526  1.00  0.00     0.031 A 
ATOM     50  C   UNL A   1      36.775  31.816  31.632  1.00  0.00     0.131 A 
ATOM     51  C   UNL A   1      35.031  33.224  30.018  1.00  0.00     0.055 A 
ATOM     52  C   UNL A   1      35.500  32.130  32.105  1.00  0.00     0.041 A 
ATOM     53  F   UNL A   1      37.592  31.129  32.447  1.00  0.00    -0.206 F 
ATOM     54  C   UNL A   1      34.621  32.846  31.299  1.00  0.00     0.022 A 
BRANCH  51  55
ATOM     55  S   UNL A   1      33.925  34.208  28.968  1.00  0.00     0.124 S 
ATOM     56  O   UNL A   1      33.470  33.215  28.001  1.00  0.00    -0.237 OA
ATOM     57  O   UNL A   1      32.930  34.671  29.930  1.00  0.00    -0.237 OA
ATOM     58  O   UNL A   1      34.800  35.248  28.430  1.00  0.00    -0.744 OA
ENDBRANCH  51  55
ENDBRANCH  24  48
BRANCH  36  59
ATOM     59  C   UNL A   1      43.447  35.365  30.367  1.00  0.00     0.023 A 
ATOM     60  C   UNL A   1      43.416  36.380  29.400  1.00  0.00     0.031 A 
ATOM     61  C   UNL A   1      43.828  35.701  31.680  1.00  0.00     0.131 A 
ATOM     62  C   UNL A   1      43.784  37.686  29.758  1.00  0.00     0.055 A 
ATOM     63  C   UNL A   1      44.136  37.011  32.041  1.00  0.00     0.041 A 
ATOM     64  F   UNL A   1      43.876  34.761  32.639  1.00  0.00    -0.206 F 
ATOM     65  C   UNL A   1      44.120  38.012  31.075  1.00  0.00     0.022 A 
BRANCH  62  66
ATOM     66  S   UNL A   1      43.868  38.952  28.463  1.00  0.00     0.124 S 
ATOM     67  O   UNL A   1      43.283  40.108  29.135  1.00  0.00    -0.237 OA
ATOM     68  O   UNL A   1      45.300  39.030  28.192  1.00  0.00    -0.237 OA
ATOM     69  O   UNL A   1      43.063  38.389  27.381  1.00  0.00    -0.744 OA
ENDBRANCH  62  66
ENDBRANCH  36  59
ENDBRANCH  10  11
ENDBRANCH   3   5
ENDBRANCH   2   3
ENDBRANCH   1   2
BRANCH   1  70
ATOM     70  C   UNL A   1      35.315  21.793  25.679  1.00  0.00     0.275 C 
BRANCH  70  71
ATOM     71  O   UNL A   1      34.087  22.148  26.337  1.00  0.00    -0.458 OA
BRANCH  71  72
ATOM     72  C   UNL A   1      32.995  22.339  25.548  1.00  0.00     0.339 C 
ATOM     73  O   UNL A   1      32.053  21.584  25.420  1.00  0.00    -0.246 OA
BRANCH  72  74
ATOM     74  C   UNL A   1      33.048  23.691  24.941  1.00  0.00     0.079 A 
ATOM     75  C   UNL A   1      33.070  24.808  25.807  1.00  0.00     0.026 A 
ATOM     76  C   UNL A   1      33.063  23.880  23.558  1.00  0.00     0.055 A 
ATOM     77  C   UNL A   1      33.173  26.115  25.294  1.00  0.00    -0.012 A 
ATOM     78  C   UNL A   1      33.152  25.175  23.045  1.00  0.00     0.022 A 
ATOM     79  Cl  UNL A   1      32.931  22.579  22.430  1.00  0.00    -0.083 Cl
ATOM     80  C   UNL A   1      33.234  26.275  23.903  1.00  0.00     0.010 A 
BRANCH  77  81
ATOM     81  C   UNL A   1      33.239  27.322  26.152  1.00  0.00     0.047 A 
ATOM     82  C   UNL A   1      34.320  28.125  26.175  1.00  0.00     0.016 A 
ATOM     83  C   UNL A   1      32.051  27.763  26.971  1.00  0.00     0.255 A 
ATOM     84  C   UNL A   1      34.352  29.376  26.896  1.00  0.00     0.019 A 
ATOM     85  N   UNL A   1      32.168  28.970  27.625  1.00  0.00    -0.329 N 
ATOM     86  O   UNL A   1      31.029  27.088  27.073  1.00  0.00    -0.269 OA
ATOM     87  C   UNL A   1      33.279  29.766  27.587  1.00  0.00     0.086 A 
ATOM     88  H   UNL A   1      31.398  29.281  28.155  1.00  0.00     0.169 HD
ENDBRANCH  77  81
ENDBRANCH  72  74
ENDBRANCH  71  72
ENDBRANCH  70  71
ENDBRANCH   1  70
TORSDOF 15
ENDMDL
MODEL 2
REMARK VINA RESULT:     -11.3      5.224     11.363
REMARK SMILES O=C(OCCOC(=O)c1cc(-c2ccc[nH]c2=O)ccc1Cl)c1ccc(-c2c3nc(c(-c4cc(S(=O)(=O)[O-])ccc4F)c4ccc([nH]4)c(-c4cc(S(=O)(=O)[O-])ccc4F)c4nc(c(-c5cc(S(=O)(=O)[O-])ccc5F)c5ccc2[nH]5)C=C4)C=C3)cc1
REMARK SMILES IDX 4 1 3 2 2 3 1 4 23 5 24 6 85 7 25 8 84 9 26 10 27 11 28 12
REMARK SMILES IDX 78 13 29 14 83 15 77 16 79 17 30 18 82 19 76 20 75 21 31 23
REMARK SMILES IDX 63 24 43 25 62 26 44 27 47 28 61 29 80 30 45 31 46 32 60 34
REMARK SMILES IDX 81 35 48 36 32 37 33 38 41 39 34 40 40 41 42 42 39 43 35 44
REMARK SMILES IDX 36 45 37 46 38 47 64 48 65 49 73 50 66 51 72 52 74 53 71 54
REMARK SMILES IDX 67 55 68 56 69 57 70 58 49 59 50 60 58 61 51 62 57 63 59 64
REMARK SMILES IDX 56 65 52 66 53 67 54 68 55 69 5 70 6 71 7 72 8 73 9 74 10 75
REMARK SMILES IDX 21 76 11 77 20 78 22 79 19 80 12 81 13 82 17 83 14 84 16 85
REMARK SMILES IDX 18 86 15 87
REMARK H PARENT 79 22 47 33 16 88
REMARK Flexibility Score: inf
ROOT
ATOM      1  C   UNL A   1      34.454  33.277  28.047  1.00  0.00     0.275 C 
ENDROOT
BRANCH   1   2
ATOM      2  O   UNL A   1      33.837  31.989  27.946  1.00  0.00    -0.458 OA
BRANCH   2   3
ATOM      3  C   UNL A   1      34.358  30.827  27.494  1.00  0.00     0.338 C 
ATOM      4  O   UNL A   1      33.649  30.138  26.758  1.00  0.00    -0.246 OA
BRANCH   3   5
ATOM      5  C   UNL A   1      35.684  30.254  27.924  1.00  0.00     0.060 A 
ATOM      6  C   UNL A   1      36.902  30.250  27.236  1.00  0.00     0.016 A 
ATOM      7  C   UNL A   1      35.687  29.708  29.213  1.00  0.00     0.016 A 
ATOM      8  C   UNL A   1      38.089  29.803  27.838  1.00  0.00     0.010 A 
ATOM      9  C   UNL A   1      36.868  29.320  29.845  1.00  0.00     0.010 A 
ATOM     10  C   UNL A   1      38.083  29.346  29.152  1.00  0.00    -0.014 A 
BRANCH  10  11
ATOM     11  C   UNL A   1      39.255  28.669  29.755  1.00  0.00     0.031 A 
ATOM     12  C   UNL A   1      39.879  29.333  30.948  1.00  0.00     0.074 A 
ATOM     13  C   UNL A   1      39.791  27.551  29.233  1.00  0.00     0.049 A 
ATOM     14  N   UNL A   1      41.015  29.092  31.542  1.00  0.00    -0.248 NA
ATOM     15  C   UNL A   1      39.118  30.453  31.526  1.00  0.00     0.031 C 
ATOM     16  C   UNL A   1      39.227  26.774  28.134  1.00  0.00     0.029 A 
ATOM     17  N   UNL A   1      40.960  26.899  29.530  1.00  0.00    -0.354 N 
ATOM     18  C   UNL A   1      41.100  30.030  32.562  1.00  0.00     0.074 A 
ATOM     19  C   UNL A   1      39.971  30.922  32.416  1.00  0.00     0.031 C 
ATOM     20  C   UNL A   1      40.094  25.809  27.781  1.00  0.00     0.029 A 
ATOM     21  C   UNL A   1      41.273  25.901  28.634  1.00  0.00     0.049 A 
ATOM     22  H   UNL A   1      41.521  27.122  30.308  1.00  0.00     0.167 HD
ATOM     23  C   UNL A   1      42.002  30.102  33.570  1.00  0.00     0.034 A 
ATOM     24  C   UNL A   1      42.398  25.169  28.504  1.00  0.00     0.034 A 
ATOM     25  C   UNL A   1      43.114  29.198  33.678  1.00  0.00     0.049 A 
ATOM     26  C   UNL A   1      43.480  25.341  29.539  1.00  0.00     0.074 A 
ATOM     27  C   UNL A   1      44.091  29.136  34.652  1.00  0.00     0.029 A 
ATOM     28  N   UNL A   1      43.403  28.197  32.754  1.00  0.00    -0.354 N 
ATOM     29  N   UNL A   1      43.536  26.200  30.533  1.00  0.00    -0.248 NA
ATOM     30  C   UNL A   1      44.623  24.422  29.472  1.00  0.00     0.031 C 
ATOM     31  C   UNL A   1      45.010  28.149  34.277  1.00  0.00     0.029 A 
ATOM     32  C   UNL A   1      44.561  27.535  33.116  1.00  0.00     0.049 A 
ATOM     33  H   UNL A   1      42.861  27.991  31.957  1.00  0.00     0.167 HD
ATOM     34  C   UNL A   1      44.679  25.875  31.255  1.00  0.00     0.074 A 
ATOM     35  C   UNL A   1      45.303  24.765  30.560  1.00  0.00     0.031 C 
ATOM     36  C   UNL A   1      45.148  26.418  32.407  1.00  0.00     0.034 A 
BRANCH  23  37
ATOM     37  C   UNL A   1      41.804  31.214  34.572  1.00  0.00     0.023 A 
ATOM     38  C   UNL A   1      40.820  31.126  35.577  1.00  0.00     0.031 A 
ATOM     39  C   UNL A   1      42.493  32.430  34.437  1.00  0.00     0.131 A 
ATOM     40  C   UNL A   1      40.447  32.271  36.293  1.00  0.00     0.055 A 
ATOM     41  C   UNL A   1      42.198  33.534  35.239  1.00  0.00     0.041 A 
ATOM     42  F   UNL A   1      43.429  32.585  33.487  1.00  0.00    -0.206 F 
ATOM     43  C   UNL A   1      41.147  33.469  36.152  1.00  0.00     0.022 A 
BRANCH  40  44
ATOM     44  S   UNL A   1      38.882  32.233  37.216  1.00  0.00     0.124 S 
ATOM     45  O   UNL A   1      39.353  32.328  38.596  1.00  0.00    -0.237 OA
ATOM     46  O   UNL A   1      38.182  33.404  36.699  1.00  0.00    -0.237 OA
ATOM     47  O   UNL A   1      38.300  30.943  36.851  1.00  0.00    -0.744 OA
ENDBRANCH  40  44
ENDBRANCH  23  37
BRANCH  24  48
ATOM     48  C   UNL A   1      42.551  24.226  27.359  1.00  0.00     0.023 A 
ATOM     49  C   UNL A   1      42.010  22.931  27.391  1.00  0.00     0.031 A 
ATOM     50  C   UNL A   1      43.249  24.619  26.201  1.00  0.00     0.131 A 
ATOM     51  C   UNL A   1      42.197  22.067  26.298  1.00  0.00     0.055 A 
ATOM     52  C   UNL A   1      43.407  23.766  25.106  1.00  0.00     0.041 A 
ATOM     53  F   UNL A   1      43.773  25.852  26.114  1.00  0.00    -0.206 F 
ATOM     54  C   UNL A   1      42.886  22.477  25.155  1.00  0.00     0.022 A 
BRANCH  51  55
ATOM     55  S   UNL A   1      41.558  20.371  26.408  1.00  0.00     0.124 S 
ATOM     56  O   UNL A   1      41.896  20.014  27.782  1.00  0.00    -0.237 OA
ATOM     57  O   UNL A   1      40.141  20.564  26.124  1.00  0.00    -0.237 OA
ATOM     58  O   UNL A   1      42.307  19.656  25.377  1.00  0.00    -0.744 OA
ENDBRANCH  51  55
ENDBRANCH  24  48
BRANCH  36  59
ATOM     59  C   UNL A   1      46.343  25.762  33.048  1.00  0.00     0.023 A 
ATOM     60  C   UNL A   1      46.219  24.673  33.923  1.00  0.00     0.031 A 
ATOM     61  C   UNL A   1      47.636  26.208  32.712  1.00  0.00     0.131 A 
ATOM     62  C   UNL A   1      47.374  24.077  34.453  1.00  0.00     0.055 A 
ATOM     63  C   UNL A   1      48.779  25.574  33.196  1.00  0.00     0.041 A 
ATOM     64  F   UNL A   1      47.804  27.249  31.881  1.00  0.00    -0.206 F 
ATOM     65  C   UNL A   1      48.651  24.505  34.076  1.00  0.00     0.022 A 
BRANCH  62  66
ATOM     66  S   UNL A   1      47.187  22.762  35.686  1.00  0.00     0.124 S 
ATOM     67  O   UNL A   1      48.577  22.446  36.001  1.00  0.00    -0.237 OA
ATOM     68  O   UNL A   1      46.429  23.425  36.741  1.00  0.00    -0.237 OA
ATOM     69  O   UNL A   1      46.461  21.718  34.965  1.00  0.00    -0.744 OA
ENDBRANCH  62  66
ENDBRANCH  36  59
ENDBRANCH  10  11
ENDBRANCH   3   5
ENDBRANCH   2   3
ENDBRANCH   1   2
BRANCH   1  70
ATOM     70  C   UNL A   1      34.364  33.896  29.445  1.00  0.00     0.275 C 
BRANCH  70  71
ATOM     71  O   UNL A   1      35.646  34.183  30.031  1.00  0.00    -0.458 OA
BRANCH  71  72
ATOM     72  C   UNL A   1      36.085  33.336  31.002  1.00  0.00     0.339 C 
ATOM     73  O   UNL A   1      35.524  32.335  31.397  1.00  0.00    -0.246 OA
BRANCH  72  74
ATOM     74  C   UNL A   1      37.442  33.741  31.441  1.00  0.00     0.079 A 
ATOM     75  C   UNL A   1      38.451  33.859  30.458  1.00  0.00     0.026 A 
ATOM     76  C   UNL A   1      37.741  33.991  32.782  1.00  0.00     0.055 A 
ATOM     77  C   UNL A   1      39.746  34.289  30.804  1.00  0.00    -0.012 A 
ATOM     78  C   UNL A   1      39.027  34.406  33.130  1.00  0.00     0.022 A 
ATOM     79  Cl  UNL A   1      36.597  33.769  34.057  1.00  0.00    -0.083 Cl
ATOM     80  C   UNL A   1      40.008  34.579  32.150  1.00  0.00     0.010 A 
BRANCH  77  81
ATOM     81  C   UNL A   1      40.835  34.467  29.814  1.00  0.00     0.047 A 
ATOM     82  C   UNL A   1      40.791  35.424  28.867  1.00  0.00     0.016 A 
ATOM     83  C   UNL A   1      42.095  33.640  29.883  1.00  0.00     0.255 A 
ATOM     84  C   UNL A   1      41.898  35.703  27.983  1.00  0.00     0.019 A 
ATOM     85  N   UNL A   1      43.100  33.976  29.003  1.00  0.00    -0.329 N 
ATOM     86  O   UNL A   1      42.231  32.703  30.665  1.00  0.00    -0.269 OA
ATOM     87  C   UNL A   1      43.018  34.983  28.081  1.00  0.00     0.086 A 
ATOM     88  H   UNL A   1      43.936  33.456  29.040  1.00  0.00     0.169 HD
ENDBRANCH  77  81
ENDBRANCH  72  74
ENDBRANCH  71  72
ENDBRANCH  70  71
ENDBRANCH   1  70
TORSDOF 15
ENDMDL
MODEL 3
REMARK VINA RESULT:     -11.1      2.301      3.873
REMARK SMILES O=C(OCCOC(=O)c1cc(-c2ccc[nH]c2=O)ccc1Cl)c1ccc(-c2c3nc(c(-c4cc(S(=O)(=O)[O-])ccc4F)c4ccc([nH]4)c(-c4cc(S(=O)(=O)[O-])ccc4F)c4nc(c(-c5cc(S(=O)(=O)[O-])ccc5F)c5ccc2[nH]5)C=C4)C=C3)cc1
REMARK SMILES IDX 4 1 3 2 2 3 1 4 23 5 24 6 85 7 25 8 84 9 26 10 27 11 28 12
REMARK SMILES IDX 78 13 29 14 83 15 77 16 79 17 30 18 82 19 76 20 75 21 31 23
REMARK SMILES IDX 63 24 43 25 62 26 44 27 47 28 61 29 80 30 45 31 46 32 60 34
REMARK SMILES IDX 81 35 48 36 32 37 33 38 41 39 34 40 40 41 42 42 39 43 35 44
REMARK SMILES IDX 36 45 37 46 38 47 64 48 65 49 73 50 66 51 72 52 74 53 71 54
REMARK SMILES IDX 67 55 68 56 69 57 70 58 49 59 50 60 58 61 51 62 57 63 59 64
REMARK SMILES IDX 56 65 52 66 53 67 54 68 55 69 5 70 6 71 7 72 8 73 9 74 10 75
REMARK SMILES IDX 21 76 11 77 20 78 22 79 19 80 12 81 13 82 17 83 14 84 16 85
REMARK SMILES IDX 18 86 15 87
REMARK H PARENT 79 22 47 33 16 88
REMARK Flexibility Score: inf
ROOT
ATOM      1  C   UNL A   1      37.635  21.483  25.747  1.00  0.00     0.275 C 
ENDROOT
BRANCH   1   2
ATOM      2  O   UNL A   1      39.065  21.491  25.822  1.00  0.00    -0.458 OA
BRANCH   2   3
ATOM      3  C   UNL A   1      39.867  22.058  26.749  1.00  0.00     0.338 C 
ATOM      4  O   UNL A   1      40.330  21.323  27.622  1.00  0.00    -0.246 OA
BRANCH   3   5
ATOM      5  C   UNL A   1      40.132  23.537  26.868  1.00  0.00     0.060 A 
ATOM      6  C   UNL A   1      39.901  24.548  25.928  1.00  0.00     0.016 A 
ATOM      7  C   UNL A   1      40.621  23.939  28.116  1.00  0.00     0.016 A 
ATOM      8  C   UNL A   1      40.066  25.904  26.246  1.00  0.00     0.010 A 
ATOM      9  C   UNL A   1      40.729  25.284  28.466  1.00  0.00     0.010 A 
ATOM     10  C   UNL A   1      40.470  26.283  27.523  1.00  0.00    -0.014 A 
BRANCH  10  11
ATOM     11  C   UNL A   1      40.863  27.677  27.843  1.00  0.00     0.031 A 
ATOM     12  C   UNL A   1      42.327  28.000  27.773  1.00  0.00     0.074 A 
ATOM     13  C   UNL A   1      39.973  28.602  28.246  1.00  0.00     0.049 A 
ATOM     14  N   UNL A   1      42.973  29.051  28.193  1.00  0.00    -0.248 NA
ATOM     15  C   UNL A   1      43.181  26.963  27.167  1.00  0.00     0.031 C 
ATOM     16  C   UNL A   1      38.524  28.430  28.274  1.00  0.00     0.029 A 
ATOM     17  N   UNL A   1      40.165  29.861  28.757  1.00  0.00    -0.354 N 
ATOM     18  C   UNL A   1      44.307  28.800  27.901  1.00  0.00     0.074 A 
ATOM     19  C   UNL A   1      44.386  27.447  27.396  1.00  0.00     0.031 C 
ATOM     20  C   UNL A   1      37.962  29.499  28.864  1.00  0.00     0.029 A 
ATOM     21  C   UNL A   1      39.014  30.431  29.254  1.00  0.00     0.049 A 
ATOM     22  H   UNL A   1      41.040  30.313  28.767  1.00  0.00     0.167 HD
ATOM     23  C   UNL A   1      45.363  29.644  27.984  1.00  0.00     0.034 A 
ATOM     24  C   UNL A   1      38.840  31.562  29.966  1.00  0.00     0.034 A 
ATOM     25  C   UNL A   1      45.244  30.982  28.495  1.00  0.00     0.049 A 
ATOM     26  C   UNL A   1      40.039  32.446  30.197  1.00  0.00     0.074 A 
ATOM     27  C   UNL A   1      46.217  31.954  28.618  1.00  0.00     0.029 A 
ATOM     28  N   UNL A   1      44.064  31.530  28.991  1.00  0.00    -0.354 N 
ATOM     29  N   UNL A   1      41.295  32.227  29.876  1.00  0.00    -0.248 NA
ATOM     30  C   UNL A   1      39.798  33.747  30.832  1.00  0.00     0.031 C 
ATOM     31  C   UNL A   1      45.643  33.060  29.255  1.00  0.00     0.029 A 
ATOM     32  C   UNL A   1      44.291  32.814  29.450  1.00  0.00     0.049 A 
ATOM     33  H   UNL A   1      43.193  31.069  29.011  1.00  0.00     0.167 HD
ATOM     34  C   UNL A   1      41.981  33.391  30.201  1.00  0.00     0.074 A 
ATOM     35  C   UNL A   1      41.006  34.297  30.777  1.00  0.00     0.031 C 
ATOM     36  C   UNL A   1      43.290  33.698  30.006  1.00  0.00     0.034 A 
BRANCH  23  37
ATOM     37  C   UNL A   1      46.699  29.097  27.540  1.00  0.00     0.023 A 
ATOM     38  C   UNL A   1      46.931  28.734  26.199  1.00  0.00     0.031 A 
ATOM     39  C   UNL A   1      47.696  28.795  28.481  1.00  0.00     0.131 A 
ATOM     40  C   UNL A   1      48.049  27.956  25.868  1.00  0.00     0.055 A 
ATOM     41  C   UNL A   1      48.867  28.123  28.121  1.00  0.00     0.041 A 
ATOM     42  F   UNL A   1      47.528  29.096  29.779  1.00  0.00    -0.206 F 
ATOM     43  C   UNL A   1      49.034  27.671  26.814  1.00  0.00     0.022 A 
BRANCH  40  44
ATOM     44  S   UNL A   1      48.063  27.118  24.256  1.00  0.00     0.124 S 
ATOM     45  O   UNL A   1      47.015  26.116  24.437  1.00  0.00    -0.237 OA
ATOM     46  O   UNL A   1      47.755  28.204  23.332  1.00  0.00    -0.237 OA
ATOM     47  O   UNL A   1      49.419  26.580  24.161  1.00  0.00    -0.744 OA
ENDBRANCH  40  44
ENDBRANCH  23  37
BRANCH  24  48
ATOM     48  C   UNL A   1      37.495  31.907  30.510  1.00  0.00     0.023 A 
ATOM     49  C   UNL A   1      36.563  32.642  29.763  1.00  0.00     0.031 A 
ATOM     50  C   UNL A   1      37.122  31.493  31.803  1.00  0.00     0.131 A 
ATOM     51  C   UNL A   1      35.314  32.965  30.323  1.00  0.00     0.055 A 
ATOM     52  C   UNL A   1      35.869  31.791  32.344  1.00  0.00     0.041 A 
ATOM     53  F   UNL A   1      37.971  30.774  32.555  1.00  0.00    -0.206 F 
ATOM     54  C   UNL A   1      34.959  32.539  31.604  1.00  0.00     0.022 A 
BRANCH  51  55
ATOM     55  S   UNL A   1      34.167  33.992  29.361  1.00  0.00     0.124 S 
ATOM     56  O   UNL A   1      33.285  34.508  30.401  1.00  0.00    -0.237 OA
ATOM     57  O   UNL A   1      35.070  34.958  28.745  1.00  0.00    -0.237 OA
ATOM     58  O   UNL A   1      33.551  33.041  28.437  1.00  0.00    -0.744 OA
ENDBRANCH  51  55
ENDBRANCH  24  48
BRANCH  36  59
ATOM     59  C   UNL A   1      43.729  35.103  30.326  1.00  0.00     0.023 A 
ATOM     60  C   UNL A   1      43.616  36.151  29.401  1.00  0.00     0.031 A 
ATOM     61  C   UNL A   1      44.208  35.396  31.617  1.00  0.00     0.131 A 
ATOM     62  C   UNL A   1      44.002  37.447  29.775  1.00  0.00     0.055 A 
ATOM     63  C   UNL A   1      44.534  36.696  32.000  1.00  0.00     0.041 A 
ATOM     64  F   UNL A   1      44.337  34.425  32.535  1.00  0.00    -0.206 F 
ATOM     65  C   UNL A   1      44.436  37.730  31.074  1.00  0.00     0.022 A 
BRANCH  62  66
ATOM     66  S   UNL A   1      43.977  38.759  28.525  1.00  0.00     0.124 S 
ATOM     67  O   UNL A   1      44.390  38.038  27.325  1.00  0.00    -0.237 OA
ATOM     68  O   UNL A   1      42.585  39.197  28.557  1.00  0.00    -0.237 OA
ATOM     69  O   UNL A   1      44.945  39.731  29.028  1.00  0.00    -0.744 OA
ENDBRANCH  62  66
ENDBRANCH  36  59
ENDBRANCH  10  11
ENDBRANCH   3   5
ENDBRANCH   2   3
ENDBRANCH   1   2
BRANCH   1  70
ATOM     70  C   UNL A   1      37.026  22.854  25.436  1.00  0.00     0.275 C 
BRANCH  70  71
ATOM     71  O   UNL A   1      35.977  22.808  24.453  1.00  0.00    -0.458 OA
BRANCH  71  72
ATOM     72  C   UNL A   1      34.700  22.938  24.905  1.00  0.00     0.339 C 
ATOM     73  O   UNL A   1      34.287  23.782  25.674  1.00  0.00    -0.246 OA
BRANCH  72  74
ATOM     74  C   UNL A   1      33.825  21.960  24.216  1.00  0.00     0.079 A 
ATOM     75  C   UNL A   1      33.871  20.612  24.638  1.00  0.00     0.026 A 
ATOM     76  C   UNL A   1      32.981  22.335  23.168  1.00  0.00     0.055 A 
ATOM     77  C   UNL A   1      33.027  19.647  24.058  1.00  0.00    -0.012 A 
ATOM     78  C   UNL A   1      32.151  21.378  22.583  1.00  0.00     0.022 A 
ATOM     79  Cl  UNL A   1      32.939  23.936  22.520  1.00  0.00    -0.083 Cl
ATOM     80  C   UNL A   1      32.154  20.058  23.041  1.00  0.00     0.010 A 
BRANCH  77  81
ATOM     81  C   UNL A   1      33.003  18.227  24.484  1.00  0.00     0.047 A 
ATOM     82  C   UNL A   1      32.653  17.860  25.732  1.00  0.00     0.016 A 
ATOM     83  C   UNL A   1      33.279  17.114  23.503  1.00  0.00     0.255 A 
ATOM     84  C   UNL A   1      32.491  16.481  26.127  1.00  0.00     0.019 A 
ATOM     85  N   UNL A   1      33.098  15.829  23.965  1.00  0.00    -0.329 N 
ATOM     86  O   UNL A   1      33.660  17.322  22.354  1.00  0.00    -0.269 OA
ATOM     87  C   UNL A   1      32.707  15.511  25.236  1.00  0.00     0.086 A 
ATOM     88  H   UNL A   1      33.261  15.088  23.336  1.00  0.00     0.169 HD
ENDBRANCH  77  81
ENDBRANCH  72  74
ENDBRANCH  71  72
ENDBRANCH  70  71
ENDBRANCH   1  70
TORSDOF 15
ENDMDL
