MODEL 1
REMARK VINA RESULT:     -10.8      0.000      0.000
REMARK SMILES CCCCCCNC(=O)Oc1cccc(-c2ccc([C@@H](C)C(=O)OCCOC(=O)c3ccc(-c4c5nc(c(-c6cc(S(=O)(=O)[O-])ccc6F)c6ccc([nH]6)c(-c6cc(S(=O)(=O)[O-])ccc6F)c6nc(c(-c7cc(S(=O)(=O)[O-])ccc7F)c7ccc4[nH]7)C=C6)C=C5)cc3)cc2C(F)(F)F)c1
REMARK SMILES IDX 20 1 21 2 19 3 16 4 17 5 94 6 18 7 93 8 15 9 11 10 12 11
REMARK SMILES IDX 99 12 13 13 14 14 10 15 8 16 7 17 9 19 6 20 5 21 4 22 3 23
REMARK SMILES IDX 2 24 1 25 95 26 96 27 97 28 98 29 22 30 23 31 24 32 25 33
REMARK SMILES IDX 26 34 27 35 28 36 29 37 30 38 31 39 92 40 32 41 91 42 33 43
REMARK SMILES IDX 34 44 35 45 85 46 36 47 90 48 84 49 86 50 37 51 89 52 83 53
REMARK SMILES IDX 82 54 38 56 70 57 50 58 69 59 51 60 54 61 68 62 87 63 52 64
REMARK SMILES IDX 53 65 67 67 88 68 55 69 39 70 40 71 48 72 41 73 47 74 49 75
REMARK SMILES IDX 46 76 42 77 43 78 44 79 45 80 71 81 72 82 80 83 73 84 79 85
REMARK SMILES IDX 81 86 78 87 74 88 75 89 76 90 77 91 56 92 57 93 65 94 58 95
REMARK SMILES IDX 64 96 66 97 63 98 59 99 60 100 61 101 62 102
REMARK H PARENT 7 18 86 55 54 66
REMARK Flexibility Score: inf
ROOT
ATOM      1  C   UNL A   1      32.171  20.437  24.464  1.00  0.00     0.126 C 
ATOM      2  C   UNL A   1      32.277  19.792  23.084  1.00  0.00     0.025 C 
ENDROOT
BRANCH   1   3
ATOM      3  C   UNL A   1      31.878  21.929  24.382  1.00  0.00    -0.033 A 
ATOM      4  C   UNL A   1      31.398  24.735  24.186  1.00  0.00    -0.006 A 
ATOM      5  C   UNL A   1      30.888  23.965  25.250  1.00  0.00     0.009 A 
ATOM      6  C   UNL A   1      32.166  24.079  23.201  1.00  0.00     0.064 A 
ATOM      7  C   UNL A   1      31.132  22.594  25.356  1.00  0.00     0.005 A 
ATOM      8  C   UNL A   1      32.379  22.683  23.308  1.00  0.00     0.018 A 
BRANCH   4   9
ATOM      9  C   UNL A   1      31.149  26.188  24.194  1.00  0.00    -0.014 A 
ATOM     10  C   UNL A   1      31.575  28.433  25.000  1.00  0.00     0.133 A 
ATOM     11  C   UNL A   1      30.556  28.945  24.200  1.00  0.00     0.047 A 
ATOM     12  C   UNL A   1      31.882  27.070  25.004  1.00  0.00     0.056 A 
ATOM     13  C   UNL A   1      29.838  28.087  23.376  1.00  0.00     0.004 A 
ATOM     14  C   UNL A   1      30.130  26.721  23.379  1.00  0.00     0.009 A 
BRANCH  10  15
ATOM     15  O   UNL A   1      32.163  29.332  25.907  1.00  0.00    -0.410 OA
BRANCH  15  16
ATOM     16  C   UNL A   1      32.239  28.993  27.248  1.00  0.00     0.412 C 
ATOM     17  N   UNL A   1      33.520  29.021  27.732  1.00  0.00    -0.321 N 
ATOM     18  H   UNL A   1      33.637  28.805  28.685  1.00  0.00     0.167 HD
ATOM     19  O   UNL A   1      31.301  28.662  27.961  1.00  0.00    -0.224 OA
BRANCH  17  20
ATOM     20  C   UNL A   1      34.724  29.335  26.985  1.00  0.00     0.119 C 
BRANCH  20  21
ATOM     21  C   UNL A   1      35.561  30.425  27.651  1.00  0.00     0.021 C 
BRANCH  21  22
ATOM     22  C   UNL A   1      34.829  31.750  27.895  1.00  0.00     0.002 C 
BRANCH  22  23
ATOM     23  C   UNL A   1      35.710  33.004  27.916  1.00  0.00    -0.000 C 
BRANCH  23  24
ATOM     24  C   UNL A   1      34.989  34.310  28.259  1.00  0.00    -0.003 C 
ATOM     25  C   UNL A   1      33.579  34.101  28.788  1.00  0.00     0.004 C 
ENDBRANCH  23  24
ENDBRANCH  22  23
ENDBRANCH  21  22
ENDBRANCH  20  21
ENDBRANCH  17  20
ENDBRANCH  15  16
ENDBRANCH  10  15
ENDBRANCH   4   9
BRANCH   6  26
ATOM     26  C   UNL A   1      32.775  24.791  22.009  1.00  0.00     0.417 C 
ATOM     27  F   UNL A   1      33.859  25.544  22.359  1.00  0.00    -0.166 F 
ATOM     28  F   UNL A   1      33.215  23.924  21.058  1.00  0.00    -0.166 F 
ATOM     29  F   UNL A   1      31.936  25.661  21.382  1.00  0.00    -0.166 F 
ENDBRANCH   6  26
ENDBRANCH   1   3
BRANCH   1  30
ATOM     30  C   UNL A   1      33.365  20.028  25.321  1.00  0.00     0.313 C 
ATOM     31  O   UNL A   1      33.233  19.377  26.353  1.00  0.00    -0.252 OA
BRANCH  30  32
ATOM     32  O   UNL A   1      34.565  20.405  24.809  1.00  0.00    -0.462 OA
BRANCH  32  33
ATOM     33  C   UNL A   1      35.454  21.119  25.688  1.00  0.00     0.274 C 
BRANCH  33  34
ATOM     34  C   UNL A   1      36.752  21.495  24.970  1.00  0.00     0.275 C 
BRANCH  34  35
ATOM     35  O   UNL A   1      37.502  22.463  25.723  1.00  0.00    -0.458 OA
BRANCH  35  36
ATOM     36  C   UNL A   1      38.699  22.028  26.182  1.00  0.00     0.338 C 
ATOM     37  O   UNL A   1      39.143  20.894  26.135  1.00  0.00    -0.246 OA
BRANCH  36  38
ATOM     38  C   UNL A   1      39.481  23.177  26.657  1.00  0.00     0.060 A 
ATOM     39  C   UNL A   1      39.225  24.427  26.089  1.00  0.00     0.016 A 
ATOM     40  C   UNL A   1      40.501  23.016  27.592  1.00  0.00     0.016 A 
ATOM     41  C   UNL A   1      39.998  25.527  26.443  1.00  0.00     0.010 A 
ATOM     42  C   UNL A   1      41.268  24.126  27.961  1.00  0.00     0.010 A 
ATOM     43  C   UNL A   1      41.028  25.384  27.381  1.00  0.00    -0.014 A 
BRANCH  43  44
ATOM     44  C   UNL A   1      41.881  26.549  27.718  1.00  0.00     0.031 A 
ATOM     45  C   UNL A   1      41.317  27.672  28.539  1.00  0.00     0.074 A 
ATOM     46  C   UNL A   1      43.160  26.583  27.303  1.00  0.00     0.049 A 
ATOM     47  N   UNL A   1      41.859  28.817  28.863  1.00  0.00    -0.248 NA
ATOM     48  C   UNL A   1      39.955  27.479  29.056  1.00  0.00     0.031 C 
ATOM     49  C   UNL A   1      43.830  25.523  26.549  1.00  0.00     0.029 A 
ATOM     50  N   UNL A   1      44.124  27.547  27.455  1.00  0.00    -0.354 N 
ATOM     51  C   UNL A   1      40.897  29.495  29.606  1.00  0.00     0.074 A 
ATOM     52  C   UNL A   1      39.730  28.637  29.658  1.00  0.00     0.031 C 
ATOM     53  C   UNL A   1      45.099  25.890  26.312  1.00  0.00     0.029 A 
ATOM     54  C   UNL A   1      45.314  27.234  26.842  1.00  0.00     0.049 A 
ATOM     55  H   UNL A   1      43.978  28.382  27.955  1.00  0.00     0.167 HD
ATOM     56  C   UNL A   1      40.986  30.717  30.190  1.00  0.00     0.034 A 
ATOM     57  C   UNL A   1      46.437  27.962  26.693  1.00  0.00     0.034 A 
ATOM     58  C   UNL A   1      42.163  31.552  30.122  1.00  0.00     0.049 A 
ATOM     59  C   UNL A   1      46.479  29.355  27.264  1.00  0.00     0.074 A 
ATOM     60  C   UNL A   1      42.377  32.793  30.696  1.00  0.00     0.029 A 
ATOM     61  N   UNL A   1      43.324  31.236  29.425  1.00  0.00    -0.354 N 
ATOM     62  N   UNL A   1      45.558  29.997  27.945  1.00  0.00    -0.248 NA
ATOM     63  C   UNL A   1      47.708  30.123  27.034  1.00  0.00     0.031 C 
ATOM     64  C   UNL A   1      43.634  33.257  30.288  1.00  0.00     0.029 A 
ATOM     65  C   UNL A   1      44.239  32.275  29.518  1.00  0.00     0.049 A 
ATOM     66  H   UNL A   1      43.475  30.395  28.936  1.00  0.00     0.167 HD
ATOM     67  C   UNL A   1      46.103  31.243  28.237  1.00  0.00     0.074 A 
ATOM     68  C   UNL A   1      47.438  31.254  27.671  1.00  0.00     0.031 C 
ATOM     69  C   UNL A   1      45.552  32.283  28.916  1.00  0.00     0.034 A 
BRANCH  56  70
ATOM     70  C   UNL A   1      39.749  31.238  30.883  1.00  0.00     0.023 A 
ATOM     71  C   UNL A   1      39.659  31.328  32.284  1.00  0.00     0.031 A 
ATOM     72  C   UNL A   1      38.616  31.593  30.129  1.00  0.00     0.131 A 
ATOM     73  C   UNL A   1      38.438  31.676  32.886  1.00  0.00     0.055 A 
ATOM     74  C   UNL A   1      37.431  32.017  30.732  1.00  0.00     0.041 A 
ATOM     75  F   UNL A   1      38.633  31.509  28.789  1.00  0.00    -0.206 F 
ATOM     76  C   UNL A   1      37.330  32.042  32.119  1.00  0.00     0.022 A 
BRANCH  73  77
ATOM     77  S   UNL A   1      38.268  31.478  34.683  1.00  0.00     0.124 S 
ATOM     78  O   UNL A   1      38.372  30.029  34.834  1.00  0.00    -0.237 OA
ATOM     79  O   UNL A   1      39.390  32.258  35.192  1.00  0.00    -0.237 OA
ATOM     80  O   UNL A   1      36.945  32.031  34.965  1.00  0.00    -0.744 OA
ENDBRANCH  73  77
ENDBRANCH  56  70
BRANCH  57  81
ATOM     81  C   UNL A   1      47.589  27.413  25.925  1.00  0.00     0.023 A 
ATOM     82  C   UNL A   1      48.642  26.751  26.573  1.00  0.00     0.031 A 
ATOM     83  C   UNL A   1      47.658  27.560  24.528  1.00  0.00     0.131 A 
ATOM     84  C   UNL A   1      49.733  26.278  25.828  1.00  0.00     0.055 A 
ATOM     85  C   UNL A   1      48.724  27.051  23.785  1.00  0.00     0.041 A 
ATOM     86  F   UNL A   1      46.676  28.187  23.861  1.00  0.00    -0.206 F 
ATOM     87  C   UNL A   1      49.774  26.412  24.437  1.00  0.00     0.022 A 
BRANCH  84  88
ATOM     88  S   UNL A   1      51.127  25.522  26.707  1.00  0.00     0.124 S 
ATOM     89  O   UNL A   1      50.474  24.425  27.413  1.00  0.00    -0.237 OA
ATOM     90  O   UNL A   1      52.010  25.142  25.609  1.00  0.00    -0.237 OA
ATOM     91  O   UNL A   1      51.622  26.603  27.556  1.00  0.00    -0.744 OA
ENDBRANCH  84  88
ENDBRANCH  57  81
BRANCH  69  92
ATOM     92  C   UNL A   1      46.416  33.508  29.092  1.00  0.00     0.023 A 
ATOM     93  C   UNL A   1      46.436  34.539  28.136  1.00  0.00     0.031 A 
ATOM     94  C   UNL A   1      47.251  33.630  30.217  1.00  0.00     0.131 A 
ATOM     95  C   UNL A   1      47.312  35.624  28.296  1.00  0.00     0.055 A 
ATOM     96  C   UNL A   1      48.080  34.739  30.398  1.00  0.00     0.041 A 
ATOM     97  F   UNL A   1      47.275  32.673  31.158  1.00  0.00    -0.206 F 
ATOM     98  C   UNL A   1      48.122  35.737  29.429  1.00  0.00     0.022 A 
BRANCH  95  99
ATOM     99  S   UNL A   1      47.444  36.844  26.960  1.00  0.00     0.124 S 
ATOM    100  O   UNL A   1      47.267  38.102  27.680  1.00  0.00    -0.237 OA
ATOM    101  O   UNL A   1      48.782  36.591  26.436  1.00  0.00    -0.237 OA
ATOM    102  O   UNL A   1      46.349  36.487  26.060  1.00  0.00    -0.744 OA
ENDBRANCH  95  99
ENDBRANCH  69  92
ENDBRANCH  43  44
ENDBRANCH  36  38
ENDBRANCH  35  36
ENDBRANCH  34  35
ENDBRANCH  33  34
ENDBRANCH  32  33
ENDBRANCH  30  32
ENDBRANCH   1  30
TORSDOF 24
ENDMDL
MODEL 2
REMARK VINA RESULT:     -10.6      2.513      7.762
REMARK SMILES CCCCCCNC(=O)Oc1cccc(-c2ccc([C@@H](C)C(=O)OCCOC(=O)c3ccc(-c4c5nc(c(-c6cc(S(=O)(=O)[O-])ccc6F)c6ccc([nH]6)c(-c6cc(S(=O)(=O)[O-])ccc6F)c6nc(c(-c7cc(S(=O)(=O)[O-])ccc7F)c7ccc4[nH]7)C=C6)C=C5)cc3)cc2C(F)(F)F)c1
REMARK SMILES IDX 20 1 21 2 19 3 16 4 17 5 94 6 18 7 93 8 15 9 11 10 12 11
REMARK SMILES IDX 99 12 13 13 14 14 10 15 8 16 7 17 9 19 6 20 5 21 4 22 3 23
REMARK SMILES IDX 2 24 1 25 95 26 96 27 97 28 98 29 22 30 23 31 24 32 25 33
REMARK SMILES IDX 26 34 27 35 28 36 29 37 30 38 31 39 92 40 32 41 91 42 33 43
REMARK SMILES IDX 34 44 35 45 85 46 36 47 90 48 84 49 86 50 37 51 89 52 83 53
REMARK SMILES IDX 82 54 38 56 70 57 50 58 69 59 51 60 54 61 68 62 87 63 52 64
REMARK SMILES IDX 53 65 67 67 88 68 55 69 39 70 40 71 48 72 41 73 47 74 49 75
REMARK SMILES IDX 46 76 42 77 43 78 44 79 45 80 71 81 72 82 80 83 73 84 79 85
REMARK SMILES IDX 81 86 78 87 74 88 75 89 76 90 77 91 56 92 57 93 65 94 58 95
REMARK SMILES IDX 64 96 66 97 63 98 59 99 60 100 61 101 62 102
REMARK H PARENT 7 18 86 55 54 66
REMARK Flexibility Score: inf
ROOT
ATOM      1  C   UNL A   1      32.234  21.425  25.163  1.00  0.00     0.126 C 
ATOM      2  C   UNL A   1      32.221  20.395  24.035  1.00  0.00     0.025 C 
ENDROOT
BRANCH   1   3
ATOM      3  C   UNL A   1      31.964  22.835  24.656  1.00  0.00    -0.033 A 
ATOM      4  C   UNL A   1      31.527  25.474  23.664  1.00  0.00    -0.006 A 
ATOM      5  C   UNL A   1      31.034  25.060  24.917  1.00  0.00     0.009 A 
ATOM      6  C   UNL A   1      32.255  24.542  22.896  1.00  0.00     0.064 A 
ATOM      7  C   UNL A   1      31.258  23.772  25.411  1.00  0.00     0.005 A 
ATOM      8  C   UNL A   1      32.446  23.233  23.398  1.00  0.00     0.018 A 
BRANCH   4   9
ATOM      9  C   UNL A   1      31.303  26.874  23.255  1.00  0.00    -0.014 A 
ATOM     10  C   UNL A   1      29.885  28.688  22.501  1.00  0.00     0.133 A 
ATOM     11  C   UNL A   1      30.979  29.546  22.414  1.00  0.00     0.047 A 
ATOM     12  C   UNL A   1      30.031  27.363  22.919  1.00  0.00     0.056 A 
ATOM     13  C   UNL A   1      32.241  29.081  22.765  1.00  0.00     0.004 A 
ATOM     14  C   UNL A   1      32.400  27.756  23.177  1.00  0.00     0.009 A 
BRANCH  10  15
ATOM     15  O   UNL A   1      28.669  29.181  21.999  1.00  0.00    -0.410 OA
BRANCH  15  16
ATOM     16  C   UNL A   1      27.632  29.458  22.875  1.00  0.00     0.412 C 
ATOM     17  N   UNL A   1      27.757  30.681  23.478  1.00  0.00    -0.321 N 
ATOM     18  H   UNL A   1      27.041  30.942  24.101  1.00  0.00     0.167 HD
ATOM     19  O   UNL A   1      26.700  28.712  23.146  1.00  0.00    -0.224 OA
BRANCH  17  20
ATOM     20  C   UNL A   1      28.838  31.633  23.295  1.00  0.00     0.119 C 
BRANCH  20  21
ATOM     21  C   UNL A   1      29.494  32.038  24.613  1.00  0.00     0.021 C 
BRANCH  21  22
ATOM     22  C   UNL A   1      30.456  31.003  25.207  1.00  0.00     0.002 C 
BRANCH  22  23
ATOM     23  C   UNL A   1      31.410  31.523  26.289  1.00  0.00    -0.000 C 
BRANCH  23  24
ATOM     24  C   UNL A   1      32.375  30.487  26.870  1.00  0.00    -0.003 C 
ATOM     25  C   UNL A   1      31.873  29.057  26.745  1.00  0.00     0.004 C 
ENDBRANCH  23  24
ENDBRANCH  22  23
ENDBRANCH  21  22
ENDBRANCH  20  21
ENDBRANCH  17  20
ENDBRANCH  15  16
ENDBRANCH  10  15
ENDBRANCH   4   9
BRANCH   6  26
ATOM     26  C   UNL A   1      32.841  24.862  21.534  1.00  0.00     0.417 C 
ATOM     27  F   UNL A   1      33.920  25.694  21.622  1.00  0.00    -0.166 F 
ATOM     28  F   UNL A   1      33.280  23.751  20.885  1.00  0.00    -0.166 F 
ATOM     29  F   UNL A   1      31.985  25.494  20.685  1.00  0.00    -0.166 F 
ENDBRANCH   6  26
ENDBRANCH   1   3
BRANCH   1  30
ATOM     30  C   UNL A   1      33.482  21.240  26.020  1.00  0.00     0.313 C 
ATOM     31  O   UNL A   1      33.425  21.158  27.244  1.00  0.00    -0.252 OA
BRANCH  30  32
ATOM     32  O   UNL A   1      34.630  21.127  25.304  1.00  0.00    -0.462 OA
BRANCH  32  33
ATOM     33  C   UNL A   1      35.853  21.487  25.972  1.00  0.00     0.274 C 
BRANCH  33  34
ATOM     34  C   UNL A   1      37.056  20.797  25.325  1.00  0.00     0.275 C 
BRANCH  34  35
ATOM     35  O   UNL A   1      38.186  21.684  25.247  1.00  0.00    -0.458 OA
BRANCH  35  36
ATOM     36  C   UNL A   1      39.144  21.473  26.180  1.00  0.00     0.338 C 
ATOM     37  O   UNL A   1      39.633  20.407  26.512  1.00  0.00    -0.246 OA
BRANCH  36  38
ATOM     38  C   UNL A   1      39.629  22.768  26.674  1.00  0.00     0.060 A 
ATOM     39  C   UNL A   1      39.084  23.929  26.123  1.00  0.00     0.016 A 
ATOM     40  C   UNL A   1      40.658  22.840  27.612  1.00  0.00     0.016 A 
ATOM     41  C   UNL A   1      39.573  25.176  26.497  1.00  0.00     0.010 A 
ATOM     42  C   UNL A   1      41.138  24.095  28.001  1.00  0.00     0.010 A 
ATOM     43  C   UNL A   1      40.606  25.269  27.438  1.00  0.00    -0.014 A 
BRANCH  43  44
ATOM     44  C   UNL A   1      41.156  26.598  27.796  1.00  0.00     0.031 A 
ATOM     45  C   UNL A   1      42.573  26.939  27.436  1.00  0.00     0.074 A 
ATOM     46  C   UNL A   1      40.377  27.496  28.426  1.00  0.00     0.049 A 
ATOM     47  N   UNL A   1      43.274  28.000  27.738  1.00  0.00    -0.248 NA
ATOM     48  C   UNL A   1      43.297  25.943  26.633  1.00  0.00     0.031 C 
ATOM     49  C   UNL A   1      38.970  27.294  28.774  1.00  0.00     0.029 A 
ATOM     50  N   UNL A   1      40.658  28.757  28.886  1.00  0.00    -0.354 N 
ATOM     51  C   UNL A   1      44.532  27.795  27.181  1.00  0.00     0.074 A 
ATOM     52  C   UNL A   1      44.499  26.493  26.547  1.00  0.00     0.031 C 
ATOM     53  C   UNL A   1      38.509  28.396  29.385  1.00  0.00     0.029 A 
ATOM     54  C   UNL A   1      39.600  29.356  29.526  1.00  0.00     0.049 A 
ATOM     55  H   UNL A   1      41.534  29.191  28.768  1.00  0.00     0.167 HD
ATOM     56  C   UNL A   1      45.609  28.621  27.198  1.00  0.00     0.034 A 
ATOM     57  C   UNL A   1      39.529  30.529  30.183  1.00  0.00     0.034 A 
ATOM     58  C   UNL A   1      45.614  29.915  27.839  1.00  0.00     0.049 A 
ATOM     59  C   UNL A   1      40.764  31.385  30.275  1.00  0.00     0.074 A 
ATOM     60  C   UNL A   1      46.637  30.847  27.898  1.00  0.00     0.029 A 
ATOM     61  N   UNL A   1      44.548  30.457  28.547  1.00  0.00    -0.354 N 
ATOM     62  N   UNL A   1      41.956  31.174  29.765  1.00  0.00    -0.248 NA
ATOM     63  C   UNL A   1      40.646  32.632  31.042  1.00  0.00     0.031 C 
ATOM     64  C   UNL A   1      46.213  31.916  28.698  1.00  0.00     0.029 A 
ATOM     65  C   UNL A   1      44.900  31.688  29.081  1.00  0.00     0.049 A 
ATOM     66  H   UNL A   1      43.667  30.029  28.654  1.00  0.00     0.167 HD
ATOM     67  C   UNL A   1      42.727  32.270  30.140  1.00  0.00     0.074 A 
ATOM     68  C   UNL A   1      41.860  33.145  30.903  1.00  0.00     0.031 C 
ATOM     69  C   UNL A   1      44.033  32.531  29.872  1.00  0.00     0.034 A 
BRANCH  56  70
ATOM     70  C   UNL A   1      46.880  28.104  26.566  1.00  0.00     0.023 A 
ATOM     71  C   UNL A   1      47.122  28.205  25.184  1.00  0.00     0.031 A 
ATOM     72  C   UNL A   1      47.839  27.441  27.353  1.00  0.00     0.131 A 
ATOM     73  C   UNL A   1      48.247  27.578  24.622  1.00  0.00     0.055 A 
ATOM     74  C   UNL A   1      48.996  26.891  26.799  1.00  0.00     0.041 A 
ATOM     75  F   UNL A   1      47.655  27.293  28.674  1.00  0.00    -0.206 F 
ATOM     76  C   UNL A   1      49.196  26.940  25.423  1.00  0.00     0.022 A 
BRANCH  73  77
ATOM     77  S   UNL A   1      48.363  27.459  22.814  1.00  0.00     0.124 S 
ATOM     78  O   UNL A   1      47.151  28.158  22.392  1.00  0.00    -0.237 OA
ATOM     79  O   UNL A   1      49.624  28.137  22.535  1.00  0.00    -0.237 OA
ATOM     80  O   UNL A   1      48.360  26.019  22.564  1.00  0.00    -0.744 OA
ENDBRANCH  73  77
ENDBRANCH  56  70
BRANCH  57  81
ATOM     81  C   UNL A   1      38.263  30.936  30.854  1.00  0.00     0.023 A 
ATOM     82  C   UNL A   1      37.284  31.672  30.169  1.00  0.00     0.031 A 
ATOM     83  C   UNL A   1      38.022  30.606  32.199  1.00  0.00     0.131 A 
ATOM     84  C   UNL A   1      36.118  32.075  30.838  1.00  0.00     0.055 A 
ATOM     85  C   UNL A   1      36.842  30.971  32.849  1.00  0.00     0.041 A 
ATOM     86  F   UNL A   1      38.928  29.902  32.898  1.00  0.00    -0.206 F 
ATOM     87  C   UNL A   1      35.885  31.717  32.169  1.00  0.00     0.022 A 
BRANCH  84  88
ATOM     88  S   UNL A   1      34.923  33.116  29.957  1.00  0.00     0.124 S 
ATOM     89  O   UNL A   1      34.354  32.172  29.001  1.00  0.00    -0.237 OA
ATOM     90  O   UNL A   1      34.041  33.547  31.036  1.00  0.00    -0.237 OA
ATOM     91  O   UNL A   1      35.752  34.169  29.375  1.00  0.00    -0.744 OA
ENDBRANCH  84  88
ENDBRANCH  57  81
BRANCH  69  92
ATOM     92  C   UNL A   1      44.583  33.833  30.401  1.00  0.00     0.023 A 
ATOM     93  C   UNL A   1      44.456  35.033  29.680  1.00  0.00     0.031 A 
ATOM     94  C   UNL A   1      45.268  33.866  31.629  1.00  0.00     0.131 A 
ATOM     95  C   UNL A   1      45.051  36.208  30.167  1.00  0.00     0.055 A 
ATOM     96  C   UNL A   1      45.810  35.050  32.135  1.00  0.00     0.041 A 
ATOM     97  F   UNL A   1      45.423  32.749  32.356  1.00  0.00    -0.206 F 
ATOM     98  C   UNL A   1      45.713  36.225  31.397  1.00  0.00     0.022 A 
BRANCH  95  99
ATOM     99  S   UNL A   1      45.024  37.696  29.129  1.00  0.00     0.124 S 
ATOM    100  O   UNL A   1      46.242  38.382  29.550  1.00  0.00    -0.237 OA
ATOM    101  O   UNL A   1      45.039  37.137  27.781  1.00  0.00    -0.237 OA
ATOM    102  O   UNL A   1      43.777  38.357  29.511  1.00  0.00    -0.744 OA
ENDBRANCH  95  99
ENDBRANCH  69  92
ENDBRANCH  43  44
ENDBRANCH  36  38
ENDBRANCH  35  36
ENDBRANCH  34  35
ENDBRANCH  33  34
ENDBRANCH  32  33
ENDBRANCH  30  32
ENDBRANCH   1  30
TORSDOF 24
ENDMDL
MODEL 3
REMARK VINA RESULT:     -10.2      5.513     11.590
REMARK SMILES CCCCCCNC(=O)Oc1cccc(-c2ccc([C@@H](C)C(=O)OCCOC(=O)c3ccc(-c4c5nc(c(-c6cc(S(=O)(=O)[O-])ccc6F)c6ccc([nH]6)c(-c6cc(S(=O)(=O)[O-])ccc6F)c6nc(c(-c7cc(S(=O)(=O)[O-])ccc7F)c7ccc4[nH]7)C=C6)C=C5)cc3)cc2C(F)(F)F)c1
REMARK SMILES IDX 20 1 21 2 19 3 16 4 17 5 94 6 18 7 93 8 15 9 11 10 12 11
REMARK SMILES IDX 99 12 13 13 14 14 10 15 8 16 7 17 9 19 6 20 5 21 4 22 3 23
REMARK SMILES IDX 2 24 1 25 95 26 96 27 97 28 98 29 22 30 23 31 24 32 25 33
REMARK SMILES IDX 26 34 27 35 28 36 29 37 30 38 31 39 92 40 32 41 91 42 33 43
REMARK SMILES IDX 34 44 35 45 85 46 36 47 90 48 84 49 86 50 37 51 89 52 83 53
REMARK SMILES IDX 82 54 38 56 70 57 50 58 69 59 51 60 54 61 68 62 87 63 52 64
REMARK SMILES IDX 53 65 67 67 88 68 55 69 39 70 40 71 48 72 41 73 47 74 49 75
REMARK SMILES IDX 46 76 42 77 43 78 44 79 45 80 71 81 72 82 80 83 73 84 79 85
REMARK SMILES IDX 81 86 78 87 74 88 75 89 76 90 77 91 56 92 57 93 65 94 58 95
REMARK SMILES IDX 64 96 66 97 63 98 59 99 60 100 61 101 62 102
REMARK H PARENT 7 18 86 55 54 66
REMARK Flexibility Score: inf
ROOT
ATOM      1  C   UNL A   1      34.026  32.863  28.647  1.00  0.00     0.126 C 
ATOM      2  C   UNL A   1      35.472  32.478  28.952  1.00  0.00     0.025 C 
ENDROOT
BRANCH   1   3
ATOM      3  C   UNL A   1      33.327  31.831  27.773  1.00  0.00    -0.033 A 
ATOM      4  C   UNL A   1      32.091  29.871  26.109  1.00  0.00    -0.006 A 
ATOM      5  C   UNL A   1      31.445  31.077  26.443  1.00  0.00     0.009 A 
ATOM      6  C   UNL A   1      33.386  29.647  26.622  1.00  0.00     0.064 A 
ATOM      7  C   UNL A   1      32.053  32.045  27.247  1.00  0.00     0.005 A 
ATOM      8  C   UNL A   1      33.975  30.624  27.459  1.00  0.00     0.018 A 
BRANCH   4   9
ATOM      9  C   UNL A   1      31.401  28.939  25.196  1.00  0.00    -0.014 A 
ATOM     10  C   UNL A   1      30.615  26.734  24.574  1.00  0.00     0.133 A 
ATOM     11  C   UNL A   1      30.131  27.217  23.360  1.00  0.00     0.047 A 
ATOM     12  C   UNL A   1      31.243  27.577  25.494  1.00  0.00     0.056 A 
ATOM     13  C   UNL A   1      30.260  28.568  23.062  1.00  0.00     0.004 A 
ATOM     14  C   UNL A   1      30.894  29.419  23.971  1.00  0.00     0.009 A 
BRANCH  10  15
ATOM     15  O   UNL A   1      30.576  25.340  24.746  1.00  0.00    -0.410 OA
BRANCH  15  16
ATOM     16  C   UNL A   1      30.450  24.815  26.022  1.00  0.00     0.412 C 
ATOM     17  N   UNL A   1      31.451  23.935  26.337  1.00  0.00    -0.321 N 
ATOM     18  H   UNL A   1      31.425  23.541  27.238  1.00  0.00     0.167 HD
ATOM     19  O   UNL A   1      29.543  25.049  26.811  1.00  0.00    -0.224 OA
BRANCH  17  20
ATOM     20  C   UNL A   1      32.547  23.524  25.478  1.00  0.00     0.119 C 
BRANCH  20  21
ATOM     21  C   UNL A   1      32.115  22.514  24.417  1.00  0.00     0.021 C 
BRANCH  21  22
ATOM     22  C   UNL A   1      33.192  21.507  23.999  1.00  0.00     0.002 C 
BRANCH  22  23
ATOM     23  C   UNL A   1      33.639  20.521  25.084  1.00  0.00    -0.000 C 
BRANCH  23  24
ATOM     24  C   UNL A   1      33.824  19.073  24.625  1.00  0.00    -0.003 C 
ATOM     25  C   UNL A   1      32.557  18.238  24.735  1.00  0.00     0.004 C 
ENDBRANCH  23  24
ENDBRANCH  22  23
ENDBRANCH  21  22
ENDBRANCH  20  21
ENDBRANCH  17  20
ENDBRANCH  15  16
ENDBRANCH  10  15
ENDBRANCH   4   9
BRANCH   6  26
ATOM     26  C   UNL A   1      34.190  28.394  26.335  1.00  0.00     0.417 C 
ATOM     27  F   UNL A   1      34.331  28.170  24.995  1.00  0.00    -0.166 F 
ATOM     28  F   UNL A   1      35.452  28.463  26.836  1.00  0.00    -0.166 F 
ATOM     29  F   UNL A   1      33.642  27.247  26.822  1.00  0.00    -0.166 F 
ENDBRANCH   6  26
ENDBRANCH   1   3
BRANCH   1  30
ATOM     30  C   UNL A   1      33.964  34.310  28.168  1.00  0.00     0.313 C 
ATOM     31  O   UNL A   1      34.700  34.734  27.281  1.00  0.00    -0.252 OA
BRANCH  30  32
ATOM     32  O   UNL A   1      33.000  35.050  28.774  1.00  0.00    -0.462 OA
BRANCH  32  33
ATOM     33  C   UNL A   1      33.350  36.395  29.150  1.00  0.00     0.274 C 
BRANCH  33  34
ATOM     34  C   UNL A   1      32.607  36.822  30.417  1.00  0.00     0.275 C 
BRANCH  34  35
ATOM     35  O   UNL A   1      33.405  36.592  31.591  1.00  0.00    -0.458 OA
BRANCH  35  36
ATOM     36  C   UNL A   1      33.148  35.431  32.239  1.00  0.00     0.338 C 
ATOM     37  O   UNL A   1      32.058  34.957  32.505  1.00  0.00    -0.246 OA
BRANCH  36  38
ATOM     38  C   UNL A   1      34.412  34.724  32.482  1.00  0.00     0.060 A 
ATOM     39  C   UNL A   1      34.371  33.530  33.204  1.00  0.00     0.016 A 
ATOM     40  C   UNL A   1      35.629  35.265  32.071  1.00  0.00     0.016 A 
ATOM     41  C   UNL A   1      35.550  32.871  33.533  1.00  0.00     0.010 A 
ATOM     42  C   UNL A   1      36.814  34.594  32.387  1.00  0.00     0.010 A 
ATOM     43  C   UNL A   1      36.782  33.399  33.129  1.00  0.00    -0.014 A 
BRANCH  43  44
ATOM     44  C   UNL A   1      38.038  32.719  33.524  1.00  0.00     0.031 A 
ATOM     45  C   UNL A   1      38.587  31.613  32.670  1.00  0.00     0.074 A 
ATOM     46  C   UNL A   1      38.689  33.109  34.635  1.00  0.00     0.049 A 
ATOM     47  N   UNL A   1      39.612  30.830  32.883  1.00  0.00    -0.248 NA
ATOM     48  C   UNL A   1      37.878  31.353  31.409  1.00  0.00     0.031 C 
ATOM     49  C   UNL A   1      38.278  34.210  35.509  1.00  0.00     0.029 A 
ATOM     50  N   UNL A   1      39.830  32.625  35.220  1.00  0.00    -0.354 N 
ATOM     51  C   UNL A   1      39.662  29.966  31.795  1.00  0.00     0.074 A 
ATOM     52  C   UNL A   1      38.544  30.309  30.939  1.00  0.00     0.031 C 
ATOM     53  C   UNL A   1      39.160  34.321  36.515  1.00  0.00     0.029 A 
ATOM     54  C   UNL A   1      40.162  33.265  36.391  1.00  0.00     0.049 A 
ATOM     55  H   UNL A   1      40.362  31.889  34.839  1.00  0.00     0.167 HD
ATOM     56  C   UNL A   1      40.560  28.982  31.537  1.00  0.00     0.034 A 
ATOM     57  C   UNL A   1      41.139  33.007  37.280  1.00  0.00     0.034 A 
ATOM     58  C   UNL A   1      41.666  28.660  32.408  1.00  0.00     0.049 A 
ATOM     59  C   UNL A   1      42.065  31.847  37.023  1.00  0.00     0.074 A 
ATOM     60  C   UNL A   1      42.653  27.704  32.237  1.00  0.00     0.029 A 
ATOM     61  N   UNL A   1      41.926  29.279  33.626  1.00  0.00    -0.354 N 
ATOM     62  N   UNL A   1      42.092  31.021  36.003  1.00  0.00    -0.248 NA
ATOM     63  C   UNL A   1      43.084  31.580  38.046  1.00  0.00     0.031 C 
ATOM     64  C   UNL A   1      43.462  27.696  33.380  1.00  0.00     0.029 A 
ATOM     65  C   UNL A   1      43.028  28.697  34.236  1.00  0.00     0.049 A 
ATOM     66  H   UNL A   1      41.403  30.023  34.002  1.00  0.00     0.167 HD
ATOM     67  C   UNL A   1      43.140  30.142  36.256  1.00  0.00     0.074 A 
ATOM     68  C   UNL A   1      43.729  30.551  37.516  1.00  0.00     0.031 C 
ATOM     69  C   UNL A   1      43.580  29.094  35.511  1.00  0.00     0.034 A 
BRANCH  56  70
ATOM     70  C   UNL A   1      40.327  28.146  30.300  1.00  0.00     0.023 A 
ATOM     71  C   UNL A   1      41.080  28.323  29.125  1.00  0.00     0.031 A 
ATOM     72  C   UNL A   1      39.288  27.198  30.275  1.00  0.00     0.131 A 
ATOM     73  C   UNL A   1      40.728  27.629  27.955  1.00  0.00     0.055 A 
ATOM     74  C   UNL A   1      38.996  26.452  29.133  1.00  0.00     0.041 A 
ATOM     75  F   UNL A   1      38.520  26.999  31.358  1.00  0.00    -0.206 F 
ATOM     76  C   UNL A   1      39.705  26.679  27.958  1.00  0.00     0.022 A 
BRANCH  73  77
ATOM     77  S   UNL A   1      41.513  28.109  26.390  1.00  0.00     0.124 S 
ATOM     78  O   UNL A   1      42.844  28.511  26.837  1.00  0.00    -0.237 OA
ATOM     79  O   UNL A   1      41.442  26.877  25.613  1.00  0.00    -0.237 OA
ATOM     80  O   UNL A   1      40.672  29.201  25.906  1.00  0.00    -0.744 OA
ENDBRANCH  73  77
ENDBRANCH  56  70
BRANCH  57  81
ATOM     81  C   UNL A   1      41.258  33.823  38.520  1.00  0.00     0.023 A 
ATOM     82  C   UNL A   1      40.568  33.468  39.689  1.00  0.00     0.031 A 
ATOM     83  C   UNL A   1      42.053  34.983  38.546  1.00  0.00     0.131 A 
ATOM     84  C   UNL A   1      40.668  34.278  40.831  1.00  0.00     0.055 A 
ATOM     85  C   UNL A   1      42.184  35.762  39.696  1.00  0.00     0.041 A 
ATOM     86  F   UNL A   1      42.732  35.365  37.452  1.00  0.00    -0.206 F 
ATOM     87  C   UNL A   1      41.482  35.414  40.846  1.00  0.00     0.022 A 
BRANCH  84  88
ATOM     88  S   UNL A   1      39.682  33.851  42.292  1.00  0.00     0.124 S 
ATOM     89  O   UNL A   1      40.629  34.097  43.373  1.00  0.00    -0.237 OA
ATOM     90  O   UNL A   1      38.567  34.787  42.190  1.00  0.00    -0.237 OA
ATOM     91  O   UNL A   1      39.336  32.448  42.072  1.00  0.00    -0.744 OA
ENDBRANCH  84  88
ENDBRANCH  57  81
BRANCH  69  92
ATOM     92  C   UNL A   1      44.770  28.337  36.046  1.00  0.00     0.023 A 
ATOM     93  C   UNL A   1      44.616  27.187  36.840  1.00  0.00     0.031 A 
ATOM     94  C   UNL A   1      46.075  28.791  35.782  1.00  0.00     0.131 A 
ATOM     95  C   UNL A   1      45.746  26.557  37.385  1.00  0.00     0.055 A 
ATOM     96  C   UNL A   1      47.197  28.127  36.282  1.00  0.00     0.041 A 
ATOM     97  F   UNL A   1      46.280  29.887  35.035  1.00  0.00    -0.206 F 
ATOM     98  C   UNL A   1      47.035  27.012  37.098  1.00  0.00     0.022 A 
BRANCH  95  99
ATOM     99  S   UNL A   1      45.504  25.186  38.548  1.00  0.00     0.124 S 
ATOM    100  O   UNL A   1      44.341  24.508  37.981  1.00  0.00    -0.237 OA
ATOM    101  O   UNL A   1      46.771  24.468  38.453  1.00  0.00    -0.237 OA
ATOM    102  O   UNL A   1      45.268  25.857  39.825  1.00  0.00    -0.744 OA
ENDBRANCH  95  99
ENDBRANCH  69  92
ENDBRANCH  43  44
ENDBRANCH  36  38
ENDBRANCH  35  36
ENDBRANCH  34  35
ENDBRANCH  33  34
ENDBRANCH  32  33
ENDBRANCH  30  32
ENDBRANCH   1  30
TORSDOF 24
ENDMDL
