MODEL 1
REMARK VINA RESULT:     -12.7      0.000      0.000
REMARK SMILES Nc1c(C(=O)OCC2c3ccccc3-c3ccccc32)ccc(F)c1C(=O)OCCOC(=O)c1ccc(-c2c3nc(c(-c4cc(S(=O)(=O)[O-])ccc4F)c4ccc([nH]4)c(-c4cc(S(=O)(=O)[O-])ccc4F)c4nc(c(-c5cc(S(=O)(=O)[O-])ccc5F)c5ccc2[nH]5)C=C4)C=C3)cc1
REMARK SMILES IDX 29 1 28 2 26 3 27 4 25 5 2 6 3 7 21 8 23 9 22 10 24 11 1 12
REMARK SMILES IDX 4 15 5 16 6 17 7 18 8 19 9 20 20 21 10 22 14 23 15 24 19 25
REMARK SMILES IDX 11 26 13 27 16 28 18 29 12 30 17 31 30 32 31 33 32 34 33 35
REMARK SMILES IDX 34 36 35 37 96 38 36 39 95 40 37 41 38 42 39 43 89 44 40 45
REMARK SMILES IDX 94 46 88 47 90 48 41 49 93 50 87 51 86 52 42 54 74 55 54 56
REMARK SMILES IDX 73 57 55 58 58 59 72 60 91 61 56 62 57 63 71 65 92 66 59 67
REMARK SMILES IDX 43 68 44 69 52 70 45 71 51 72 53 73 50 74 46 75 47 76 48 77
REMARK SMILES IDX 49 78 75 79 76 80 84 81 77 82 83 83 85 84 82 85 78 86 79 87
REMARK SMILES IDX 80 88 81 89 60 90 61 91 69 92 62 93 68 94 70 95 67 96 63 97
REMARK SMILES IDX 64 98 65 99 66 100
REMARK H PARENT 1 13 1 14 90 53 58 64
REMARK Flexibility Score: inf
ROOT
ATOM      1  C   UNL A   1      35.068  20.470  25.281  1.00  0.00     0.275 C 
ENDROOT
BRANCH   1   2
ATOM      2  O   UNL A   1      34.204  21.622  25.333  1.00  0.00    -0.458 OA
BRANCH   2   3
ATOM      3  C   UNL A   1      33.828  22.067  26.563  1.00  0.00     0.343 C 
ATOM      4  O   UNL A   1      33.997  21.479  27.616  1.00  0.00    -0.246 OA
BRANCH   3   5
ATOM      5  C   UNL A   1      33.231  23.419  26.439  1.00  0.00     0.119 A 
ATOM      6  C   UNL A   1      33.948  24.509  25.899  1.00  0.00     0.064 A 
ATOM      7  C   UNL A   1      33.273  25.750  25.805  1.00  0.00     0.084 A 
ATOM      8  C   UNL A   1      31.977  25.918  26.325  1.00  0.00     0.021 A 
ATOM      9  C   UNL A   1      31.902  23.585  26.856  1.00  0.00     0.139 A 
ATOM     10  C   UNL A   1      31.288  24.830  26.841  1.00  0.00     0.041 A 
ATOM     11  F   UNL A   1      31.173  22.545  27.282  1.00  0.00    -0.206 F 
BRANCH   6  12
ATOM     12  N   UNL A   1      35.222  24.326  25.345  1.00  0.00    -0.397 N 
ATOM     13  H   UNL A   1      35.318  23.893  24.467  1.00  0.00     0.156 HD
ATOM     14  H   UNL A   1      36.019  24.631  25.834  1.00  0.00     0.156 HD
ENDBRANCH   6  12
BRANCH   7  15
ATOM     15  C   UNL A   1      33.834  26.929  25.102  1.00  0.00     0.340 C 
ATOM     16  O   UNL A   1      33.958  28.031  25.611  1.00  0.00    -0.246 OA
BRANCH  15  17
ATOM     17  O   UNL A   1      34.012  26.616  23.791  1.00  0.00    -0.461 OA
BRANCH  17  18
ATOM     18  C   UNL A   1      33.367  27.483  22.854  1.00  0.00     0.246 C 
BRANCH  18  19
ATOM     19  C   UNL A   1      32.305  26.730  22.028  1.00  0.00     0.088 C 
ATOM     20  C   UNL A   1      32.236  25.233  22.315  1.00  0.00    -0.029 A 
ATOM     21  C   UNL A   1      30.924  27.186  22.488  1.00  0.00    -0.029 A 
ATOM     22  C   UNL A   1      33.135  24.241  21.947  1.00  0.00     0.005 A 
ATOM     23  C   UNL A   1      31.058  24.924  23.025  1.00  0.00    -0.014 A 
ATOM     24  C   UNL A   1      30.250  26.121  23.126  1.00  0.00    -0.014 A 
ATOM     25  C   UNL A   1      30.365  28.452  22.398  1.00  0.00     0.005 A 
ATOM     26  C   UNL A   1      32.896  22.937  22.381  1.00  0.00     0.000 A 
ATOM     27  C   UNL A   1      30.824  23.631  23.461  1.00  0.00     0.009 A 
ATOM     28  C   UNL A   1      29.006  26.325  23.696  1.00  0.00     0.009 A 
ATOM     29  C   UNL A   1      29.111  28.653  22.972  1.00  0.00     0.000 A 
ATOM     30  C   UNL A   1      31.760  22.638  23.147  1.00  0.00     0.001 A 
ATOM     31  C   UNL A   1      28.440  27.602  23.620  1.00  0.00     0.001 A 
ENDBRANCH  18  19
ENDBRANCH  17  18
ENDBRANCH  15  17
ENDBRANCH   7  15
ENDBRANCH   3   5
ENDBRANCH   2   3
ENDBRANCH   1   2
BRANCH   1  32
ATOM     32  C   UNL A   1      36.425  20.867  24.703  1.00  0.00     0.275 C 
BRANCH  32  33
ATOM     33  O   UNL A   1      37.123  21.695  25.648  1.00  0.00    -0.458 OA
BRANCH  33  34
ATOM     34  C   UNL A   1      38.427  21.390  25.836  1.00  0.00     0.338 C 
ATOM     35  O   UNL A   1      39.019  20.394  25.461  1.00  0.00    -0.246 OA
BRANCH  34  36
ATOM     36  C   UNL A   1      39.091  22.528  26.485  1.00  0.00     0.060 A 
ATOM     37  C   UNL A   1      38.631  23.805  26.180  1.00  0.00     0.016 A 
ATOM     38  C   UNL A   1      40.219  22.362  27.281  1.00  0.00     0.016 A 
ATOM     39  C   UNL A   1      39.343  24.928  26.588  1.00  0.00     0.010 A 
ATOM     40  C   UNL A   1      40.881  23.496  27.773  1.00  0.00     0.010 A 
ATOM     41  C   UNL A   1      40.474  24.794  27.403  1.00  0.00    -0.014 A 
BRANCH  41  42
ATOM     42  C   UNL A   1      41.256  25.999  27.818  1.00  0.00     0.031 A 
ATOM     43  C   UNL A   1      40.602  27.061  28.668  1.00  0.00     0.074 A 
ATOM     44  C   UNL A   1      42.550  26.143  27.465  1.00  0.00     0.049 A 
ATOM     45  N   UNL A   1      41.021  28.264  28.966  1.00  0.00    -0.248 NA
ATOM     46  C   UNL A   1      39.292  26.725  29.246  1.00  0.00     0.031 C 
ATOM     47  C   UNL A   1      43.335  25.168  26.704  1.00  0.00     0.029 A 
ATOM     48  N   UNL A   1      43.441  27.163  27.703  1.00  0.00    -0.354 N 
ATOM     49  C   UNL A   1      40.005  28.849  29.716  1.00  0.00     0.074 A 
ATOM     50  C   UNL A   1      38.944  27.870  29.815  1.00  0.00     0.031 C 
ATOM     51  C   UNL A   1      44.591  25.619  26.570  1.00  0.00     0.029 A 
ATOM     52  C   UNL A   1      44.680  26.958  27.140  1.00  0.00     0.049 A 
ATOM     53  H   UNL A   1      43.213  27.965  28.228  1.00  0.00     0.167 HD
ATOM     54  C   UNL A   1      39.963  30.089  30.267  1.00  0.00     0.034 A 
ATOM     55  C   UNL A   1      45.752  27.771  27.042  1.00  0.00     0.034 A 
ATOM     56  C   UNL A   1      41.051  31.036  30.199  1.00  0.00     0.049 A 
ATOM     57  C   UNL A   1      45.665  29.163  27.616  1.00  0.00     0.074 A 
ATOM     58  C   UNL A   1      41.115  32.317  30.723  1.00  0.00     0.029 A 
ATOM     59  N   UNL A   1      42.274  30.803  29.583  1.00  0.00    -0.354 N 
ATOM     60  N   UNL A   1      44.664  29.734  28.246  1.00  0.00    -0.248 NA
ATOM     61  C   UNL A   1      46.843  30.023  27.451  1.00  0.00     0.031 C 
ATOM     62  C   UNL A   1      42.350  32.876  30.374  1.00  0.00     0.029 A 
ATOM     63  C   UNL A   1      43.088  31.920  29.698  1.00  0.00     0.049 A 
ATOM     64  H   UNL A   1      42.527  29.965  29.131  1.00  0.00     0.167 HD
ATOM     65  C   UNL A   1      45.103  31.016  28.567  1.00  0.00     0.074 A 
ATOM     66  C   UNL A   1      46.464  31.123  28.083  1.00  0.00     0.031 C 
ATOM     67  C   UNL A   1      44.440  32.017  29.200  1.00  0.00     0.034 A 
BRANCH  54  68
ATOM     68  C   UNL A   1      38.678  30.513  30.937  1.00  0.00     0.023 A 
ATOM     69  C   UNL A   1      37.627  31.123  30.231  1.00  0.00     0.031 A 
ATOM     70  C   UNL A   1      38.511  30.316  32.321  1.00  0.00     0.131 A 
ATOM     71  C   UNL A   1      36.488  31.571  30.918  1.00  0.00     0.055 A 
ATOM     72  C   UNL A   1      37.343  30.693  32.986  1.00  0.00     0.041 A 
ATOM     73  F   UNL A   1      39.488  29.759  33.053  1.00  0.00    -0.206 F 
ATOM     74  C   UNL A   1      36.328  31.338  32.287  1.00  0.00     0.022 A 
BRANCH  71  75
ATOM     75  S   UNL A   1      35.273  32.580  30.025  1.00  0.00     0.124 S 
ATOM     76  O   UNL A   1      34.894  31.685  28.934  1.00  0.00    -0.237 OA
ATOM     77  O   UNL A   1      34.254  32.818  31.040  1.00  0.00    -0.237 OA
ATOM     78  O   UNL A   1      36.038  33.758  29.620  1.00  0.00    -0.744 OA
ENDBRANCH  71  75
ENDBRANCH  54  68
BRANCH  55  79
ATOM     79  C   UNL A   1      46.971  27.332  26.299  1.00  0.00     0.023 A 
ATOM     80  C   UNL A   1      47.190  27.710  24.965  1.00  0.00     0.031 A 
ATOM     81  C   UNL A   1      47.916  26.481  26.904  1.00  0.00     0.131 A 
ATOM     82  C   UNL A   1      48.299  27.204  24.266  1.00  0.00     0.055 A 
ATOM     83  C   UNL A   1      49.051  26.033  26.226  1.00  0.00     0.041 A 
ATOM     84  F   UNL A   1      47.754  26.079  28.175  1.00  0.00    -0.206 F 
ATOM     85  C   UNL A   1      49.240  26.384  24.894  1.00  0.00     0.022 A 
BRANCH  82  86
ATOM     86  S   UNL A   1      48.444  27.554  22.492  1.00  0.00     0.124 S 
ATOM     87  O   UNL A   1      48.538  26.211  21.931  1.00  0.00    -0.237 OA
ATOM     88  O   UNL A   1      47.206  28.277  22.223  1.00  0.00    -0.237 OA
ATOM     89  O   UNL A   1      49.663  28.355  22.402  1.00  0.00    -0.744 OA
ENDBRANCH  82  86
ENDBRANCH  55  79
BRANCH  67  90
ATOM     90  C   UNL A   1      45.204  33.294  29.442  1.00  0.00     0.023 A 
ATOM     91  C   UNL A   1      45.112  34.388  28.563  1.00  0.00     0.031 A 
ATOM     92  C   UNL A   1      46.056  33.409  30.555  1.00  0.00     0.131 A 
ATOM     93  C   UNL A   1      45.902  35.527  28.780  1.00  0.00     0.055 A 
ATOM     94  C   UNL A   1      46.796  34.566  30.797  1.00  0.00     0.041 A 
ATOM     95  F   UNL A   1      46.183  32.393  31.423  1.00  0.00    -0.206 F 
ATOM     96  C   UNL A   1      46.732  35.628  29.900  1.00  0.00     0.022 A 
BRANCH  93  97
ATOM     97  S   UNL A   1      45.903  36.840  27.529  1.00  0.00     0.124 S 
ATOM     98  O   UNL A   1      44.554  36.742  26.983  1.00  0.00    -0.237 OA
ATOM     99  O   UNL A   1      46.185  38.031  28.325  1.00  0.00    -0.237 OA
ATOM    100  O   UNL A   1      46.972  36.441  26.614  1.00  0.00    -0.744 OA
ENDBRANCH  93  97
ENDBRANCH  67  90
ENDBRANCH  41  42
ENDBRANCH  34  36
ENDBRANCH  33  34
ENDBRANCH  32  33
ENDBRANCH   1  32
TORSDOF 19
ENDMDL
MODEL 2
REMARK VINA RESULT:     -12.6      1.288      1.534
REMARK SMILES Nc1c(C(=O)OCC2c3ccccc3-c3ccccc32)ccc(F)c1C(=O)OCCOC(=O)c1ccc(-c2c3nc(c(-c4cc(S(=O)(=O)[O-])ccc4F)c4ccc([nH]4)c(-c4cc(S(=O)(=O)[O-])ccc4F)c4nc(c(-c5cc(S(=O)(=O)[O-])ccc5F)c5ccc2[nH]5)C=C4)C=C3)cc1
REMARK SMILES IDX 29 1 28 2 26 3 27 4 25 5 2 6 3 7 21 8 23 9 22 10 24 11 1 12
REMARK SMILES IDX 4 15 5 16 6 17 7 18 8 19 9 20 20 21 10 22 14 23 15 24 19 25
REMARK SMILES IDX 11 26 13 27 16 28 18 29 12 30 17 31 30 32 31 33 32 34 33 35
REMARK SMILES IDX 34 36 35 37 96 38 36 39 95 40 37 41 38 42 39 43 89 44 40 45
REMARK SMILES IDX 94 46 88 47 90 48 41 49 93 50 87 51 86 52 42 54 74 55 54 56
REMARK SMILES IDX 73 57 55 58 58 59 72 60 91 61 56 62 57 63 71 65 92 66 59 67
REMARK SMILES IDX 43 68 44 69 52 70 45 71 51 72 53 73 50 74 46 75 47 76 48 77
REMARK SMILES IDX 49 78 75 79 76 80 84 81 77 82 83 83 85 84 82 85 78 86 79 87
REMARK SMILES IDX 80 88 81 89 60 90 61 91 69 92 62 93 68 94 70 95 67 96 63 97
REMARK SMILES IDX 64 98 65 99 66 100
REMARK H PARENT 1 13 1 14 90 53 58 64
REMARK Flexibility Score: inf
ROOT
ATOM      1  C   UNL A   1      35.028  20.434  25.253  1.00  0.00     0.275 C 
ENDROOT
BRANCH   1   2
ATOM      2  O   UNL A   1      34.219  21.626  25.310  1.00  0.00    -0.458 OA
BRANCH   2   3
ATOM      3  C   UNL A   1      33.826  22.057  26.539  1.00  0.00     0.343 C 
ATOM      4  O   UNL A   1      33.970  21.451  27.587  1.00  0.00    -0.246 OA
BRANCH   3   5
ATOM      5  C   UNL A   1      33.247  23.417  26.426  1.00  0.00     0.119 A 
ATOM      6  C   UNL A   1      33.966  24.495  25.866  1.00  0.00     0.064 A 
ATOM      7  C   UNL A   1      33.307  25.746  25.784  1.00  0.00     0.084 A 
ATOM      8  C   UNL A   1      32.026  25.933  26.334  1.00  0.00     0.021 A 
ATOM      9  C   UNL A   1      31.930  23.603  26.873  1.00  0.00     0.139 A 
ATOM     10  C   UNL A   1      31.333  24.856  26.869  1.00  0.00     0.041 A 
ATOM     11  F   UNL A   1      31.196  22.575  27.319  1.00  0.00    -0.206 F 
BRANCH   6  12
ATOM     12  N   UNL A   1      35.224  24.292  25.283  1.00  0.00    -0.397 N 
ATOM     13  H   UNL A   1      35.289  23.962  24.358  1.00  0.00     0.156 HD
ATOM     14  H   UNL A   1      36.041  24.481  25.798  1.00  0.00     0.156 HD
ENDBRANCH   6  12
BRANCH   7  15
ATOM     15  C   UNL A   1      33.868  26.914  25.065  1.00  0.00     0.340 C 
ATOM     16  O   UNL A   1      34.002  28.020  25.563  1.00  0.00    -0.246 OA
BRANCH  15  17
ATOM     17  O   UNL A   1      34.034  26.587  23.756  1.00  0.00    -0.461 OA
BRANCH  17  18
ATOM     18  C   UNL A   1      33.395  27.455  22.815  1.00  0.00     0.246 C 
BRANCH  18  19
ATOM     19  C   UNL A   1      32.315  26.711  22.005  1.00  0.00     0.088 C 
ATOM     20  C   UNL A   1      32.236  25.216  22.295  1.00  0.00    -0.029 A 
ATOM     21  C   UNL A   1      30.944  27.181  22.483  1.00  0.00    -0.029 A 
ATOM     22  C   UNL A   1      33.120  24.215  21.916  1.00  0.00     0.005 A 
ATOM     23  C   UNL A   1      31.065  24.919  23.022  1.00  0.00    -0.014 A 
ATOM     24  C   UNL A   1      30.269  26.123  23.133  1.00  0.00    -0.014 A 
ATOM     25  C   UNL A   1      30.397  28.452  22.399  1.00  0.00     0.005 A 
ATOM     26  C   UNL A   1      32.875  22.914  22.355  1.00  0.00     0.000 A 
ATOM     27  C   UNL A   1      30.824  23.628  23.462  1.00  0.00     0.009 A 
ATOM     28  C   UNL A   1      29.036  26.340  23.719  1.00  0.00     0.009 A 
ATOM     29  C   UNL A   1      29.152  28.666  22.991  1.00  0.00     0.000 A 
ATOM     30  C   UNL A   1      31.746  22.626  23.137  1.00  0.00     0.001 A 
ATOM     31  C   UNL A   1      28.481  27.622  23.649  1.00  0.00     0.001 A 
ENDBRANCH  18  19
ENDBRANCH  17  18
ENDBRANCH  15  17
ENDBRANCH   7  15
ENDBRANCH   3   5
ENDBRANCH   2   3
ENDBRANCH   1   2
BRANCH   1  32
ATOM     32  C   UNL A   1      36.412  20.775  24.703  1.00  0.00     0.275 C 
BRANCH  32  33
ATOM     33  O   UNL A   1      37.108  21.608  25.646  1.00  0.00    -0.458 OA
BRANCH  33  34
ATOM     34  C   UNL A   1      38.389  21.255  25.899  1.00  0.00     0.338 C 
ATOM     35  O   UNL A   1      38.944  20.211  25.605  1.00  0.00    -0.246 OA
BRANCH  34  36
ATOM     36  C   UNL A   1      39.085  22.399  26.503  1.00  0.00     0.060 A 
ATOM     37  C   UNL A   1      38.614  23.673  26.206  1.00  0.00     0.016 A 
ATOM     38  C   UNL A   1      40.250  22.238  27.245  1.00  0.00     0.016 A 
ATOM     39  C   UNL A   1      39.346  24.799  26.567  1.00  0.00     0.010 A 
ATOM     40  C   UNL A   1      40.937  23.376  27.692  1.00  0.00     0.010 A 
ATOM     41  C   UNL A   1      40.515  24.671  27.328  1.00  0.00    -0.014 A 
BRANCH  41  42
ATOM     42  C   UNL A   1      41.318  25.879  27.692  1.00  0.00     0.031 A 
ATOM     43  C   UNL A   1      40.694  26.971  28.525  1.00  0.00     0.074 A 
ATOM     44  C   UNL A   1      42.606  25.998  27.307  1.00  0.00     0.049 A 
ATOM     45  N   UNL A   1      41.133  28.177  28.779  1.00  0.00    -0.248 NA
ATOM     46  C   UNL A   1      39.393  26.666  29.140  1.00  0.00     0.031 C 
ATOM     47  C   UNL A   1      43.364  24.993  26.557  1.00  0.00     0.029 A 
ATOM     48  N   UNL A   1      43.512  27.014  27.498  1.00  0.00    -0.354 N 
ATOM     49  C   UNL A   1      40.139  28.795  29.534  1.00  0.00     0.074 A 
ATOM     50  C   UNL A   1      39.070  27.831  29.684  1.00  0.00     0.031 C 
ATOM     51  C   UNL A   1      44.622  25.427  26.385  1.00  0.00     0.029 A 
ATOM     52  C   UNL A   1      44.737  26.781  26.914  1.00  0.00     0.049 A 
ATOM     53  H   UNL A   1      43.304  27.833  28.004  1.00  0.00     0.167 HD
ATOM     54  C   UNL A   1      40.122  30.050  30.050  1.00  0.00     0.034 A 
ATOM     55  C   UNL A   1      45.815  27.578  26.770  1.00  0.00     0.034 A 
ATOM     56  C   UNL A   1      41.218  30.983  29.932  1.00  0.00     0.049 A 
ATOM     57  C   UNL A   1      45.754  28.987  27.305  1.00  0.00     0.074 A 
ATOM     58  C   UNL A   1      41.306  32.277  30.418  1.00  0.00     0.029 A 
ATOM     59  N   UNL A   1      42.425  30.719  29.298  1.00  0.00    -0.354 N 
ATOM     60  N   UNL A   1      44.774  29.587  27.940  1.00  0.00    -0.248 NA
ATOM     61  C   UNL A   1      46.938  29.829  27.091  1.00  0.00     0.031 C 
ATOM     62  C   UNL A   1      42.539  32.813  30.027  1.00  0.00     0.029 A 
ATOM     63  C   UNL A   1      43.252  31.830  29.362  1.00  0.00     0.049 A 
ATOM     64  H   UNL A   1      42.659  29.866  28.864  1.00  0.00     0.167 HD
ATOM     65  C   UNL A   1      45.233  30.872  28.215  1.00  0.00     0.074 A 
ATOM     66  C   UNL A   1      46.584  30.950  27.699  1.00  0.00     0.031 C 
ATOM     67  C   UNL A   1      44.594  31.898  28.833  1.00  0.00     0.034 A 
BRANCH  54  68
ATOM     68  C   UNL A   1      38.856  30.507  30.736  1.00  0.00     0.023 A 
ATOM     69  C   UNL A   1      37.808  31.133  30.039  1.00  0.00     0.031 A 
ATOM     70  C   UNL A   1      38.706  30.326  32.124  1.00  0.00     0.131 A 
ATOM     71  C   UNL A   1      36.688  31.611  30.739  1.00  0.00     0.055 A 
ATOM     72  C   UNL A   1      37.556  30.733  32.802  1.00  0.00     0.041 A 
ATOM     73  F   UNL A   1      39.682  29.755  32.847  1.00  0.00    -0.206 F 
ATOM     74  C   UNL A   1      36.544  31.393  32.112  1.00  0.00     0.022 A 
BRANCH  71  75
ATOM     75  S   UNL A   1      35.482  32.637  29.855  1.00  0.00     0.124 S 
ATOM     76  O   UNL A   1      36.176  33.921  29.794  1.00  0.00    -0.237 OA
ATOM     77  O   UNL A   1      35.334  31.929  28.589  1.00  0.00    -0.237 OA
ATOM     78  O   UNL A   1      34.307  32.611  30.725  1.00  0.00    -0.744 OA
ENDBRANCH  71  75
ENDBRANCH  54  68
BRANCH  55  79
ATOM     79  C   UNL A   1      47.013  27.105  26.014  1.00  0.00     0.023 A 
ATOM     80  C   UNL A   1      48.100  26.504  26.670  1.00  0.00     0.031 A 
ATOM     81  C   UNL A   1      47.110  27.295  24.622  1.00  0.00     0.131 A 
ATOM     82  C   UNL A   1      49.251  26.155  25.943  1.00  0.00     0.055 A 
ATOM     83  C   UNL A   1      48.228  26.888  23.895  1.00  0.00     0.041 A 
ATOM     84  F   UNL A   1      46.106  27.874  23.944  1.00  0.00    -0.206 F 
ATOM     85  C   UNL A   1      49.314  26.326  24.558  1.00  0.00     0.022 A 
BRANCH  82  86
ATOM     86  S   UNL A   1      50.707  25.564  26.848  1.00  0.00     0.124 S 
ATOM     87  O   UNL A   1      50.148  24.459  27.620  1.00  0.00    -0.237 OA
ATOM     88  O   UNL A   1      51.610  25.197  25.763  1.00  0.00    -0.237 OA
ATOM     89  O   UNL A   1      51.116  26.728  27.631  1.00  0.00    -0.744 OA
ENDBRANCH  82  86
ENDBRANCH  55  79
BRANCH  67  90
ATOM     90  C   UNL A   1      45.377  33.173  29.022  1.00  0.00     0.023 A 
ATOM     91  C   UNL A   1      45.471  34.139  28.005  1.00  0.00     0.031 A 
ATOM     92  C   UNL A   1      46.057  33.412  30.229  1.00  0.00     0.131 A 
ATOM     93  C   UNL A   1      46.277  35.273  28.192  1.00  0.00     0.055 A 
ATOM     94  C   UNL A   1      46.810  34.569  30.431  1.00  0.00     0.041 A 
ATOM     95  F   UNL A   1      46.002  32.521  31.232  1.00  0.00    -0.206 F 
ATOM     96  C   UNL A   1      46.934  35.501  29.404  1.00  0.00     0.022 A 
BRANCH  93  97
ATOM     97  S   UNL A   1      46.530  36.403  26.796  1.00  0.00     0.124 S 
ATOM     98  O   UNL A   1      46.535  35.487  25.660  1.00  0.00    -0.237 OA
ATOM     99  O   UNL A   1      45.374  37.288  26.897  1.00  0.00    -0.237 OA
ATOM    100  O   UNL A   1      47.817  37.030  27.091  1.00  0.00    -0.744 OA
ENDBRANCH  93  97
ENDBRANCH  67  90
ENDBRANCH  41  42
ENDBRANCH  34  36
ENDBRANCH  33  34
ENDBRANCH  32  33
ENDBRANCH   1  32
TORSDOF 19
ENDMDL
MODEL 3
REMARK VINA RESULT:     -12.6      1.828      2.556
REMARK SMILES Nc1c(C(=O)OCC2c3ccccc3-c3ccccc32)ccc(F)c1C(=O)OCCOC(=O)c1ccc(-c2c3nc(c(-c4cc(S(=O)(=O)[O-])ccc4F)c4ccc([nH]4)c(-c4cc(S(=O)(=O)[O-])ccc4F)c4nc(c(-c5cc(S(=O)(=O)[O-])ccc5F)c5ccc2[nH]5)C=C4)C=C3)cc1
REMARK SMILES IDX 29 1 28 2 26 3 27 4 25 5 2 6 3 7 21 8 23 9 22 10 24 11 1 12
REMARK SMILES IDX 4 15 5 16 6 17 7 18 8 19 9 20 20 21 10 22 14 23 15 24 19 25
REMARK SMILES IDX 11 26 13 27 16 28 18 29 12 30 17 31 30 32 31 33 32 34 33 35
REMARK SMILES IDX 34 36 35 37 96 38 36 39 95 40 37 41 38 42 39 43 89 44 40 45
REMARK SMILES IDX 94 46 88 47 90 48 41 49 93 50 87 51 86 52 42 54 74 55 54 56
REMARK SMILES IDX 73 57 55 58 58 59 72 60 91 61 56 62 57 63 71 65 92 66 59 67
REMARK SMILES IDX 43 68 44 69 52 70 45 71 51 72 53 73 50 74 46 75 47 76 48 77
REMARK SMILES IDX 49 78 75 79 76 80 84 81 77 82 83 83 85 84 82 85 78 86 79 87
REMARK SMILES IDX 80 88 81 89 60 90 61 91 69 92 62 93 68 94 70 95 67 96 63 97
REMARK SMILES IDX 64 98 65 99 66 100
REMARK H PARENT 1 13 1 14 90 53 58 64
REMARK Flexibility Score: inf
ROOT
ATOM      1  C   UNL A   1      35.189  20.531  25.394  1.00  0.00     0.275 C 
ENDROOT
BRANCH   1   2
ATOM      2  O   UNL A   1      34.343  20.783  24.255  1.00  0.00    -0.458 OA
BRANCH   2   3
ATOM      3  C   UNL A   1      33.033  20.427  24.358  1.00  0.00     0.343 C 
ATOM      4  O   UNL A   1      32.613  19.299  24.544  1.00  0.00    -0.246 OA
BRANCH   3   5
ATOM      5  C   UNL A   1      32.183  21.639  24.274  1.00  0.00     0.119 A 
ATOM      6  C   UNL A   1      31.675  22.282  25.425  1.00  0.00     0.064 A 
ATOM      7  C   UNL A   1      30.894  23.446  25.230  1.00  0.00     0.084 A 
ATOM      8  C   UNL A   1      30.549  23.886  23.940  1.00  0.00     0.021 A 
ATOM      9  C   UNL A   1      31.912  22.158  22.999  1.00  0.00     0.139 A 
ATOM     10  C   UNL A   1      31.069  23.246  22.823  1.00  0.00     0.041 A 
ATOM     11  F   UNL A   1      32.460  21.621  21.901  1.00  0.00    -0.206 F 
BRANCH   6  12
ATOM     12  N   UNL A   1      32.056  21.863  26.706  1.00  0.00    -0.397 N 
ATOM     13  H   UNL A   1      32.796  22.316  27.172  1.00  0.00     0.156 HD
ATOM     14  H   UNL A   1      31.585  21.117  27.141  1.00  0.00     0.156 HD
ENDBRANCH   6  12
BRANCH   7  15
ATOM     15  C   UNL A   1      30.447  24.319  26.341  1.00  0.00     0.340 C 
ATOM     16  O   UNL A   1      29.813  23.923  27.306  1.00  0.00    -0.246 OA
BRANCH  15  17
ATOM     17  O   UNL A   1      30.706  25.614  26.016  1.00  0.00    -0.461 OA
BRANCH  17  18
ATOM     18  C   UNL A   1      31.657  26.283  26.849  1.00  0.00     0.246 C 
BRANCH  18  19
ATOM     19  C   UNL A   1      32.786  26.920  26.015  1.00  0.00     0.088 C 
ATOM     20  C   UNL A   1      33.640  25.915  25.249  1.00  0.00    -0.029 A 
ATOM     21  C   UNL A   1      32.156  27.709  24.873  1.00  0.00    -0.029 A 
ATOM     22  C   UNL A   1      34.589  25.032  25.745  1.00  0.00     0.005 A 
ATOM     23  C   UNL A   1      33.370  25.995  23.868  1.00  0.00    -0.014 A 
ATOM     24  C   UNL A   1      32.463  27.100  23.635  1.00  0.00    -0.014 A 
ATOM     25  C   UNL A   1      31.334  28.823  24.951  1.00  0.00     0.005 A 
ATOM     26  C   UNL A   1      35.205  24.152  24.855  1.00  0.00     0.000 A 
ATOM     27  C   UNL A   1      33.976  25.117  22.985  1.00  0.00     0.009 A 
ATOM     28  C   UNL A   1      31.931  27.599  22.461  1.00  0.00     0.009 A 
ATOM     29  C   UNL A   1      30.801  29.325  23.765  1.00  0.00     0.000 A 
ATOM     30  C   UNL A   1      34.887  24.182  23.489  1.00  0.00     0.001 A 
ATOM     31  C   UNL A   1      31.091  28.716  22.532  1.00  0.00     0.001 A 
ENDBRANCH  18  19
ENDBRANCH  17  18
ENDBRANCH  15  17
ENDBRANCH   7  15
ENDBRANCH   3   5
ENDBRANCH   2   3
ENDBRANCH   1   2
BRANCH   1  32
ATOM     32  C   UNL A   1      36.646  20.434  24.944  1.00  0.00     0.275 C 
BRANCH  32  33
ATOM     33  O   UNL A   1      37.409  21.480  25.570  1.00  0.00    -0.458 OA
BRANCH  33  34
ATOM     34  C   UNL A   1      38.686  21.160  25.883  1.00  0.00     0.338 C 
ATOM     35  O   UNL A   1      39.276  20.125  25.629  1.00  0.00    -0.246 OA
BRANCH  34  36
ATOM     36  C   UNL A   1      39.329  22.327  26.500  1.00  0.00     0.060 A 
ATOM     37  C   UNL A   1      38.897  23.588  26.103  1.00  0.00     0.016 A 
ATOM     38  C   UNL A   1      40.415  22.196  27.358  1.00  0.00     0.016 A 
ATOM     39  C   UNL A   1      39.600  24.726  26.484  1.00  0.00     0.010 A 
ATOM     40  C   UNL A   1      41.065  23.350  27.819  1.00  0.00     0.010 A 
ATOM     41  C   UNL A   1      40.689  24.629  27.359  1.00  0.00    -0.014 A 
BRANCH  41  42
ATOM     42  C   UNL A   1      41.462  25.849  27.745  1.00  0.00     0.031 A 
ATOM     43  C   UNL A   1      40.801  26.926  28.568  1.00  0.00     0.074 A 
ATOM     44  C   UNL A   1      42.756  25.993  27.389  1.00  0.00     0.049 A 
ATOM     45  N   UNL A   1      41.212  28.139  28.837  1.00  0.00    -0.248 NA
ATOM     46  C   UNL A   1      39.493  26.596  29.154  1.00  0.00     0.031 C 
ATOM     47  C   UNL A   1      43.549  25.005  26.652  1.00  0.00     0.029 A 
ATOM     48  N   UNL A   1      43.640  27.024  27.603  1.00  0.00    -0.354 N 
ATOM     49  C   UNL A   1      40.192  28.736  29.572  1.00  0.00     0.074 A 
ATOM     50  C   UNL A   1      39.137  27.752  29.694  1.00  0.00     0.031 C 
ATOM     51  C   UNL A   1      44.801  25.462  26.509  1.00  0.00     0.029 A 
ATOM     52  C   UNL A   1      44.881  26.815  27.046  1.00  0.00     0.049 A 
ATOM     53  H   UNL A   1      43.406  27.837  28.108  1.00  0.00     0.167 HD
ATOM     54  C   UNL A   1      40.141  29.989  30.092  1.00  0.00     0.034 A 
ATOM     55  C   UNL A   1      45.947  27.632  26.928  1.00  0.00     0.034 A 
ATOM     56  C   UNL A   1      41.223  30.942  30.002  1.00  0.00     0.049 A 
ATOM     57  C   UNL A   1      45.850  29.037  27.467  1.00  0.00     0.074 A 
ATOM     58  C   UNL A   1      41.277  32.235  30.494  1.00  0.00     0.029 A 
ATOM     59  N   UNL A   1      42.447  30.701  29.393  1.00  0.00    -0.354 N 
ATOM     60  N   UNL A   1      44.845  29.617  28.083  1.00  0.00    -0.248 NA
ATOM     61  C   UNL A   1      47.023  29.900  27.282  1.00  0.00     0.031 C 
ATOM     62  C   UNL A   1      42.508  32.794  30.133  1.00  0.00     0.029 A 
ATOM     63  C   UNL A   1      43.253  31.827  29.480  1.00  0.00     0.049 A 
ATOM     64  H   UNL A   1      42.706  29.854  28.961  1.00  0.00     0.167 HD
ATOM     65  C   UNL A   1      45.275  30.909  28.373  1.00  0.00     0.074 A 
ATOM     66  C   UNL A   1      46.636  31.013  27.887  1.00  0.00     0.031 C 
ATOM     67  C   UNL A   1      44.605  31.920  28.981  1.00  0.00     0.034 A 
BRANCH  54  68
ATOM     68  C   UNL A   1      38.852  30.421  30.751  1.00  0.00     0.023 A 
ATOM     69  C   UNL A   1      37.831  31.079  30.046  1.00  0.00     0.031 A 
ATOM     70  C   UNL A   1      38.653  30.181  32.124  1.00  0.00     0.131 A 
ATOM     71  C   UNL A   1      36.688  31.530  30.726  1.00  0.00     0.055 A 
ATOM     72  C   UNL A   1      37.481  30.562  32.778  1.00  0.00     0.041 A 
ATOM     73  F   UNL A   1      39.601  29.576  32.856  1.00  0.00    -0.206 F 
ATOM     74  C   UNL A   1      36.494  31.254  32.082  1.00  0.00     0.022 A 
BRANCH  71  75
ATOM     75  S   UNL A   1      35.516  32.597  29.844  1.00  0.00     0.124 S 
ATOM     76  O   UNL A   1      34.338  32.514  30.704  1.00  0.00    -0.237 OA
ATOM     77  O   UNL A   1      36.207  33.881  29.830  1.00  0.00    -0.237 OA
ATOM     78  O   UNL A   1      35.376  31.950  28.541  1.00  0.00    -0.744 OA
ENDBRANCH  71  75
ENDBRANCH  54  68
BRANCH  55  79
ATOM     79  C   UNL A   1      47.170  27.183  26.197  1.00  0.00     0.023 A 
ATOM     80  C   UNL A   1      48.180  26.452  26.843  1.00  0.00     0.031 A 
ATOM     81  C   UNL A   1      47.370  27.527  24.846  1.00  0.00     0.131 A 
ATOM     82  C   UNL A   1      49.359  26.125  26.152  1.00  0.00     0.055 A 
ATOM     83  C   UNL A   1      48.514  27.144  24.146  1.00  0.00     0.041 A 
ATOM     84  F   UNL A   1      46.443  28.234  24.180  1.00  0.00    -0.206 F 
ATOM     85  C   UNL A   1      49.524  26.450  24.803  1.00  0.00     0.022 A 
BRANCH  82  86
ATOM     86  S   UNL A   1      50.721  25.354  27.069  1.00  0.00     0.124 S 
ATOM     87  O   UNL A   1      50.019  24.336  27.843  1.00  0.00    -0.237 OA
ATOM     88  O   UNL A   1      51.575  24.867  25.991  1.00  0.00    -0.237 OA
ATOM     89  O   UNL A   1      51.275  26.460  27.848  1.00  0.00    -0.744 OA
ENDBRANCH  82  86
ENDBRANCH  55  79
BRANCH  67  90
ATOM     90  C   UNL A   1      45.361  33.208  29.191  1.00  0.00     0.023 A 
ATOM     91  C   UNL A   1      45.360  34.231  28.227  1.00  0.00     0.031 A 
ATOM     92  C   UNL A   1      46.111  33.404  30.365  1.00  0.00     0.131 A 
ATOM     93  C   UNL A   1      46.143  35.380  28.426  1.00  0.00     0.055 A 
ATOM     94  C   UNL A   1      46.841  34.572  30.583  1.00  0.00     0.041 A 
ATOM     95  F   UNL A   1      46.148  32.458  31.316  1.00  0.00    -0.206 F 
ATOM     96  C   UNL A   1      46.871  35.563  29.605  1.00  0.00     0.022 A 
BRANCH  93  97
ATOM     97  S   UNL A   1      46.271  36.591  27.083  1.00  0.00     0.124 S 
ATOM     98  O   UNL A   1      47.596  37.160  27.311  1.00  0.00    -0.237 OA
ATOM     99  O   UNL A   1      46.132  35.756  25.894  1.00  0.00    -0.237 OA
ATOM    100  O   UNL A   1      45.155  37.501  27.334  1.00  0.00    -0.744 OA
ENDBRANCH  93  97
ENDBRANCH  67  90
ENDBRANCH  41  42
ENDBRANCH  34  36
ENDBRANCH  33  34
ENDBRANCH  32  33
ENDBRANCH   1  32
TORSDOF 19
ENDMDL
