MODEL 1
REMARK VINA RESULT:     -10.5      0.000      0.000
REMARK SMILES O=C(OCCOC(=O)[C@@H]1C[C@@H](O)CN1C(=O)CSc1ccc(F)cc1F)c1ccc(-c2c3nc(c(-c4cc(S(=O)(=O)[O-])ccc4F)c4ccc([nH]4)c(-c4cc(S(=O)(=O)[O-])ccc4F)c4nc(c(-c5cc(S(=O)(=O)[O-])ccc5F)c5ccc2[nH]5)C=C4)C=C3)cc1
REMARK SMILES IDX 5 1 4 2 3 3 2 4 1 5 27 6 28 7 89 8 29 9 88 10 30 11 31 12
REMARK SMILES IDX 32 13 82 14 33 15 87 16 81 17 83 18 34 19 86 20 80 21 79 22
REMARK SMILES IDX 35 24 67 25 47 26 66 27 48 28 51 29 65 30 84 31 49 32 50 33
REMARK SMILES IDX 64 35 85 36 52 37 36 38 37 39 45 40 38 41 44 42 46 43 43 44
REMARK SMILES IDX 39 45 40 46 41 47 42 48 68 49 69 50 77 51 70 52 76 53 78 54
REMARK SMILES IDX 75 55 71 56 72 57 73 58 74 59 53 60 54 61 62 62 55 63 61 64
REMARK SMILES IDX 63 65 60 66 56 67 57 68 58 69 59 70 6 71 7 72 8 73 9 74
REMARK SMILES IDX 10 75 14 76 11 77 13 78 15 79 16 80 17 81 18 82 19 83 20 84
REMARK SMILES IDX 25 85 21 86 24 87 26 88 22 89 23 90 12 91
REMARK H PARENT 83 23 51 34 12 92
REMARK Flexibility Score: inf
ROOT
ATOM      1  C   UNL A   1      32.437  33.838  28.187  1.00  0.00     0.274 C 
ENDROOT
BRANCH   1   2
ATOM      2  C   UNL A   1      33.766  33.158  27.858  1.00  0.00     0.275 C 
BRANCH   2   3
ATOM      3  O   UNL A   1      33.870  31.795  28.273  1.00  0.00    -0.458 OA
BRANCH   3   4
ATOM      4  C   UNL A   1      34.509  30.809  27.612  1.00  0.00     0.338 C 
ATOM      5  O   UNL A   1      33.941  30.255  26.678  1.00  0.00    -0.246 OA
BRANCH   4   6
ATOM      6  C   UNL A   1      35.856  30.315  28.029  1.00  0.00     0.060 A 
ATOM      7  C   UNL A   1      37.023  30.266  27.264  1.00  0.00     0.016 A 
ATOM      8  C   UNL A   1      35.903  29.777  29.308  1.00  0.00     0.016 A 
ATOM      9  C   UNL A   1      38.221  29.736  27.805  1.00  0.00     0.010 A 
ATOM     10  C   UNL A   1      37.065  29.229  29.838  1.00  0.00     0.010 A 
ATOM     11  C   UNL A   1      38.246  29.204  29.099  1.00  0.00    -0.014 A 
BRANCH  11  12
ATOM     12  C   UNL A   1      39.404  28.532  29.745  1.00  0.00     0.031 A 
ATOM     13  C   UNL A   1      40.201  29.296  30.777  1.00  0.00     0.074 A 
ATOM     14  C   UNL A   1      39.914  27.399  29.220  1.00  0.00     0.049 A 
ATOM     15  N   UNL A   1      41.323  28.973  31.365  1.00  0.00    -0.248 NA
ATOM     16  C   UNL A   1      39.686  30.622  31.156  1.00  0.00     0.031 C 
ATOM     17  C   UNL A   1      39.325  26.627  28.126  1.00  0.00     0.029 A 
ATOM     18  N   UNL A   1      41.103  26.758  29.472  1.00  0.00    -0.354 N 
ATOM     19  C   UNL A   1      41.616  30.030  32.221  1.00  0.00     0.074 A 
ATOM     20  C   UNL A   1      40.637  31.063  31.964  1.00  0.00     0.031 C 
ATOM     21  C   UNL A   1      40.205  25.692  27.724  1.00  0.00     0.029 A 
ATOM     22  C   UNL A   1      41.403  25.775  28.555  1.00  0.00     0.049 A 
ATOM     23  H   UNL A   1      41.686  26.980  30.234  1.00  0.00     0.167 HD
ATOM     24  C   UNL A   1      42.564  30.098  33.189  1.00  0.00     0.034 A 
ATOM     25  C   UNL A   1      42.521  25.036  28.399  1.00  0.00     0.034 A 
ATOM     26  C   UNL A   1      43.531  29.057  33.416  1.00  0.00     0.049 A 
ATOM     27  C   UNL A   1      43.614  25.140  29.433  1.00  0.00     0.074 A 
ATOM     28  C   UNL A   1      44.404  28.895  34.476  1.00  0.00     0.029 A 
ATOM     29  N   UNL A   1      43.774  28.014  32.534  1.00  0.00    -0.354 N 
ATOM     30  N   UNL A   1      43.727  25.990  30.428  1.00  0.00    -0.248 NA
ATOM     31  C   UNL A   1      44.689  24.140  29.370  1.00  0.00     0.031 C 
ATOM     32  C   UNL A   1      45.217  27.786  34.205  1.00  0.00     0.029 A 
ATOM     33  C   UNL A   1      44.811  27.226  33.003  1.00  0.00     0.049 A 
ATOM     34  H   UNL A   1      43.279  27.856  31.698  1.00  0.00     0.167 HD
ATOM     35  C   UNL A   1      44.835  25.569  31.159  1.00  0.00     0.074 A 
ATOM     36  C   UNL A   1      45.376  24.416  30.469  1.00  0.00     0.031 C 
ATOM     37  C   UNL A   1      45.334  26.069  32.319  1.00  0.00     0.034 A 
BRANCH  24  38
ATOM     38  C   UNL A   1      42.541  31.296  34.105  1.00  0.00     0.023 A 
ATOM     39  C   UNL A   1      41.655  31.342  35.198  1.00  0.00     0.031 A 
ATOM     40  C   UNL A   1      43.392  32.395  33.906  1.00  0.00     0.131 A 
ATOM     41  C   UNL A   1      41.574  32.490  35.995  1.00  0.00     0.055 A 
ATOM     42  C   UNL A   1      43.364  33.507  34.754  1.00  0.00     0.041 A 
ATOM     43  F   UNL A   1      44.257  32.413  32.881  1.00  0.00    -0.206 F 
ATOM     44  C   UNL A   1      42.439  33.567  35.796  1.00  0.00     0.022 A 
BRANCH  41  45
ATOM     45  S   UNL A   1      40.236  32.596  37.213  1.00  0.00     0.124 S 
ATOM     46  O   UNL A   1      40.967  32.422  38.467  1.00  0.00    -0.237 OA
ATOM     47  O   UNL A   1      39.696  33.930  36.973  1.00  0.00    -0.237 OA
ATOM     48  O   UNL A   1      39.354  31.489  36.852  1.00  0.00    -0.744 OA
ENDBRANCH  41  45
ENDBRANCH  24  38
BRANCH  25  49
ATOM     49  C   UNL A   1      42.661  24.104  27.247  1.00  0.00     0.023 A 
ATOM     50  C   UNL A   1      42.084  22.825  27.279  1.00  0.00     0.031 A 
ATOM     51  C   UNL A   1      43.432  24.456  26.125  1.00  0.00     0.131 A 
ATOM     52  C   UNL A   1      42.337  21.918  26.240  1.00  0.00     0.055 A 
ATOM     53  C   UNL A   1      43.656  23.558  25.078  1.00  0.00     0.041 A 
ATOM     54  F   UNL A   1      43.982  25.678  26.034  1.00  0.00    -0.206 F 
ATOM     55  C   UNL A   1      43.120  22.275  25.140  1.00  0.00     0.022 A 
BRANCH  52  56
ATOM     56  S   UNL A   1      41.690  20.231  26.391  1.00  0.00     0.124 S 
ATOM     57  O   UNL A   1      42.139  19.858  27.728  1.00  0.00    -0.237 OA
ATOM     58  O   UNL A   1      40.256  20.448  26.234  1.00  0.00    -0.237 OA
ATOM     59  O   UNL A   1      42.337  19.518  25.293  1.00  0.00    -0.744 OA
ENDBRANCH  52  56
ENDBRANCH  25  49
BRANCH  37  60
ATOM     60  C   UNL A   1      46.465  25.316  32.966  1.00  0.00     0.023 A 
ATOM     61  C   UNL A   1      46.238  24.283  33.889  1.00  0.00     0.031 A 
ATOM     62  C   UNL A   1      47.795  25.638  32.642  1.00  0.00     0.131 A 
ATOM     63  C   UNL A   1      47.327  23.639  34.493  1.00  0.00     0.055 A 
ATOM     64  C   UNL A   1      48.874  24.953  33.201  1.00  0.00     0.041 A 
ATOM     65  F   UNL A   1      48.067  26.621  31.768  1.00  0.00    -0.206 F 
ATOM     66  C   UNL A   1      48.643  23.953  34.140  1.00  0.00     0.022 A 
BRANCH  63  67
ATOM     67  S   UNL A   1      47.002  22.424  35.798  1.00  0.00     0.124 S 
ATOM     68  O   UNL A   1      47.883  21.326  35.413  1.00  0.00    -0.237 OA
ATOM     69  O   UNL A   1      47.380  23.151  37.006  1.00  0.00    -0.237 OA
ATOM     70  O   UNL A   1      45.572  22.150  35.663  1.00  0.00    -0.744 OA
ENDBRANCH  63  67
ENDBRANCH  37  60
ENDBRANCH  11  12
ENDBRANCH   4   6
ENDBRANCH   3   4
ENDBRANCH   2   3
ENDBRANCH   1   2
BRANCH   1  71
ATOM     71  O   UNL A   1      32.501  35.272  28.314  1.00  0.00    -0.461 OA
BRANCH  71  72
ATOM     72  C   UNL A   1      33.543  35.771  29.053  1.00  0.00     0.329 C 
ATOM     73  O   UNL A   1      34.599  36.137  28.550  1.00  0.00    -0.250 OA
BRANCH  72  74
ATOM     74  C   UNL A   1      33.285  35.725  30.590  1.00  0.00     0.197 C 
ATOM     75  C   UNL A   1      33.174  37.140  31.186  1.00  0.00     0.070 C 
ATOM     76  N   UNL A   1      34.164  35.031  31.563  1.00  0.00    -0.325 N 
ATOM     77  C   UNL A   1      33.177  36.910  32.688  1.00  0.00     0.136 C 
ATOM     78  C   UNL A   1      34.014  35.640  32.887  1.00  0.00     0.152 C 
BRANCH  76  79
ATOM     79  C   UNL A   1      34.777  33.812  31.317  1.00  0.00     0.233 C 
ATOM     80  O   UNL A   1      34.136  32.762  31.366  1.00  0.00    -0.274 OA
BRANCH  79  81
ATOM     81  C   UNL A   1      36.272  33.763  30.973  1.00  0.00     0.175 C 
BRANCH  81  82
ATOM     82  S   UNL A   1      37.416  34.356  32.281  1.00  0.00    -0.113 SA
BRANCH  82  83
ATOM     83  C   UNL A   1      39.032  34.471  31.507  1.00  0.00     0.044 A 
ATOM     84  C   UNL A   1      39.073  34.663  30.112  1.00  0.00     0.021 A 
ATOM     85  C   UNL A   1      40.251  34.439  32.191  1.00  0.00     0.139 A 
ATOM     86  C   UNL A   1      40.288  34.695  29.418  1.00  0.00     0.040 A 
ATOM     87  C   UNL A   1      41.470  34.499  31.510  1.00  0.00     0.079 A 
ATOM     88  F   UNL A   1      40.281  34.393  33.531  1.00  0.00    -0.206 F 
ATOM     89  C   UNL A   1      41.477  34.595  30.125  1.00  0.00     0.126 A 
ATOM     90  F   UNL A   1      42.644  34.602  29.466  1.00  0.00    -0.207 F 
ENDBRANCH  82  83
ENDBRANCH  81  82
ENDBRANCH  79  81
ENDBRANCH  76  79
BRANCH  77  91
ATOM     91  O   UNL A   1      31.831  36.704  33.112  1.00  0.00    -0.391 OA
ATOM     92  H   UNL A   1      31.818  36.499  34.059  1.00  0.00     0.211 HD
ENDBRANCH  77  91
ENDBRANCH  72  74
ENDBRANCH  71  72
ENDBRANCH   1  71
TORSDOF 19
ENDMDL
MODEL 2
REMARK VINA RESULT:     -10.2      6.023     10.569
REMARK SMILES O=C(OCCOC(=O)[C@@H]1C[C@@H](O)CN1C(=O)CSc1ccc(F)cc1F)c1ccc(-c2c3nc(c(-c4cc(S(=O)(=O)[O-])ccc4F)c4ccc([nH]4)c(-c4cc(S(=O)(=O)[O-])ccc4F)c4nc(c(-c5cc(S(=O)(=O)[O-])ccc5F)c5ccc2[nH]5)C=C4)C=C3)cc1
REMARK SMILES IDX 5 1 4 2 3 3 2 4 1 5 27 6 28 7 89 8 29 9 88 10 30 11 31 12
REMARK SMILES IDX 32 13 82 14 33 15 87 16 81 17 83 18 34 19 86 20 80 21 79 22
REMARK SMILES IDX 35 24 67 25 47 26 66 27 48 28 51 29 65 30 84 31 49 32 50 33
REMARK SMILES IDX 64 35 85 36 52 37 36 38 37 39 45 40 38 41 44 42 46 43 43 44
REMARK SMILES IDX 39 45 40 46 41 47 42 48 68 49 69 50 77 51 70 52 76 53 78 54
REMARK SMILES IDX 75 55 71 56 72 57 73 58 74 59 53 60 54 61 62 62 55 63 61 64
REMARK SMILES IDX 63 65 60 66 56 67 57 68 58 69 59 70 6 71 7 72 8 73 9 74
REMARK SMILES IDX 10 75 14 76 11 77 13 78 15 79 16 80 17 81 18 82 19 83 20 84
REMARK SMILES IDX 25 85 21 86 24 87 26 88 22 89 23 90 12 91
REMARK H PARENT 83 23 51 34 12 92
REMARK Flexibility Score: inf
ROOT
ATOM      1  C   UNL A   1      37.138  20.899  24.858  1.00  0.00     0.274 C 
ENDROOT
BRANCH   1   2
ATOM      2  C   UNL A   1      38.410  21.128  25.674  1.00  0.00     0.275 C 
BRANCH   2   3
ATOM      3  O   UNL A   1      39.324  20.031  25.695  1.00  0.00    -0.458 OA
BRANCH   3   4
ATOM      4  C   UNL A   1      40.629  20.090  26.030  1.00  0.00     0.338 C 
ATOM      5  O   UNL A   1      41.324  19.091  25.885  1.00  0.00    -0.246 OA
BRANCH   4   6
ATOM      6  C   UNL A   1      41.238  21.307  26.645  1.00  0.00     0.060 A 
ATOM      7  C   UNL A   1      41.418  21.581  28.003  1.00  0.00     0.016 A 
ATOM      8  C   UNL A   1      41.589  22.299  25.739  1.00  0.00     0.016 A 
ATOM      9  C   UNL A   1      41.990  22.806  28.425  1.00  0.00     0.010 A 
ATOM     10  C   UNL A   1      42.125  23.515  26.143  1.00  0.00     0.010 A 
ATOM     11  C   UNL A   1      42.342  23.789  27.492  1.00  0.00    -0.014 A 
BRANCH  11  12
ATOM     12  C   UNL A   1      42.855  25.148  27.806  1.00  0.00     0.031 A 
ATOM     13  C   UNL A   1      41.873  26.210  28.242  1.00  0.00     0.074 A 
ATOM     14  C   UNL A   1      44.099  25.511  27.429  1.00  0.00     0.049 A 
ATOM     15  N   UNL A   1      42.063  27.489  28.431  1.00  0.00    -0.248 NA
ATOM     16  C   UNL A   1      40.481  25.775  28.443  1.00  0.00     0.031 C 
ATOM     17  C   UNL A   1      45.110  24.620  26.861  1.00  0.00     0.029 A 
ATOM     18  N   UNL A   1      44.685  26.752  27.371  1.00  0.00    -0.354 N 
ATOM     19  C   UNL A   1      40.830  27.999  28.825  1.00  0.00     0.074 A 
ATOM     20  C   UNL A   1      39.872  26.921  28.703  1.00  0.00     0.031 C 
ATOM     21  C   UNL A   1      46.140  25.357  26.407  1.00  0.00     0.029 A 
ATOM     22  C   UNL A   1      45.878  26.766  26.685  1.00  0.00     0.049 A 
ATOM     23  H   UNL A   1      44.289  27.556  27.781  1.00  0.00     0.167 HD
ATOM     24  C   UNL A   1      40.540  29.227  29.321  1.00  0.00     0.034 A 
ATOM     25  C   UNL A   1      46.662  27.800  26.314  1.00  0.00     0.034 A 
ATOM     26  C   UNL A   1      41.513  30.282  29.424  1.00  0.00     0.049 A 
ATOM     27  C   UNL A   1      46.324  29.185  26.806  1.00  0.00     0.074 A 
ATOM     28  C   UNL A   1      41.419  31.492  30.088  1.00  0.00     0.029 A 
ATOM     29  N   UNL A   1      42.754  30.260  28.805  1.00  0.00    -0.354 N 
ATOM     30  N   UNL A   1      45.250  29.593  27.442  1.00  0.00    -0.248 NA
ATOM     31  C   UNL A   1      47.335  30.231  26.599  1.00  0.00     0.031 C 
ATOM     32  C   UNL A   1      42.582  32.227  29.819  1.00  0.00     0.029 A 
ATOM     33  C   UNL A   1      43.421  31.451  29.034  1.00  0.00     0.049 A 
ATOM     34  H   UNL A   1      43.109  29.507  28.280  1.00  0.00     0.167 HD
ATOM     35  C   UNL A   1      45.498  30.919  27.789  1.00  0.00     0.074 A 
ATOM     36  C   UNL A   1      46.804  31.251  27.258  1.00  0.00     0.031 C 
ATOM     37  C   UNL A   1      44.729  31.769  28.516  1.00  0.00     0.034 A 
BRANCH  24  38
ATOM     38  C   UNL A   1      39.146  29.454  29.851  1.00  0.00     0.023 A 
ATOM     39  C   UNL A   1      38.205  30.183  29.099  1.00  0.00     0.031 A 
ATOM     40  C   UNL A   1      38.739  28.952  31.098  1.00  0.00     0.131 A 
ATOM     41  C   UNL A   1      36.942  30.466  29.632  1.00  0.00     0.055 A 
ATOM     42  C   UNL A   1      37.448  29.169  31.590  1.00  0.00     0.041 A 
ATOM     43  F   UNL A   1      39.590  28.252  31.864  1.00  0.00    -0.206 F 
ATOM     44  C   UNL A   1      36.546  29.945  30.863  1.00  0.00     0.022 A 
BRANCH  41  45
ATOM     45  S   UNL A   1      35.876  31.627  28.737  1.00  0.00     0.124 S 
ATOM     46  O   UNL A   1      36.795  32.735  28.486  1.00  0.00    -0.237 OA
ATOM     47  O   UNL A   1      35.480  30.853  27.564  1.00  0.00    -0.237 OA
ATOM     48  O   UNL A   1      34.805  31.914  29.687  1.00  0.00    -0.744 OA
ENDBRANCH  41  45
ENDBRANCH  24  38
BRANCH  25  49
ATOM     49  C   UNL A   1      47.863  27.576  25.463  1.00  0.00     0.023 A 
ATOM     50  C   UNL A   1      47.788  27.683  24.066  1.00  0.00     0.031 A 
ATOM     51  C   UNL A   1      49.088  27.187  26.034  1.00  0.00     0.131 A 
ATOM     52  C   UNL A   1      48.898  27.343  23.279  1.00  0.00     0.055 A 
ATOM     53  C   UNL A   1      50.199  26.878  25.246  1.00  0.00     0.041 A 
ATOM     54  F   UNL A   1      49.219  27.098  27.369  1.00  0.00    -0.206 F 
ATOM     55  C   UNL A   1      50.103  26.940  23.859  1.00  0.00     0.022 A 
BRANCH  52  56
ATOM     56  S   UNL A   1      48.713  27.357  21.475  1.00  0.00     0.124 S 
ATOM     57  O   UNL A   1      48.771  25.935  21.158  1.00  0.00    -0.237 OA
ATOM     58  O   UNL A   1      47.411  27.997  21.316  1.00  0.00    -0.237 OA
ATOM     59  O   UNL A   1      49.854  28.146  21.021  1.00  0.00    -0.744 OA
ENDBRANCH  52  56
ENDBRANCH  25  49
BRANCH  37  60
ATOM     60  C   UNL A   1      45.320  33.110  28.862  1.00  0.00     0.023 A 
ATOM     61  C   UNL A   1      45.099  34.247  28.069  1.00  0.00     0.031 A 
ATOM     62  C   UNL A   1      46.114  33.247  30.015  1.00  0.00     0.131 A 
ATOM     63  C   UNL A   1      45.704  35.463  28.415  1.00  0.00     0.055 A 
ATOM     64  C   UNL A   1      46.666  34.473  30.386  1.00  0.00     0.041 A 
ATOM     65  F   UNL A   1      46.360  32.189  30.805  1.00  0.00    -0.206 F 
ATOM     66  C   UNL A   1      46.470  35.589  29.578  1.00  0.00     0.022 A 
BRANCH  63  67
ATOM     67  S   UNL A   1      45.532  36.870  27.285  1.00  0.00     0.124 S 
ATOM     68  O   UNL A   1      46.014  37.975  28.107  1.00  0.00    -0.237 OA
ATOM     69  O   UNL A   1      46.390  36.484  26.169  1.00  0.00    -0.237 OA
ATOM     70  O   UNL A   1      44.101  36.895  26.986  1.00  0.00    -0.744 OA
ENDBRANCH  63  67
ENDBRANCH  37  60
ENDBRANCH  11  12
ENDBRANCH   4   6
ENDBRANCH   3   4
ENDBRANCH   2   3
ENDBRANCH   1   2
BRANCH   1  71
ATOM     71  O   UNL A   1      35.941  21.473  25.417  1.00  0.00    -0.461 OA
BRANCH  71  72
ATOM     72  C   UNL A   1      34.762  20.849  25.100  1.00  0.00     0.329 C 
ATOM     73  O   UNL A   1      34.712  19.704  24.667  1.00  0.00    -0.250 OA
BRANCH  72  74
ATOM     74  C   UNL A   1      33.516  21.775  25.248  1.00  0.00     0.197 C 
ATOM     75  C   UNL A   1      32.225  20.957  25.438  1.00  0.00     0.070 C 
ATOM     76  N   UNL A   1      33.112  22.793  24.248  1.00  0.00    -0.325 N 
ATOM     77  C   UNL A   1      31.115  21.987  25.312  1.00  0.00     0.136 C 
ATOM     78  C   UNL A   1      31.673  23.051  24.359  1.00  0.00     0.152 C 
BRANCH  76  79
ATOM     79  C   UNL A   1      34.007  23.590  23.553  1.00  0.00     0.233 C 
ATOM     80  O   UNL A   1      34.754  23.107  22.701  1.00  0.00    -0.274 OA
BRANCH  79  81
ATOM     81  C   UNL A   1      34.072  25.097  23.838  1.00  0.00     0.175 C 
BRANCH  81  82
ATOM     82  S   UNL A   1      33.298  26.186  22.578  1.00  0.00    -0.113 SA
BRANCH  82  83
ATOM     83  C   UNL A   1      32.627  27.586  23.480  1.00  0.00     0.044 A 
ATOM     84  C   UNL A   1      33.475  28.232  24.401  1.00  0.00     0.021 A 
ATOM     85  C   UNL A   1      31.346  28.115  23.299  1.00  0.00     0.139 A 
ATOM     86  C   UNL A   1      33.014  29.287  25.196  1.00  0.00     0.040 A 
ATOM     87  C   UNL A   1      30.885  29.187  24.068  1.00  0.00     0.079 A 
ATOM     88  F   UNL A   1      30.537  27.632  22.345  1.00  0.00    -0.206 F 
ATOM     89  C   UNL A   1      31.715  29.743  25.033  1.00  0.00     0.126 A 
ATOM     90  F   UNL A   1      31.258  30.738  25.807  1.00  0.00    -0.207 F 
ENDBRANCH  82  83
ENDBRANCH  81  82
ENDBRANCH  79  81
ENDBRANCH  76  79
BRANCH  77  91
ATOM     91  O   UNL A   1      30.868  22.539  26.603  1.00  0.00    -0.391 OA
ATOM     92  H   UNL A   1      31.578  22.276  27.208  1.00  0.00     0.211 HD
ENDBRANCH  77  91
ENDBRANCH  72  74
ENDBRANCH  71  72
ENDBRANCH   1  71
TORSDOF 19
ENDMDL
MODEL 3
REMARK VINA RESULT:     -10.2      6.085     10.764
REMARK SMILES O=C(OCCOC(=O)[C@@H]1C[C@@H](O)CN1C(=O)CSc1ccc(F)cc1F)c1ccc(-c2c3nc(c(-c4cc(S(=O)(=O)[O-])ccc4F)c4ccc([nH]4)c(-c4cc(S(=O)(=O)[O-])ccc4F)c4nc(c(-c5cc(S(=O)(=O)[O-])ccc5F)c5ccc2[nH]5)C=C4)C=C3)cc1
REMARK SMILES IDX 5 1 4 2 3 3 2 4 1 5 27 6 28 7 89 8 29 9 88 10 30 11 31 12
REMARK SMILES IDX 32 13 82 14 33 15 87 16 81 17 83 18 34 19 86 20 80 21 79 22
REMARK SMILES IDX 35 24 67 25 47 26 66 27 48 28 51 29 65 30 84 31 49 32 50 33
REMARK SMILES IDX 64 35 85 36 52 37 36 38 37 39 45 40 38 41 44 42 46 43 43 44
REMARK SMILES IDX 39 45 40 46 41 47 42 48 68 49 69 50 77 51 70 52 76 53 78 54
REMARK SMILES IDX 75 55 71 56 72 57 73 58 74 59 53 60 54 61 62 62 55 63 61 64
REMARK SMILES IDX 63 65 60 66 56 67 57 68 58 69 59 70 6 71 7 72 8 73 9 74
REMARK SMILES IDX 10 75 14 76 11 77 13 78 15 79 16 80 17 81 18 82 19 83 20 84
REMARK SMILES IDX 25 85 21 86 24 87 26 88 22 89 23 90 12 91
REMARK H PARENT 83 23 51 34 12 92
REMARK Flexibility Score: inf
ROOT
ATOM      1  C   UNL A   1      37.375  21.178  24.608  1.00  0.00     0.274 C 
ENDROOT
BRANCH   1   2
ATOM      2  C   UNL A   1      38.308  20.875  25.780  1.00  0.00     0.275 C 
BRANCH   2   3
ATOM      3  O   UNL A   1      39.341  19.928  25.505  1.00  0.00    -0.458 OA
BRANCH   3   4
ATOM      4  C   UNL A   1      40.567  19.901  26.067  1.00  0.00     0.338 C 
ATOM      5  O   UNL A   1      41.162  18.833  26.143  1.00  0.00    -0.246 OA
BRANCH   4   6
ATOM      6  C   UNL A   1      41.191  21.117  26.671  1.00  0.00     0.060 A 
ATOM      7  C   UNL A   1      41.437  21.370  28.022  1.00  0.00     0.016 A 
ATOM      8  C   UNL A   1      41.483  22.127  25.765  1.00  0.00     0.016 A 
ATOM      9  C   UNL A   1      42.014  22.597  28.434  1.00  0.00     0.010 A 
ATOM     10  C   UNL A   1      42.022  23.344  26.161  1.00  0.00     0.010 A 
ATOM     11  C   UNL A   1      42.305  23.599  27.501  1.00  0.00    -0.014 A 
BRANCH  11  12
ATOM     12  C   UNL A   1      42.817  24.960  27.812  1.00  0.00     0.031 A 
ATOM     13  C   UNL A   1      41.831  26.025  28.232  1.00  0.00     0.074 A 
ATOM     14  C   UNL A   1      44.064  25.319  27.445  1.00  0.00     0.049 A 
ATOM     15  N   UNL A   1      42.021  27.306  28.415  1.00  0.00    -0.248 NA
ATOM     16  C   UNL A   1      40.436  25.592  28.423  1.00  0.00     0.031 C 
ATOM     17  C   UNL A   1      45.080  24.424  26.892  1.00  0.00     0.029 A 
ATOM     18  N   UNL A   1      44.651  26.560  27.385  1.00  0.00    -0.354 N 
ATOM     19  C   UNL A   1      40.784  27.818  28.794  1.00  0.00     0.074 A 
ATOM     20  C   UNL A   1      39.826  26.741  28.669  1.00  0.00     0.031 C 
ATOM     21  C   UNL A   1      46.115  25.157  26.444  1.00  0.00     0.029 A 
ATOM     22  C   UNL A   1      45.851  26.568  26.710  1.00  0.00     0.049 A 
ATOM     23  H   UNL A   1      44.253  27.366  27.786  1.00  0.00     0.167 HD
ATOM     24  C   UNL A   1      40.490  29.050  29.279  1.00  0.00     0.034 A 
ATOM     25  C   UNL A   1      46.639  27.599  26.340  1.00  0.00     0.034 A 
ATOM     26  C   UNL A   1      41.463  30.105  29.385  1.00  0.00     0.049 A 
ATOM     27  C   UNL A   1      46.298  28.987  26.820  1.00  0.00     0.074 A 
ATOM     28  C   UNL A   1      41.364  31.319  30.041  1.00  0.00     0.029 A 
ATOM     29  N   UNL A   1      42.709  30.078  28.778  1.00  0.00    -0.354 N 
ATOM     30  N   UNL A   1      45.218  29.400  27.443  1.00  0.00    -0.248 NA
ATOM     31  C   UNL A   1      47.311  30.032  26.616  1.00  0.00     0.031 C 
ATOM     32  C   UNL A   1      42.529  32.051  29.778  1.00  0.00     0.029 A 
ATOM     33  C   UNL A   1      43.376  31.270  29.006  1.00  0.00     0.049 A 
ATOM     34  H   UNL A   1      43.069  29.321  28.261  1.00  0.00     0.167 HD
ATOM     35  C   UNL A   1      45.464  30.728  27.784  1.00  0.00     0.074 A 
ATOM     36  C   UNL A   1      46.775  31.056  27.263  1.00  0.00     0.031 C 
ATOM     37  C   UNL A   1      44.688  31.584  28.499  1.00  0.00     0.034 A 
BRANCH  24  38
ATOM     38  C   UNL A   1      39.092  29.281  29.795  1.00  0.00     0.023 A 
ATOM     39  C   UNL A   1      38.165  30.025  29.039  1.00  0.00     0.031 A 
ATOM     40  C   UNL A   1      38.666  28.769  31.031  1.00  0.00     0.131 A 
ATOM     41  C   UNL A   1      36.897  30.311  29.558  1.00  0.00     0.055 A 
ATOM     42  C   UNL A   1      37.370  28.990  31.509  1.00  0.00     0.041 A 
ATOM     43  F   UNL A   1      39.502  28.055  31.800  1.00  0.00    -0.206 F 
ATOM     44  C   UNL A   1      36.482  29.780  30.779  1.00  0.00     0.022 A 
BRANCH  41  45
ATOM     45  S   UNL A   1      35.850  31.489  28.663  1.00  0.00     0.124 S 
ATOM     46  O   UNL A   1      34.830  31.795  29.663  1.00  0.00    -0.237 OA
ATOM     47  O   UNL A   1      36.783  32.570  28.357  1.00  0.00    -0.237 OA
ATOM     48  O   UNL A   1      35.380  30.725  27.511  1.00  0.00    -0.744 OA
ENDBRANCH  41  45
ENDBRANCH  24  38
BRANCH  25  49
ATOM     49  C   UNL A   1      47.848  27.369  25.502  1.00  0.00     0.023 A 
ATOM     50  C   UNL A   1      47.855  27.700  24.139  1.00  0.00     0.031 A 
ATOM     51  C   UNL A   1      48.992  26.754  26.042  1.00  0.00     0.131 A 
ATOM     52  C   UNL A   1      48.958  27.356  23.342  1.00  0.00     0.055 A 
ATOM     53  C   UNL A   1      50.100  26.441  25.249  1.00  0.00     0.041 A 
ATOM     54  F   UNL A   1      49.046  26.444  27.348  1.00  0.00    -0.206 F 
ATOM     55  C   UNL A   1      50.080  26.728  23.887  1.00  0.00     0.022 A 
BRANCH  52  56
ATOM     56  S   UNL A   1      48.864  27.672  21.559  1.00  0.00     0.124 S 
ATOM     57  O   UNL A   1      49.474  26.466  21.010  1.00  0.00    -0.237 OA
ATOM     58  O   UNL A   1      47.426  27.811  21.357  1.00  0.00    -0.237 OA
ATOM     59  O   UNL A   1      49.639  28.898  21.389  1.00  0.00    -0.744 OA
ENDBRANCH  52  56
ENDBRANCH  25  49
BRANCH  37  60
ATOM     60  C   UNL A   1      45.277  32.926  28.842  1.00  0.00     0.023 A 
ATOM     61  C   UNL A   1      45.002  34.074  28.083  1.00  0.00     0.031 A 
ATOM     62  C   UNL A   1      46.124  33.053  29.958  1.00  0.00     0.131 A 
ATOM     63  C   UNL A   1      45.607  35.293  28.422  1.00  0.00     0.055 A 
ATOM     64  C   UNL A   1      46.677  34.280  30.325  1.00  0.00     0.041 A 
ATOM     65  F   UNL A   1      46.423  31.984  30.714  1.00  0.00    -0.206 F 
ATOM     66  C   UNL A   1      46.427  35.408  29.549  1.00  0.00     0.022 A 
BRANCH  63  67
ATOM     67  S   UNL A   1      45.361  36.718  27.329  1.00  0.00     0.124 S 
ATOM     68  O   UNL A   1      44.004  36.492  26.843  1.00  0.00    -0.237 OA
ATOM     69  O   UNL A   1      45.533  37.845  28.239  1.00  0.00    -0.237 OA
ATOM     70  O   UNL A   1      46.415  36.566  26.326  1.00  0.00    -0.744 OA
ENDBRANCH  63  67
ENDBRANCH  37  60
ENDBRANCH  11  12
ENDBRANCH   4   6
ENDBRANCH   3   4
ENDBRANCH   2   3
ENDBRANCH   1   2
BRANCH   1  71
ATOM     71  O   UNL A   1      37.306  22.565  24.227  1.00  0.00    -0.461 OA
BRANCH  71  72
ATOM     72  C   UNL A   1      36.168  23.239  24.591  1.00  0.00     0.329 C 
ATOM     73  O   UNL A   1      36.110  23.956  25.583  1.00  0.00    -0.250 OA
BRANCH  72  74
ATOM     74  C   UNL A   1      34.944  22.918  23.681  1.00  0.00     0.197 C 
ATOM     75  C   UNL A   1      34.323  24.200  23.097  1.00  0.00     0.070 C 
ATOM     76  N   UNL A   1      33.753  22.153  24.124  1.00  0.00    -0.325 N 
ATOM     77  C   UNL A   1      33.027  23.727  22.462  1.00  0.00     0.136 C 
ATOM     78  C   UNL A   1      32.596  22.519  23.303  1.00  0.00     0.152 C 
BRANCH  76  79
ATOM     79  C   UNL A   1      33.812  21.050  24.961  1.00  0.00     0.233 C 
ATOM     80  O   UNL A   1      34.412  20.030  24.619  1.00  0.00    -0.274 OA
BRANCH  79  81
ATOM     81  C   UNL A   1      33.129  21.093  26.335  1.00  0.00     0.175 C 
BRANCH  81  82
ATOM     82  S   UNL A   1      33.438  22.601  27.336  1.00  0.00    -0.113 SA
BRANCH  82  83
ATOM     83  C   UNL A   1      32.391  23.881  26.637  1.00  0.00     0.044 A 
ATOM     84  C   UNL A   1      33.009  25.089  26.255  1.00  0.00     0.021 A 
ATOM     85  C   UNL A   1      31.021  23.750  26.393  1.00  0.00     0.139 A 
ATOM     86  C   UNL A   1      32.259  26.164  25.765  1.00  0.00     0.040 A 
ATOM     87  C   UNL A   1      30.268  24.808  25.878  1.00  0.00     0.079 A 
ATOM     88  F   UNL A   1      30.398  22.582  26.609  1.00  0.00    -0.206 F 
ATOM     89  C   UNL A   1      30.890  26.018  25.598  1.00  0.00     0.126 A 
ATOM     90  F   UNL A   1      30.162  27.051  25.151  1.00  0.00    -0.207 F 
ENDBRANCH  82  83
ENDBRANCH  81  82
ENDBRANCH  79  81
ENDBRANCH  76  79
BRANCH  77  91
ATOM     91  O   UNL A   1      33.304  23.337  21.118  1.00  0.00    -0.391 OA
ATOM     92  H   UNL A   1      32.640  22.696  20.823  1.00  0.00     0.211 HD
ENDBRANCH  77  91
ENDBRANCH  72  74
ENDBRANCH  71  72
ENDBRANCH   1  71
TORSDOF 19
ENDMDL
