MODEL 1
REMARK VINA RESULT:     -11.0      0.000      0.000
REMARK SMILES CCCC[C@H]1C(=S)c2cc(C(=O)OCCOC(=O)c3ccc(-c4c5nc(c(-c6cc(S(=O)(=O)[O-])ccc6F)c6ccc([nH]6)c(-c6cc(S(=O)(=O)[O-])ccc6F)c6nc(c(-c7cc(S(=O)(=O)[O-])ccc7F)c7ccc4[nH]7)C=C6)C=C5)cc3)ccc2N=C1C
REMARK SMILES IDX 14 1 13 2 11 3 12 4 10 5 5 6 6 7 86 8 7 9 8 10 85 11 87 12
REMARK SMILES IDX 9 13 84 14 83 15 82 16 4 17 3 18 2 19 1 20 15 21 16 22 17 23
REMARK SMILES IDX 18 24 19 25 20 26 81 27 21 28 80 29 22 30 23 31 24 32 74 33
REMARK SMILES IDX 25 34 79 35 73 36 75 37 26 38 78 39 72 40 71 41 27 43 59 44
REMARK SMILES IDX 39 45 58 46 40 47 43 48 57 49 76 50 41 51 42 52 56 54 77 55
REMARK SMILES IDX 44 56 28 57 29 58 37 59 30 60 36 61 38 62 35 63 31 64 32 65
REMARK SMILES IDX 33 66 34 67 60 68 61 69 69 70 62 71 68 72 70 73 67 74 63 75
REMARK SMILES IDX 64 76 65 77 66 78 45 79 46 80 54 81 47 82 53 83 55 84 52 85
REMARK SMILES IDX 48 86 49 87 50 88 51 89
REMARK H PARENT 75 42 43 53
REMARK Flexibility Score: inf
ROOT
ATOM      1  C   UNL A   1      31.347  29.522  25.532  1.00  0.00     0.275 C 
ENDROOT
BRANCH   1   2
ATOM      2  O   UNL A   1      32.211  28.406  25.837  1.00  0.00    -0.458 OA
BRANCH   2   3
ATOM      3  C   UNL A   1      31.783  27.606  26.843  1.00  0.00     0.338 C 
ATOM      4  O   UNL A   1      31.463  27.952  27.965  1.00  0.00    -0.246 OA
BRANCH   3   5
ATOM      5  C   UNL A   1      31.651  26.207  26.388  1.00  0.00     0.060 A 
ATOM      6  C   UNL A   1      33.925  22.503  24.136  1.00  0.00     0.075 C 
ATOM      7  C   UNL A   1      33.972  23.422  25.342  1.00  0.00     0.033 C 
ATOM      8  C   UNL A   1      32.533  21.858  24.070  1.00  0.00     0.024 C 
ATOM      9  S   UNL A   1      35.223  23.352  26.466  1.00  0.00    -0.083 S 
ATOM     10  C   UNL A   1      32.761  24.229  25.553  1.00  0.00     0.016 A 
ATOM     11  N   UNL A   1      31.455  22.397  24.568  1.00  0.00    -0.257 NA
ATOM     12  C   UNL A   1      32.389  20.556  23.325  1.00  0.00     0.062 C 
ATOM     13  C   UNL A   1      32.820  25.511  26.091  1.00  0.00     0.027 A 
ATOM     14  C   UNL A   1      31.544  23.641  25.220  1.00  0.00     0.071 A 
ATOM     15  C   UNL A   1      30.369  24.331  25.559  1.00  0.00     0.030 A 
ATOM     16  C   UNL A   1      30.415  25.605  26.154  1.00  0.00     0.018 A 
BRANCH   6  17
ATOM     17  C   UNL A   1      34.197  23.197  22.783  1.00  0.00     0.015 C 
BRANCH  17  18
ATOM     18  C   UNL A   1      33.049  23.942  22.087  1.00  0.00     0.001 C 
BRANCH  18  19
ATOM     19  C   UNL A   1      33.153  25.462  21.958  1.00  0.00    -0.003 C 
ATOM     20  C   UNL A   1      31.970  26.232  22.519  1.00  0.00     0.004 C 
ENDBRANCH  18  19
ENDBRANCH  17  18
ENDBRANCH   6  17
ENDBRANCH   3   5
ENDBRANCH   2   3
ENDBRANCH   1   2
BRANCH   1  21
ATOM     21  C   UNL A   1      31.845  30.812  26.186  1.00  0.00     0.275 C 
BRANCH  21  22
ATOM     22  O   UNL A   1      33.251  30.726  26.481  1.00  0.00    -0.458 OA
BRANCH  22  23
ATOM     23  C   UNL A   1      33.730  31.676  27.314  1.00  0.00     0.338 C 
ATOM     24  O   UNL A   1      33.183  32.718  27.637  1.00  0.00    -0.246 OA
BRANCH  23  25
ATOM     25  C   UNL A   1      35.030  31.246  27.847  1.00  0.00     0.060 A 
ATOM     26  C   UNL A   1      36.051  32.162  28.083  1.00  0.00     0.016 A 
ATOM     27  C   UNL A   1      35.183  29.920  28.231  1.00  0.00     0.016 A 
ATOM     28  C   UNL A   1      37.237  31.724  28.689  1.00  0.00     0.010 A 
ATOM     29  C   UNL A   1      36.284  29.530  28.983  1.00  0.00     0.010 A 
ATOM     30  C   UNL A   1      37.358  30.408  29.177  1.00  0.00    -0.014 A 
BRANCH  30  31
ATOM     31  C   UNL A   1      38.602  29.900  29.830  1.00  0.00     0.031 A 
ATOM     32  C   UNL A   1      38.976  30.381  31.216  1.00  0.00     0.074 A 
ATOM     33  C   UNL A   1      39.431  29.062  29.174  1.00  0.00     0.049 A 
ATOM     34  N   UNL A   1      40.069  30.164  31.903  1.00  0.00    -0.248 NA
ATOM     35  C   UNL A   1      38.017  31.266  31.903  1.00  0.00     0.031 C 
ATOM     36  C   UNL A   1      39.228  28.572  27.811  1.00  0.00     0.029 A 
ATOM     37  N   UNL A   1      40.611  28.471  29.562  1.00  0.00    -0.354 N 
ATOM     38  C   UNL A   1      39.945  30.923  33.065  1.00  0.00     0.074 A 
ATOM     39  C   UNL A   1      38.713  31.664  32.956  1.00  0.00     0.031 C 
ATOM     40  C   UNL A   1      40.210  27.714  27.499  1.00  0.00     0.029 A 
ATOM     41  C   UNL A   1      41.155  27.636  28.610  1.00  0.00     0.049 A 
ATOM     42  H   UNL A   1      41.029  28.631  30.439  1.00  0.00     0.167 HD
ATOM     43  C   UNL A   1      40.759  30.965  34.146  1.00  0.00     0.034 A 
ATOM     44  C   UNL A   1      42.284  26.895  28.625  1.00  0.00     0.034 A 
ATOM     45  C   UNL A   1      41.933  30.145  34.284  1.00  0.00     0.049 A 
ATOM     46  C   UNL A   1      43.152  26.911  29.862  1.00  0.00     0.074 A 
ATOM     47  C   UNL A   1      42.772  30.039  35.377  1.00  0.00     0.029 A 
ATOM     48  N   UNL A   1      42.415  29.273  33.319  1.00  0.00    -0.354 N 
ATOM     49  N   UNL A   1      42.977  27.576  30.980  1.00  0.00    -0.248 NA
ATOM     50  C   UNL A   1      44.363  26.078  29.849  1.00  0.00     0.031 C 
ATOM     51  C   UNL A   1      43.792  29.145  35.055  1.00  0.00     0.029 A 
ATOM     52  C   UNL A   1      43.550  28.637  33.789  1.00  0.00     0.049 A 
ATOM     53  H   UNL A   1      42.010  29.129  32.433  1.00  0.00     0.167 HD
ATOM     54  C   UNL A   1      44.037  27.220  31.810  1.00  0.00     0.074 A 
ATOM     55  C   UNL A   1      44.840  26.268  31.074  1.00  0.00     0.031 C 
ATOM     56  C   UNL A   1      44.319  27.652  33.064  1.00  0.00     0.034 A 
BRANCH  43  57
ATOM     57  C   UNL A   1      40.398  31.869  35.303  1.00  0.00     0.023 A 
ATOM     58  C   UNL A   1      39.420  31.467  36.233  1.00  0.00     0.031 A 
ATOM     59  C   UNL A   1      40.919  33.171  35.411  1.00  0.00     0.131 A 
ATOM     60  C   UNL A   1      38.972  32.368  37.207  1.00  0.00     0.055 A 
ATOM     61  C   UNL A   1      40.510  34.047  36.417  1.00  0.00     0.041 A 
ATOM     62  F   UNL A   1      41.846  33.610  34.544  1.00  0.00    -0.206 F 
ATOM     63  C   UNL A   1      39.521  33.651  37.312  1.00  0.00     0.022 A 
BRANCH  60  64
ATOM     64  S   UNL A   1      37.612  31.944  38.329  1.00  0.00     0.124 S 
ATOM     65  O   UNL A   1      38.239  32.112  39.639  1.00  0.00    -0.237 OA
ATOM     66  O   UNL A   1      36.609  32.949  37.987  1.00  0.00    -0.237 OA
ATOM     67  O   UNL A   1      37.277  30.570  37.973  1.00  0.00    -0.744 OA
ENDBRANCH  60  64
ENDBRANCH  43  57
BRANCH  44  68
ATOM     68  C   UNL A   1      42.597  26.018  27.456  1.00  0.00     0.023 A 
ATOM     69  C   UNL A   1      42.080  24.713  27.358  1.00  0.00     0.031 A 
ATOM     70  C   UNL A   1      43.514  26.437  26.476  1.00  0.00     0.131 A 
ATOM     71  C   UNL A   1      42.536  23.856  26.346  1.00  0.00     0.055 A 
ATOM     72  C   UNL A   1      43.913  25.603  25.430  1.00  0.00     0.041 A 
ATOM     73  F   UNL A   1      44.047  27.668  26.531  1.00  0.00    -0.206 F 
ATOM     74  C   UNL A   1      43.436  24.297  25.373  1.00  0.00     0.022 A 
BRANCH  71  75
ATOM     75  S   UNL A   1      42.079  22.099  26.335  1.00  0.00     0.124 S 
ATOM     76  O   UNL A   1      40.626  22.162  26.211  1.00  0.00    -0.237 OA
ATOM     77  O   UNL A   1      42.791  21.614  25.154  1.00  0.00    -0.237 OA
ATOM     78  O   UNL A   1      42.581  21.603  27.612  1.00  0.00    -0.744 OA
ENDBRANCH  71  75
ENDBRANCH  44  68
BRANCH  56  79
ATOM     79  C   UNL A   1      45.529  27.105  33.781  1.00  0.00     0.023 A 
ATOM     80  C   UNL A   1      45.386  25.989  34.629  1.00  0.00     0.031 A 
ATOM     81  C   UNL A   1      46.738  27.817  33.811  1.00  0.00     0.131 A 
ATOM     82  C   UNL A   1      46.411  25.662  35.527  1.00  0.00     0.055 A 
ATOM     83  C   UNL A   1      47.778  27.453  34.669  1.00  0.00     0.041 A 
ATOM     84  F   UNL A   1      46.914  28.895  33.030  1.00  0.00    -0.206 F 
ATOM     85  C   UNL A   1      47.607  26.386  35.547  1.00  0.00     0.022 A 
BRANCH  82  86
ATOM     86  S   UNL A   1      46.180  24.368  36.777  1.00  0.00     0.124 S 
ATOM     87  O   UNL A   1      45.628  23.274  35.983  1.00  0.00    -0.237 OA
ATOM     88  O   UNL A   1      47.543  24.163  37.260  1.00  0.00    -0.237 OA
ATOM     89  O   UNL A   1      45.255  24.964  37.737  1.00  0.00    -0.744 OA
ENDBRANCH  82  86
ENDBRANCH  56  79
ENDBRANCH  30  31
ENDBRANCH  23  25
ENDBRANCH  22  23
ENDBRANCH  21  22
ENDBRANCH   1  21
TORSDOF 17
ENDMDL
MODEL 2
REMARK VINA RESULT:     -11.0      5.116      7.481
REMARK SMILES CCCC[C@H]1C(=S)c2cc(C(=O)OCCOC(=O)c3ccc(-c4c5nc(c(-c6cc(S(=O)(=O)[O-])ccc6F)c6ccc([nH]6)c(-c6cc(S(=O)(=O)[O-])ccc6F)c6nc(c(-c7cc(S(=O)(=O)[O-])ccc7F)c7ccc4[nH]7)C=C6)C=C5)cc3)ccc2N=C1C
REMARK SMILES IDX 14 1 13 2 11 3 12 4 10 5 5 6 6 7 86 8 7 9 8 10 85 11 87 12
REMARK SMILES IDX 9 13 84 14 83 15 82 16 4 17 3 18 2 19 1 20 15 21 16 22 17 23
REMARK SMILES IDX 18 24 19 25 20 26 81 27 21 28 80 29 22 30 23 31 24 32 74 33
REMARK SMILES IDX 25 34 79 35 73 36 75 37 26 38 78 39 72 40 71 41 27 43 59 44
REMARK SMILES IDX 39 45 58 46 40 47 43 48 57 49 76 50 41 51 42 52 56 54 77 55
REMARK SMILES IDX 44 56 28 57 29 58 37 59 30 60 36 61 38 62 35 63 31 64 32 65
REMARK SMILES IDX 33 66 34 67 60 68 61 69 69 70 62 71 68 72 70 73 67 74 63 75
REMARK SMILES IDX 64 76 65 77 66 78 45 79 46 80 54 81 47 82 53 83 55 84 52 85
REMARK SMILES IDX 48 86 49 87 50 88 51 89
REMARK H PARENT 75 42 43 53
REMARK Flexibility Score: inf
ROOT
ATOM      1  C   UNL A   1      35.099  21.396  24.645  1.00  0.00     0.275 C 
ENDROOT
BRANCH   1   2
ATOM      2  O   UNL A   1      34.901  22.826  24.672  1.00  0.00    -0.458 OA
BRANCH   2   3
ATOM      3  C   UNL A   1      34.213  23.290  25.743  1.00  0.00     0.338 C 
ATOM      4  O   UNL A   1      34.542  23.214  26.911  1.00  0.00    -0.246 OA
BRANCH   3   5
ATOM      5  C   UNL A   1      33.001  24.019  25.317  1.00  0.00     0.060 A 
ATOM      6  C   UNL A   1      31.291  27.636  22.496  1.00  0.00     0.075 C 
ATOM      7  C   UNL A   1      32.013  26.302  22.480  1.00  0.00     0.033 C 
ATOM      8  C   UNL A   1      29.994  27.477  23.301  1.00  0.00     0.024 C 
ATOM      9  S   UNL A   1      32.576  25.611  21.051  1.00  0.00    -0.083 S 
ATOM     10  C   UNL A   1      32.010  25.580  23.761  1.00  0.00     0.016 A 
ATOM     11  N   UNL A   1      29.823  26.590  24.241  1.00  0.00    -0.257 NA
ATOM     12  C   UNL A   1      28.872  28.450  23.039  1.00  0.00     0.062 C 
ATOM     13  C   UNL A   1      33.079  24.782  24.156  1.00  0.00     0.027 A 
ATOM     14  C   UNL A   1      30.871  25.703  24.552  1.00  0.00     0.071 A 
ATOM     15  C   UNL A   1      30.781  24.901  25.701  1.00  0.00     0.030 A 
ATOM     16  C   UNL A   1      31.835  24.049  26.081  1.00  0.00     0.018 A 
BRANCH   6  17
ATOM     17  C   UNL A   1      32.099  28.800  23.111  1.00  0.00     0.015 C 
BRANCH  17  18
ATOM     18  C   UNL A   1      31.869  29.166  24.585  1.00  0.00     0.001 C 
BRANCH  18  19
ATOM     19  C   UNL A   1      33.082  29.206  25.514  1.00  0.00    -0.003 C 
ATOM     20  C   UNL A   1      33.367  27.908  26.249  1.00  0.00     0.004 C 
ENDBRANCH  18  19
ENDBRANCH  17  18
ENDBRANCH   6  17
ENDBRANCH   3   5
ENDBRANCH   2   3
ENDBRANCH   1   2
BRANCH   1  21
ATOM     21  C   UNL A   1      36.586  21.035  24.638  1.00  0.00     0.275 C 
BRANCH  21  22
ATOM     22  O   UNL A   1      37.207  21.404  25.882  1.00  0.00    -0.458 OA
BRANCH  22  23
ATOM     23  C   UNL A   1      38.530  21.142  25.971  1.00  0.00     0.338 C 
ATOM     24  O   UNL A   1      39.100  20.107  25.665  1.00  0.00    -0.246 OA
BRANCH  23  25
ATOM     25  C   UNL A   1      39.232  22.338  26.456  1.00  0.00     0.060 A 
ATOM     26  C   UNL A   1      40.433  22.238  27.152  1.00  0.00     0.016 A 
ATOM     27  C   UNL A   1      38.739  23.587  26.098  1.00  0.00     0.016 A 
ATOM     28  C   UNL A   1      41.120  23.407  27.505  1.00  0.00     0.010 A 
ATOM     29  C   UNL A   1      39.506  24.727  26.296  1.00  0.00     0.010 A 
ATOM     30  C   UNL A   1      40.683  24.668  27.053  1.00  0.00    -0.014 A 
BRANCH  30  31
ATOM     31  C   UNL A   1      41.386  25.940  27.403  1.00  0.00     0.031 A 
ATOM     32  C   UNL A   1      40.702  26.960  28.289  1.00  0.00     0.074 A 
ATOM     33  C   UNL A   1      42.601  26.219  26.888  1.00  0.00     0.049 A 
ATOM     34  N   UNL A   1      41.082  28.171  28.606  1.00  0.00    -0.248 NA
ATOM     35  C   UNL A   1      39.392  26.589  28.855  1.00  0.00     0.031 C 
ATOM     36  C   UNL A   1      43.344  25.357  25.969  1.00  0.00     0.029 A 
ATOM     37  N   UNL A   1      43.429  27.304  27.062  1.00  0.00    -0.354 N 
ATOM     38  C   UNL A   1      40.041  28.713  29.355  1.00  0.00     0.074 A 
ATOM     39  C   UNL A   1      38.984  27.733  29.381  1.00  0.00     0.031 C 
ATOM     40  C   UNL A   1      44.537  25.914  25.708  1.00  0.00     0.029 A 
ATOM     41  C   UNL A   1      44.625  27.206  26.385  1.00  0.00     0.049 A 
ATOM     42  H   UNL A   1      43.188  28.079  27.619  1.00  0.00     0.167 HD
ATOM     43  C   UNL A   1      39.985  29.901  30.003  1.00  0.00     0.034 A 
ATOM     44  C   UNL A   1      45.672  28.055  26.313  1.00  0.00     0.034 A 
ATOM     45  C   UNL A   1      41.085  30.827  30.052  1.00  0.00     0.049 A 
ATOM     46  C   UNL A   1      45.616  29.351  27.087  1.00  0.00     0.074 A 
ATOM     47  C   UNL A   1      41.168  32.012  30.759  1.00  0.00     0.029 A 
ATOM     48  N   UNL A   1      42.297  30.661  29.398  1.00  0.00    -0.354 N 
ATOM     49  N   UNL A   1      44.653  29.811  27.852  1.00  0.00    -0.248 NA
ATOM     50  C   UNL A   1      46.781  30.244  26.999  1.00  0.00     0.031 C 
ATOM     51  C   UNL A   1      42.407  32.590  30.491  1.00  0.00     0.029 A 
ATOM     52  C   UNL A   1      43.127  31.732  29.675  1.00  0.00     0.049 A 
ATOM     53  H   UNL A   1      42.530  29.897  28.823  1.00  0.00     0.167 HD
ATOM     54  C   UNL A   1      45.107  31.026  28.356  1.00  0.00     0.074 A 
ATOM     55  C   UNL A   1      46.438  31.225  27.825  1.00  0.00     0.031 C 
ATOM     56  C   UNL A   1      44.473  31.899  29.178  1.00  0.00     0.034 A 
BRANCH  43  57
ATOM     57  C   UNL A   1      38.733  30.262  30.770  1.00  0.00     0.023 A 
ATOM     58  C   UNL A   1      37.703  30.986  30.139  1.00  0.00     0.031 A 
ATOM     59  C   UNL A   1      38.615  30.009  32.149  1.00  0.00     0.131 A 
ATOM     60  C   UNL A   1      36.620  31.457  30.891  1.00  0.00     0.055 A 
ATOM     61  C   UNL A   1      37.507  30.433  32.883  1.00  0.00     0.041 A 
ATOM     62  F   UNL A   1      39.573  29.333  32.804  1.00  0.00    -0.206 F 
ATOM     63  C   UNL A   1      36.510  31.173  32.256  1.00  0.00     0.022 A 
BRANCH  60  64
ATOM     64  S   UNL A   1      35.348  32.517  30.150  1.00  0.00     0.124 S 
ATOM     65  O   UNL A   1      34.963  31.745  28.970  1.00  0.00    -0.237 OA
ATOM     66  O   UNL A   1      34.345  32.576  31.209  1.00  0.00    -0.237 OA
ATOM     67  O   UNL A   1      36.049  33.766  29.873  1.00  0.00    -0.744 OA
ENDBRANCH  60  64
ENDBRANCH  43  57
BRANCH  44  68
ATOM     68  C   UNL A   1      46.887  27.653  25.540  1.00  0.00     0.023 A 
ATOM     69  C   UNL A   1      47.072  28.053  24.203  1.00  0.00     0.031 A 
ATOM     70  C   UNL A   1      47.823  26.764  26.096  1.00  0.00     0.131 A 
ATOM     71  C   UNL A   1      48.126  27.511  23.453  1.00  0.00     0.055 A 
ATOM     72  C   UNL A   1      48.910  26.281  25.366  1.00  0.00     0.041 A 
ATOM     73  F   UNL A   1      47.684  26.341  27.363  1.00  0.00    -0.206 F 
ATOM     74  C   UNL A   1      49.055  26.641  24.030  1.00  0.00     0.022 A 
BRANCH  71  75
ATOM     75  S   UNL A   1      48.251  27.813  21.668  1.00  0.00     0.124 S 
ATOM     76  O   UNL A   1      48.583  26.486  21.157  1.00  0.00    -0.237 OA
ATOM     77  O   UNL A   1      46.907  28.291  21.352  1.00  0.00    -0.237 OA
ATOM     78  O   UNL A   1      49.309  28.812  21.559  1.00  0.00    -0.744 OA
ENDBRANCH  71  75
ENDBRANCH  44  68
BRANCH  56  79
ATOM     79  C   UNL A   1      45.181  33.160  29.609  1.00  0.00     0.023 A 
ATOM     80  C   UNL A   1      45.154  34.292  28.770  1.00  0.00     0.031 A 
ATOM     81  C   UNL A   1      46.058  33.161  30.705  1.00  0.00     0.131 A 
ATOM     82  C   UNL A   1      46.044  35.349  28.999  1.00  0.00     0.055 A 
ATOM     83  C   UNL A   1      46.906  34.241  30.960  1.00  0.00     0.041 A 
ATOM     84  F   UNL A   1      46.129  32.099  31.523  1.00  0.00    -0.206 F 
ATOM     85  C   UNL A   1      46.916  35.331  30.092  1.00  0.00     0.022 A 
BRANCH  82  86
ATOM     86  S   UNL A   1      46.185  36.722  27.823  1.00  0.00     0.124 S 
ATOM     87  O   UNL A   1      46.026  36.042  26.541  1.00  0.00    -0.237 OA
ATOM     88  O   UNL A   1      45.070  37.579  28.217  1.00  0.00    -0.237 OA
ATOM     89  O   UNL A   1      47.517  37.267  28.074  1.00  0.00    -0.744 OA
ENDBRANCH  82  86
ENDBRANCH  56  79
ENDBRANCH  30  31
ENDBRANCH  23  25
ENDBRANCH  22  23
ENDBRANCH  21  22
ENDBRANCH   1  21
TORSDOF 17
ENDMDL
MODEL 3
REMARK VINA RESULT:     -11.0      5.093     10.163
REMARK SMILES CCCC[C@H]1C(=S)c2cc(C(=O)OCCOC(=O)c3ccc(-c4c5nc(c(-c6cc(S(=O)(=O)[O-])ccc6F)c6ccc([nH]6)c(-c6cc(S(=O)(=O)[O-])ccc6F)c6nc(c(-c7cc(S(=O)(=O)[O-])ccc7F)c7ccc4[nH]7)C=C6)C=C5)cc3)ccc2N=C1C
REMARK SMILES IDX 14 1 13 2 11 3 12 4 10 5 5 6 6 7 86 8 7 9 8 10 85 11 87 12
REMARK SMILES IDX 9 13 84 14 83 15 82 16 4 17 3 18 2 19 1 20 15 21 16 22 17 23
REMARK SMILES IDX 18 24 19 25 20 26 81 27 21 28 80 29 22 30 23 31 24 32 74 33
REMARK SMILES IDX 25 34 79 35 73 36 75 37 26 38 78 39 72 40 71 41 27 43 59 44
REMARK SMILES IDX 39 45 58 46 40 47 43 48 57 49 76 50 41 51 42 52 56 54 77 55
REMARK SMILES IDX 44 56 28 57 29 58 37 59 30 60 36 61 38 62 35 63 31 64 32 65
REMARK SMILES IDX 33 66 34 67 60 68 61 69 69 70 62 71 68 72 70 73 67 74 63 75
REMARK SMILES IDX 64 76 65 77 66 78 45 79 46 80 54 81 47 82 53 83 55 84 52 85
REMARK SMILES IDX 48 86 49 87 50 88 51 89
REMARK H PARENT 75 42 43 53
REMARK Flexibility Score: inf
ROOT
ATOM      1  C   UNL A   1      35.534  21.054  24.757  1.00  0.00     0.275 C 
ENDROOT
BRANCH   1   2
ATOM      2  O   UNL A   1      35.633  22.494  24.797  1.00  0.00    -0.458 OA
BRANCH   2   3
ATOM      3  C   UNL A   1      35.683  23.100  23.586  1.00  0.00     0.338 C 
ATOM      4  O   UNL A   1      36.601  23.065  22.789  1.00  0.00    -0.246 OA
BRANCH   3   5
ATOM      5  C   UNL A   1      34.404  23.771  23.277  1.00  0.00     0.060 A 
ATOM      6  C   UNL A   1      31.155  27.093  24.819  1.00  0.00     0.075 C 
ATOM      7  C   UNL A   1      32.594  26.892  24.383  1.00  0.00     0.033 C 
ATOM      8  C   UNL A   1      30.234  26.503  23.741  1.00  0.00     0.024 C 
ATOM      9  S   UNL A   1      33.709  28.154  24.382  1.00  0.00    -0.083 S 
ATOM     10  C   UNL A   1      32.884  25.580  23.786  1.00  0.00     0.016 A 
ATOM     11  N   UNL A   1      30.581  25.542  22.932  1.00  0.00    -0.257 NA
ATOM     12  C   UNL A   1      28.820  27.017  23.658  1.00  0.00     0.062 C 
ATOM     13  C   UNL A   1      34.118  24.957  23.948  1.00  0.00     0.027 A 
ATOM     14  C   UNL A   1      31.877  24.998  23.021  1.00  0.00     0.071 A 
ATOM     15  C   UNL A   1      32.185  23.825  22.315  1.00  0.00     0.030 A 
ATOM     16  C   UNL A   1      33.448  23.215  22.428  1.00  0.00     0.018 A 
BRANCH   6  17
ATOM     17  C   UNL A   1      30.792  26.440  26.170  1.00  0.00     0.015 C 
BRANCH  17  18
ATOM     18  C   UNL A   1      31.581  25.208  26.635  1.00  0.00     0.001 C 
BRANCH  18  19
ATOM     19  C   UNL A   1      30.988  23.826  26.357  1.00  0.00    -0.003 C 
ATOM     20  C   UNL A   1      31.995  22.690  26.346  1.00  0.00     0.004 C 
ENDBRANCH  18  19
ENDBRANCH  17  18
ENDBRANCH   6  17
ENDBRANCH   3   5
ENDBRANCH   2   3
ENDBRANCH   1   2
BRANCH   1  21
ATOM     21  C   UNL A   1      36.895  20.391  24.975  1.00  0.00     0.275 C 
BRANCH  21  22
ATOM     22  O   UNL A   1      37.603  21.022  26.057  1.00  0.00    -0.458 OA
BRANCH  22  23
ATOM     23  C   UNL A   1      38.951  20.949  25.990  1.00  0.00     0.338 C 
ATOM     24  O   UNL A   1      39.625  19.963  25.739  1.00  0.00    -0.246 OA
BRANCH  23  25
ATOM     25  C   UNL A   1      39.523  22.283  26.218  1.00  0.00     0.060 A 
ATOM     26  C   UNL A   1      38.744  23.431  26.104  1.00  0.00     0.016 A 
ATOM     27  C   UNL A   1      40.833  22.374  26.671  1.00  0.00     0.016 A 
ATOM     28  C   UNL A   1      39.304  24.674  26.430  1.00  0.00     0.010 A 
ATOM     29  C   UNL A   1      41.325  23.580  27.156  1.00  0.00     0.010 A 
ATOM     30  C   UNL A   1      40.592  24.762  26.992  1.00  0.00    -0.014 A 
BRANCH  30  31
ATOM     31  C   UNL A   1      41.227  26.065  27.356  1.00  0.00     0.031 A 
ATOM     32  C   UNL A   1      42.608  26.403  26.835  1.00  0.00     0.074 A 
ATOM     33  C   UNL A   1      40.608  26.921  28.196  1.00  0.00     0.049 A 
ATOM     34  N   UNL A   1      43.383  27.415  27.133  1.00  0.00    -0.248 NA
ATOM     35  C   UNL A   1      43.222  25.451  25.892  1.00  0.00     0.031 C 
ATOM     36  C   UNL A   1      39.307  26.692  28.824  1.00  0.00     0.029 A 
ATOM     37  N   UNL A   1      40.988  28.156  28.668  1.00  0.00    -0.354 N 
ATOM     38  C   UNL A   1      44.580  27.188  26.459  1.00  0.00     0.074 A 
ATOM     39  C   UNL A   1      44.460  25.910  25.802  1.00  0.00     0.031 C 
ATOM     40  C   UNL A   1      38.971  27.771  29.547  1.00  0.00     0.029 A 
ATOM     41  C   UNL A   1      40.056  28.747  29.493  1.00  0.00     0.049 A 
ATOM     42  H   UNL A   1      41.846  28.579  28.437  1.00  0.00     0.167 HD
ATOM     43  C   UNL A   1      45.666  27.991  26.357  1.00  0.00     0.034 A 
ATOM     44  C   UNL A   1      40.071  29.934  30.136  1.00  0.00     0.034 A 
ATOM     45  C   UNL A   1      45.733  29.307  26.934  1.00  0.00     0.049 A 
ATOM     46  C   UNL A   1      41.266  30.842  29.966  1.00  0.00     0.074 A 
ATOM     47  C   UNL A   1      46.746  30.240  26.810  1.00  0.00     0.029 A 
ATOM     48  N   UNL A   1      44.744  29.886  27.715  1.00  0.00    -0.354 N 
ATOM     49  N   UNL A   1      42.356  30.643  29.262  1.00  0.00    -0.248 NA
ATOM     50  C   UNL A   1      41.240  32.135  30.667  1.00  0.00     0.031 C 
ATOM     51  C   UNL A   1      46.395  31.362  27.558  1.00  0.00     0.029 A 
ATOM     52  C   UNL A   1      45.132  31.160  28.091  1.00  0.00     0.049 A 
ATOM     53  H   UNL A   1      43.895  29.455  27.966  1.00  0.00     0.167 HD
ATOM     54  C   UNL A   1      43.128  31.792  29.412  1.00  0.00     0.074 A 
ATOM     55  C   UNL A   1      42.375  32.691  30.259  1.00  0.00     0.031 C 
ATOM     56  C   UNL A   1      44.352  32.069  28.899  1.00  0.00     0.034 A 
BRANCH  43  57
ATOM     57  C   UNL A   1      46.853  27.523  25.546  1.00  0.00     0.023 A 
ATOM     58  C   UNL A   1      47.018  27.962  24.219  1.00  0.00     0.031 A 
ATOM     59  C   UNL A   1      47.740  26.547  26.035  1.00  0.00     0.131 A 
ATOM     60  C   UNL A   1      48.024  27.405  23.420  1.00  0.00     0.055 A 
ATOM     61  C   UNL A   1      48.775  26.034  25.253  1.00  0.00     0.041 A 
ATOM     62  F   UNL A   1      47.622  26.083  27.291  1.00  0.00    -0.206 F 
ATOM     63  C   UNL A   1      48.911  26.453  23.933  1.00  0.00     0.022 A 
BRANCH  60  64
ATOM     64  S   UNL A   1      48.179  27.833  21.664  1.00  0.00     0.124 S 
ATOM     65  O   UNL A   1      48.503  26.539  21.066  1.00  0.00    -0.237 OA
ATOM     66  O   UNL A   1      46.847  28.344  21.356  1.00  0.00    -0.237 OA
ATOM     67  O   UNL A   1      49.255  28.817  21.635  1.00  0.00    -0.744 OA
ENDBRANCH  60  64
ENDBRANCH  43  57
BRANCH  44  68
ATOM     68  C   UNL A   1      38.872  30.352  30.926  1.00  0.00     0.023 A 
ATOM     69  C   UNL A   1      37.760  30.955  30.309  1.00  0.00     0.031 A 
ATOM     70  C   UNL A   1      38.875  30.258  32.329  1.00  0.00     0.131 A 
ATOM     71  C   UNL A   1      36.735  31.498  31.097  1.00  0.00     0.055 A 
ATOM     72  C   UNL A   1      37.819  30.738  33.106  1.00  0.00     0.041 A 
ATOM     73  F   UNL A   1      39.918  29.703  32.967  1.00  0.00    -0.206 F 
ATOM     74  C   UNL A   1      36.749  31.379  32.489  1.00  0.00     0.022 A 
BRANCH  71  75
ATOM     75  S   UNL A   1      35.413  32.493  30.351  1.00  0.00     0.124 S 
ATOM     76  O   UNL A   1      34.450  32.588  31.443  1.00  0.00    -0.237 OA
ATOM     77  O   UNL A   1      36.120  33.730  30.026  1.00  0.00    -0.237 OA
ATOM     78  O   UNL A   1      34.988  31.699  29.203  1.00  0.00    -0.744 OA
ENDBRANCH  71  75
ENDBRANCH  44  68
BRANCH  56  79
ATOM     79  C   UNL A   1      44.992  33.405  29.188  1.00  0.00     0.023 A 
ATOM     80  C   UNL A   1      44.953  34.418  28.209  1.00  0.00     0.031 A 
ATOM     81  C   UNL A   1      45.822  33.585  30.305  1.00  0.00     0.131 A 
ATOM     82  C   UNL A   1      45.791  35.534  28.331  1.00  0.00     0.055 A 
ATOM     83  C   UNL A   1      46.615  34.726  30.448  1.00  0.00     0.041 A 
ATOM     84  F   UNL A   1      45.902  32.641  31.256  1.00  0.00    -0.206 F 
ATOM     85  C   UNL A   1      46.617  35.695  29.448  1.00  0.00     0.022 A 
BRANCH  82  86
ATOM     86  S   UNL A   1      45.926  36.752  26.993  1.00  0.00     0.124 S 
ATOM     87  O   UNL A   1      46.219  35.904  25.840  1.00  0.00    -0.237 OA
ATOM     88  O   UNL A   1      44.599  37.361  26.999  1.00  0.00    -0.237 OA
ATOM     89  O   UNL A   1      47.020  37.622  27.416  1.00  0.00    -0.744 OA
ENDBRANCH  82  86
ENDBRANCH  56  79
ENDBRANCH  30  31
ENDBRANCH  23  25
ENDBRANCH  22  23
ENDBRANCH  21  22
ENDBRANCH   1  21
TORSDOF 17
ENDMDL
