MODEL 1
REMARK VINA RESULT:     -14.2      0.000      0.000
REMARK SMILES O=C(OCCOC(=O)c1ccc(-c2c3nc(c(-c4cc(S(=O)(=O)[O-])ccc4F)c4ccc([nH]4)c(-c4cc(S(=O)(=O)[O-])ccc4F)c4nc(c(-c5cc(S(=O)(=O)[O-])ccc5F)c5ccc2[nH]5)C=C4)C=C3)cc1)C1=Cc2cc(Cl)cc(Cl)c2O[C@@H]1C(F)(F)F
REMARK SMILES IDX 5 1 4 2 3 3 2 4 1 5 72 6 73 7 83 8 74 9 82 10 75 11 81 12
REMARK SMILES IDX 76 13 79 14 77 15 78 16 80 17 84 18 85 19 86 20 87 21 6 22
REMARK SMILES IDX 7 23 8 24 9 25 10 26 71 27 11 28 70 29 12 30 13 31 14 32
REMARK SMILES IDX 64 33 15 34 69 35 63 36 65 37 16 38 68 39 62 40 61 41 17 43
REMARK SMILES IDX 49 44 29 45 48 46 30 47 33 48 47 49 66 50 31 51 32 52 46 54
REMARK SMILES IDX 67 55 34 56 18 57 19 58 27 59 20 60 26 61 28 62 25 63 21 64
REMARK SMILES IDX 22 65 23 66 24 67 50 68 51 69 59 70 52 71 58 72 60 73 57 74
REMARK SMILES IDX 53 75 54 76 55 77 56 78 35 79 36 80 44 81 37 82 43 83 45 84
REMARK SMILES IDX 42 85 38 86 39 87 40 88 41 89
REMARK H PARENT 65 42 33 53
REMARK Flexibility Score: inf
ROOT
ATOM      1  C   UNL A   1      31.164  32.179  26.499  1.00  0.00     0.275 C 
ENDROOT
BRANCH   1   2
ATOM      2  C   UNL A   1      31.521  30.239  25.618  1.00  0.00     0.275 C 
BRANCH   2   3
ATOM      3  O   UNL A   1      32.358  29.079  26.244  1.00  0.00    -0.459 OA
BRANCH   3   4
ATOM      4  C   UNL A   1      31.669  27.938  26.369  1.00  0.00     0.338 C 
ATOM      5  O   UNL A   1      31.117  27.453  27.321  1.00  0.00    -0.246 OA
BRANCH   4   6
ATOM      6  C   UNL A   1      32.062  27.413  25.088  1.00  0.00     0.087 C 
ATOM      7  C   UNL A   1      33.453  26.912  25.134  1.00  0.00     0.027 C 
ATOM      8  C   UNL A   1      30.494  26.317  24.800  1.00  0.00     0.316 C 
ATOM      9  C   UNL A   1      33.873  25.151  25.088  1.00  0.00     0.020 A 
ATOM     10  O   UNL A   1      30.924  24.442  24.786  1.00  0.00    -0.474 OA
ATOM     11  C   UNL A   1      35.161  24.791  25.381  1.00  0.00     0.032 A 
ATOM     12  C   UNL A   1      32.656  23.912  24.995  1.00  0.00     0.146 A 
ATOM     13  C   UNL A   1      35.356  23.416  25.588  1.00  0.00     0.043 A 
ATOM     14  C   UNL A   1      32.958  22.592  25.201  1.00  0.00     0.085 A 
ATOM     15  Cl  UNL A   1      36.958  22.927  26.047  1.00  0.00    -0.084 Cl
ATOM     16  C   UNL A   1      34.329  22.382  25.502  1.00  0.00     0.045 A 
ATOM     17  Cl  UNL A   1      31.845  21.311  25.197  1.00  0.00    -0.080 Cl
BRANCH   8  18
ATOM     18  C   UNL A   1      29.723  27.240  23.793  1.00  0.00     0.430 C 
ATOM     19  F   UNL A   1      30.203  27.131  22.548  1.00  0.00    -0.167 F 
ATOM     20  F   UNL A   1      28.439  26.775  23.707  1.00  0.00    -0.167 F 
ATOM     21  F   UNL A   1      29.553  28.523  24.148  1.00  0.00    -0.167 F 
ENDBRANCH   8  18
ENDBRANCH   4   6
ENDBRANCH   3   4
ENDBRANCH   2   3
ENDBRANCH   1   2
BRANCH   1  22
ATOM     22  O   UNL A   1      32.344  33.353  26.858  1.00  0.00    -0.458 OA
BRANCH  22  23
ATOM     23  C   UNL A   1      33.041  33.937  27.883  1.00  0.00     0.338 C 
ATOM     24  O   UNL A   1      32.669  34.731  28.725  1.00  0.00    -0.246 OA
BRANCH  23  25
ATOM     25  C   UNL A   1      34.293  33.128  27.992  1.00  0.00     0.060 A 
ATOM     26  C   UNL A   1      35.520  33.795  28.142  1.00  0.00     0.016 A 
ATOM     27  C   UNL A   1      34.193  31.776  28.326  1.00  0.00     0.016 A 
ATOM     28  C   UNL A   1      36.575  33.166  28.829  1.00  0.00     0.010 A 
ATOM     29  C   UNL A   1      35.249  31.150  28.994  1.00  0.00     0.010 A 
ATOM     30  C   UNL A   1      36.424  31.856  29.311  1.00  0.00    -0.014 A 
BRANCH  30  31
ATOM     31  C   UNL A   1      37.576  31.112  29.889  1.00  0.00     0.031 A 
ATOM     32  C   UNL A   1      37.910  31.457  31.311  1.00  0.00     0.074 A 
ATOM     33  C   UNL A   1      38.339  30.236  29.200  1.00  0.00     0.049 A 
ATOM     34  N   UNL A   1      38.891  31.049  32.068  1.00  0.00    -0.248 NA
ATOM     35  C   UNL A   1      37.016  32.439  31.945  1.00  0.00     0.031 C 
ATOM     36  C   UNL A   1      38.132  29.819  27.813  1.00  0.00     0.029 A 
ATOM     37  N   UNL A   1      39.468  29.543  29.582  1.00  0.00    -0.354 N 
ATOM     38  C   UNL A   1      38.722  31.720  33.273  1.00  0.00     0.074 A 
ATOM     39  C   UNL A   1      37.608  32.625  33.107  1.00  0.00     0.031 C 
ATOM     40  C   UNL A   1      39.100  28.946  27.463  1.00  0.00     0.029 A 
ATOM     41  C   UNL A   1      40.012  28.750  28.591  1.00  0.00     0.049 A 
ATOM     42  H   UNL A   1      39.855  29.609  30.485  1.00  0.00     0.167 HD
ATOM     43  C   UNL A   1      39.409  31.576  34.430  1.00  0.00     0.034 A 
ATOM     44  C   UNL A   1      41.115  27.965  28.606  1.00  0.00     0.034 A 
ATOM     45  C   UNL A   1      40.550  30.717  34.565  1.00  0.00     0.049 A 
ATOM     46  C   UNL A   1      41.936  27.894  29.883  1.00  0.00     0.074 A 
ATOM     47  C   UNL A   1      41.349  30.508  35.673  1.00  0.00     0.029 A 
ATOM     48  N   UNL A   1      41.071  29.936  33.540  1.00  0.00    -0.354 N 
ATOM     49  N   UNL A   1      41.730  28.488  31.038  1.00  0.00    -0.248 NA
ATOM     50  C   UNL A   1      43.131  27.035  29.862  1.00  0.00     0.031 C 
ATOM     51  C   UNL A   1      42.390  29.651  35.300  1.00  0.00     0.029 A 
ATOM     52  C   UNL A   1      42.195  29.261  33.983  1.00  0.00     0.049 A 
ATOM     53  H   UNL A   1      40.696  29.873  32.632  1.00  0.00     0.167 HD
ATOM     54  C   UNL A   1      42.736  28.031  31.891  1.00  0.00     0.074 A 
ATOM     55  C   UNL A   1      43.544  27.110  31.118  1.00  0.00     0.031 C 
ATOM     56  C   UNL A   1      42.972  28.334  33.193  1.00  0.00     0.034 A 
BRANCH  43  57
ATOM     57  C   UNL A   1      38.938  32.424  35.585  1.00  0.00     0.023 A 
ATOM     58  C   UNL A   1      39.332  33.772  35.697  1.00  0.00     0.031 A 
ATOM     59  C   UNL A   1      38.236  31.849  36.655  1.00  0.00     0.131 A 
ATOM     60  C   UNL A   1      39.138  34.455  36.904  1.00  0.00     0.055 A 
ATOM     61  C   UNL A   1      37.951  32.573  37.814  1.00  0.00     0.041 A 
ATOM     62  F   UNL A   1      37.865  30.561  36.616  1.00  0.00    -0.206 F 
ATOM     63  C   UNL A   1      38.425  33.875  37.955  1.00  0.00     0.022 A 
BRANCH  60  64
ATOM     64  S   UNL A   1      40.025  36.018  37.159  1.00  0.00     0.124 S 
ATOM     65  O   UNL A   1      39.254  36.620  38.245  1.00  0.00    -0.237 OA
ATOM     66  O   UNL A   1      41.368  35.569  37.504  1.00  0.00    -0.237 OA
ATOM     67  O   UNL A   1      39.904  36.695  35.869  1.00  0.00    -0.744 OA
ENDBRANCH  60  64
ENDBRANCH  43  57
BRANCH  44  68
ATOM     68  C   UNL A   1      41.552  27.178  27.405  1.00  0.00     0.023 A 
ATOM     69  C   UNL A   1      41.420  25.776  27.366  1.00  0.00     0.031 A 
ATOM     70  C   UNL A   1      42.220  27.794  26.331  1.00  0.00     0.131 A 
ATOM     71  C   UNL A   1      41.998  25.036  26.317  1.00  0.00     0.055 A 
ATOM     72  C   UNL A   1      42.747  27.059  25.263  1.00  0.00     0.041 A 
ATOM     73  F   UNL A   1      42.393  29.125  26.313  1.00  0.00    -0.206 F 
ATOM     74  C   UNL A   1      42.651  25.670  25.260  1.00  0.00     0.022 A 
BRANCH  71  75
ATOM     75  S   UNL A   1      41.982  23.221  26.409  1.00  0.00     0.124 S 
ATOM     76  O   UNL A   1      40.568  22.948  26.645  1.00  0.00    -0.237 OA
ATOM     77  O   UNL A   1      42.500  22.844  25.099  1.00  0.00    -0.237 OA
ATOM     78  O   UNL A   1      42.868  22.929  27.536  1.00  0.00    -0.744 OA
ENDBRANCH  71  75
ENDBRANCH  44  68
BRANCH  56  79
ATOM     79  C   UNL A   1      44.098  27.605  33.888  1.00  0.00     0.023 A 
ATOM     80  C   UNL A   1      43.897  26.390  34.565  1.00  0.00     0.031 A 
ATOM     81  C   UNL A   1      45.402  28.130  33.843  1.00  0.00     0.131 A 
ATOM     82  C   UNL A   1      44.976  25.766  35.213  1.00  0.00     0.055 A 
ATOM     83  C   UNL A   1      46.482  27.472  34.433  1.00  0.00     0.041 A 
ATOM     84  F   UNL A   1      45.652  29.287  33.209  1.00  0.00    -0.206 F 
ATOM     85  C   UNL A   1      46.269  26.289  35.134  1.00  0.00     0.022 A 
BRANCH  82  86
ATOM     86  S   UNL A   1      44.650  24.305  36.236  1.00  0.00     0.124 S 
ATOM     87  O   UNL A   1      43.831  23.487  35.348  1.00  0.00    -0.237 OA
ATOM     88  O   UNL A   1      45.994  23.805  36.503  1.00  0.00    -0.237 OA
ATOM     89  O   UNL A   1      43.951  24.849  37.399  1.00  0.00    -0.744 OA
ENDBRANCH  82  86
ENDBRANCH  56  79
ENDBRANCH  30  31
ENDBRANCH  23  25
ENDBRANCH  22  23
ENDBRANCH   1  22
TORSDOF 15
ENDMDL
MODEL 2
REMARK VINA RESULT:     -13.8      4.940     10.084
REMARK SMILES O=C(OCCOC(=O)c1ccc(-c2c3nc(c(-c4cc(S(=O)(=O)[O-])ccc4F)c4ccc([nH]4)c(-c4cc(S(=O)(=O)[O-])ccc4F)c4nc(c(-c5cc(S(=O)(=O)[O-])ccc5F)c5ccc2[nH]5)C=C4)C=C3)cc1)C1=Cc2cc(Cl)cc(Cl)c2O[C@@H]1C(F)(F)F
REMARK SMILES IDX 5 1 4 2 3 3 2 4 1 5 72 6 73 7 83 8 74 9 82 10 75 11 81 12
REMARK SMILES IDX 76 13 79 14 77 15 78 16 80 17 84 18 85 19 86 20 87 21 6 22
REMARK SMILES IDX 7 23 8 24 9 25 10 26 71 27 11 28 70 29 12 30 13 31 14 32
REMARK SMILES IDX 64 33 15 34 69 35 63 36 65 37 16 38 68 39 62 40 61 41 17 43
REMARK SMILES IDX 49 44 29 45 48 46 30 47 33 48 47 49 66 50 31 51 32 52 46 54
REMARK SMILES IDX 67 55 34 56 18 57 19 58 27 59 20 60 26 61 28 62 25 63 21 64
REMARK SMILES IDX 22 65 23 66 24 67 50 68 51 69 59 70 52 71 58 72 60 73 57 74
REMARK SMILES IDX 53 75 54 76 55 77 56 78 35 79 36 80 44 81 37 82 43 83 45 84
REMARK SMILES IDX 42 85 38 86 39 87 40 88 41 89
REMARK H PARENT 65 42 33 53
REMARK Flexibility Score: inf
ROOT
ATOM      1  C   UNL A   1      37.494  21.609  24.498  1.00  0.00     0.275 C 
ENDROOT
BRANCH   1   2
ATOM      2  C   UNL A   1      36.204  23.065  23.560  1.00  0.00     0.275 C 
BRANCH   2   3
ATOM      3  O   UNL A   1      34.652  23.156  23.708  1.00  0.00    -0.459 OA
BRANCH   3   4
ATOM      4  C   UNL A   1      34.150  24.330  23.309  1.00  0.00     0.338 C 
ATOM      5  O   UNL A   1      34.490  25.071  22.425  1.00  0.00    -0.246 OA
BRANCH   4   6
ATOM      6  C   UNL A   1      33.288  24.493  24.449  1.00  0.00     0.087 C 
ATOM      7  C   UNL A   1      33.919  25.371  25.460  1.00  0.00     0.027 C 
ATOM      8  C   UNL A   1      31.678  24.911  23.462  1.00  0.00     0.316 C 
ATOM      9  C   UNL A   1      33.352  27.058  25.798  1.00  0.00     0.020 A 
ATOM     10  O   UNL A   1      31.088  26.714  23.786  1.00  0.00    -0.474 OA
ATOM     11  C   UNL A   1      34.150  27.860  26.568  1.00  0.00     0.032 A 
ATOM     12  C   UNL A   1      32.016  27.773  24.943  1.00  0.00     0.146 A 
ATOM     13  C   UNL A   1      33.791  29.218  26.571  1.00  0.00     0.043 A 
ATOM     14  C   UNL A   1      31.745  29.113  25.027  1.00  0.00     0.085 A 
ATOM     15  Cl  UNL A   1      34.831  30.285  27.465  1.00  0.00    -0.084 Cl
ATOM     16  C   UNL A   1      32.666  29.809  25.854  1.00  0.00     0.045 A 
ATOM     17  Cl  UNL A   1      30.514  29.927  24.191  1.00  0.00    -0.080 Cl
BRANCH   8  18
ATOM     18  C   UNL A   1      30.957  23.522  23.555  1.00  0.00     0.430 C 
ATOM     19  F   UNL A   1      30.617  23.219  24.814  1.00  0.00    -0.167 F 
ATOM     20  F   UNL A   1      29.763  23.631  22.895  1.00  0.00    -0.167 F 
ATOM     21  F   UNL A   1      31.545  22.485  22.938  1.00  0.00    -0.167 F 
ENDBRANCH   8  18
ENDBRANCH   4   6
ENDBRANCH   3   4
ENDBRANCH   2   3
ENDBRANCH   1   2
BRANCH   1  22
ATOM     22  O   UNL A   1      38.414  21.842  25.913  1.00  0.00    -0.458 OA
BRANCH  22  23
ATOM     23  C   UNL A   1      39.691  22.007  26.382  1.00  0.00     0.338 C 
ATOM     24  O   UNL A   1      40.713  21.423  26.079  1.00  0.00    -0.246 OA
BRANCH  23  25
ATOM     25  C   UNL A   1      39.657  23.315  27.106  1.00  0.00     0.060 A 
ATOM     26  C   UNL A   1      40.620  23.565  28.098  1.00  0.00     0.016 A 
ATOM     27  C   UNL A   1      38.949  24.378  26.541  1.00  0.00     0.016 A 
ATOM     28  C   UNL A   1      41.024  24.888  28.358  1.00  0.00     0.010 A 
ATOM     29  C   UNL A   1      39.343  25.690  26.815  1.00  0.00     0.010 A 
ATOM     30  C   UNL A   1      40.425  25.957  27.673  1.00  0.00    -0.014 A 
BRANCH  30  31
ATOM     31  C   UNL A   1      40.712  27.368  28.050  1.00  0.00     0.031 A 
ATOM     32  C   UNL A   1      42.144  27.790  27.899  1.00  0.00     0.074 A 
ATOM     33  C   UNL A   1      39.799  28.220  28.565  1.00  0.00     0.049 A 
ATOM     34  N   UNL A   1      42.729  28.914  28.211  1.00  0.00    -0.248 NA
ATOM     35  C   UNL A   1      43.046  26.765  27.347  1.00  0.00     0.031 C 
ATOM     36  C   UNL A   1      38.379  27.937  28.774  1.00  0.00     0.029 A 
ATOM     37  N   UNL A   1      39.943  29.512  29.024  1.00  0.00    -0.354 N 
ATOM     38  C   UNL A   1      44.067  28.731  27.881  1.00  0.00     0.074 A 
ATOM     39  C   UNL A   1      44.217  27.364  27.439  1.00  0.00     0.031 C 
ATOM     40  C   UNL A   1      37.786  29.020  29.318  1.00  0.00     0.029 A 
ATOM     41  C   UNL A   1      38.782  30.073  29.517  1.00  0.00     0.049 A 
ATOM     42  H   UNL A   1      40.801  29.994  29.002  1.00  0.00     0.167 HD
ATOM     43  C   UNL A   1      45.079  29.627  27.909  1.00  0.00     0.034 A 
ATOM     44  C   UNL A   1      38.564  31.293  30.063  1.00  0.00     0.034 A 
ATOM     45  C   UNL A   1      44.932  30.966  28.405  1.00  0.00     0.049 A 
ATOM     46  C   UNL A   1      39.736  32.254  30.183  1.00  0.00     0.074 A 
ATOM     47  C   UNL A   1      45.887  31.958  28.516  1.00  0.00     0.029 A 
ATOM     48  N   UNL A   1      43.744  31.493  28.900  1.00  0.00    -0.354 N 
ATOM     49  N   UNL A   1      40.987  32.090  29.810  1.00  0.00    -0.248 NA
ATOM     50  C   UNL A   1      39.463  33.568  30.785  1.00  0.00     0.031 C 
ATOM     51  C   UNL A   1      45.293  33.063  29.136  1.00  0.00     0.029 A 
ATOM     52  C   UNL A   1      43.948  32.790  29.338  1.00  0.00     0.049 A 
ATOM     53  H   UNL A   1      42.885  31.014  28.934  1.00  0.00     0.167 HD
ATOM     54  C   UNL A   1      41.630  33.298  30.083  1.00  0.00     0.074 A 
ATOM     55  C   UNL A   1      40.630  34.179  30.647  1.00  0.00     0.031 C 
ATOM     56  C   UNL A   1      42.926  33.653  29.882  1.00  0.00     0.034 A 
BRANCH  43  57
ATOM     57  C   UNL A   1      46.419  29.124  27.433  1.00  0.00     0.023 A 
ATOM     58  C   UNL A   1      46.634  28.826  26.073  1.00  0.00     0.031 A 
ATOM     59  C   UNL A   1      47.424  28.786  28.351  1.00  0.00     0.131 A 
ATOM     60  C   UNL A   1      47.765  28.092  25.692  1.00  0.00     0.055 A 
ATOM     61  C   UNL A   1      48.599  28.150  27.947  1.00  0.00     0.041 A 
ATOM     62  F   UNL A   1      47.259  29.017  29.663  1.00  0.00    -0.206 F 
ATOM     63  C   UNL A   1      48.764  27.775  26.615  1.00  0.00     0.022 A 
BRANCH  60  64
ATOM     64  S   UNL A   1      47.798  27.364  24.030  1.00  0.00     0.124 S 
ATOM     65  O   UNL A   1      49.208  27.003  23.895  1.00  0.00    -0.237 OA
ATOM     66  O   UNL A   1      46.863  26.252  24.151  1.00  0.00    -0.237 OA
ATOM     67  O   UNL A   1      47.358  28.460  23.168  1.00  0.00    -0.744 OA
ENDBRANCH  60  64
ENDBRANCH  43  57
BRANCH  44  68
ATOM     68  C   UNL A   1      37.211  31.717  30.558  1.00  0.00     0.023 A 
ATOM     69  C   UNL A   1      36.325  32.433  29.730  1.00  0.00     0.031 A 
ATOM     70  C   UNL A   1      36.830  31.524  31.898  1.00  0.00     0.131 A 
ATOM     71  C   UNL A   1      35.142  32.981  30.261  1.00  0.00     0.055 A 
ATOM     72  C   UNL A   1      35.627  32.025  32.408  1.00  0.00     0.041 A 
ATOM     73  F   UNL A   1      37.635  30.862  32.744  1.00  0.00    -0.206 F 
ATOM     74  C   UNL A   1      34.782  32.772  31.592  1.00  0.00     0.022 A 
BRANCH  71  75
ATOM     75  S   UNL A   1      34.130  34.069  29.213  1.00  0.00     0.124 S 
ATOM     76  O   UNL A   1      33.649  33.138  28.197  1.00  0.00    -0.237 OA
ATOM     77  O   UNL A   1      33.135  34.562  30.157  1.00  0.00    -0.237 OA
ATOM     78  O   UNL A   1      35.085  35.069  28.737  1.00  0.00    -0.744 OA
ENDBRANCH  71  75
ENDBRANCH  44  68
BRANCH  56  79
ATOM     79  C   UNL A   1      43.316  35.078  30.197  1.00  0.00     0.023 A 
ATOM     80  C   UNL A   1      43.204  36.112  29.252  1.00  0.00     0.031 A 
ATOM     81  C   UNL A   1      43.784  35.405  31.483  1.00  0.00     0.131 A 
ATOM     82  C   UNL A   1      43.603  37.414  29.592  1.00  0.00     0.055 A 
ATOM     83  C   UNL A   1      44.117  36.714  31.835  1.00  0.00     0.041 A 
ATOM     84  F   UNL A   1      43.911  34.458  32.426  1.00  0.00    -0.206 F 
ATOM     85  C   UNL A   1      44.038  37.725  30.883  1.00  0.00     0.022 A 
BRANCH  82  86
ATOM     86  S   UNL A   1      43.626  38.684  28.297  1.00  0.00     0.124 S 
ATOM     87  O   UNL A   1      42.205  38.960  28.114  1.00  0.00    -0.237 OA
ATOM     88  O   UNL A   1      44.407  39.748  28.918  1.00  0.00    -0.237 OA
ATOM     89  O   UNL A   1      44.278  38.015  27.172  1.00  0.00    -0.744 OA
ENDBRANCH  82  86
ENDBRANCH  56  79
ENDBRANCH  30  31
ENDBRANCH  23  25
ENDBRANCH  22  23
ENDBRANCH   1  22
TORSDOF 15
ENDMDL
MODEL 3
REMARK VINA RESULT:     -13.7      5.087     10.440
REMARK SMILES O=C(OCCOC(=O)c1ccc(-c2c3nc(c(-c4cc(S(=O)(=O)[O-])ccc4F)c4ccc([nH]4)c(-c4cc(S(=O)(=O)[O-])ccc4F)c4nc(c(-c5cc(S(=O)(=O)[O-])ccc5F)c5ccc2[nH]5)C=C4)C=C3)cc1)C1=Cc2cc(Cl)cc(Cl)c2O[C@@H]1C(F)(F)F
REMARK SMILES IDX 5 1 4 2 3 3 2 4 1 5 72 6 73 7 83 8 74 9 82 10 75 11 81 12
REMARK SMILES IDX 76 13 79 14 77 15 78 16 80 17 84 18 85 19 86 20 87 21 6 22
REMARK SMILES IDX 7 23 8 24 9 25 10 26 71 27 11 28 70 29 12 30 13 31 14 32
REMARK SMILES IDX 64 33 15 34 69 35 63 36 65 37 16 38 68 39 62 40 61 41 17 43
REMARK SMILES IDX 49 44 29 45 48 46 30 47 33 48 47 49 66 50 31 51 32 52 46 54
REMARK SMILES IDX 67 55 34 56 18 57 19 58 27 59 20 60 26 61 28 62 25 63 21 64
REMARK SMILES IDX 22 65 23 66 24 67 50 68 51 69 59 70 52 71 58 72 60 73 57 74
REMARK SMILES IDX 53 75 54 76 55 77 56 78 35 79 36 80 44 81 37 82 43 83 45 84
REMARK SMILES IDX 42 85 38 86 39 87 40 88 41 89
REMARK H PARENT 65 42 33 53
REMARK Flexibility Score: inf
ROOT
ATOM      1  C   UNL A   1      38.189  20.355  24.993  1.00  0.00     0.275 C 
ENDROOT
BRANCH   1   2
ATOM      2  C   UNL A   1      36.476  21.664  24.859  1.00  0.00     0.275 C 
BRANCH   2   3
ATOM      3  O   UNL A   1      36.374  22.969  24.008  1.00  0.00    -0.459 OA
BRANCH   3   4
ATOM      4  C   UNL A   1      35.144  23.195  23.531  1.00  0.00     0.338 C 
ATOM      5  O   UNL A   1      34.766  23.440  22.416  1.00  0.00    -0.246 OA
BRANCH   4   6
ATOM      6  C   UNL A   1      34.525  23.307  24.824  1.00  0.00     0.087 C 
ATOM      7  C   UNL A   1      34.738  24.658  25.390  1.00  0.00     0.027 C 
ATOM      8  C   UNL A   1      32.808  22.570  24.322  1.00  0.00     0.316 C 
ATOM      9  C   UNL A   1      33.418  25.889  25.538  1.00  0.00     0.020 A 
ATOM     10  O   UNL A   1      31.405  23.880  24.442  1.00  0.00    -0.474 OA
ATOM     11  C   UNL A   1      33.772  27.175  25.843  1.00  0.00     0.032 A 
ATOM     12  C   UNL A   1      31.791  25.567  25.014  1.00  0.00     0.146 A 
ATOM     13  C   UNL A   1      32.746  28.122  25.683  1.00  0.00     0.043 A 
ATOM     14  C   UNL A   1      30.861  26.566  24.906  1.00  0.00     0.085 A 
ATOM     15  Cl  UNL A   1      33.178  29.779  25.975  1.00  0.00    -0.084 Cl
ATOM     16  C   UNL A   1      31.382  27.842  25.247  1.00  0.00     0.045 A 
ATOM     17  Cl  UNL A   1      29.269  26.380  24.347  1.00  0.00    -0.080 Cl
BRANCH   8  18
ATOM     18  C   UNL A   1      32.971  21.126  24.914  1.00  0.00     0.430 C 
ATOM     19  F   UNL A   1      33.348  21.153  26.198  1.00  0.00    -0.167 F 
ATOM     20  F   UNL A   1      31.733  20.545  24.932  1.00  0.00    -0.167 F 
ATOM     21  F   UNL A   1      33.701  20.253  24.202  1.00  0.00    -0.167 F 
ENDBRANCH   8  18
ENDBRANCH   4   6
ENDBRANCH   3   4
ENDBRANCH   2   3
ENDBRANCH   1   2
BRANCH   1  22
ATOM     22  O   UNL A   1      39.340  20.329  26.248  1.00  0.00    -0.458 OA
BRANCH  22  23
ATOM     23  C   UNL A   1      40.645  20.617  26.552  1.00  0.00     0.338 C 
ATOM     24  O   UNL A   1      41.668  20.087  26.166  1.00  0.00    -0.246 OA
BRANCH  23  25
ATOM     25  C   UNL A   1      40.591  21.965  27.194  1.00  0.00     0.060 A 
ATOM     26  C   UNL A   1      41.497  22.261  28.226  1.00  0.00     0.016 A 
ATOM     27  C   UNL A   1      39.937  23.002  26.526  1.00  0.00     0.016 A 
ATOM     28  C   UNL A   1      41.908  23.592  28.432  1.00  0.00     0.010 A 
ATOM     29  C   UNL A   1      40.336  24.323  26.745  1.00  0.00     0.010 A 
ATOM     30  C   UNL A   1      41.369  24.626  27.650  1.00  0.00    -0.014 A 
BRANCH  30  31
ATOM     31  C   UNL A   1      41.658  26.053  27.960  1.00  0.00     0.031 A 
ATOM     32  C   UNL A   1      43.044  26.513  27.615  1.00  0.00     0.074 A 
ATOM     33  C   UNL A   1      40.793  26.890  28.574  1.00  0.00     0.049 A 
ATOM     34  N   UNL A   1      43.628  27.660  27.827  1.00  0.00    -0.248 NA
ATOM     35  C   UNL A   1      43.898  25.503  26.969  1.00  0.00     0.031 C 
ATOM     36  C   UNL A   1      39.423  26.570  28.972  1.00  0.00     0.029 A 
ATOM     37  N   UNL A   1      40.955  28.195  28.986  1.00  0.00    -0.354 N 
ATOM     38  C   UNL A   1      44.917  27.509  27.328  1.00  0.00     0.074 A 
ATOM     39  C   UNL A   1      45.052  26.137  26.896  1.00  0.00     0.031 C 
ATOM     40  C   UNL A   1      38.871  27.647  29.569  1.00  0.00     0.029 A 
ATOM     41  C   UNL A   1      39.850  28.734  29.617  1.00  0.00     0.049 A 
ATOM     42  H   UNL A   1      41.787  28.701  28.844  1.00  0.00     0.167 HD
ATOM     43  C   UNL A   1      45.896  28.435  27.207  1.00  0.00     0.034 A 
ATOM     44  C   UNL A   1      39.667  29.959  30.164  1.00  0.00     0.034 A 
ATOM     45  C   UNL A   1      45.772  29.780  27.693  1.00  0.00     0.049 A 
ATOM     46  C   UNL A   1      40.813  30.955  30.111  1.00  0.00     0.074 A 
ATOM     47  C   UNL A   1      46.701  30.801  27.659  1.00  0.00     0.029 A 
ATOM     48  N   UNL A   1      44.642  30.283  28.329  1.00  0.00    -0.354 N 
ATOM     49  N   UNL A   1      42.009  30.820  29.581  1.00  0.00    -0.248 NA
ATOM     50  C   UNL A   1      40.579  32.274  30.719  1.00  0.00     0.031 C 
ATOM     51  C   UNL A   1      46.157  31.902  28.331  1.00  0.00     0.029 A 
ATOM     52  C   UNL A   1      44.860  31.595  28.713  1.00  0.00     0.049 A 
ATOM     53  H   UNL A   1      43.810  29.780  28.484  1.00  0.00     0.167 HD
ATOM     54  C   UNL A   1      42.644  32.051  29.745  1.00  0.00     0.074 A 
ATOM     55  C   UNL A   1      41.698  32.916  30.419  1.00  0.00     0.031 C 
ATOM     56  C   UNL A   1      43.890  32.440  29.369  1.00  0.00     0.034 A 
BRANCH  43  57
ATOM     57  C   UNL A   1      47.177  27.960  26.569  1.00  0.00     0.023 A 
ATOM     58  C   UNL A   1      47.420  28.170  25.198  1.00  0.00     0.031 A 
ATOM     59  C   UNL A   1      48.078  27.158  27.285  1.00  0.00     0.131 A 
ATOM     60  C   UNL A   1      48.458  27.479  24.561  1.00  0.00     0.055 A 
ATOM     61  C   UNL A   1      49.175  26.558  26.664  1.00  0.00     0.041 A 
ATOM     62  F   UNL A   1      47.878  26.897  28.586  1.00  0.00    -0.206 F 
ATOM     63  C   UNL A   1      49.356  26.695  25.289  1.00  0.00     0.022 A 
BRANCH  60  64
ATOM     64  S   UNL A   1      48.478  27.437  22.747  1.00  0.00     0.124 S 
ATOM     65  O   UNL A   1      48.412  26.000  22.485  1.00  0.00    -0.237 OA
ATOM     66  O   UNL A   1      47.289  28.204  22.398  1.00  0.00    -0.237 OA
ATOM     67  O   UNL A   1      49.751  28.067  22.404  1.00  0.00    -0.744 OA
ENDBRANCH  60  64
ENDBRANCH  43  57
BRANCH  44  68
ATOM     68  C   UNL A   1      38.377  30.353  30.823  1.00  0.00     0.023 A 
ATOM     69  C   UNL A   1      37.382  31.056  30.114  1.00  0.00     0.031 A 
ATOM     70  C   UNL A   1      38.166  30.148  32.199  1.00  0.00     0.131 A 
ATOM     71  C   UNL A   1      36.263  31.579  30.790  1.00  0.00     0.055 A 
ATOM     72  C   UNL A   1      37.026  30.623  32.855  1.00  0.00     0.041 A 
ATOM     73  F   UNL A   1      39.082  29.498  32.935  1.00  0.00    -0.206 F 
ATOM     74  C   UNL A   1      36.074  31.356  32.153  1.00  0.00     0.022 A 
BRANCH  71  75
ATOM     75  S   UNL A   1      35.110  32.650  29.881  1.00  0.00     0.124 S 
ATOM     76  O   UNL A   1      34.194  33.064  30.938  1.00  0.00    -0.237 OA
ATOM     77  O   UNL A   1      35.999  33.682  29.360  1.00  0.00    -0.237 OA
ATOM     78  O   UNL A   1      34.537  31.757  28.874  1.00  0.00    -0.744 OA
ENDBRANCH  71  75
ENDBRANCH  44  68
BRANCH  56  79
ATOM     79  C   UNL A   1      44.272  33.882  29.604  1.00  0.00     0.023 A 
ATOM     80  C   UNL A   1      43.995  34.893  28.668  1.00  0.00     0.031 A 
ATOM     81  C   UNL A   1      44.904  34.250  30.807  1.00  0.00     0.131 A 
ATOM     82  C   UNL A   1      44.393  36.213  28.928  1.00  0.00     0.055 A 
ATOM     83  C   UNL A   1      45.239  35.575  31.088  1.00  0.00     0.041 A 
ATOM     84  F   UNL A   1      45.193  33.326  31.738  1.00  0.00    -0.206 F 
ATOM     85  C   UNL A   1      44.994  36.564  30.140  1.00  0.00     0.022 A 
BRANCH  82  86
ATOM     86  S   UNL A   1      44.193  37.457  27.623  1.00  0.00     0.124 S 
ATOM     87  O   UNL A   1      43.200  36.832  26.756  1.00  0.00    -0.237 OA
ATOM     88  O   UNL A   1      43.741  38.625  28.372  1.00  0.00    -0.237 OA
ATOM     89  O   UNL A   1      45.533  37.571  27.050  1.00  0.00    -0.744 OA
ENDBRANCH  82  86
ENDBRANCH  56  79
ENDBRANCH  30  31
ENDBRANCH  23  25
ENDBRANCH  22  23
ENDBRANCH   1  22
TORSDOF 15
ENDMDL
