MODEL 1
REMARK VINA RESULT:     -11.2      0.000      0.000
REMARK SMILES COc1ccccc1-c1nnc(S[C@@H](C)C(=O)OCCOC(=O)c2ccc(-c3c4nc(c(-c5cc(S(=O)(=O)[O-])ccc5F)c5ccc([nH]5)c(-c5cc(S(=O)(=O)[O-])ccc5F)c5nc(c(-c6cc(S(=O)(=O)[O-])ccc6F)c6ccc3[nH]6)C=C5)C=C4)cc2)n1-c1ccccc1
REMARK SMILES IDX 19 1 18 2 16 3 17 4 14 5 15 6 13 7 12 8 9 9 10 10 87 11
REMARK SMILES IDX 11 12 8 13 3 14 4 15 5 16 7 17 6 18 2 19 1 20 88 21 89 22
REMARK SMILES IDX 93 23 90 24 92 25 91 26 20 27 21 28 22 29 23 30 24 31 25 32
REMARK SMILES IDX 86 33 26 34 85 35 27 36 28 37 29 38 79 39 30 40 84 41 78 42
REMARK SMILES IDX 80 43 31 44 83 45 77 46 76 47 32 49 64 50 44 51 63 52 45 53
REMARK SMILES IDX 48 54 62 55 81 56 46 57 47 58 61 60 82 61 49 62 33 63 34 64
REMARK SMILES IDX 42 65 35 66 41 67 43 68 40 69 36 70 37 71 38 72 39 73 65 74
REMARK SMILES IDX 66 75 74 76 67 77 73 78 75 79 72 80 68 81 69 82 70 83 71 84
REMARK SMILES IDX 50 85 51 86 59 87 52 88 58 89 60 90 57 91 53 92 54 93 55 94
REMARK SMILES IDX 56 95
REMARK H PARENT 80 48 48 59
REMARK Flexibility Score: inf
ROOT
ATOM      1  C   UNL A   1      33.241  30.030  26.434  1.00  0.00     0.274 C 
ENDROOT
BRANCH   1   2
ATOM      2  O   UNL A   1      33.588  29.278  25.243  1.00  0.00    -0.461 OA
BRANCH   2   3
ATOM      3  C   UNL A   1      32.880  28.175  24.863  1.00  0.00     0.319 C 
ATOM      4  O   UNL A   1      32.488  27.317  25.651  1.00  0.00    -0.251 OA
BRANCH   3   5
ATOM      5  C   UNL A   1      32.505  28.164  23.377  1.00  0.00     0.161 C 
ATOM      6  C   UNL A   1      31.045  28.434  23.002  1.00  0.00     0.032 C 
BRANCH   5   7
ATOM      7  S   UNL A   1      33.047  26.818  22.333  1.00  0.00    -0.071 SA
BRANCH   7   8
ATOM      8  C   UNL A   1      32.532  25.270  22.883  1.00  0.00     0.196 A 
ATOM      9  C   UNL A   1      32.175  23.222  23.547  1.00  0.00     0.173 A 
ATOM     10  N   UNL A   1      31.032  23.709  23.122  1.00  0.00    -0.129 NA
ATOM     11  N   UNL A   1      33.197  24.161  23.407  1.00  0.00    -0.270 N 
ATOM     12  N   UNL A   1      31.250  24.992  22.749  1.00  0.00    -0.122 NA
BRANCH   9  13
ATOM     13  C   UNL A   1      32.311  21.942  24.205  1.00  0.00     0.062 A 
ATOM     14  C   UNL A   1      32.531  21.836  25.587  1.00  0.00     0.129 A 
ATOM     15  C   UNL A   1      32.913  20.601  26.109  1.00  0.00     0.047 A 
ATOM     16  C   UNL A   1      33.004  19.476  25.285  1.00  0.00     0.004 A 
ATOM     17  C   UNL A   1      32.354  20.800  23.387  1.00  0.00     0.016 A 
ATOM     18  C   UNL A   1      32.706  19.570  23.926  1.00  0.00     0.001 A 
BRANCH  14  19
ATOM     19  O   UNL A   1      32.573  22.884  26.473  1.00  0.00    -0.496 OA
ATOM     20  C   UNL A   1      31.320  23.303  27.015  1.00  0.00     0.278 C 
ENDBRANCH  14  19
ENDBRANCH   9  13
BRANCH  11  21
ATOM     21  C   UNL A   1      34.573  23.914  23.735  1.00  0.00     0.050 A 
ATOM     22  C   UNL A   1      35.367  23.060  22.981  1.00  0.00     0.027 A 
ATOM     23  C   UNL A   1      35.123  24.482  24.900  1.00  0.00     0.027 A 
ATOM     24  C   UNL A   1      36.587  22.601  23.496  1.00  0.00     0.002 A 
ATOM     25  C   UNL A   1      36.323  24.002  25.430  1.00  0.00     0.002 A 
ATOM     26  C   UNL A   1      37.034  23.025  24.748  1.00  0.00     0.000 A 
ENDBRANCH  11  21
ENDBRANCH   7   8
ENDBRANCH   5   7
ENDBRANCH   3   5
ENDBRANCH   2   3
ENDBRANCH   1   2
BRANCH   1  27
ATOM     27  C   UNL A   1      34.219  29.740  27.560  1.00  0.00     0.275 C 
BRANCH  27  28
ATOM     28  O   UNL A   1      35.144  30.810  27.567  1.00  0.00    -0.458 OA
BRANCH  28  29
ATOM     29  C   UNL A   1      36.417  30.391  27.786  1.00  0.00     0.338 C 
ATOM     30  O   UNL A   1      37.170  29.900  26.974  1.00  0.00    -0.246 OA
BRANCH  29  31
ATOM     31  C   UNL A   1      36.794  30.693  29.196  1.00  0.00     0.060 A 
ATOM     32  C   UNL A   1      37.855  31.600  29.211  1.00  0.00     0.016 A 
ATOM     33  C   UNL A   1      36.802  29.561  30.002  1.00  0.00     0.016 A 
ATOM     34  C   UNL A   1      39.098  31.056  29.399  1.00  0.00     0.010 A 
ATOM     35  C   UNL A   1      38.033  28.996  30.171  1.00  0.00     0.010 A 
ATOM     36  C   UNL A   1      39.158  29.706  29.734  1.00  0.00    -0.014 A 
BRANCH  36  37
ATOM     37  C   UNL A   1      40.436  29.041  29.757  1.00  0.00     0.031 A 
ATOM     38  C   UNL A   1      40.836  28.776  31.151  1.00  0.00     0.074 A 
ATOM     39  C   UNL A   1      41.047  28.573  28.656  1.00  0.00     0.049 A 
ATOM     40  N   UNL A   1      41.545  29.555  31.904  1.00  0.00    -0.248 NA
ATOM     41  C   UNL A   1      40.047  27.776  31.896  1.00  0.00     0.031 C 
ATOM     42  C   UNL A   1      40.609  28.555  27.261  1.00  0.00     0.029 A 
ATOM     43  N   UNL A   1      42.207  27.875  28.616  1.00  0.00    -0.354 N 
ATOM     44  C   UNL A   1      41.461  28.966  33.155  1.00  0.00     0.074 A 
ATOM     45  C   UNL A   1      40.241  28.220  33.137  1.00  0.00     0.031 C 
ATOM     46  C   UNL A   1      41.371  27.670  26.571  1.00  0.00     0.029 A 
ATOM     47  C   UNL A   1      42.403  27.143  27.449  1.00  0.00     0.049 A 
ATOM     48  H   UNL A   1      42.860  27.885  29.354  1.00  0.00     0.167 HD
ATOM     49  C   UNL A   1      42.555  28.785  33.944  1.00  0.00     0.034 A 
ATOM     50  C   UNL A   1      43.257  26.082  27.351  1.00  0.00     0.034 A 
ATOM     51  C   UNL A   1      43.680  29.530  33.420  1.00  0.00     0.049 A 
ATOM     52  C   UNL A   1      44.236  26.251  28.476  1.00  0.00     0.074 A 
ATOM     53  C   UNL A   1      43.906  30.869  33.163  1.00  0.00     0.029 A 
ATOM     54  N   UNL A   1      44.600  28.841  32.653  1.00  0.00    -0.354 N 
ATOM     55  N   UNL A   1      45.057  27.271  28.552  1.00  0.00    -0.248 NA
ATOM     56  C   UNL A   1      43.903  25.648  29.766  1.00  0.00     0.031 C 
ATOM     57  C   UNL A   1      44.574  30.891  31.903  1.00  0.00     0.029 A 
ATOM     58  C   UNL A   1      44.829  29.574  31.509  1.00  0.00     0.049 A 
ATOM     59  H   UNL A   1      45.018  27.980  32.883  1.00  0.00     0.167 HD
ATOM     60  C   UNL A   1      45.011  27.694  29.878  1.00  0.00     0.074 A 
ATOM     61  C   UNL A   1      44.325  26.615  30.592  1.00  0.00     0.031 C 
ATOM     62  C   UNL A   1      45.227  28.999  30.231  1.00  0.00     0.034 A 
BRANCH  49  63
ATOM     63  C   UNL A   1      42.722  27.654  34.938  1.00  0.00     0.023 A 
ATOM     64  C   UNL A   1      43.563  26.601  34.543  1.00  0.00     0.031 A 
ATOM     65  C   UNL A   1      41.971  27.419  36.118  1.00  0.00     0.131 A 
ATOM     66  C   UNL A   1      43.557  25.374  35.228  1.00  0.00     0.055 A 
ATOM     67  C   UNL A   1      42.018  26.222  36.832  1.00  0.00     0.041 A 
ATOM     68  F   UNL A   1      41.082  28.279  36.622  1.00  0.00    -0.206 F 
ATOM     69  C   UNL A   1      42.789  25.176  36.371  1.00  0.00     0.022 A 
BRANCH  66  70
ATOM     70  S   UNL A   1      44.448  23.986  34.493  1.00  0.00     0.124 S 
ATOM     71  O   UNL A   1      43.643  23.709  33.309  1.00  0.00    -0.237 OA
ATOM     72  O   UNL A   1      45.765  24.570  34.259  1.00  0.00    -0.237 OA
ATOM     73  O   UNL A   1      44.395  22.964  35.537  1.00  0.00    -0.744 OA
ENDBRANCH  66  70
ENDBRANCH  49  63
BRANCH  50  74
ATOM     74  C   UNL A   1      42.944  24.782  26.667  1.00  0.00     0.023 A 
ATOM     75  C   UNL A   1      43.810  24.119  25.765  1.00  0.00     0.031 A 
ATOM     76  C   UNL A   1      41.792  24.059  27.062  1.00  0.00     0.131 A 
ATOM     77  C   UNL A   1      43.487  22.818  25.284  1.00  0.00     0.055 A 
ATOM     78  C   UNL A   1      41.475  22.788  26.578  1.00  0.00     0.041 A 
ATOM     79  F   UNL A   1      40.960  24.531  28.003  1.00  0.00    -0.206 F 
ATOM     80  C   UNL A   1      42.324  22.160  25.688  1.00  0.00     0.022 A 
BRANCH  77  81
ATOM     81  S   UNL A   1      44.610  21.912  24.160  1.00  0.00     0.124 S 
ATOM     82  O   UNL A   1      44.144  22.333  22.845  1.00  0.00    -0.237 OA
ATOM     83  O   UNL A   1      45.923  22.396  24.570  1.00  0.00    -0.237 OA
ATOM     84  O   UNL A   1      44.354  20.505  24.478  1.00  0.00    -0.744 OA
ENDBRANCH  77  81
ENDBRANCH  50  74
BRANCH  62  85
ATOM     85  C   UNL A   1      45.723  29.984  29.180  1.00  0.00     0.023 A 
ATOM     86  C   UNL A   1      44.904  30.861  28.427  1.00  0.00     0.031 A 
ATOM     87  C   UNL A   1      47.115  30.159  29.079  1.00  0.00     0.131 A 
ATOM     88  C   UNL A   1      45.492  31.862  27.622  1.00  0.00     0.055 A 
ATOM     89  C   UNL A   1      47.689  31.169  28.307  1.00  0.00     0.041 A 
ATOM     90  F   UNL A   1      47.950  29.376  29.783  1.00  0.00    -0.206 F 
ATOM     91  C   UNL A   1      46.879  32.024  27.573  1.00  0.00     0.022 A 
BRANCH  88  92
ATOM     92  S   UNL A   1      44.460  32.973  26.606  1.00  0.00     0.124 S 
ATOM     93  O   UNL A   1      43.851  32.069  25.638  1.00  0.00    -0.237 OA
ATOM     94  O   UNL A   1      43.562  33.557  27.596  1.00  0.00    -0.237 OA
ATOM     95  O   UNL A   1      45.432  33.910  26.037  1.00  0.00    -0.744 OA
ENDBRANCH  88  92
ENDBRANCH  62  85
ENDBRANCH  36  37
ENDBRANCH  29  31
ENDBRANCH  28  29
ENDBRANCH  27  28
ENDBRANCH   1  27
TORSDOF 19
ENDMDL
MODEL 2
REMARK VINA RESULT:     -10.9      2.130      2.477
REMARK SMILES COc1ccccc1-c1nnc(S[C@@H](C)C(=O)OCCOC(=O)c2ccc(-c3c4nc(c(-c5cc(S(=O)(=O)[O-])ccc5F)c5ccc([nH]5)c(-c5cc(S(=O)(=O)[O-])ccc5F)c5nc(c(-c6cc(S(=O)(=O)[O-])ccc6F)c6ccc3[nH]6)C=C5)C=C4)cc2)n1-c1ccccc1
REMARK SMILES IDX 19 1 18 2 16 3 17 4 14 5 15 6 13 7 12 8 9 9 10 10 87 11
REMARK SMILES IDX 11 12 8 13 3 14 4 15 5 16 7 17 6 18 2 19 1 20 88 21 89 22
REMARK SMILES IDX 93 23 90 24 92 25 91 26 20 27 21 28 22 29 23 30 24 31 25 32
REMARK SMILES IDX 86 33 26 34 85 35 27 36 28 37 29 38 79 39 30 40 84 41 78 42
REMARK SMILES IDX 80 43 31 44 83 45 77 46 76 47 32 49 64 50 44 51 63 52 45 53
REMARK SMILES IDX 48 54 62 55 81 56 46 57 47 58 61 60 82 61 49 62 33 63 34 64
REMARK SMILES IDX 42 65 35 66 41 67 43 68 40 69 36 70 37 71 38 72 39 73 65 74
REMARK SMILES IDX 66 75 74 76 67 77 73 78 75 79 72 80 68 81 69 82 70 83 71 84
REMARK SMILES IDX 50 85 51 86 59 87 52 88 58 89 60 90 57 91 53 92 54 93 55 94
REMARK SMILES IDX 56 95
REMARK H PARENT 80 48 48 59
REMARK Flexibility Score: inf
ROOT
ATOM      1  C   UNL A   1      33.839  28.987  27.508  1.00  0.00     0.274 C 
ENDROOT
BRANCH   1   2
ATOM      2  O   UNL A   1      33.749  27.915  26.535  1.00  0.00    -0.461 OA
BRANCH   2   3
ATOM      3  C   UNL A   1      32.814  27.930  25.541  1.00  0.00     0.319 C 
ATOM      4  O   UNL A   1      31.647  28.278  25.711  1.00  0.00    -0.251 OA
BRANCH   3   5
ATOM      5  C   UNL A   1      33.381  27.592  24.157  1.00  0.00     0.161 C 
ATOM      6  C   UNL A   1      34.128  28.693  23.398  1.00  0.00     0.032 C 
BRANCH   5   7
ATOM      7  S   UNL A   1      32.351  26.767  22.951  1.00  0.00    -0.071 SA
BRANCH   7   8
ATOM      8  C   UNL A   1      32.025  25.120  23.334  1.00  0.00     0.196 A 
ATOM      9  C   UNL A   1      31.911  22.984  23.763  1.00  0.00     0.173 A 
ATOM     10  N   UNL A   1      30.703  23.394  23.456  1.00  0.00    -0.129 NA
ATOM     11  N   UNL A   1      32.826  24.034  23.689  1.00  0.00    -0.270 N 
ATOM     12  N   UNL A   1      30.771  24.728  23.230  1.00  0.00    -0.122 NA
BRANCH   9  13
ATOM     13  C   UNL A   1      32.212  21.658  24.254  1.00  0.00     0.062 A 
ATOM     14  C   UNL A   1      32.531  21.419  25.601  1.00  0.00     0.129 A 
ATOM     15  C   UNL A   1      33.062  20.178  25.950  1.00  0.00     0.047 A 
ATOM     16  C   UNL A   1      33.207  19.170  24.993  1.00  0.00     0.004 A 
ATOM     17  C   UNL A   1      32.310  20.627  23.305  1.00  0.00     0.016 A 
ATOM     18  C   UNL A   1      32.813  19.386  23.673  1.00  0.00     0.001 A 
BRANCH  14  19
ATOM     19  O   UNL A   1      32.530  22.358  26.602  1.00  0.00    -0.496 OA
ATOM     20  C   UNL A   1      33.430  22.126  27.686  1.00  0.00     0.278 C 
ENDBRANCH  14  19
ENDBRANCH   9  13
BRANCH  11  21
ATOM     21  C   UNL A   1      34.237  23.898  23.918  1.00  0.00     0.050 A 
ATOM     22  C   UNL A   1      35.057  23.190  23.049  1.00  0.00     0.027 A 
ATOM     23  C   UNL A   1      34.804  24.419  25.096  1.00  0.00     0.027 A 
ATOM     24  C   UNL A   1      36.344  22.812  23.455  1.00  0.00     0.002 A 
ATOM     25  C   UNL A   1      36.074  24.017  25.515  1.00  0.00     0.002 A 
ATOM     26  C   UNL A   1      36.828  23.173  24.713  1.00  0.00     0.000 A 
ENDBRANCH  11  21
ENDBRANCH   7   8
ENDBRANCH   5   7
ENDBRANCH   3   5
ENDBRANCH   2   3
ENDBRANCH   1   2
BRANCH   1  27
ATOM     27  C   UNL A   1      35.221  29.617  27.492  1.00  0.00     0.275 C 
BRANCH  27  28
ATOM     28  O   UNL A   1      35.446  30.109  28.799  1.00  0.00    -0.458 OA
BRANCH  28  29
ATOM     29  C   UNL A   1      36.678  29.784  29.269  1.00  0.00     0.338 C 
ATOM     30  O   UNL A   1      36.932  29.023  30.175  1.00  0.00    -0.246 OA
BRANCH  29  31
ATOM     31  C   UNL A   1      37.712  30.466  28.439  1.00  0.00     0.060 A 
ATOM     32  C   UNL A   1      38.031  29.666  27.341  1.00  0.00     0.016 A 
ATOM     33  C   UNL A   1      38.704  31.065  29.207  1.00  0.00     0.016 A 
ATOM     34  C   UNL A   1      39.173  28.918  27.462  1.00  0.00     0.010 A 
ATOM     35  C   UNL A   1      39.834  30.313  29.356  1.00  0.00     0.010 A 
ATOM     36  C   UNL A   1      39.980  29.165  28.568  1.00  0.00    -0.014 A 
BRANCH  36  37
ATOM     37  C   UNL A   1      41.086  28.284  28.845  1.00  0.00     0.031 A 
ATOM     38  C   UNL A   1      41.380  28.289  30.289  1.00  0.00     0.074 A 
ATOM     39  C   UNL A   1      41.615  27.451  27.934  1.00  0.00     0.049 A 
ATOM     40  N   UNL A   1      42.217  29.069  30.897  1.00  0.00    -0.248 NA
ATOM     41  C   UNL A   1      40.375  27.678  31.180  1.00  0.00     0.031 C 
ATOM     42  C   UNL A   1      41.224  27.185  26.549  1.00  0.00     0.029 A 
ATOM     43  N   UNL A   1      42.601  26.547  28.148  1.00  0.00    -0.354 N 
ATOM     44  C   UNL A   1      41.973  28.829  32.240  1.00  0.00     0.074 A 
ATOM     45  C   UNL A   1      40.623  28.361  32.297  1.00  0.00     0.031 C 
ATOM     46  C   UNL A   1      41.800  26.025  26.144  1.00  0.00     0.029 A 
ATOM     47  C   UNL A   1      42.670  25.530  27.199  1.00  0.00     0.049 A 
ATOM     48  H   UNL A   1      43.218  26.604  28.912  1.00  0.00     0.167 HD
ATOM     49  C   UNL A   1      42.980  28.629  33.133  1.00  0.00     0.034 A 
ATOM     50  C   UNL A   1      43.280  24.328  27.416  1.00  0.00     0.034 A 
ATOM     51  C   UNL A   1      44.253  28.985  32.541  1.00  0.00     0.049 A 
ATOM     52  C   UNL A   1      44.240  24.565  28.546  1.00  0.00     0.074 A 
ATOM     53  C   UNL A   1      44.766  30.149  32.001  1.00  0.00     0.029 A 
ATOM     54  N   UNL A   1      45.026  27.962  32.029  1.00  0.00    -0.354 N 
ATOM     55  N   UNL A   1      45.257  25.388  28.449  1.00  0.00    -0.248 NA
ATOM     56  C   UNL A   1      43.748  24.371  29.910  1.00  0.00     0.031 C 
ATOM     57  C   UNL A   1      45.460  29.732  30.828  1.00  0.00     0.029 A 
ATOM     58  C   UNL A   1      45.440  28.335  30.769  1.00  0.00     0.049 A 
ATOM     59  H   UNL A   1      45.245  27.116  32.483  1.00  0.00     0.167 HD
ATOM     60  C   UNL A   1      45.263  26.119  29.634  1.00  0.00     0.074 A 
ATOM     61  C   UNL A   1      44.343  25.404  30.521  1.00  0.00     0.031 C 
ATOM     62  C   UNL A   1      45.743  27.401  29.694  1.00  0.00     0.034 A 
BRANCH  49  63
ATOM     63  C   UNL A   1      42.873  27.763  34.371  1.00  0.00     0.023 A 
ATOM     64  C   UNL A   1      43.563  26.540  34.332  1.00  0.00     0.031 A 
ATOM     65  C   UNL A   1      41.993  27.927  35.470  1.00  0.00     0.131 A 
ATOM     66  C   UNL A   1      43.297  25.530  35.272  1.00  0.00     0.055 A 
ATOM     67  C   UNL A   1      41.782  26.945  36.438  1.00  0.00     0.041 A 
ATOM     68  F   UNL A   1      41.215  28.997  35.652  1.00  0.00    -0.206 F 
ATOM     69  C   UNL A   1      42.410  25.723  36.326  1.00  0.00     0.022 A 
BRANCH  66  70
ATOM     70  S   UNL A   1      44.013  23.896  34.988  1.00  0.00     0.124 S 
ATOM     71  O   UNL A   1      44.901  24.153  33.860  1.00  0.00    -0.237 OA
ATOM     72  O   UNL A   1      44.655  23.627  36.270  1.00  0.00    -0.237 OA
ATOM     73  O   UNL A   1      42.847  23.067  34.689  1.00  0.00    -0.744 OA
ENDBRANCH  66  70
ENDBRANCH  49  63
BRANCH  50  74
ATOM     74  C   UNL A   1      42.718  22.992  27.027  1.00  0.00     0.023 A 
ATOM     75  C   UNL A   1      43.462  21.950  26.423  1.00  0.00     0.031 A 
ATOM     76  C   UNL A   1      41.404  22.654  27.438  1.00  0.00     0.131 A 
ATOM     77  C   UNL A   1      42.876  20.667  26.229  1.00  0.00     0.055 A 
ATOM     78  C   UNL A   1      40.831  21.397  27.234  1.00  0.00     0.041 A 
ATOM     79  F   UNL A   1      40.646  23.518  28.129  1.00  0.00    -0.206 F 
ATOM     80  C   UNL A   1      41.566  20.396  26.631  1.00  0.00     0.022 A 
BRANCH  77  81
ATOM     81  S   UNL A   1      43.826  19.286  25.500  1.00  0.00     0.124 S 
ATOM     82  O   UNL A   1      43.119  19.044  24.249  1.00  0.00    -0.237 OA
ATOM     83  O   UNL A   1      45.167  19.850  25.390  1.00  0.00    -0.237 OA
ATOM     84  O   UNL A   1      43.697  18.216  26.492  1.00  0.00    -0.744 OA
ENDBRANCH  77  81
ENDBRANCH  50  74
BRANCH  62  85
ATOM     85  C   UNL A   1      46.467  27.982  28.487  1.00  0.00     0.023 A 
ATOM     86  C   UNL A   1      47.816  27.728  28.139  1.00  0.00     0.031 A 
ATOM     87  C   UNL A   1      45.684  28.683  27.551  1.00  0.00     0.131 A 
ATOM     88  C   UNL A   1      48.322  28.167  26.895  1.00  0.00     0.055 A 
ATOM     89  C   UNL A   1      46.180  29.088  26.313  1.00  0.00     0.041 A 
ATOM     90  F   UNL A   1      44.390  28.940  27.808  1.00  0.00    -0.206 F 
ATOM     91  C   UNL A   1      47.503  28.833  25.980  1.00  0.00     0.022 A 
BRANCH  88  92
ATOM     92  S   UNL A   1      50.069  27.893  26.444  1.00  0.00     0.124 S 
ATOM     93  O   UNL A   1      50.297  28.869  25.385  1.00  0.00    -0.237 OA
ATOM     94  O   UNL A   1      50.759  28.140  27.706  1.00  0.00    -0.237 OA
ATOM     95  O   UNL A   1      50.089  26.498  26.001  1.00  0.00    -0.744 OA
ENDBRANCH  88  92
ENDBRANCH  62  85
ENDBRANCH  36  37
ENDBRANCH  29  31
ENDBRANCH  28  29
ENDBRANCH  27  28
ENDBRANCH   1  27
TORSDOF 19
ENDMDL
MODEL 3
REMARK VINA RESULT:     -10.9      0.947      1.885
REMARK SMILES COc1ccccc1-c1nnc(S[C@@H](C)C(=O)OCCOC(=O)c2ccc(-c3c4nc(c(-c5cc(S(=O)(=O)[O-])ccc5F)c5ccc([nH]5)c(-c5cc(S(=O)(=O)[O-])ccc5F)c5nc(c(-c6cc(S(=O)(=O)[O-])ccc6F)c6ccc3[nH]6)C=C5)C=C4)cc2)n1-c1ccccc1
REMARK SMILES IDX 19 1 18 2 16 3 17 4 14 5 15 6 13 7 12 8 9 9 10 10 87 11
REMARK SMILES IDX 11 12 8 13 3 14 4 15 5 16 7 17 6 18 2 19 1 20 88 21 89 22
REMARK SMILES IDX 93 23 90 24 92 25 91 26 20 27 21 28 22 29 23 30 24 31 25 32
REMARK SMILES IDX 86 33 26 34 85 35 27 36 28 37 29 38 79 39 30 40 84 41 78 42
REMARK SMILES IDX 80 43 31 44 83 45 77 46 76 47 32 49 64 50 44 51 63 52 45 53
REMARK SMILES IDX 48 54 62 55 81 56 46 57 47 58 61 60 82 61 49 62 33 63 34 64
REMARK SMILES IDX 42 65 35 66 41 67 43 68 40 69 36 70 37 71 38 72 39 73 65 74
REMARK SMILES IDX 66 75 74 76 67 77 73 78 75 79 72 80 68 81 69 82 70 83 71 84
REMARK SMILES IDX 50 85 51 86 59 87 52 88 58 89 60 90 57 91 53 92 54 93 55 94
REMARK SMILES IDX 56 95
REMARK H PARENT 80 48 48 59
REMARK Flexibility Score: inf
ROOT
ATOM      1  C   UNL A   1      33.094  30.188  26.286  1.00  0.00     0.274 C 
ENDROOT
BRANCH   1   2
ATOM      2  O   UNL A   1      32.469  29.090  25.574  1.00  0.00    -0.461 OA
BRANCH   2   3
ATOM      3  C   UNL A   1      32.759  28.830  24.265  1.00  0.00     0.319 C 
ATOM      4  O   UNL A   1      33.863  28.454  23.877  1.00  0.00    -0.251 OA
BRANCH   3   5
ATOM      5  C   UNL A   1      31.546  28.930  23.334  1.00  0.00     0.161 C 
ATOM      6  C   UNL A   1      30.269  29.575  23.883  1.00  0.00     0.032 C 
BRANCH   5   7
ATOM      7  S   UNL A   1      31.019  27.497  22.403  1.00  0.00    -0.071 SA
BRANCH   7   8
ATOM      8  C   UNL A   1      32.163  26.210  22.414  1.00  0.00     0.196 A 
ATOM      9  C   UNL A   1      33.587  24.589  22.735  1.00  0.00     0.173 A 
ATOM     10  N   UNL A   1      33.830  25.105  21.553  1.00  0.00    -0.129 NA
ATOM     11  N   UNL A   1      32.538  25.260  23.363  1.00  0.00    -0.270 N 
ATOM     12  N   UNL A   1      32.918  26.083  21.340  1.00  0.00    -0.122 NA
BRANCH   9  13
ATOM     13  C   UNL A   1      34.227  23.395  23.241  1.00  0.00     0.062 A 
ATOM     14  C   UNL A   1      33.519  22.199  23.440  1.00  0.00     0.129 A 
ATOM     15  C   UNL A   1      34.126  21.178  24.169  1.00  0.00     0.047 A 
ATOM     16  C   UNL A   1      35.439  21.313  24.629  1.00  0.00     0.004 A 
ATOM     17  C   UNL A   1      35.564  23.510  23.659  1.00  0.00     0.016 A 
ATOM     18  C   UNL A   1      36.166  22.472  24.358  1.00  0.00     0.001 A 
BRANCH  14  19
ATOM     19  O   UNL A   1      32.198  21.991  23.129  1.00  0.00    -0.496 OA
ATOM     20  C   UNL A   1      31.934  21.027  22.109  1.00  0.00     0.278 C 
ENDBRANCH  14  19
ENDBRANCH   9  13
BRANCH  11  21
ATOM     21  C   UNL A   1      32.067  24.966  24.687  1.00  0.00     0.050 A 
ATOM     22  C   UNL A   1      32.907  25.007  25.793  1.00  0.00     0.027 A 
ATOM     23  C   UNL A   1      30.738  24.540  24.875  1.00  0.00     0.027 A 
ATOM     24  C   UNL A   1      32.504  24.420  27.000  1.00  0.00     0.002 A 
ATOM     25  C   UNL A   1      30.347  23.926  26.067  1.00  0.00     0.002 A 
ATOM     26  C   UNL A   1      31.248  23.825  27.116  1.00  0.00     0.000 A 
ENDBRANCH  11  21
ENDBRANCH   7   8
ENDBRANCH   5   7
ENDBRANCH   3   5
ENDBRANCH   2   3
ENDBRANCH   1   2
BRANCH   1  27
ATOM     27  C   UNL A   1      34.164  29.678  27.236  1.00  0.00     0.275 C 
BRANCH  27  28
ATOM     28  O   UNL A   1      35.037  30.766  27.470  1.00  0.00    -0.458 OA
BRANCH  28  29
ATOM     29  C   UNL A   1      36.315  30.364  27.691  1.00  0.00     0.338 C 
ATOM     30  O   UNL A   1      37.072  29.873  26.883  1.00  0.00    -0.246 OA
BRANCH  29  31
ATOM     31  C   UNL A   1      36.692  30.687  29.097  1.00  0.00     0.060 A 
ATOM     32  C   UNL A   1      37.760  31.585  29.099  1.00  0.00     0.016 A 
ATOM     33  C   UNL A   1      36.689  29.568  29.921  1.00  0.00     0.016 A 
ATOM     34  C   UNL A   1      38.998  31.034  29.299  1.00  0.00     0.010 A 
ATOM     35  C   UNL A   1      37.915  28.997  30.102  1.00  0.00     0.010 A 
ATOM     36  C   UNL A   1      39.047  29.690  29.656  1.00  0.00    -0.014 A 
BRANCH  36  37
ATOM     37  C   UNL A   1      40.320  29.016  29.692  1.00  0.00     0.031 A 
ATOM     38  C   UNL A   1      40.736  28.809  31.092  1.00  0.00     0.074 A 
ATOM     39  C   UNL A   1      40.912  28.493  28.607  1.00  0.00     0.049 A 
ATOM     40  N   UNL A   1      41.460  29.615  31.801  1.00  0.00    -0.248 NA
ATOM     41  C   UNL A   1      39.947  27.850  31.891  1.00  0.00     0.031 C 
ATOM     42  C   UNL A   1      40.456  28.418  27.218  1.00  0.00     0.029 A 
ATOM     43  N   UNL A   1      42.067  27.784  28.583  1.00  0.00    -0.354 N 
ATOM     44  C   UNL A   1      41.387  29.082  33.078  1.00  0.00     0.074 A 
ATOM     45  C   UNL A   1      40.161  28.347  33.108  1.00  0.00     0.031 C 
ATOM     46  C   UNL A   1      41.203  27.496  26.559  1.00  0.00     0.029 A 
ATOM     47  C   UNL A   1      42.242  27.000  27.447  1.00  0.00     0.049 A 
ATOM     48  H   UNL A   1      42.728  27.822  29.312  1.00  0.00     0.167 HD
ATOM     49  C   UNL A   1      42.490  28.927  33.860  1.00  0.00     0.034 A 
ATOM     50  C   UNL A   1      43.085  25.928  27.386  1.00  0.00     0.034 A 
ATOM     51  C   UNL A   1      43.614  29.638  33.290  1.00  0.00     0.049 A 
ATOM     52  C   UNL A   1      44.080  26.138  28.491  1.00  0.00     0.074 A 
ATOM     53  C   UNL A   1      43.848  30.963  32.970  1.00  0.00     0.029 A 
ATOM     54  N   UNL A   1      44.519  28.908  32.543  1.00  0.00    -0.354 N 
ATOM     55  N   UNL A   1      44.910  27.153  28.510  1.00  0.00    -0.248 NA
ATOM     56  C   UNL A   1      43.758  25.596  29.810  1.00  0.00     0.031 C 
ATOM     57  C   UNL A   1      44.500  30.923  31.703  1.00  0.00     0.029 A 
ATOM     58  C   UNL A   1      44.739  29.587  31.365  1.00  0.00     0.049 A 
ATOM     59  H   UNL A   1      44.933  28.054  32.805  1.00  0.00     0.167 HD
ATOM     60  C   UNL A   1      44.884  27.635  29.817  1.00  0.00     0.074 A 
ATOM     61  C   UNL A   1      44.199  26.595  30.587  1.00  0.00     0.031 C 
ATOM     62  C   UNL A   1      45.116  28.953  30.109  1.00  0.00     0.034 A 
BRANCH  49  63
ATOM     63  C   UNL A   1      42.660  27.840  34.902  1.00  0.00     0.023 A 
ATOM     64  C   UNL A   1      43.429  26.729  34.517  1.00  0.00     0.031 A 
ATOM     65  C   UNL A   1      41.966  27.700  36.130  1.00  0.00     0.131 A 
ATOM     66  C   UNL A   1      43.405  25.540  35.265  1.00  0.00     0.055 A 
ATOM     67  C   UNL A   1      41.998  26.539  36.902  1.00  0.00     0.041 A 
ATOM     68  F   UNL A   1      41.146  28.626  36.635  1.00  0.00    -0.206 F 
ATOM     69  C   UNL A   1      42.694  25.436  36.456  1.00  0.00     0.022 A 
BRANCH  66  70
ATOM     70  S   UNL A   1      44.190  24.075  34.557  1.00  0.00     0.124 S 
ATOM     71  O   UNL A   1      44.088  24.345  33.128  1.00  0.00    -0.237 OA
ATOM     72  O   UNL A   1      45.528  24.148  35.136  1.00  0.00    -0.237 OA
ATOM     73  O   UNL A   1      43.357  22.979  35.047  1.00  0.00    -0.744 OA
ENDBRANCH  66  70
ENDBRANCH  49  63
BRANCH  50  74
ATOM     74  C   UNL A   1      42.753  24.602  26.764  1.00  0.00     0.023 A 
ATOM     75  C   UNL A   1      43.636  23.849  25.955  1.00  0.00     0.031 A 
ATOM     76  C   UNL A   1      41.550  23.952  27.136  1.00  0.00     0.131 A 
ATOM     77  C   UNL A   1      43.283  22.535  25.535  1.00  0.00     0.055 A 
ATOM     78  C   UNL A   1      41.204  22.668  26.712  1.00  0.00     0.041 A 
ATOM     79  F   UNL A   1      40.690  24.515  27.997  1.00  0.00    -0.206 F 
ATOM     80  C   UNL A   1      42.071  21.951  25.911  1.00  0.00     0.022 A 
BRANCH  77  81
ATOM     81  S   UNL A   1      44.424  21.515  24.533  1.00  0.00     0.124 S 
ATOM     82  O   UNL A   1      44.367  22.168  23.231  1.00  0.00    -0.237 OA
ATOM     83  O   UNL A   1      45.679  21.635  25.267  1.00  0.00    -0.237 OA
ATOM     84  O   UNL A   1      43.821  20.181  24.575  1.00  0.00    -0.744 OA
ENDBRANCH  77  81
ENDBRANCH  50  74
BRANCH  62  85
ATOM     85  C   UNL A   1      45.606  29.886  29.009  1.00  0.00     0.023 A 
ATOM     86  C   UNL A   1      44.821  30.866  28.354  1.00  0.00     0.031 A 
ATOM     87  C   UNL A   1      46.989  29.893  28.751  1.00  0.00     0.131 A 
ATOM     88  C   UNL A   1      45.431  31.800  27.489  1.00  0.00     0.055 A 
ATOM     89  C   UNL A   1      47.591  30.837  27.919  1.00  0.00     0.041 A 
ATOM     90  F   UNL A   1      47.796  29.005  29.355  1.00  0.00    -0.206 F 
ATOM     91  C   UNL A   1      46.813  31.794  27.283  1.00  0.00     0.022 A 
BRANCH  88  92
ATOM     92  S   UNL A   1      44.435  33.042  26.596  1.00  0.00     0.124 S 
ATOM     93  O   UNL A   1      43.525  33.539  27.621  1.00  0.00    -0.237 OA
ATOM     94  O   UNL A   1      45.451  33.979  26.129  1.00  0.00    -0.237 OA
ATOM     95  O   UNL A   1      43.792  32.261  25.537  1.00  0.00    -0.744 OA
ENDBRANCH  88  92
ENDBRANCH  62  85
ENDBRANCH  36  37
ENDBRANCH  29  31
ENDBRANCH  28  29
ENDBRANCH  27  28
ENDBRANCH   1  27
TORSDOF 19
ENDMDL
