MODEL 1
REMARK VINA RESULT:     -11.7      0.000      0.000
REMARK SMILES COc1ccc2c(c1)[C@]1(CCC2)C[C@H]1C(=O)OCCOC(=O)c1ccc(-c2c3nc(c(-c4cc(S(=O)(=O)[O-])ccc4F)c4ccc([nH]4)c(-c4cc(S(=O)(=O)[O-])ccc4F)c4nc(c(-c5cc(S(=O)(=O)[O-])ccc5F)c5ccc2[nH]5)C=C4)C=C3)cc1
REMARK SMILES IDX 19 1 18 2 17 3 15 4 16 5 14 6 3 7 4 8 8 9 5 10 7 11 6 12
REMARK SMILES IDX 9 13 12 14 10 15 13 16 11 17 2 18 1 19 20 20 21 21 22 22
REMARK SMILES IDX 23 23 24 24 85 25 25 26 84 27 26 28 27 29 28 30 78 31 29 32
REMARK SMILES IDX 83 33 77 34 79 35 30 36 82 37 76 38 75 39 31 41 63 42 43 43
REMARK SMILES IDX 62 44 44 45 47 46 61 47 80 48 45 49 46 50 60 52 81 53 48 54
REMARK SMILES IDX 32 55 33 56 41 57 34 58 40 59 42 60 39 61 35 62 36 63 37 64
REMARK SMILES IDX 38 65 64 66 65 67 73 68 66 69 72 70 74 71 71 72 67 73 68 74
REMARK SMILES IDX 69 75 70 76 49 77 50 78 58 79 51 80 57 81 59 82 56 83 52 84
REMARK SMILES IDX 53 85 54 86 55 87
REMARK H PARENT 79 40 47 51
REMARK Flexibility Score: inf
ROOT
ATOM      1  C   UNL A   1      37.283  20.958  25.018  1.00  0.00     0.275 C 
ENDROOT
BRANCH   1   2
ATOM      2  C   UNL A   1      35.780  20.918  25.318  1.00  0.00     0.274 C 
BRANCH   2   3
ATOM      3  O   UNL A   1      35.394  22.106  26.026  1.00  0.00    -0.462 OA
BRANCH   3   4
ATOM      4  C   UNL A   1      34.188  22.087  26.650  1.00  0.00     0.309 C 
ATOM      5  O   UNL A   1      33.698  21.150  27.259  1.00  0.00    -0.252 OA
BRANCH   4   6
ATOM      6  C   UNL A   1      33.569  23.428  26.589  1.00  0.00     0.111 C 
ATOM      7  C   UNL A   1      33.844  27.659  25.322  1.00  0.00     0.119 A 
ATOM      8  C   UNL A   1      33.663  27.983  23.987  1.00  0.00     0.047 A 
ATOM      9  C   UNL A   1      33.547  26.372  25.774  1.00  0.00     0.051 A 
ATOM     10  C   UNL A   1      33.116  27.040  23.121  1.00  0.00     0.008 A 
ATOM     11  C   UNL A   1      33.037  25.372  24.914  1.00  0.00    -0.034 A 
ATOM     12  C   UNL A   1      32.782  25.752  23.577  1.00  0.00    -0.044 A 
ATOM     13  C   UNL A   1      32.794  23.919  25.374  1.00  0.00     0.010 C 
ATOM     14  C   UNL A   1      32.211  24.763  22.587  1.00  0.00     0.036 C 
ATOM     15  C   UNL A   1      32.484  22.932  24.261  1.00  0.00     0.013 C 
ATOM     16  C   UNL A   1      32.080  23.661  26.680  1.00  0.00     0.029 C 
ATOM     17  C   UNL A   1      31.532  23.570  23.257  1.00  0.00     0.006 C 
BRANCH   7  18
ATOM     18  O   UNL A   1      34.418  28.601  26.131  1.00  0.00    -0.497 OA
ATOM     19  C   UNL A   1      33.724  28.743  27.372  1.00  0.00     0.278 C 
ENDBRANCH   7  18
ENDBRANCH   4   6
ENDBRANCH   3   4
ENDBRANCH   2   3
ENDBRANCH   1   2
BRANCH   1  20
ATOM     20  O   UNL A   1      37.926  22.038  25.721  1.00  0.00    -0.458 OA
BRANCH  20  21
ATOM     21  C   UNL A   1      39.167  21.776  26.198  1.00  0.00     0.338 C 
ATOM     22  O   UNL A   1      39.798  20.739  26.075  1.00  0.00    -0.246 OA
BRANCH  21  23
ATOM     23  C   UNL A   1      39.740  23.019  26.745  1.00  0.00     0.060 A 
ATOM     24  C   UNL A   1      40.655  23.004  27.796  1.00  0.00     0.016 A 
ATOM     25  C   UNL A   1      39.351  24.230  26.167  1.00  0.00     0.016 A 
ATOM     26  C   UNL A   1      41.150  24.218  28.283  1.00  0.00     0.010 A 
ATOM     27  C   UNL A   1      39.836  25.438  26.656  1.00  0.00     0.010 A 
ATOM     28  C   UNL A   1      40.737  25.442  27.723  1.00  0.00    -0.014 A 
BRANCH  28  29
ATOM     29  C   UNL A   1      41.333  26.717  28.186  1.00  0.00     0.031 A 
ATOM     30  C   UNL A   1      42.764  27.061  27.899  1.00  0.00     0.074 A 
ATOM     31  C   UNL A   1      40.559  27.556  28.899  1.00  0.00     0.049 A 
ATOM     32  N   UNL A   1      43.384  28.195  28.091  1.00  0.00    -0.248 NA
ATOM     33  C   UNL A   1      43.614  25.997  27.344  1.00  0.00     0.031 C 
ATOM     34  C   UNL A   1      39.190  27.261  29.322  1.00  0.00     0.029 A 
ATOM     35  N   UNL A   1      40.797  28.815  29.383  1.00  0.00    -0.354 N 
ATOM     36  C   UNL A   1      44.690  27.995  27.658  1.00  0.00     0.074 A 
ATOM     37  C   UNL A   1      44.789  26.608  27.261  1.00  0.00     0.031 C 
ATOM     38  C   UNL A   1      38.691  28.330  29.957  1.00  0.00     0.029 A 
ATOM     39  C   UNL A   1      39.707  29.378  30.005  1.00  0.00     0.049 A 
ATOM     40  H   UNL A   1      41.665  29.273  29.295  1.00  0.00     0.167 HD
ATOM     41  C   UNL A   1      45.693  28.901  27.574  1.00  0.00     0.034 A 
ATOM     42  C   UNL A   1      39.533  30.610  30.524  1.00  0.00     0.034 A 
ATOM     43  C   UNL A   1      45.560  30.275  27.994  1.00  0.00     0.049 A 
ATOM     44  C   UNL A   1      40.649  31.613  30.386  1.00  0.00     0.074 A 
ATOM     45  C   UNL A   1      46.491  31.294  27.895  1.00  0.00     0.029 A 
ATOM     46  N   UNL A   1      44.434  30.822  28.596  1.00  0.00    -0.354 N 
ATOM     47  N   UNL A   1      41.831  31.458  29.835  1.00  0.00    -0.248 NA
ATOM     48  C   UNL A   1      40.405  32.965  30.905  1.00  0.00     0.031 C 
ATOM     49  C   UNL A   1      45.959  32.432  28.502  1.00  0.00     0.029 A 
ATOM     50  C   UNL A   1      44.659  32.156  28.898  1.00  0.00     0.049 A 
ATOM     51  H   UNL A   1      43.599  30.336  28.780  1.00  0.00     0.167 HD
ATOM     52  C   UNL A   1      42.459  32.698  29.916  1.00  0.00     0.074 A 
ATOM     53  C   UNL A   1      41.515  33.598  30.544  1.00  0.00     0.031 C 
ATOM     54  C   UNL A   1      43.705  33.054  29.509  1.00  0.00     0.034 A 
BRANCH  41  55
ATOM     55  C   UNL A   1      47.014  28.477  26.974  1.00  0.00     0.023 A 
ATOM     56  C   UNL A   1      47.146  28.323  25.580  1.00  0.00     0.031 A 
ATOM     57  C   UNL A   1      48.086  28.070  27.789  1.00  0.00     0.131 A 
ATOM     58  C   UNL A   1      48.304  27.738  25.049  1.00  0.00     0.055 A 
ATOM     59  C   UNL A   1      49.257  27.533  27.252  1.00  0.00     0.041 A 
ATOM     60  F   UNL A   1      48.009  28.182  29.125  1.00  0.00    -0.206 F 
ATOM     61  C   UNL A   1      49.363  27.351  25.877  1.00  0.00     0.022 A 
BRANCH  58  62
ATOM     62  S   UNL A   1      48.450  27.382  23.277  1.00  0.00     0.124 S 
ATOM     63  O   UNL A   1      47.342  28.156  22.722  1.00  0.00    -0.237 OA
ATOM     64  O   UNL A   1      49.783  27.895  22.971  1.00  0.00    -0.237 OA
ATOM     65  O   UNL A   1      48.297  25.934  23.195  1.00  0.00    -0.744 OA
ENDBRANCH  58  62
ENDBRANCH  41  55
BRANCH  42  66
ATOM     66  C   UNL A   1      38.205  30.966  31.106  1.00  0.00     0.023 A 
ATOM     67  C   UNL A   1      37.222  31.598  30.323  1.00  0.00     0.031 A 
ATOM     68  C   UNL A   1      37.954  30.805  32.478  1.00  0.00     0.131 A 
ATOM     69  C   UNL A   1      36.069  32.111  30.933  1.00  0.00     0.055 A 
ATOM     70  C   UNL A   1      36.769  31.249  33.067  1.00  0.00     0.041 A 
ATOM     71  F   UNL A   1      38.870  30.230  33.272  1.00  0.00    -0.206 F 
ATOM     72  C   UNL A   1      35.827  31.924  32.297  1.00  0.00     0.022 A 
BRANCH  69  73
ATOM     73  S   UNL A   1      34.923  33.171  30.007  1.00  0.00     0.124 S 
ATOM     74  O   UNL A   1      35.834  34.095  29.340  1.00  0.00    -0.237 OA
ATOM     75  O   UNL A   1      34.256  32.203  29.140  1.00  0.00    -0.237 OA
ATOM     76  O   UNL A   1      34.080  33.756  31.045  1.00  0.00    -0.744 OA
ENDBRANCH  69  73
ENDBRANCH  42  66
BRANCH  54  77
ATOM     77  C   UNL A   1      44.152  34.485  29.707  1.00  0.00     0.023 A 
ATOM     78  C   UNL A   1      43.923  35.435  28.692  1.00  0.00     0.031 A 
ATOM     79  C   UNL A   1      44.935  34.868  30.808  1.00  0.00     0.131 A 
ATOM     80  C   UNL A   1      44.511  36.703  28.777  1.00  0.00     0.055 A 
ATOM     81  C   UNL A   1      45.472  36.153  30.917  1.00  0.00     0.041 A 
ATOM     82  F   UNL A   1      45.197  33.996  31.796  1.00  0.00    -0.206 F 
ATOM     83  C   UNL A   1      45.275  37.071  29.890  1.00  0.00     0.022 A 
BRANCH  80  84
ATOM     84  S   UNL A   1      44.399  37.882  27.402  1.00  0.00     0.124 S 
ATOM     85  O   UNL A   1      43.153  37.473  26.756  1.00  0.00    -0.237 OA
ATOM     86  O   UNL A   1      44.347  39.164  28.099  1.00  0.00    -0.237 OA
ATOM     87  O   UNL A   1      45.609  37.637  26.626  1.00  0.00    -0.744 OA
ENDBRANCH  80  84
ENDBRANCH  54  77
ENDBRANCH  28  29
ENDBRANCH  21  23
ENDBRANCH  20  21
ENDBRANCH   1  20
TORSDOF 15
ENDMDL
MODEL 2
REMARK VINA RESULT:     -11.6      1.214      1.862
REMARK SMILES COc1ccc2c(c1)[C@]1(CCC2)C[C@H]1C(=O)OCCOC(=O)c1ccc(-c2c3nc(c(-c4cc(S(=O)(=O)[O-])ccc4F)c4ccc([nH]4)c(-c4cc(S(=O)(=O)[O-])ccc4F)c4nc(c(-c5cc(S(=O)(=O)[O-])ccc5F)c5ccc2[nH]5)C=C4)C=C3)cc1
REMARK SMILES IDX 19 1 18 2 17 3 15 4 16 5 14 6 3 7 4 8 8 9 5 10 7 11 6 12
REMARK SMILES IDX 9 13 12 14 10 15 13 16 11 17 2 18 1 19 20 20 21 21 22 22
REMARK SMILES IDX 23 23 24 24 85 25 25 26 84 27 26 28 27 29 28 30 78 31 29 32
REMARK SMILES IDX 83 33 77 34 79 35 30 36 82 37 76 38 75 39 31 41 63 42 43 43
REMARK SMILES IDX 62 44 44 45 47 46 61 47 80 48 45 49 46 50 60 52 81 53 48 54
REMARK SMILES IDX 32 55 33 56 41 57 34 58 40 59 42 60 39 61 35 62 36 63 37 64
REMARK SMILES IDX 38 65 64 66 65 67 73 68 66 69 72 70 74 71 71 72 67 73 68 74
REMARK SMILES IDX 69 75 70 76 49 77 50 78 58 79 51 80 57 81 59 82 56 83 52 84
REMARK SMILES IDX 53 85 54 86 55 87
REMARK H PARENT 79 40 47 51
REMARK Flexibility Score: inf
ROOT
ATOM      1  C   UNL A   1      36.962  21.442  25.671  1.00  0.00     0.275 C 
ENDROOT
BRANCH   1   2
ATOM      2  C   UNL A   1      35.952  22.579  25.870  1.00  0.00     0.274 C 
BRANCH   2   3
ATOM      3  O   UNL A   1      36.114  23.559  24.832  1.00  0.00    -0.462 OA
BRANCH   3   4
ATOM      4  C   UNL A   1      35.498  23.307  23.647  1.00  0.00     0.309 C 
ATOM      5  O   UNL A   1      36.042  23.090  22.577  1.00  0.00    -0.252 OA
BRANCH   4   6
ATOM      6  C   UNL A   1      34.037  23.216  23.850  1.00  0.00     0.111 C 
ATOM      7  C   UNL A   1      30.450  24.498  26.102  1.00  0.00     0.119 A 
ATOM      8  C   UNL A   1      29.910  25.751  25.866  1.00  0.00     0.047 A 
ATOM      9  C   UNL A   1      31.438  23.993  25.255  1.00  0.00     0.051 A 
ATOM     10  C   UNL A   1      30.307  26.468  24.740  1.00  0.00     0.008 A 
ATOM     11  C   UNL A   1      31.904  24.712  24.130  1.00  0.00    -0.034 A 
ATOM     12  C   UNL A   1      31.278  25.951  23.864  1.00  0.00    -0.044 A 
ATOM     13  C   UNL A   1      33.061  24.213  23.240  1.00  0.00     0.010 C 
ATOM     14  C   UNL A   1      31.686  26.782  22.668  1.00  0.00     0.036 C 
ATOM     15  C   UNL A   1      33.587  25.225  22.236  1.00  0.00     0.013 C 
ATOM     16  C   UNL A   1      33.074  22.777  22.772  1.00  0.00     0.029 C 
ATOM     17  C   UNL A   1      32.423  25.976  21.603  1.00  0.00     0.006 C 
BRANCH   7  18
ATOM     18  O   UNL A   1      30.060  23.842  27.238  1.00  0.00    -0.497 OA
ATOM     19  C   UNL A   1      29.570  22.530  26.964  1.00  0.00     0.278 C 
ENDBRANCH   7  18
ENDBRANCH   4   6
ENDBRANCH   3   4
ENDBRANCH   2   3
ENDBRANCH   1   2
BRANCH   1  20
ATOM     20  O   UNL A   1      38.256  21.954  25.302  1.00  0.00    -0.458 OA
BRANCH  20  21
ATOM     21  C   UNL A   1      39.276  21.641  26.139  1.00  0.00     0.338 C 
ATOM     22  O   UNL A   1      39.770  20.540  26.315  1.00  0.00    -0.246 OA
BRANCH  21  23
ATOM     23  C   UNL A   1      39.842  22.886  26.688  1.00  0.00     0.060 A 
ATOM     24  C   UNL A   1      40.749  22.875  27.746  1.00  0.00     0.016 A 
ATOM     25  C   UNL A   1      39.455  24.095  26.105  1.00  0.00     0.016 A 
ATOM     26  C   UNL A   1      41.239  24.090  28.233  1.00  0.00     0.010 A 
ATOM     27  C   UNL A   1      39.935  25.305  26.594  1.00  0.00     0.010 A 
ATOM     28  C   UNL A   1      40.827  25.313  27.668  1.00  0.00    -0.014 A 
BRANCH  28  29
ATOM     29  C   UNL A   1      41.418  26.590  28.132  1.00  0.00     0.031 A 
ATOM     30  C   UNL A   1      42.843  26.947  27.835  1.00  0.00     0.074 A 
ATOM     31  C   UNL A   1      40.644  27.418  28.858  1.00  0.00     0.049 A 
ATOM     32  N   UNL A   1      43.456  28.085  28.028  1.00  0.00    -0.248 NA
ATOM     33  C   UNL A   1      43.696  25.893  27.266  1.00  0.00     0.031 C 
ATOM     34  C   UNL A   1      39.281  27.111  29.292  1.00  0.00     0.029 A 
ATOM     35  N   UNL A   1      40.877  28.677  29.347  1.00  0.00    -0.354 N 
ATOM     36  C   UNL A   1      44.759  27.897  27.582  1.00  0.00     0.074 A 
ATOM     37  C   UNL A   1      44.866  26.513  27.175  1.00  0.00     0.031 C 
ATOM     38  C   UNL A   1      38.779  28.172  29.937  1.00  0.00     0.029 A 
ATOM     39  C   UNL A   1      39.788  29.228  29.981  1.00  0.00     0.049 A 
ATOM     40  H   UNL A   1      41.740  29.142  29.253  1.00  0.00     0.167 HD
ATOM     41  C   UNL A   1      45.755  28.811  27.493  1.00  0.00     0.034 A 
ATOM     42  C   UNL A   1      39.609  30.456  30.509  1.00  0.00     0.034 A 
ATOM     43  C   UNL A   1      45.615  30.182  27.922  1.00  0.00     0.049 A 
ATOM     44  C   UNL A   1      40.716  31.468  30.366  1.00  0.00     0.074 A 
ATOM     45  C   UNL A   1      46.537  31.209  27.820  1.00  0.00     0.029 A 
ATOM     46  N   UNL A   1      44.490  30.717  28.537  1.00  0.00    -0.354 N 
ATOM     47  N   UNL A   1      41.894  31.326  29.804  1.00  0.00    -0.248 NA
ATOM     48  C   UNL A   1      40.467  32.815  30.896  1.00  0.00     0.031 C 
ATOM     49  C   UNL A   1      46.002  32.339  28.438  1.00  0.00     0.029 A 
ATOM     50  C   UNL A   1      44.708  32.051  28.844  1.00  0.00     0.049 A 
ATOM     51  H   UNL A   1      43.661  30.223  28.727  1.00  0.00     0.167 HD
ATOM     52  C   UNL A   1      42.514  32.570  29.886  1.00  0.00     0.074 A 
ATOM     53  C   UNL A   1      41.568  33.459  30.527  1.00  0.00     0.031 C 
ATOM     54  C   UNL A   1      43.753  32.938  29.469  1.00  0.00     0.034 A 
BRANCH  41  55
ATOM     55  C   UNL A   1      47.073  28.401  26.878  1.00  0.00     0.023 A 
ATOM     56  C   UNL A   1      47.200  28.278  25.481  1.00  0.00     0.031 A 
ATOM     57  C   UNL A   1      48.149  27.976  27.680  1.00  0.00     0.131 A 
ATOM     58  C   UNL A   1      48.356  27.705  24.933  1.00  0.00     0.055 A 
ATOM     59  C   UNL A   1      49.318  27.452  27.126  1.00  0.00     0.041 A 
ATOM     60  F   UNL A   1      48.077  28.059  29.018  1.00  0.00    -0.206 F 
ATOM     61  C   UNL A   1      49.418  27.300  25.747  1.00  0.00     0.022 A 
BRANCH  58  62
ATOM     62  S   UNL A   1      48.495  27.388  23.152  1.00  0.00     0.124 S 
ATOM     63  O   UNL A   1      49.818  27.930  22.853  1.00  0.00    -0.237 OA
ATOM     64  O   UNL A   1      48.390  25.933  23.092  1.00  0.00    -0.237 OA
ATOM     65  O   UNL A   1      47.378  28.126  22.575  1.00  0.00    -0.744 OA
ENDBRANCH  58  62
ENDBRANCH  41  55
BRANCH  42  66
ATOM     66  C   UNL A   1      38.284  30.798  31.105  1.00  0.00     0.023 A 
ATOM     67  C   UNL A   1      37.283  31.414  30.331  1.00  0.00     0.031 A 
ATOM     68  C   UNL A   1      38.051  30.641  32.481  1.00  0.00     0.131 A 
ATOM     69  C   UNL A   1      36.132  31.915  30.952  1.00  0.00     0.055 A 
ATOM     70  C   UNL A   1      36.868  31.073  33.082  1.00  0.00     0.041 A 
ATOM     71  F   UNL A   1      38.984  30.081  33.267  1.00  0.00    -0.206 F 
ATOM     72  C   UNL A   1      35.908  31.732  32.320  1.00  0.00     0.022 A 
BRANCH  69  73
ATOM     73  S   UNL A   1      34.961  32.956  30.035  1.00  0.00     0.124 S 
ATOM     74  O   UNL A   1      35.840  33.970  29.462  1.00  0.00    -0.237 OA
ATOM     75  O   UNL A   1      34.393  32.001  29.086  1.00  0.00    -0.237 OA
ATOM     76  O   UNL A   1      34.040  33.428  31.064  1.00  0.00    -0.744 OA
ENDBRANCH  69  73
ENDBRANCH  42  66
BRANCH  54  77
ATOM     77  C   UNL A   1      44.190  34.372  29.671  1.00  0.00     0.023 A 
ATOM     78  C   UNL A   1      43.988  35.315  28.645  1.00  0.00     0.031 A 
ATOM     79  C   UNL A   1      44.941  34.763  30.792  1.00  0.00     0.131 A 
ATOM     80  C   UNL A   1      44.570  36.585  28.738  1.00  0.00     0.055 A 
ATOM     81  C   UNL A   1      45.471  36.049  30.908  1.00  0.00     0.041 A 
ATOM     82  F   UNL A   1      45.176  33.898  31.792  1.00  0.00    -0.206 F 
ATOM     83  C   UNL A   1      45.301  36.961  29.870  1.00  0.00     0.022 A 
BRANCH  80  84
ATOM     84  S   UNL A   1      44.494  37.755  27.353  1.00  0.00     0.124 S 
ATOM     85  O   UNL A   1      43.255  37.354  26.689  1.00  0.00    -0.237 OA
ATOM     86  O   UNL A   1      44.443  39.042  28.041  1.00  0.00    -0.237 OA
ATOM     87  O   UNL A   1      45.715  37.491  26.600  1.00  0.00    -0.744 OA
ENDBRANCH  80  84
ENDBRANCH  54  77
ENDBRANCH  28  29
ENDBRANCH  21  23
ENDBRANCH  20  21
ENDBRANCH   1  20
TORSDOF 15
ENDMDL
MODEL 3
REMARK VINA RESULT:     -11.6      4.872     10.147
REMARK SMILES COc1ccc2c(c1)[C@]1(CCC2)C[C@H]1C(=O)OCCOC(=O)c1ccc(-c2c3nc(c(-c4cc(S(=O)(=O)[O-])ccc4F)c4ccc([nH]4)c(-c4cc(S(=O)(=O)[O-])ccc4F)c4nc(c(-c5cc(S(=O)(=O)[O-])ccc5F)c5ccc2[nH]5)C=C4)C=C3)cc1
REMARK SMILES IDX 19 1 18 2 17 3 15 4 16 5 14 6 3 7 4 8 8 9 5 10 7 11 6 12
REMARK SMILES IDX 9 13 12 14 10 15 13 16 11 17 2 18 1 19 20 20 21 21 22 22
REMARK SMILES IDX 23 23 24 24 85 25 25 26 84 27 26 28 27 29 28 30 78 31 29 32
REMARK SMILES IDX 83 33 77 34 79 35 30 36 82 37 76 38 75 39 31 41 63 42 43 43
REMARK SMILES IDX 62 44 44 45 47 46 61 47 80 48 45 49 46 50 60 52 81 53 48 54
REMARK SMILES IDX 32 55 33 56 41 57 34 58 40 59 42 60 39 61 35 62 36 63 37 64
REMARK SMILES IDX 38 65 64 66 65 67 73 68 66 69 72 70 74 71 71 72 67 73 68 74
REMARK SMILES IDX 69 75 70 76 49 77 50 78 58 79 51 80 57 81 59 82 56 83 52 84
REMARK SMILES IDX 53 85 54 86 55 87
REMARK H PARENT 79 40 47 51
REMARK Flexibility Score: inf
ROOT
ATOM      1  C   UNL A   1      31.791  30.716  26.054  1.00  0.00     0.275 C 
ENDROOT
BRANCH   1   2
ATOM      2  C   UNL A   1      31.275  29.302  25.759  1.00  0.00     0.274 C 
BRANCH   2   3
ATOM      3  O   UNL A   1      31.752  28.392  26.761  1.00  0.00    -0.462 OA
BRANCH   3   4
ATOM      4  C   UNL A   1      31.606  27.065  26.508  1.00  0.00     0.309 C 
ATOM      5  O   UNL A   1      30.560  26.438  26.496  1.00  0.00    -0.252 OA
BRANCH   4   6
ATOM      6  C   UNL A   1      32.908  26.480  26.127  1.00  0.00     0.111 C 
ATOM      7  C   UNL A   1      35.285  22.885  25.124  1.00  0.00     0.119 A 
ATOM      8  C   UNL A   1      35.138  22.297  23.879  1.00  0.00     0.047 A 
ATOM      9  C   UNL A   1      34.715  24.134  25.378  1.00  0.00     0.051 A 
ATOM     10  C   UNL A   1      34.483  22.993  22.865  1.00  0.00     0.008 A 
ATOM     11  C   UNL A   1      34.000  24.849  24.391  1.00  0.00    -0.034 A 
ATOM     12  C   UNL A   1      33.936  24.266  23.105  1.00  0.00    -0.044 A 
ATOM     13  C   UNL A   1      33.282  26.183  24.680  1.00  0.00     0.010 C 
ATOM     14  C   UNL A   1      33.218  24.966  21.973  1.00  0.00     0.036 C 
ATOM     15  C   UNL A   1      32.364  26.677  23.575  1.00  0.00     0.013 C 
ATOM     16  C   UNL A   1      34.005  27.266  25.447  1.00  0.00     0.029 C 
ATOM     17  C   UNL A   1      33.025  26.460  22.221  1.00  0.00     0.006 C 
BRANCH   7  18
ATOM     18  O   UNL A   1      35.903  22.153  26.102  1.00  0.00    -0.497 OA
ATOM     19  C   UNL A   1      37.242  21.802  25.750  1.00  0.00     0.278 C 
ENDBRANCH   7  18
ENDBRANCH   4   6
ENDBRANCH   3   4
ENDBRANCH   2   3
ENDBRANCH   1   2
BRANCH   1  20
ATOM     20  O   UNL A   1      33.166  30.689  26.480  1.00  0.00    -0.458 OA
BRANCH  20  21
ATOM     21  C   UNL A   1      33.555  31.707  27.287  1.00  0.00     0.338 C 
ATOM     22  O   UNL A   1      32.899  32.687  27.600  1.00  0.00    -0.246 OA
BRANCH  21  23
ATOM     23  C   UNL A   1      34.852  31.365  27.897  1.00  0.00     0.060 A 
ATOM     24  C   UNL A   1      35.874  32.303  28.020  1.00  0.00     0.016 A 
ATOM     25  C   UNL A   1      35.030  30.062  28.369  1.00  0.00     0.016 A 
ATOM     26  C   UNL A   1      37.089  31.913  28.593  1.00  0.00     0.010 A 
ATOM     27  C   UNL A   1      36.241  29.671  28.931  1.00  0.00     0.010 A 
ATOM     28  C   UNL A   1      37.283  30.593  29.042  1.00  0.00    -0.014 A 
BRANCH  28  29
ATOM     29  C   UNL A   1      38.540  30.212  29.727  1.00  0.00     0.031 A 
ATOM     30  C   UNL A   1      38.876  30.732  31.093  1.00  0.00     0.074 A 
ATOM     31  C   UNL A   1      39.395  29.400  29.077  1.00  0.00     0.049 A 
ATOM     32  N   UNL A   1      39.849  30.369  31.887  1.00  0.00    -0.248 NA
ATOM     33  C   UNL A   1      38.028  31.807  31.631  1.00  0.00     0.031 C 
ATOM     34  C   UNL A   1      39.209  28.931  27.704  1.00  0.00     0.029 A 
ATOM     35  N   UNL A   1      40.572  28.821  29.474  1.00  0.00    -0.354 N 
ATOM     36  C   UNL A   1      39.719  31.149  33.031  1.00  0.00     0.074 A 
ATOM     37  C   UNL A   1      38.615  32.055  32.796  1.00  0.00     0.031 C 
ATOM     38  C   UNL A   1      40.207  28.094  27.391  1.00  0.00     0.029 A 
ATOM     39  C   UNL A   1      41.114  27.981  28.529  1.00  0.00     0.049 A 
ATOM     40  H   UNL A   1      40.989  28.990  30.350  1.00  0.00     0.167 HD
ATOM     41  C   UNL A   1      40.438  31.083  34.177  1.00  0.00     0.034 A 
ATOM     42  C   UNL A   1      42.200  27.184  28.585  1.00  0.00     0.034 A 
ATOM     43  C   UNL A   1      41.542  30.174  34.370  1.00  0.00     0.049 A 
ATOM     44  C   UNL A   1      42.963  27.098  29.882  1.00  0.00     0.074 A 
ATOM     45  C   UNL A   1      42.299  29.978  35.512  1.00  0.00     0.029 A 
ATOM     46  N   UNL A   1      42.051  29.317  33.403  1.00  0.00    -0.354 N 
ATOM     47  N   UNL A   1      42.739  27.728  31.012  1.00  0.00    -0.248 NA
ATOM     48  C   UNL A   1      44.103  26.174  29.930  1.00  0.00     0.031 C 
ATOM     49  C   UNL A   1      43.308  29.062  35.215  1.00  0.00     0.029 A 
ATOM     50  C   UNL A   1      43.129  28.612  33.916  1.00  0.00     0.049 A 
ATOM     51  H   UNL A   1      41.699  29.223  32.490  1.00  0.00     0.167 HD
ATOM     52  C   UNL A   1      43.691  27.256  31.912  1.00  0.00     0.074 A 
ATOM     53  C   UNL A   1      44.474  26.267  31.201  1.00  0.00     0.031 C 
ATOM     54  C   UNL A   1      43.896  27.613  33.206  1.00  0.00     0.034 A 
BRANCH  41  55
ATOM     55  C   UNL A   1      40.050  31.971  35.337  1.00  0.00     0.023 A 
ATOM     56  C   UNL A   1      39.146  31.512  36.314  1.00  0.00     0.031 A 
ATOM     57  C   UNL A   1      40.447  33.320  35.385  1.00  0.00     0.131 A 
ATOM     58  C   UNL A   1      38.637  32.405  37.268  1.00  0.00     0.055 A 
ATOM     59  C   UNL A   1      39.975  34.193  36.366  1.00  0.00     0.041 A 
ATOM     60  F   UNL A   1      41.298  33.814  34.470  1.00  0.00    -0.206 F 
ATOM     61  C   UNL A   1      39.054  33.739  37.304  1.00  0.00     0.022 A 
BRANCH  58  62
ATOM     62  S   UNL A   1      37.357  31.893  38.446  1.00  0.00     0.124 S 
ATOM     63  O   UNL A   1      37.048  30.541  37.986  1.00  0.00    -0.237 OA
ATOM     64  O   UNL A   1      38.066  31.969  39.721  1.00  0.00    -0.237 OA
ATOM     65  O   UNL A   1      36.292  32.871  38.257  1.00  0.00    -0.744 OA
ENDBRANCH  58  62
ENDBRANCH  41  55
BRANCH  42  66
ATOM     66  C   UNL A   1      42.531  26.334  27.404  1.00  0.00     0.023 A 
ATOM     67  C   UNL A   1      42.041  25.019  27.304  1.00  0.00     0.031 A 
ATOM     68  C   UNL A   1      43.448  26.773  26.434  1.00  0.00     0.131 A 
ATOM     69  C   UNL A   1      42.528  24.169  26.302  1.00  0.00     0.055 A 
ATOM     70  C   UNL A   1      43.870  25.947  25.392  1.00  0.00     0.041 A 
ATOM     71  F   UNL A   1      43.962  28.011  26.500  1.00  0.00    -0.206 F 
ATOM     72  C   UNL A   1      43.425  24.630  25.333  1.00  0.00     0.022 A 
BRANCH  69  73
ATOM     73  S   UNL A   1      42.133  22.398  26.314  1.00  0.00     0.124 S 
ATOM     74  O   UNL A   1      42.679  21.955  25.035  1.00  0.00    -0.237 OA
ATOM     75  O   UNL A   1      42.851  21.939  27.501  1.00  0.00    -0.237 OA
ATOM     76  O   UNL A   1      40.677  22.370  26.421  1.00  0.00    -0.744 OA
ENDBRANCH  69  73
ENDBRANCH  42  66
BRANCH  54  77
ATOM     77  C   UNL A   1      45.006  26.936  33.979  1.00  0.00     0.023 A 
ATOM     78  C   UNL A   1      44.735  25.759  34.704  1.00  0.00     0.031 A 
ATOM     79  C   UNL A   1      46.270  27.531  34.128  1.00  0.00     0.131 A 
ATOM     80  C   UNL A   1      45.696  25.243  35.582  1.00  0.00     0.055 A 
ATOM     81  C   UNL A   1      47.246  26.981  34.961  1.00  0.00     0.041 A 
ATOM     82  F   UNL A   1      46.574  28.662  33.472  1.00  0.00    -0.206 F 
ATOM     83  C   UNL A   1      46.955  25.842  35.706  1.00  0.00     0.022 A 
BRANCH  80  84
ATOM     84  S   UNL A   1      45.313  23.846  36.675  1.00  0.00     0.124 S 
ATOM     85  O   UNL A   1      44.441  23.033  35.829  1.00  0.00    -0.237 OA
ATOM     86  O   UNL A   1      46.636  23.282  36.928  1.00  0.00    -0.237 OA
ATOM     87  O   UNL A   1      44.663  24.464  37.825  1.00  0.00    -0.744 OA
ENDBRANCH  80  84
ENDBRANCH  54  77
ENDBRANCH  28  29
ENDBRANCH  21  23
ENDBRANCH  20  21
ENDBRANCH   1  20
TORSDOF 15
ENDMDL
