MODEL 1
REMARK VINA RESULT:     -12.0      0.000      0.000
REMARK SMILES O=C(OCCOC(=O)[C@@]1(c2ccccc2)CCCC[NH2+]1)c1ccc(-c2c3nc(c(-c4cc(S(=O)(=O)[O-])ccc4F)c4ccc([nH]4)c(-c4cc(S(=O)(=O)[O-])ccc4F)c4nc(c(-c5cc(S(=O)(=O)[O-])ccc5F)c5ccc2[nH]5)C=C4)C=C3)cc1
REMARK SMILES IDX 4 1 3 2 2 3 1 4 21 5 22 6 83 7 23 8 82 9 24 10 25 11 26 12
REMARK SMILES IDX 76 13 27 14 81 15 75 16 77 17 28 18 80 19 74 20 73 21 29 23
REMARK SMILES IDX 61 24 41 25 60 26 42 27 45 28 59 29 78 30 43 31 44 32 58 34
REMARK SMILES IDX 79 35 46 36 30 37 31 38 39 39 32 40 38 41 40 42 37 43 33 44
REMARK SMILES IDX 34 45 35 46 36 47 62 48 63 49 71 50 64 51 70 52 72 53 69 54
REMARK SMILES IDX 65 55 66 56 67 57 68 58 47 59 48 60 56 61 49 62 55 63 57 64
REMARK SMILES IDX 54 65 50 66 51 67 52 68 53 69 5 70 6 71 7 72 8 73 9 74 16 75
REMARK SMILES IDX 20 76 17 77 19 78 18 81 10 82 11 83 15 84 12 85 14 86 13 87
REMARK H PARENT 77 22 45 33 20 79 20 80
REMARK Flexibility Score: inf
ROOT
ATOM      1  C   UNL A   1      46.430  22.661  39.468  1.00  0.00     0.275 C 
ENDROOT
BRANCH   1   2
ATOM      2  O   UNL A   1      45.662  23.455  38.558  1.00  0.00    -0.458 OA
BRANCH   2   3
ATOM      3  C   UNL A   1      45.839  23.533  37.221  1.00  0.00     0.338 C 
ATOM      4  O   UNL A   1      46.633  22.775  36.669  1.00  0.00    -0.246 OA
BRANCH   3   5
ATOM      5  C   UNL A   1      45.198  24.585  36.375  1.00  0.00     0.060 A 
ATOM      6  C   UNL A   1      43.503  24.579  35.782  1.00  0.00     0.016 A 
ATOM      7  C   UNL A   1      46.299  25.928  36.040  1.00  0.00     0.016 A 
ATOM      8  C   UNL A   1      42.765  25.841  34.854  1.00  0.00     0.010 A 
ATOM      9  C   UNL A   1      45.663  27.312  35.090  1.00  0.00     0.010 A 
ATOM     10  C   UNL A   1      43.759  27.254  34.406  1.00  0.00    -0.014 A 
BRANCH  10  11
ATOM     11  C   UNL A   1      42.735  28.027  33.437  1.00  0.00     0.031 A 
ATOM     12  C   UNL A   1      41.874  29.186  33.921  1.00  0.00     0.074 A 
ATOM     13  C   UNL A   1      42.725  27.782  32.111  1.00  0.00     0.049 A 
ATOM     14  N   UNL A   1      40.643  29.493  33.597  1.00  0.00    -0.248 NA
ATOM     15  C   UNL A   1      42.412  30.032  34.994  1.00  0.00     0.031 C 
ATOM     16  C   UNL A   1      43.654  26.909  31.396  1.00  0.00     0.029 A 
ATOM     17  N   UNL A   1      41.884  28.234  31.126  1.00  0.00    -0.354 N 
ATOM     18  C   UNL A   1      40.213  30.380  34.588  1.00  0.00     0.074 A 
ATOM     19  C   UNL A   1      41.289  30.481  35.542  1.00  0.00     0.031 C 
ATOM     20  C   UNL A   1      43.289  26.820  30.110  1.00  0.00     0.029 A 
ATOM     21  C   UNL A   1      42.074  27.595  29.922  1.00  0.00     0.049 A 
ATOM     22  H   UNL A   1      41.214  28.943  31.266  1.00  0.00     0.167 HD
ATOM     23  C   UNL A   1      39.053  31.082  34.652  1.00  0.00     0.034 A 
ATOM     24  C   UNL A   1      41.311  27.594  28.815  1.00  0.00     0.034 A 
ATOM     25  C   UNL A   1      38.186  31.183  33.505  1.00  0.00     0.049 A 
ATOM     26  C   UNL A   1      40.057  28.430  28.849  1.00  0.00     0.074 A 
ATOM     27  C   UNL A   1      37.036  31.929  33.334  1.00  0.00     0.029 A 
ATOM     28  N   UNL A   1      38.463  30.579  32.283  1.00  0.00    -0.354 N 
ATOM     29  N   UNL A   1      39.552  29.119  29.851  1.00  0.00    -0.248 NA
ATOM     30  C   UNL A   1      39.288  28.512  27.606  1.00  0.00     0.031 C 
ATOM     31  C   UNL A   1      36.591  31.732  32.022  1.00  0.00     0.029 A 
ATOM     32  C   UNL A   1      37.510  30.935  31.353  1.00  0.00     0.049 A 
ATOM     33  H   UNL A   1      39.228  29.984  32.108  1.00  0.00     0.167 HD
ATOM     34  C   UNL A   1      38.423  29.750  29.344  1.00  0.00     0.074 A 
ATOM     35  C   UNL A   1      38.348  29.382  27.942  1.00  0.00     0.031 C 
ATOM     36  C   UNL A   1      37.517  30.549  29.965  1.00  0.00     0.034 A 
BRANCH  23  37
ATOM     37  C   UNL A   1      38.678  31.791  35.940  1.00  0.00     0.023 A 
ATOM     38  C   UNL A   1      38.097  31.129  37.034  1.00  0.00     0.031 A 
ATOM     39  C   UNL A   1      38.859  33.185  36.057  1.00  0.00     0.131 A 
ATOM     40  C   UNL A   1      37.601  31.862  38.124  1.00  0.00     0.055 A 
ATOM     41  C   UNL A   1      38.468  33.895  37.198  1.00  0.00     0.041 A 
ATOM     42  F   UNL A   1      39.402  33.892  35.054  1.00  0.00    -0.206 F 
ATOM     43  C   UNL A   1      37.810  33.237  38.232  1.00  0.00     0.022 A 
BRANCH  40  44
ATOM     44  S   UNL A   1      36.516  31.014  39.308  1.00  0.00     0.124 S 
ATOM     45  O   UNL A   1      35.394  31.947  39.392  1.00  0.00    -0.237 OA
ATOM     46  O   UNL A   1      36.239  29.750  38.637  1.00  0.00    -0.237 OA
ATOM     47  O   UNL A   1      37.333  30.917  40.515  1.00  0.00    -0.744 OA
ENDBRANCH  40  44
ENDBRANCH  23  37
BRANCH  24  48
ATOM     48  C   UNL A   1      41.694  26.792  27.619  1.00  0.00     0.023 A 
ATOM     49  C   UNL A   1      41.401  25.422  27.563  1.00  0.00     0.031 A 
ATOM     50  C   UNL A   1      42.383  27.357  26.528  1.00  0.00     0.131 A 
ATOM     51  C   UNL A   1      41.855  24.648  26.486  1.00  0.00     0.055 A 
ATOM     52  C   UNL A   1      42.762  26.596  25.418  1.00  0.00     0.041 A 
ATOM     53  F   UNL A   1      42.687  28.665  26.517  1.00  0.00    -0.206 F 
ATOM     54  C   UNL A   1      42.517  25.227  25.403  1.00  0.00     0.022 A 
BRANCH  51  55
ATOM     55  S   UNL A   1      41.693  22.846  26.604  1.00  0.00     0.124 S 
ATOM     56  O   UNL A   1      40.260  22.695  26.831  1.00  0.00    -0.237 OA
ATOM     57  O   UNL A   1      42.184  22.414  25.299  1.00  0.00    -0.237 OA
ATOM     58  O   UNL A   1      42.546  22.502  27.738  1.00  0.00    -0.744 OA
ENDBRANCH  51  55
ENDBRANCH  24  48
BRANCH  36  59
ATOM     59  C   UNL A   1      36.427  31.109  29.102  1.00  0.00     0.023 A 
ATOM     60  C   UNL A   1      35.358  30.306  28.688  1.00  0.00     0.031 A 
ATOM     61  C   UNL A   1      36.473  32.448  28.679  1.00  0.00     0.131 A 
ATOM     62  C   UNL A   1      34.425  30.821  27.786  1.00  0.00     0.055 A 
ATOM     63  C   UNL A   1      35.478  32.986  27.867  1.00  0.00     0.041 A 
ATOM     64  F   UNL A   1      37.482  33.251  29.052  1.00  0.00    -0.206 F 
ATOM     65  C   UNL A   1      34.458  32.162  27.396  1.00  0.00     0.022 A 
BRANCH  62  66
ATOM     66  S   UNL A   1      33.283  29.657  27.001  1.00  0.00     0.124 S 
ATOM     67  O   UNL A   1      33.326  28.530  27.927  1.00  0.00    -0.237 OA
ATOM     68  O   UNL A   1      32.035  30.413  26.978  1.00  0.00    -0.237 OA
ATOM     69  O   UNL A   1      33.890  29.415  25.695  1.00  0.00    -0.744 OA
ENDBRANCH  62  66
ENDBRANCH  36  59
ENDBRANCH  10  11
ENDBRANCH   3   5
ENDBRANCH   2   3
ENDBRANCH   1   2
BRANCH   1  70
ATOM     70  C   UNL A   1      45.572  21.701  40.340  1.00  0.00     0.274 C 
BRANCH  70  71
ATOM     71  O   UNL A   1      46.285  20.560  40.912  1.00  0.00    -0.457 OA
BRANCH  71  72
ATOM     72  C   UNL A   1      46.138  19.366  40.272  1.00  0.00     0.373 C 
ATOM     73  O   UNL A   1      46.107  19.337  39.043  1.00  0.00    -0.244 OA
BRANCH  72  74
ATOM     74  C   UNL A   1      46.007  18.059  41.225  1.00  0.00     0.219 C 
ATOM     75  C   UNL A   1      47.136  17.114  40.664  1.00  0.00     0.087 C 
ATOM     76  N   UNL A   1      46.477  18.415  42.631  1.00  0.00    -0.328 N 
ATOM     77  C   UNL A   1      48.563  17.703  40.775  1.00  0.00     0.013 C 
ATOM     78  C   UNL A   1      47.802  18.989  42.809  1.00  0.00     0.261 C 
ATOM     79  H   UNL A   1      46.447  17.558  43.182  1.00  0.00     0.347 HD
ATOM     80  H   UNL A   1      45.846  19.164  42.917  1.00  0.00     0.347 HD
ATOM     81  C   UNL A   1      48.903  18.160  42.189  1.00  0.00     0.062 C 
BRANCH  74  82
ATOM     82  C   UNL A   1      44.455  17.209  41.516  1.00  0.00     0.024 A 
ATOM     83  C   UNL A   1      44.012  16.588  39.854  1.00  0.00     0.011 A 
ATOM     84  C   UNL A   1      43.408  16.382  43.044  1.00  0.00     0.011 A 
ATOM     85  C   UNL A   1      42.757  15.357  39.680  1.00  0.00     0.001 A 
ATOM     86  C   UNL A   1      42.206  15.085  42.718  1.00  0.00     0.001 A 
ATOM     87  C   UNL A   1      41.908  14.628  41.052  1.00  0.00     0.000 A 
ENDBRANCH  74  82
ENDBRANCH  72  74
ENDBRANCH  71  72
ENDBRANCH  70  71
ENDBRANCH   1  70
TORSDOF 15
ENDMDL
MODEL 2
REMARK VINA RESULT:     -11.9      8.692     12.807
REMARK SMILES O=C(OCCOC(=O)[C@@]1(c2ccccc2)CCCC[NH2+]1)c1ccc(-c2c3nc(c(-c4cc(S(=O)(=O)[O-])ccc4F)c4ccc([nH]4)c(-c4cc(S(=O)(=O)[O-])ccc4F)c4nc(c(-c5cc(S(=O)(=O)[O-])ccc5F)c5ccc2[nH]5)C=C4)C=C3)cc1
REMARK SMILES IDX 4 1 3 2 2 3 1 4 21 5 22 6 83 7 23 8 82 9 24 10 25 11 26 12
REMARK SMILES IDX 76 13 27 14 81 15 75 16 77 17 28 18 80 19 74 20 73 21 29 23
REMARK SMILES IDX 61 24 41 25 60 26 42 27 45 28 59 29 78 30 43 31 44 32 58 34
REMARK SMILES IDX 79 35 46 36 30 37 31 38 39 39 32 40 38 41 40 42 37 43 33 44
REMARK SMILES IDX 34 45 35 46 36 47 62 48 63 49 71 50 64 51 70 52 72 53 69 54
REMARK SMILES IDX 65 55 66 56 67 57 68 58 47 59 48 60 56 61 49 62 55 63 57 64
REMARK SMILES IDX 54 65 50 66 51 67 52 68 53 69 5 70 6 71 7 72 8 73 9 74 16 75
REMARK SMILES IDX 20 76 17 77 19 78 18 81 10 82 11 83 15 84 12 85 14 86 13 87
REMARK H PARENT 77 22 45 33 20 79 20 80
REMARK Flexibility Score: inf
ROOT
ATOM      1  C   UNL A   1      34.870  21.496  26.006  1.00  0.00     0.275 C 
ENDROOT
BRANCH   1   2
ATOM      2  O   UNL A   1      36.257  21.144  26.006  1.00  0.00    -0.458 OA
BRANCH   2   3
ATOM      3  C   UNL A   1      37.239  21.767  25.319  1.00  0.00     0.338 C 
ATOM      4  O   UNL A   1      37.407  21.507  24.130  1.00  0.00    -0.246 OA
BRANCH   3   5
ATOM      5  C   UNL A   1      38.225  22.686  25.963  1.00  0.00     0.060 A 
ATOM      6  C   UNL A   1      38.036  24.460  26.177  1.00  0.00     0.016 A 
ATOM      7  C   UNL A   1      39.641  21.819  26.574  1.00  0.00     0.016 A 
ATOM      8  C   UNL A   1      39.167  25.495  26.982  1.00  0.00     0.010 A 
ATOM      9  C   UNL A   1      40.894  22.770  27.438  1.00  0.00     0.010 A 
ATOM     10  C   UNL A   1      40.666  24.772  27.627  1.00  0.00    -0.014 A 
BRANCH  10  11
ATOM     11  C   UNL A   1      41.442  26.099  28.097  1.00  0.00     0.031 A 
ATOM     12  C   UNL A   1      40.788  27.159  28.972  1.00  0.00     0.074 A 
ATOM     13  C   UNL A   1      42.764  26.240  27.868  1.00  0.00     0.049 A 
ATOM     14  N   UNL A   1      40.919  28.460  28.933  1.00  0.00    -0.248 NA
ATOM     15  C   UNL A   1      39.762  26.715  29.925  1.00  0.00     0.031 C 
ATOM     16  C   UNL A   1      43.644  25.227  27.289  1.00  0.00     0.029 A 
ATOM     17  N   UNL A   1      43.598  27.308  28.081  1.00  0.00    -0.354 N 
ATOM     18  C   UNL A   1      39.837  28.962  29.661  1.00  0.00     0.074 A 
ATOM     19  C   UNL A   1      39.041  27.824  30.046  1.00  0.00     0.031 C 
ATOM     20  C   UNL A   1      44.869  25.740  27.112  1.00  0.00     0.029 A 
ATOM     21  C   UNL A   1      44.846  27.133  27.527  1.00  0.00     0.049 A 
ATOM     22  H   UNL A   1      43.331  28.115  28.577  1.00  0.00     0.167 HD
ATOM     23  C   UNL A   1      39.577  30.246  30.018  1.00  0.00     0.034 A 
ATOM     24  C   UNL A   1      45.833  28.024  27.325  1.00  0.00     0.034 A 
ATOM     25  C   UNL A   1      40.584  31.268  29.887  1.00  0.00     0.049 A 
ATOM     26  C   UNL A   1      45.584  29.437  27.786  1.00  0.00     0.074 A 
ATOM     27  C   UNL A   1      40.556  32.589  30.290  1.00  0.00     0.029 A 
ATOM     28  N   UNL A   1      41.860  31.023  29.391  1.00  0.00    -0.354 N 
ATOM     29  N   UNL A   1      44.489  29.954  28.303  1.00  0.00    -0.248 NA
ATOM     30  C   UNL A   1      46.700  30.375  27.663  1.00  0.00     0.031 C 
ATOM     31  C   UNL A   1      41.800  33.154  29.989  1.00  0.00     0.029 A 
ATOM     32  C   UNL A   1      42.629  32.163  29.479  1.00  0.00     0.049 A 
ATOM     33  H   UNL A   1      42.169  30.161  29.029  1.00  0.00     0.167 HD
ATOM     34  C   UNL A   1      44.801  31.274  28.604  1.00  0.00     0.074 A 
ATOM     35  C   UNL A   1      46.194  31.454  28.240  1.00  0.00     0.031 C 
ATOM     36  C   UNL A   1      44.021  32.260  29.120  1.00  0.00     0.034 A 
BRANCH  23  37
ATOM     37  C   UNL A   1      38.217  30.602  30.588  1.00  0.00     0.023 A 
ATOM     38  C   UNL A   1      37.187  31.158  29.812  1.00  0.00     0.031 A 
ATOM     39  C   UNL A   1      37.960  30.429  31.964  1.00  0.00     0.131 A 
ATOM     40  C   UNL A   1      36.018  31.640  30.425  1.00  0.00     0.055 A 
ATOM     41  C   UNL A   1      36.747  30.805  32.550  1.00  0.00     0.041 A 
ATOM     42  F   UNL A   1      38.896  29.911  32.776  1.00  0.00    -0.206 F 
ATOM     43  C   UNL A   1      35.774  31.439  31.784  1.00  0.00     0.022 A 
BRANCH  40  44
ATOM     44  S   UNL A   1      34.909  32.696  29.450  1.00  0.00     0.124 S 
ATOM     45  O   UNL A   1      34.294  31.719  28.554  1.00  0.00    -0.237 OA
ATOM     46  O   UNL A   1      34.033  33.263  30.468  1.00  0.00    -0.237 OA
ATOM     47  O   UNL A   1      35.815  33.644  28.805  1.00  0.00    -0.744 OA
ENDBRANCH  40  44
ENDBRANCH  23  37
BRANCH  24  48
ATOM     48  C   UNL A   1      47.108  27.621  26.667  1.00  0.00     0.023 A 
ATOM     49  C   UNL A   1      47.287  27.817  25.291  1.00  0.00     0.031 A 
ATOM     50  C   UNL A   1      48.156  27.006  27.379  1.00  0.00     0.131 A 
ATOM     51  C   UNL A   1      48.442  27.341  24.654  1.00  0.00     0.055 A 
ATOM     52  C   UNL A   1      49.341  26.606  26.754  1.00  0.00     0.041 A 
ATOM     53  F   UNL A   1      48.051  26.796  28.701  1.00  0.00    -0.206 F 
ATOM     54  C   UNL A   1      49.480  26.755  25.378  1.00  0.00     0.022 A 
BRANCH  51  55
ATOM     55  S   UNL A   1      48.491  27.372  22.843  1.00  0.00     0.124 S 
ATOM     56  O   UNL A   1      48.333  25.958  22.521  1.00  0.00    -0.237 OA
ATOM     57  O   UNL A   1      47.355  28.232  22.525  1.00  0.00    -0.237 OA
ATOM     58  O   UNL A   1      49.805  27.938  22.548  1.00  0.00    -0.744 OA
ENDBRANCH  51  55
ENDBRANCH  24  48
BRANCH  36  59
ATOM     59  C   UNL A   1      44.694  33.575  29.366  1.00  0.00     0.023 A 
ATOM     60  C   UNL A   1      44.693  34.575  28.386  1.00  0.00     0.031 A 
ATOM     61  C   UNL A   1      45.355  33.819  30.582  1.00  0.00     0.131 A 
ATOM     62  C   UNL A   1      45.431  35.740  28.597  1.00  0.00     0.055 A 
ATOM     63  C   UNL A   1      45.997  35.029  30.828  1.00  0.00     0.041 A 
ATOM     64  F   UNL A   1      45.381  32.886  31.547  1.00  0.00    -0.206 F 
ATOM     65  C   UNL A   1      46.058  35.990  29.821  1.00  0.00     0.022 A 
BRANCH  62  66
ATOM     66  S   UNL A   1      45.701  36.833  27.180  1.00  0.00     0.124 S 
ATOM     67  O   UNL A   1      46.700  37.758  27.705  1.00  0.00    -0.237 OA
ATOM     68  O   UNL A   1      46.170  35.905  26.156  1.00  0.00    -0.237 OA
ATOM     69  O   UNL A   1      44.380  37.411  26.940  1.00  0.00    -0.744 OA
ENDBRANCH  62  66
ENDBRANCH  36  59
ENDBRANCH  10  11
ENDBRANCH   3   5
ENDBRANCH   2   3
ENDBRANCH   1   2
BRANCH   1  70
ATOM     70  C   UNL A   1      34.490  22.544  27.091  1.00  0.00     0.274 C 
BRANCH  70  71
ATOM     71  O   UNL A   1      33.949  23.805  26.589  1.00  0.00    -0.457 OA
BRANCH  71  72
ATOM     72  C   UNL A   1      32.755  23.740  25.936  1.00  0.00     0.373 C 
ATOM     73  O   UNL A   1      31.935  22.882  26.257  1.00  0.00    -0.244 OA
BRANCH  72  74
ATOM     74  C   UNL A   1      32.528  24.832  24.756  1.00  0.00     0.219 C 
ATOM     75  C   UNL A   1      33.907  24.802  23.996  1.00  0.00     0.087 C 
ATOM     76  N   UNL A   1      31.528  24.279  23.748  1.00  0.00    -0.328 N 
ATOM     77  C   UNL A   1      34.255  23.427  23.377  1.00  0.00     0.013 C 
ATOM     78  C   UNL A   1      31.782  22.983  23.138  1.00  0.00     0.261 C 
ATOM     79  H   UNL A   1      31.462  24.957  22.989  1.00  0.00     0.347 HD
ATOM     80  H   UNL A   1      30.683  24.128  24.298  1.00  0.00     0.347 HD
ATOM     81  C   UNL A   1      33.144  22.882  22.488  1.00  0.00     0.062 C 
BRANCH  74  82
ATOM     82  C   UNL A   1      31.925  26.494  25.061  1.00  0.00     0.024 A 
ATOM     83  C   UNL A   1      33.055  27.105  26.362  1.00  0.00     0.011 A 
ATOM     84  C   UNL A   1      30.815  27.927  24.150  1.00  0.00     0.011 A 
ATOM     85  C   UNL A   1      33.116  28.831  26.734  1.00  0.00     0.001 A 
ATOM     86  C   UNL A   1      31.037  29.655  24.588  1.00  0.00     0.001 A 
ATOM     87  C   UNL A   1      32.163  30.050  25.872  1.00  0.00     0.000 A 
ENDBRANCH  74  82
ENDBRANCH  72  74
ENDBRANCH  71  72
ENDBRANCH  70  71
ENDBRANCH   1  70
TORSDOF 15
ENDMDL
MODEL 3
REMARK VINA RESULT:     -11.9      5.281     14.800
REMARK SMILES O=C(OCCOC(=O)[C@@]1(c2ccccc2)CCCC[NH2+]1)c1ccc(-c2c3nc(c(-c4cc(S(=O)(=O)[O-])ccc4F)c4ccc([nH]4)c(-c4cc(S(=O)(=O)[O-])ccc4F)c4nc(c(-c5cc(S(=O)(=O)[O-])ccc5F)c5ccc2[nH]5)C=C4)C=C3)cc1
REMARK SMILES IDX 4 1 3 2 2 3 1 4 21 5 22 6 83 7 23 8 82 9 24 10 25 11 26 12
REMARK SMILES IDX 76 13 27 14 81 15 75 16 77 17 28 18 80 19 74 20 73 21 29 23
REMARK SMILES IDX 61 24 41 25 60 26 42 27 45 28 59 29 78 30 43 31 44 32 58 34
REMARK SMILES IDX 79 35 46 36 30 37 31 38 39 39 32 40 38 41 40 42 37 43 33 44
REMARK SMILES IDX 34 45 35 46 36 47 62 48 63 49 71 50 64 51 70 52 72 53 69 54
REMARK SMILES IDX 65 55 66 56 67 57 68 58 47 59 48 60 56 61 49 62 55 63 57 64
REMARK SMILES IDX 54 65 50 66 51 67 52 68 53 69 5 70 6 71 7 72 8 73 9 74 16 75
REMARK SMILES IDX 20 76 17 77 19 78 18 81 10 82 11 83 15 84 12 85 14 86 13 87
REMARK H PARENT 77 22 45 33 20 79 20 80
REMARK Flexibility Score: inf
ROOT
ATOM      1  C   UNL A   1      32.414  28.882  24.367  1.00  0.00     0.275 C 
ENDROOT
BRANCH   1   2
ATOM      2  O   UNL A   1      32.729  30.054  25.126  1.00  0.00    -0.458 OA
BRANCH   2   3
ATOM      3  C   UNL A   1      32.763  30.147  26.473  1.00  0.00     0.338 C 
ATOM      4  O   UNL A   1      31.710  30.174  27.106  1.00  0.00    -0.246 OA
BRANCH   3   5
ATOM      5  C   UNL A   1      34.028  30.340  27.244  1.00  0.00     0.060 A 
ATOM      6  C   UNL A   1      35.157  29.044  27.768  1.00  0.00     0.016 A 
ATOM      7  C   UNL A   1      34.358  32.048  27.563  1.00  0.00     0.016 A 
ATOM      8  C   UNL A   1      36.649  29.299  28.608  1.00  0.00     0.010 A 
ATOM      9  C   UNL A   1      35.878  32.459  28.424  1.00  0.00     0.010 A 
ATOM     10  C   UNL A   1      37.107  30.970  29.033  1.00  0.00    -0.014 A 
BRANCH  10  11
ATOM     11  C   UNL A   1      38.416  30.690  29.923  1.00  0.00     0.031 A 
ATOM     12  C   UNL A   1      39.591  29.870  29.408  1.00  0.00     0.074 A 
ATOM     13  C   UNL A   1      38.591  31.316  31.105  1.00  0.00     0.049 A 
ATOM     14  N   UNL A   1      40.355  29.025  30.052  1.00  0.00    -0.248 NA
ATOM     15  C   UNL A   1      39.864  29.904  27.965  1.00  0.00     0.031 C 
ATOM     16  C   UNL A   1      37.721  32.349  31.662  1.00  0.00     0.029 A 
ATOM     17  N   UNL A   1      39.558  31.156  32.065  1.00  0.00    -0.354 N 
ATOM     18  C   UNL A   1      40.998  28.280  29.060  1.00  0.00     0.074 A 
ATOM     19  C   UNL A   1      40.464  28.731  27.799  1.00  0.00     0.031 C 
ATOM     20  C   UNL A   1      38.137  32.674  32.893  1.00  0.00     0.029 A 
ATOM     21  C   UNL A   1      39.277  31.838  33.228  1.00  0.00     0.049 A 
ATOM     22  H   UNL A   1      40.367  30.610  31.936  1.00  0.00     0.167 HD
ATOM     23  C   UNL A   1      41.981  27.353  29.198  1.00  0.00     0.034 A 
ATOM     24  C   UNL A   1      39.847  31.744  34.442  1.00  0.00     0.034 A 
ATOM     25  C   UNL A   1      42.687  27.205  30.445  1.00  0.00     0.049 A 
ATOM     26  C   UNL A   1      40.989  30.772  34.588  1.00  0.00     0.074 A 
ATOM     27  C   UNL A   1      43.776  26.412  30.751  1.00  0.00     0.029 A 
ATOM     28  N   UNL A   1      42.417  27.975  31.572  1.00  0.00    -0.354 N 
ATOM     29  N   UNL A   1      41.474  29.930  33.699  1.00  0.00    -0.248 NA
ATOM     30  C   UNL A   1      41.676  30.752  35.880  1.00  0.00     0.031 C 
ATOM     31  C   UNL A   1      44.128  26.666  32.081  1.00  0.00     0.029 A 
ATOM     32  C   UNL A   1      43.315  27.679  32.573  1.00  0.00     0.049 A 
ATOM     33  H   UNL A   1      41.689  28.634  31.643  1.00  0.00     0.167 HD
ATOM     34  C   UNL A   1      42.552  29.307  34.316  1.00  0.00     0.074 A 
ATOM     35  C   UNL A   1      42.659  29.899  35.637  1.00  0.00     0.031 C 
ATOM     36  C   UNL A   1      43.377  28.331  33.857  1.00  0.00     0.034 A 
BRANCH  23  37
ATOM     37  C   UNL A   1      42.358  26.482  28.014  1.00  0.00     0.023 A 
ATOM     38  C   UNL A   1      41.844  25.188  27.826  1.00  0.00     0.031 A 
ATOM     39  C   UNL A   1      43.303  26.939  27.072  1.00  0.00     0.131 A 
ATOM     40  C   UNL A   1      42.367  24.358  26.820  1.00  0.00     0.055 A 
ATOM     41  C   UNL A   1      43.733  26.148  26.002  1.00  0.00     0.041 A 
ATOM     42  F   UNL A   1      43.846  28.162  27.185  1.00  0.00    -0.206 F 
ATOM     43  C   UNL A   1      43.284  24.837  25.885  1.00  0.00     0.022 A 
BRANCH  40  44
ATOM     44  S   UNL A   1      41.964  22.588  26.872  1.00  0.00     0.124 S 
ATOM     45  O   UNL A   1      41.942  22.338  28.312  1.00  0.00    -0.237 OA
ATOM     46  O   UNL A   1      40.671  22.537  26.200  1.00  0.00    -0.237 OA
ATOM     47  O   UNL A   1      43.070  21.962  26.151  1.00  0.00    -0.744 OA
ENDBRANCH  40  44
ENDBRANCH  23  37
BRANCH  24  48
ATOM     48  C   UNL A   1      39.356  32.563  35.586  1.00  0.00     0.023 A 
ATOM     49  C   UNL A   1      39.773  33.893  35.734  1.00  0.00     0.031 A 
ATOM     50  C   UNL A   1      38.494  32.037  36.567  1.00  0.00     0.131 A 
ATOM     51  C   UNL A   1      39.395  34.629  36.866  1.00  0.00     0.055 A 
ATOM     52  C   UNL A   1      38.054  32.800  37.653  1.00  0.00     0.041 A 
ATOM     53  F   UNL A   1      38.053  30.771  36.479  1.00  0.00    -0.206 F 
ATOM     54  C   UNL A   1      38.523  34.100  37.818  1.00  0.00     0.022 A 
BRANCH  51  55
ATOM     55  S   UNL A   1      40.187  36.235  37.142  1.00  0.00     0.124 S 
ATOM     56  O   UNL A   1      41.556  35.839  37.451  1.00  0.00    -0.237 OA
ATOM     57  O   UNL A   1      39.986  36.895  35.855  1.00  0.00    -0.237 OA
ATOM     58  O   UNL A   1      39.432  36.799  38.258  1.00  0.00    -0.744 OA
ENDBRANCH  51  55
ENDBRANCH  24  48
BRANCH  36  59
ATOM     59  C   UNL A   1      44.483  27.912  34.776  1.00  0.00     0.023 A 
ATOM     60  C   UNL A   1      44.265  26.947  35.766  1.00  0.00     0.031 A 
ATOM     61  C   UNL A   1      45.755  28.498  34.670  1.00  0.00     0.131 A 
ATOM     62  C   UNL A   1      45.278  26.667  36.685  1.00  0.00     0.055 A 
ATOM     63  C   UNL A   1      46.794  28.134  35.522  1.00  0.00     0.041 A 
ATOM     64  F   UNL A   1      46.006  29.429  33.736  1.00  0.00    -0.206 F 
ATOM     65  C   UNL A   1      46.550  27.229  36.553  1.00  0.00     0.022 A 
BRANCH  62  66
ATOM     66  S   UNL A   1      44.842  25.698  38.149  1.00  0.00     0.124 S 
ATOM     67  O   UNL A   1      46.131  25.122  38.518  1.00  0.00    -0.237 OA
ATOM     68  O   UNL A   1      44.319  26.718  39.053  1.00  0.00    -0.237 OA
ATOM     69  O   UNL A   1      43.854  24.747  37.645  1.00  0.00    -0.744 OA
ENDBRANCH  62  66
ENDBRANCH  36  59
ENDBRANCH  10  11
ENDBRANCH   3   5
ENDBRANCH   2   3
ENDBRANCH   1   2
BRANCH   1  70
ATOM     70  C   UNL A   1      33.653  28.205  23.716  1.00  0.00     0.274 C 
BRANCH  70  71
ATOM     71  O   UNL A   1      33.980  26.871  24.216  1.00  0.00    -0.457 OA
BRANCH  71  72
ATOM     72  C   UNL A   1      33.314  25.827  23.648  1.00  0.00     0.373 C 
ATOM     73  O   UNL A   1      32.869  25.941  22.507  1.00  0.00    -0.244 OA
BRANCH  72  74
ATOM     74  C   UNL A   1      33.162  24.496  24.565  1.00  0.00     0.219 C 
ATOM     75  C   UNL A   1      33.139  25.089  26.024  1.00  0.00     0.087 C 
ATOM     76  N   UNL A   1      31.767  23.911  24.373  1.00  0.00    -0.328 N 
ATOM     77  C   UNL A   1      31.956  26.050  26.295  1.00  0.00     0.013 C 
ATOM     78  C   UNL A   1      30.608  24.762  24.593  1.00  0.00     0.261 C 
ATOM     79  H   UNL A   1      31.683  23.122  25.012  1.00  0.00     0.347 HD
ATOM     80  H   UNL A   1      31.727  23.698  23.376  1.00  0.00     0.347 HD
ATOM     81  C   UNL A   1      30.606  25.434  25.948  1.00  0.00     0.062 C 
BRANCH  74  82
ATOM     82  C   UNL A   1      34.231  23.065  24.402  1.00  0.00     0.024 A 
ATOM     83  C   UNL A   1      35.905  23.794  24.500  1.00  0.00     0.011 A 
ATOM     84  C   UNL A   1      34.161  21.050  24.623  1.00  0.00     0.011 A 
ATOM     85  C   UNL A   1      37.304  22.750  24.773  1.00  0.00     0.001 A 
ATOM     86  C   UNL A   1      35.665  20.127  24.966  1.00  0.00     0.001 A 
ATOM     87  C   UNL A   1      37.184  21.000  25.013  1.00  0.00     0.000 A 
ENDBRANCH  74  82
ENDBRANCH  72  74
ENDBRANCH  71  72
ENDBRANCH  70  71
ENDBRANCH   1  70
TORSDOF 15
ENDMDL
