MODEL 1
REMARK VINA RESULT:     -12.2      0.000      0.000
REMARK SMILES CC1(C)CCC[C@H]1NC(=O)N[C@@H]1COC[C@@]1(C)C(=O)OCCOC(=O)c1ccc(-c2c3nc(c(-c4cc(S(=O)(=O)[O-])ccc4F)c4ccc([nH]4)c(-c4cc(S(=O)(=O)[O-])ccc4F)c4nc(c(-c5cc(S(=O)(=O)[O-])ccc5F)c5ccc2[nH]5)C=C4)C=C3)cc1
REMARK SMILES IDX 22 1 21 2 20 3 18 4 19 5 16 6 12 7 13 8 14 9 15 10 17 11
REMARK SMILES IDX 11 12 8 13 9 14 10 16 7 18 1 19 2 20 3 21 4 22 5 23 6 24
REMARK SMILES IDX 23 25 24 26 25 27 26 28 27 29 88 30 28 31 87 32 29 33 30 34
REMARK SMILES IDX 31 35 81 36 32 37 86 38 80 39 82 40 33 41 85 42 79 43 78 44
REMARK SMILES IDX 34 46 66 47 46 48 65 49 47 50 50 51 64 52 83 53 48 54 49 55
REMARK SMILES IDX 63 57 84 58 51 59 35 60 36 61 44 62 37 63 43 64 45 65 42 66
REMARK SMILES IDX 38 67 39 68 40 69 41 70 67 71 68 72 76 73 69 74 75 75 77 76
REMARK SMILES IDX 74 77 70 78 71 79 72 80 73 81 52 82 53 83 61 84 54 85 60 86
REMARK SMILES IDX 62 87 59 88 55 89 56 90 57 91 58 92
REMARK H PARENT 8 15 11 17 82 45 50 56
REMARK Flexibility Score: inf
ROOT
ATOM      1  C   UNL A   1      36.203  20.517  24.995  1.00  0.00     0.275 C 
ENDROOT
BRANCH   1   2
ATOM      2  C   UNL A   1      34.746  20.994  25.100  1.00  0.00     0.274 C 
BRANCH   2   3
ATOM      3  O   UNL A   1      34.706  22.327  25.657  1.00  0.00    -0.462 OA
BRANCH   3   4
ATOM      4  C   UNL A   1      33.570  22.695  26.323  1.00  0.00     0.316 C 
ATOM      5  O   UNL A   1      33.148  22.110  27.310  1.00  0.00    -0.251 OA
BRANCH   4   6
ATOM      6  C   UNL A   1      32.972  23.979  25.723  1.00  0.00     0.111 C 
ATOM      7  C   UNL A   1      32.473  23.822  24.284  1.00  0.00     0.129 C 
ATOM      8  C   UNL A   1      30.954  23.963  24.337  1.00  0.00     0.186 C 
ATOM      9  O   UNL A   1      30.652  24.654  25.541  1.00  0.00    -0.378 OA
ATOM     10  C   UNL A   1      31.679  24.324  26.482  1.00  0.00     0.181 C 
ATOM     11  C   UNL A   1      34.038  25.055  25.897  1.00  0.00     0.028 C 
BRANCH   7  12
ATOM     12  N   UNL A   1      33.093  24.649  23.227  1.00  0.00    -0.332 N 
ATOM     13  N   UNL A   1      32.606  26.999  23.230  1.00  0.00    -0.335 N 
ATOM     14  C   UNL A   1      33.161  25.890  22.752  1.00  0.00     0.315 C 
ATOM     15  H   UNL A   1      32.900  27.784  22.715  1.00  0.00     0.165 HD
ATOM     16  O   UNL A   1      33.854  26.024  21.734  1.00  0.00    -0.249 OA
ATOM     17  H   UNL A   1      33.665  24.070  22.673  1.00  0.00     0.165 HD
BRANCH  13  18
ATOM     18  C   UNL A   1      31.686  27.399  24.300  1.00  0.00     0.089 C 
ATOM     19  C   UNL A   1      33.838  28.404  25.521  1.00  0.00     0.013 C 
ATOM     20  C   UNL A   1      32.306  28.398  25.349  1.00  0.00    -0.015 C 
ATOM     21  C   UNL A   1      31.675  28.149  26.741  1.00  0.00     0.013 C 
ATOM     22  C   UNL A   1      31.878  29.768  24.806  1.00  0.00     0.008 C 
ATOM     23  C   UNL A   1      30.469  29.549  24.292  1.00  0.00     0.003 C 
ATOM     24  C   UNL A   1      30.478  28.146  23.695  1.00  0.00     0.025 C 
ENDBRANCH  13  18
ENDBRANCH   7  12
ENDBRANCH   4   6
ENDBRANCH   3   4
ENDBRANCH   2   3
ENDBRANCH   1   2
BRANCH   1  25
ATOM     25  O   UNL A   1      37.031  21.424  25.745  1.00  0.00    -0.458 OA
BRANCH  25  26
ATOM     26  C   UNL A   1      38.360  21.160  25.775  1.00  0.00     0.338 C 
ATOM     27  O   UNL A   1      38.898  20.124  25.403  1.00  0.00    -0.246 OA
BRANCH  26  28
ATOM     28  C   UNL A   1      39.075  22.333  26.337  1.00  0.00     0.060 A 
ATOM     29  C   UNL A   1      40.199  22.150  27.143  1.00  0.00     0.016 A 
ATOM     30  C   UNL A   1      38.636  23.631  26.082  1.00  0.00     0.016 A 
ATOM     31  C   UNL A   1      40.839  23.228  27.751  1.00  0.00     0.010 A 
ATOM     32  C   UNL A   1      39.369  24.723  26.577  1.00  0.00     0.010 A 
ATOM     33  C   UNL A   1      40.483  24.538  27.419  1.00  0.00    -0.014 A 
BRANCH  33  34
ATOM     34  C   UNL A   1      41.288  25.704  27.902  1.00  0.00     0.031 A 
ATOM     35  C   UNL A   1      40.632  26.782  28.722  1.00  0.00     0.074 A 
ATOM     36  C   UNL A   1      42.592  25.832  27.573  1.00  0.00     0.049 A 
ATOM     37  N   UNL A   1      41.030  28.006  28.961  1.00  0.00    -0.248 NA
ATOM     38  C   UNL A   1      39.340  26.439  29.336  1.00  0.00     0.031 C 
ATOM     39  C   UNL A   1      43.394  24.842  26.845  1.00  0.00     0.029 A 
ATOM     40  N   UNL A   1      43.479  26.863  27.792  1.00  0.00    -0.354 N 
ATOM     41  C   UNL A   1      40.006  28.603  29.690  1.00  0.00     0.074 A 
ATOM     42  C   UNL A   1      38.971  27.602  29.852  1.00  0.00     0.031 C 
ATOM     43  C   UNL A   1      44.646  25.299  26.704  1.00  0.00     0.029 A 
ATOM     44  C   UNL A   1      44.712  26.662  27.210  1.00  0.00     0.049 A 
ATOM     45  H   UNL A   1      43.253  27.665  28.315  1.00  0.00     0.167 HD
ATOM     46  C   UNL A   1      39.938  29.873  30.164  1.00  0.00     0.034 A 
ATOM     47  C   UNL A   1      45.756  27.497  27.025  1.00  0.00     0.034 A 
ATOM     48  C   UNL A   1      41.005  30.837  30.030  1.00  0.00     0.049 A 
ATOM     49  C   UNL A   1      45.638  28.920  27.499  1.00  0.00     0.074 A 
ATOM     50  C   UNL A   1      41.049  32.146  30.478  1.00  0.00     0.029 A 
ATOM     51  N   UNL A   1      42.225  30.594  29.408  1.00  0.00    -0.354 N 
ATOM     52  N   UNL A   1      44.628  29.507  28.101  1.00  0.00    -0.248 NA
ATOM     53  C   UNL A   1      46.787  29.799  27.252  1.00  0.00     0.031 C 
ATOM     54  C   UNL A   1      42.265  32.710  30.077  1.00  0.00     0.029 A 
ATOM     55  C   UNL A   1      43.015  31.733  29.444  1.00  0.00     0.049 A 
ATOM     56  H   UNL A   1      42.488  29.736  29.002  1.00  0.00     0.167 HD
ATOM     57  C   UNL A   1      45.034  30.818  28.327  1.00  0.00     0.074 A 
ATOM     58  C   UNL A   1      46.380  30.934  27.803  1.00  0.00     0.031 C 
ATOM     59  C   UNL A   1      44.355  31.832  28.919  1.00  0.00     0.034 A 
BRANCH  46  60
ATOM     60  C   UNL A   1      38.641  30.312  30.805  1.00  0.00     0.023 A 
ATOM     61  C   UNL A   1      37.615  30.936  30.075  1.00  0.00     0.031 A 
ATOM     62  C   UNL A   1      38.444  30.125  32.186  1.00  0.00     0.131 A 
ATOM     63  C   UNL A   1      36.476  31.418  30.741  1.00  0.00     0.055 A 
ATOM     64  C   UNL A   1      37.272  30.531  32.827  1.00  0.00     0.041 A 
ATOM     65  F   UNL A   1      39.396  29.554  32.941  1.00  0.00    -0.206 F 
ATOM     66  C   UNL A   1      36.286  31.197  32.107  1.00  0.00     0.022 A 
BRANCH  63  67
ATOM     67  S   UNL A   1      35.315  32.468  29.824  1.00  0.00     0.124 S 
ATOM     68  O   UNL A   1      34.265  32.682  30.817  1.00  0.00    -0.237 OA
ATOM     69  O   UNL A   1      36.132  33.631  29.499  1.00  0.00    -0.237 OA
ATOM     70  O   UNL A   1      34.927  31.638  28.686  1.00  0.00    -0.744 OA
ENDBRANCH  63  67
ENDBRANCH  46  60
BRANCH  47  71
ATOM     71  C   UNL A   1      46.963  27.038  26.276  1.00  0.00     0.023 A 
ATOM     72  C   UNL A   1      48.027  26.399  26.931  1.00  0.00     0.031 A 
ATOM     73  C   UNL A   1      47.082  27.258  24.890  1.00  0.00     0.131 A 
ATOM     74  C   UNL A   1      49.173  26.030  26.210  1.00  0.00     0.055 A 
ATOM     75  C   UNL A   1      48.198  26.837  24.166  1.00  0.00     0.041 A 
ATOM     76  F   UNL A   1      46.098  27.870  24.212  1.00  0.00    -0.206 F 
ATOM     77  C   UNL A   1      49.258  26.228  24.829  1.00  0.00     0.022 A 
BRANCH  74  78
ATOM     78  S   UNL A   1      50.593  25.357  27.115  1.00  0.00     0.124 S 
ATOM     79  O   UNL A   1      51.007  26.506  27.913  1.00  0.00    -0.237 OA
ATOM     80  O   UNL A   1      49.988  24.251  27.849  1.00  0.00    -0.237 OA
ATOM     81  O   UNL A   1      51.519  24.966  26.055  1.00  0.00    -0.744 OA
ENDBRANCH  74  78
ENDBRANCH  47  71
BRANCH  59  82
ATOM     82  C   UNL A   1      45.089  33.136  29.092  1.00  0.00     0.023 A 
ATOM     83  C   UNL A   1      45.051  34.148  28.116  1.00  0.00     0.031 A 
ATOM     84  C   UNL A   1      45.837  33.368  30.260  1.00  0.00     0.131 A 
ATOM     85  C   UNL A   1      45.779  35.331  28.312  1.00  0.00     0.055 A 
ATOM     86  C   UNL A   1      46.518  34.565  30.471  1.00  0.00     0.041 A 
ATOM     87  F   UNL A   1      45.907  32.431  31.220  1.00  0.00    -0.206 F 
ATOM     88  C   UNL A   1      46.500  35.551  29.490  1.00  0.00     0.022 A 
BRANCH  85  89
ATOM     89  S   UNL A   1      45.826  36.558  26.978  1.00  0.00     0.124 S 
ATOM     90  O   UNL A   1      44.439  37.012  26.934  1.00  0.00    -0.237 OA
ATOM     91  O   UNL A   1      46.799  37.526  27.475  1.00  0.00    -0.237 OA
ATOM     92  O   UNL A   1      46.263  35.786  25.815  1.00  0.00    -0.744 OA
ENDBRANCH  85  89
ENDBRANCH  59  82
ENDBRANCH  33  34
ENDBRANCH  26  28
ENDBRANCH  25  26
ENDBRANCH   1  25
TORSDOF 16
ENDMDL
MODEL 2
REMARK VINA RESULT:     -12.2      4.993      9.947
REMARK SMILES CC1(C)CCC[C@H]1NC(=O)N[C@@H]1COC[C@@]1(C)C(=O)OCCOC(=O)c1ccc(-c2c3nc(c(-c4cc(S(=O)(=O)[O-])ccc4F)c4ccc([nH]4)c(-c4cc(S(=O)(=O)[O-])ccc4F)c4nc(c(-c5cc(S(=O)(=O)[O-])ccc5F)c5ccc2[nH]5)C=C4)C=C3)cc1
REMARK SMILES IDX 22 1 21 2 20 3 18 4 19 5 16 6 12 7 13 8 14 9 15 10 17 11
REMARK SMILES IDX 11 12 8 13 9 14 10 16 7 18 1 19 2 20 3 21 4 22 5 23 6 24
REMARK SMILES IDX 23 25 24 26 25 27 26 28 27 29 88 30 28 31 87 32 29 33 30 34
REMARK SMILES IDX 31 35 81 36 32 37 86 38 80 39 82 40 33 41 85 42 79 43 78 44
REMARK SMILES IDX 34 46 66 47 46 48 65 49 47 50 50 51 64 52 83 53 48 54 49 55
REMARK SMILES IDX 63 57 84 58 51 59 35 60 36 61 44 62 37 63 43 64 45 65 42 66
REMARK SMILES IDX 38 67 39 68 40 69 41 70 67 71 68 72 76 73 69 74 75 75 77 76
REMARK SMILES IDX 74 77 70 78 71 79 72 80 73 81 52 82 53 83 61 84 54 85 60 86
REMARK SMILES IDX 62 87 59 88 55 89 56 90 57 91 58 92
REMARK H PARENT 8 15 11 17 82 45 50 56
REMARK Flexibility Score: inf
ROOT
ATOM      1  C   UNL A   1      31.844  29.484  26.048  1.00  0.00     0.275 C 
ENDROOT
BRANCH   1   2
ATOM      2  C   UNL A   1      31.235  29.652  24.647  1.00  0.00     0.274 C 
BRANCH   2   3
ATOM      3  O   UNL A   1      31.234  28.381  23.959  1.00  0.00    -0.462 OA
BRANCH   3   4
ATOM      4  C   UNL A   1      32.414  27.965  23.407  1.00  0.00     0.316 C 
ATOM      5  O   UNL A   1      33.161  28.701  22.779  1.00  0.00    -0.251 OA
BRANCH   4   6
ATOM      6  C   UNL A   1      32.703  26.497  23.768  1.00  0.00     0.111 C 
ATOM      7  C   UNL A   1      31.455  25.683  24.118  1.00  0.00     0.129 C 
ATOM      8  C   UNL A   1      31.286  24.654  23.003  1.00  0.00     0.186 C 
ATOM      9  O   UNL A   1      32.556  24.516  22.382  1.00  0.00    -0.378 OA
ATOM     10  C   UNL A   1      33.226  25.774  22.516  1.00  0.00     0.181 C 
ATOM     11  C   UNL A   1      33.748  26.541  24.878  1.00  0.00     0.028 C 
BRANCH   7  12
ATOM     12  N   UNL A   1      31.352  25.093  25.469  1.00  0.00    -0.332 N 
ATOM     13  N   UNL A   1      32.673  23.142  25.929  1.00  0.00    -0.335 N 
ATOM     14  C   UNL A   1      31.785  24.086  26.224  1.00  0.00     0.315 C 
ATOM     15  H   UNL A   1      32.856  22.580  26.716  1.00  0.00     0.165 HD
ATOM     16  O   UNL A   1      31.303  24.042  27.365  1.00  0.00    -0.249 OA
ATOM     17  H   UNL A   1      30.740  25.646  26.006  1.00  0.00     0.165 HD
BRANCH  13  18
ATOM     18  C   UNL A   1      33.461  22.691  24.778  1.00  0.00     0.089 C 
ATOM     19  C   UNL A   1      35.573  23.702  26.064  1.00  0.00     0.013 C 
ATOM     20  C   UNL A   1      35.020  22.727  25.005  1.00  0.00    -0.015 C 
ATOM     21  C   UNL A   1      35.734  23.029  23.665  1.00  0.00     0.013 C 
ATOM     22  C   UNL A   1      35.328  21.295  25.464  1.00  0.00     0.008 C 
ATOM     23  C   UNL A   1      34.425  20.422  24.615  1.00  0.00     0.003 C 
ATOM     24  C   UNL A   1      33.131  21.215  24.467  1.00  0.00     0.025 C 
ENDBRANCH  13  18
ENDBRANCH   7  12
ENDBRANCH   4   6
ENDBRANCH   3   4
ENDBRANCH   2   3
ENDBRANCH   1   2
BRANCH   1  25
ATOM     25  O   UNL A   1      33.144  30.099  26.052  1.00  0.00    -0.458 OA
BRANCH  25  26
ATOM     26  C   UNL A   1      33.366  31.059  26.983  1.00  0.00     0.338 C 
ATOM     27  O   UNL A   1      32.612  31.984  27.258  1.00  0.00    -0.246 OA
BRANCH  26  28
ATOM     28  C   UNL A   1      34.683  30.818  27.625  1.00  0.00     0.060 A 
ATOM     29  C   UNL A   1      35.550  31.883  27.870  1.00  0.00     0.016 A 
ATOM     30  C   UNL A   1      35.082  29.532  27.983  1.00  0.00     0.016 A 
ATOM     31  C   UNL A   1      36.823  31.675  28.394  1.00  0.00     0.010 A 
ATOM     32  C   UNL A   1      36.307  29.342  28.645  1.00  0.00     0.010 A 
ATOM     33  C   UNL A   1      37.197  30.412  28.861  1.00  0.00    -0.014 A 
BRANCH  33  34
ATOM     34  C   UNL A   1      38.477  30.212  29.610  1.00  0.00     0.031 A 
ATOM     35  C   UNL A   1      39.531  29.285  29.064  1.00  0.00     0.074 A 
ATOM     36  C   UNL A   1      38.687  30.814  30.801  1.00  0.00     0.049 A 
ATOM     37  N   UNL A   1      40.538  28.717  29.675  1.00  0.00    -0.248 NA
ATOM     38  C   UNL A   1      39.416  28.936  27.640  1.00  0.00     0.031 C 
ATOM     39  C   UNL A   1      37.799  31.795  31.435  1.00  0.00     0.029 A 
ATOM     40  N   UNL A   1      39.714  30.679  31.710  1.00  0.00    -0.354 N 
ATOM     41  C   UNL A   1      41.135  27.886  28.732  1.00  0.00     0.074 A 
ATOM     42  C   UNL A   1      40.373  28.028  27.509  1.00  0.00     0.031 C 
ATOM     43  C   UNL A   1      38.326  32.186  32.603  1.00  0.00     0.029 A 
ATOM     44  C   UNL A   1      39.520  31.397  32.870  1.00  0.00     0.049 A 
ATOM     45  H   UNL A   1      40.509  30.123  31.546  1.00  0.00     0.167 HD
ATOM     46  C   UNL A   1      42.211  27.072  28.885  1.00  0.00     0.034 A 
ATOM     47  C   UNL A   1      40.172  31.373  34.051  1.00  0.00     0.034 A 
ATOM     48  C   UNL A   1      42.983  26.985  30.103  1.00  0.00     0.049 A 
ATOM     49  C   UNL A   1      41.321  30.418  34.224  1.00  0.00     0.074 A 
ATOM     50  C   UNL A   1      44.095  26.203  30.367  1.00  0.00     0.029 A 
ATOM     51  N   UNL A   1      42.731  27.713  31.259  1.00  0.00    -0.354 N 
ATOM     52  N   UNL A   1      41.820  29.563  33.361  1.00  0.00    -0.248 NA
ATOM     53  C   UNL A   1      41.984  30.407  35.535  1.00  0.00     0.031 C 
ATOM     54  C   UNL A   1      44.477  26.414  31.696  1.00  0.00     0.029 A 
ATOM     55  C   UNL A   1      43.652  27.383  32.242  1.00  0.00     0.049 A 
ATOM     56  H   UNL A   1      42.004  28.369  31.365  1.00  0.00     0.167 HD
ATOM     57  C   UNL A   1      42.871  28.932  34.017  1.00  0.00     0.074 A 
ATOM     58  C   UNL A   1      42.939  29.508  35.345  1.00  0.00     0.031 C 
ATOM     59  C   UNL A   1      43.707  27.967  33.561  1.00  0.00     0.034 A 
BRANCH  46  60
ATOM     60  C   UNL A   1      42.568  26.161  27.733  1.00  0.00     0.023 A 
ATOM     61  C   UNL A   1      41.978  24.897  27.563  1.00  0.00     0.031 A 
ATOM     62  C   UNL A   1      43.545  26.560  26.801  1.00  0.00     0.131 A 
ATOM     63  C   UNL A   1      42.423  24.049  26.536  1.00  0.00     0.055 A 
ATOM     64  C   UNL A   1      43.923  25.745  25.732  1.00  0.00     0.041 A 
ATOM     65  F   UNL A   1      44.161  27.746  26.922  1.00  0.00    -0.206 F 
ATOM     66  C   UNL A   1      43.373  24.474  25.604  1.00  0.00     0.022 A 
BRANCH  63  67
ATOM     67  S   UNL A   1      41.851  22.327  26.524  1.00  0.00     0.124 S 
ATOM     68  O   UNL A   1      42.323  21.870  25.219  1.00  0.00    -0.237 OA
ATOM     69  O   UNL A   1      42.531  21.762  27.683  1.00  0.00    -0.237 OA
ATOM     70  O   UNL A   1      40.400  22.447  26.646  1.00  0.00    -0.744 OA
ENDBRANCH  63  67
ENDBRANCH  46  60
BRANCH  47  71
ATOM     71  C   UNL A   1      39.694  32.211  35.192  1.00  0.00     0.023 A 
ATOM     72  C   UNL A   1      38.934  31.656  36.232  1.00  0.00     0.031 A 
ATOM     73  C   UNL A   1      39.971  33.590  35.243  1.00  0.00     0.131 A 
ATOM     74  C   UNL A   1      38.450  32.480  37.262  1.00  0.00     0.055 A 
ATOM     75  C   UNL A   1      39.539  34.394  36.298  1.00  0.00     0.041 A 
ATOM     76  F   UNL A   1      40.690  34.177  34.272  1.00  0.00    -0.206 F 
ATOM     77  C   UNL A   1      38.764  33.841  37.311  1.00  0.00     0.022 A 
BRANCH  74  78
ATOM     78  S   UNL A   1      37.335  31.763  38.499  1.00  0.00     0.124 S 
ATOM     79  O   UNL A   1      36.220  32.703  38.472  1.00  0.00    -0.237 OA
ATOM     80  O   UNL A   1      37.073  30.440  37.942  1.00  0.00    -0.237 OA
ATOM     81  O   UNL A   1      38.133  31.775  39.724  1.00  0.00    -0.744 OA
ENDBRANCH  74  78
ENDBRANCH  47  71
BRANCH  59  82
ATOM     82  C   UNL A   1      44.811  27.526  34.486  1.00  0.00     0.023 A 
ATOM     83  C   UNL A   1      44.631  26.490  35.420  1.00  0.00     0.031 A 
ATOM     84  C   UNL A   1      46.068  28.153  34.423  1.00  0.00     0.131 A 
ATOM     85  C   UNL A   1      45.682  26.140  36.281  1.00  0.00     0.055 A 
ATOM     86  C   UNL A   1      47.124  27.767  35.247  1.00  0.00     0.041 A 
ATOM     87  F   UNL A   1      46.289  29.149  33.550  1.00  0.00    -0.206 F 
ATOM     88  C   UNL A   1      46.931  26.761  36.189  1.00  0.00     0.022 A 
BRANCH  85  89
ATOM     89  S   UNL A   1      45.379  24.900  37.569  1.00  0.00     0.124 S 
ATOM     90  O   UNL A   1      46.547  25.063  38.428  1.00  0.00    -0.237 OA
ATOM     91  O   UNL A   1      44.106  25.338  38.133  1.00  0.00    -0.237 OA
ATOM     92  O   UNL A   1      45.325  23.640  36.827  1.00  0.00    -0.744 OA
ENDBRANCH  85  89
ENDBRANCH  59  82
ENDBRANCH  33  34
ENDBRANCH  26  28
ENDBRANCH  25  26
ENDBRANCH   1  25
TORSDOF 16
ENDMDL
MODEL 3
REMARK VINA RESULT:     -12.2      1.875      2.612
REMARK SMILES CC1(C)CCC[C@H]1NC(=O)N[C@@H]1COC[C@@]1(C)C(=O)OCCOC(=O)c1ccc(-c2c3nc(c(-c4cc(S(=O)(=O)[O-])ccc4F)c4ccc([nH]4)c(-c4cc(S(=O)(=O)[O-])ccc4F)c4nc(c(-c5cc(S(=O)(=O)[O-])ccc5F)c5ccc2[nH]5)C=C4)C=C3)cc1
REMARK SMILES IDX 22 1 21 2 20 3 18 4 19 5 16 6 12 7 13 8 14 9 15 10 17 11
REMARK SMILES IDX 11 12 8 13 9 14 10 16 7 18 1 19 2 20 3 21 4 22 5 23 6 24
REMARK SMILES IDX 23 25 24 26 25 27 26 28 27 29 88 30 28 31 87 32 29 33 30 34
REMARK SMILES IDX 31 35 81 36 32 37 86 38 80 39 82 40 33 41 85 42 79 43 78 44
REMARK SMILES IDX 34 46 66 47 46 48 65 49 47 50 50 51 64 52 83 53 48 54 49 55
REMARK SMILES IDX 63 57 84 58 51 59 35 60 36 61 44 62 37 63 43 64 45 65 42 66
REMARK SMILES IDX 38 67 39 68 40 69 41 70 67 71 68 72 76 73 69 74 75 75 77 76
REMARK SMILES IDX 74 77 70 78 71 79 72 80 73 81 52 82 53 83 61 84 54 85 60 86
REMARK SMILES IDX 62 87 59 88 55 89 56 90 57 91 58 92
REMARK H PARENT 8 15 11 17 82 45 50 56
REMARK Flexibility Score: inf
ROOT
ATOM      1  C   UNL A   1      37.400  21.459  24.611  1.00  0.00     0.275 C 
ENDROOT
BRANCH   1   2
ATOM      2  C   UNL A   1      36.588  22.580  23.943  1.00  0.00     0.274 C 
BRANCH   2   3
ATOM      3  O   UNL A   1      35.180  22.388  24.205  1.00  0.00    -0.462 OA
BRANCH   3   4
ATOM      4  C   UNL A   1      34.679  22.915  25.363  1.00  0.00     0.316 C 
ATOM      5  O   UNL A   1      34.933  24.045  25.753  1.00  0.00    -0.251 OA
BRANCH   4   6
ATOM      6  C   UNL A   1      33.696  21.939  26.032  1.00  0.00     0.111 C 
ATOM      7  C   UNL A   1      32.291  21.954  25.425  1.00  0.00     0.129 C 
ATOM      8  C   UNL A   1      32.100  20.599  24.749  1.00  0.00     0.186 C 
ATOM      9  O   UNL A   1      33.035  19.712  25.345  1.00  0.00    -0.378 OA
ATOM     10  C   UNL A   1      34.159  20.500  25.750  1.00  0.00     0.181 C 
ATOM     11  C   UNL A   1      33.733  22.267  27.521  1.00  0.00     0.028 C 
BRANCH   7  12
ATOM     12  N   UNL A   1      31.152  22.335  26.287  1.00  0.00    -0.332 N 
ATOM     13  N   UNL A   1      30.753  24.678  26.624  1.00  0.00    -0.335 N 
ATOM     14  C   UNL A   1      30.520  23.382  26.811  1.00  0.00     0.315 C 
ATOM     15  H   UNL A   1      30.069  25.222  27.076  1.00  0.00     0.165 HD
ATOM     16  O   UNL A   1      29.574  23.102  27.559  1.00  0.00    -0.249 OA
ATOM     17  H   UNL A   1      30.695  21.514  26.582  1.00  0.00     0.165 HD
BRANCH  13  18
ATOM     18  C   UNL A   1      31.726  25.536  25.940  1.00  0.00     0.089 C 
ATOM     19  C   UNL A   1      30.531  24.772  23.677  1.00  0.00     0.013 C 
ATOM     20  C   UNL A   1      31.401  25.804  24.422  1.00  0.00    -0.015 C 
ATOM     21  C   UNL A   1      32.720  25.972  23.629  1.00  0.00     0.013 C 
ATOM     22  C   UNL A   1      30.634  27.133  24.471  1.00  0.00     0.008 C 
ATOM     23  C   UNL A   1      31.345  27.943  25.536  1.00  0.00     0.003 C 
ATOM     24  C   UNL A   1      31.747  26.930  26.603  1.00  0.00     0.025 C 
ENDBRANCH  13  18
ENDBRANCH   7  12
ENDBRANCH   4   6
ENDBRANCH   3   4
ENDBRANCH   2   3
ENDBRANCH   1   2
BRANCH   1  25
ATOM     25  O   UNL A   1      37.837  21.925  25.900  1.00  0.00    -0.458 OA
BRANCH  25  26
ATOM     26  C   UNL A   1      39.125  21.671  26.240  1.00  0.00     0.338 C 
ATOM     27  O   UNL A   1      39.705  20.599  26.114  1.00  0.00    -0.246 OA
BRANCH  26  28
ATOM     28  C   UNL A   1      39.732  22.905  26.799  1.00  0.00     0.060 A 
ATOM     29  C   UNL A   1      40.818  22.821  27.669  1.00  0.00     0.016 A 
ATOM     30  C   UNL A   1      39.225  24.163  26.477  1.00  0.00     0.016 A 
ATOM     31  C   UNL A   1      41.354  23.956  28.272  1.00  0.00     0.010 A 
ATOM     32  C   UNL A   1      39.858  25.315  26.972  1.00  0.00     0.010 A 
ATOM     33  C   UNL A   1      40.934  25.229  27.878  1.00  0.00    -0.014 A 
BRANCH  33  34
ATOM     34  C   UNL A   1      41.636  26.460  28.362  1.00  0.00     0.031 A 
ATOM     35  C   UNL A   1      40.875  27.502  29.138  1.00  0.00     0.074 A 
ATOM     36  C   UNL A   1      42.937  26.677  28.072  1.00  0.00     0.049 A 
ATOM     37  N   UNL A   1      41.175  28.755  29.364  1.00  0.00    -0.248 NA
ATOM     38  C   UNL A   1      39.592  27.076  29.716  1.00  0.00     0.031 C 
ATOM     39  C   UNL A   1      43.833  25.736  27.392  1.00  0.00     0.029 A 
ATOM     40  N   UNL A   1      43.738  27.774  28.299  1.00  0.00    -0.354 N 
ATOM     41  C   UNL A   1      40.086  29.290  30.047  1.00  0.00     0.074 A 
ATOM     42  C   UNL A   1      39.122  28.219  30.197  1.00  0.00     0.031 C 
ATOM     43  C   UNL A   1      45.053  26.280  27.282  1.00  0.00     0.029 A 
ATOM     44  C   UNL A   1      45.002  27.654  27.761  1.00  0.00     0.049 A 
ATOM     45  H   UNL A   1      43.438  28.568  28.797  1.00  0.00     0.167 HD
ATOM     46  C   UNL A   1      39.910  30.559  30.492  1.00  0.00     0.034 A 
ATOM     47  C   UNL A   1      45.988  28.559  27.593  1.00  0.00     0.034 A 
ATOM     48  C   UNL A   1      40.908  31.597  30.372  1.00  0.00     0.049 A 
ATOM     49  C   UNL A   1      45.751  29.978  28.033  1.00  0.00     0.074 A 
ATOM     50  C   UNL A   1      40.842  32.914  30.795  1.00  0.00     0.029 A 
ATOM     51  N   UNL A   1      42.162  31.432  29.796  1.00  0.00    -0.354 N 
ATOM     52  N   UNL A   1      44.682  30.501  28.589  1.00  0.00    -0.248 NA
ATOM     53  C   UNL A   1      46.840  30.935  27.806  1.00  0.00     0.031 C 
ATOM     54  C   UNL A   1      42.026  33.558  30.422  1.00  0.00     0.029 A 
ATOM     55  C   UNL A   1      42.866  32.626  29.833  1.00  0.00     0.049 A 
ATOM     56  H   UNL A   1      42.501  30.589  29.416  1.00  0.00     0.167 HD
ATOM     57  C   UNL A   1      44.982  31.842  28.802  1.00  0.00     0.074 A 
ATOM     58  C   UNL A   1      46.333  32.047  28.319  1.00  0.00     0.031 C 
ATOM     59  C   UNL A   1      44.213  32.815  29.350  1.00  0.00     0.034 A 
BRANCH  46  60
ATOM     60  C   UNL A   1      38.564  30.914  31.081  1.00  0.00     0.023 A 
ATOM     61  C   UNL A   1      37.519  31.445  30.306  1.00  0.00     0.031 A 
ATOM     62  C   UNL A   1      38.335  30.740  32.460  1.00  0.00     0.131 A 
ATOM     63  C   UNL A   1      36.327  31.854  30.924  1.00  0.00     0.055 A 
ATOM     64  C   UNL A   1      37.116  31.071  33.054  1.00  0.00     0.041 A 
ATOM     65  F   UNL A   1      39.301  30.257  33.258  1.00  0.00    -0.206 F 
ATOM     66  C   UNL A   1      36.108  31.647  32.288  1.00  0.00     0.022 A 
BRANCH  63  67
ATOM     67  S   UNL A   1      35.123  32.796  29.947  1.00  0.00     0.124 S 
ATOM     68  O   UNL A   1      35.911  33.961  29.552  1.00  0.00    -0.237 OA
ATOM     69  O   UNL A   1      34.784  31.863  28.880  1.00  0.00    -0.237 OA
ATOM     70  O   UNL A   1      34.050  33.074  30.900  1.00  0.00    -0.744 OA
ENDBRANCH  63  67
ENDBRANCH  46  60
BRANCH  47  71
ATOM     71  C   UNL A   1      47.250  28.177  26.893  1.00  0.00     0.023 A 
ATOM     72  C   UNL A   1      47.308  28.088  25.494  1.00  0.00     0.031 A 
ATOM     73  C   UNL A   1      48.415  27.866  27.620  1.00  0.00     0.131 A 
ATOM     74  C   UNL A   1      48.492  27.670  24.867  1.00  0.00     0.055 A 
ATOM     75  C   UNL A   1      49.608  27.508  26.990  1.00  0.00     0.041 A 
ATOM     76  F   UNL A   1      48.417  27.928  28.961  1.00  0.00    -0.206 F 
ATOM     77  C   UNL A   1      49.648  27.398  25.604  1.00  0.00     0.022 A 
BRANCH  74  78
ATOM     78  S   UNL A   1      48.483  27.409  23.072  1.00  0.00     0.124 S 
ATOM     79  O   UNL A   1      47.331  28.207  22.663  1.00  0.00    -0.237 OA
ATOM     80  O   UNL A   1      49.791  27.926  22.683  1.00  0.00    -0.237 OA
ATOM     81  O   UNL A   1      48.321  25.963  22.939  1.00  0.00    -0.744 OA
ENDBRANCH  74  78
ENDBRANCH  47  71
BRANCH  59  82
ATOM     82  C   UNL A   1      44.844  34.172  29.519  1.00  0.00     0.023 A 
ATOM     83  C   UNL A   1      44.878  35.113  28.476  1.00  0.00     0.031 A 
ATOM     84  C   UNL A   1      45.415  34.527  30.754  1.00  0.00     0.131 A 
ATOM     85  C   UNL A   1      45.507  36.351  28.675  1.00  0.00     0.055 A 
ATOM     86  C   UNL A   1      45.995  35.778  30.962  1.00  0.00     0.041 A 
ATOM     87  F   UNL A   1      45.410  33.662  31.781  1.00  0.00    -0.206 F 
ATOM     88  C   UNL A   1      46.052  36.694  29.917  1.00  0.00     0.022 A 
BRANCH  85  89
ATOM     89  S   UNL A   1      45.662  37.489  27.272  1.00  0.00     0.124 S 
ATOM     90  O   UNL A   1      46.564  38.505  27.804  1.00  0.00    -0.237 OA
ATOM     91  O   UNL A   1      46.213  36.629  26.229  1.00  0.00    -0.237 OA
ATOM     92  O   UNL A   1      44.289  37.937  27.041  1.00  0.00    -0.744 OA
ENDBRANCH  85  89
ENDBRANCH  59  82
ENDBRANCH  33  34
ENDBRANCH  26  28
ENDBRANCH  25  26
ENDBRANCH   1  25
TORSDOF 16
ENDMDL
