MODEL 1
REMARK VINA RESULT:     -10.4      0.000      0.000
REMARK SMILES O=C(COCCNC(=O)[C@@H]1CCCCO1)OCCOC(=O)c1ccc(-c2c3nc(c(-c4cc(S(=O)(=O)[O-])ccc4F)c4ccc([nH]4)c(-c4cc(S(=O)(=O)[O-])ccc4F)c4nc(c(-c5cc(S(=O)(=O)[O-])ccc5F)c5ccc2[nH]5)C=C4)C=C3)cc1
REMARK SMILES IDX 17 1 16 2 2 3 1 4 3 5 4 6 5 7 6 8 7 9 8 10 9 12 10 13 11 14
REMARK SMILES IDX 15 15 12 16 14 17 13 18 18 19 19 20 20 21 21 22 22 23 23 24
REMARK SMILES IDX 84 25 24 26 83 27 25 28 26 29 27 30 77 31 28 32 82 33 76 34
REMARK SMILES IDX 78 35 29 36 81 37 75 38 74 39 30 41 62 42 42 43 61 44 43 45
REMARK SMILES IDX 46 46 60 47 79 48 44 49 45 50 59 52 80 53 47 54 31 55 32 56
REMARK SMILES IDX 40 57 33 58 39 59 41 60 38 61 34 62 35 63 36 64 37 65 63 66
REMARK SMILES IDX 64 67 72 68 65 69 71 70 73 71 70 72 66 73 67 74 68 75 69 76
REMARK SMILES IDX 48 77 49 78 57 79 50 80 56 81 58 82 55 83 51 84 52 85 53 86
REMARK SMILES IDX 54 87
REMARK H PARENT 7 11 78 40 46 51
REMARK Flexibility Score: inf
ROOT
ATOM      1  C   UNL A   1      40.811  20.016  26.383  1.00  0.00     0.274 C 
ENDROOT
BRANCH   1   2
ATOM      2  O   UNL A   1      42.051  19.856  25.670  1.00  0.00    -0.460 OA
BRANCH   2   3
ATOM      3  C   UNL A   1      42.870  18.780  25.748  1.00  0.00     0.332 C 
ATOM      4  O   UNL A   1      42.728  17.984  26.676  1.00  0.00    -0.250 OA
BRANCH   3   5
ATOM      5  C   UNL A   1      43.959  18.583  24.681  1.00  0.00     0.282 C 
BRANCH   5   6
ATOM      6  O   UNL A   1      45.258  18.207  25.106  1.00  0.00    -0.368 OA
BRANCH   6   7
ATOM      7  C   UNL A   1      46.093  19.257  25.602  1.00  0.00     0.182 C 
BRANCH   7   8
ATOM      8  C   UNL A   1      46.717  20.142  24.513  1.00  0.00     0.144 C 
BRANCH   8   9
ATOM      9  N   UNL A   1      45.754  21.014  23.859  1.00  0.00    -0.352 N 
ATOM     10  C   UNL A   1      44.997  22.031  24.357  1.00  0.00     0.249 C 
ATOM     11  H   UNL A   1      45.629  20.840  22.898  1.00  0.00     0.163 HD
ATOM     12  O   UNL A   1      44.094  22.463  23.635  1.00  0.00    -0.272 OA
BRANCH  10  13
ATOM     13  C   UNL A   1      45.270  22.606  25.767  1.00  0.00     0.207 C 
ATOM     14  C   UNL A   1      44.172  23.605  26.162  1.00  0.00     0.042 C 
ATOM     15  O   UNL A   1      46.541  23.223  25.972  1.00  0.00    -0.368 OA
ATOM     16  C   UNL A   1      44.293  24.897  25.349  1.00  0.00     0.006 C 
ATOM     17  C   UNL A   1      46.743  24.373  25.146  1.00  0.00     0.161 C 
ATOM     18  C   UNL A   1      45.709  25.452  25.426  1.00  0.00     0.029 C 
ENDBRANCH  10  13
ENDBRANCH   8   9
ENDBRANCH   7   8
ENDBRANCH   6   7
ENDBRANCH   5   6
ENDBRANCH   3   5
ENDBRANCH   2   3
ENDBRANCH   1   2
BRANCH   1  19
ATOM     19  C   UNL A   1      39.972  21.159  25.809  1.00  0.00     0.275 C 
BRANCH  19  20
ATOM     20  O   UNL A   1      39.304  21.901  26.847  1.00  0.00    -0.458 OA
BRANCH  20  21
ATOM     21  C   UNL A   1      38.659  23.024  26.423  1.00  0.00     0.338 C 
ATOM     22  O   UNL A   1      37.605  23.054  25.821  1.00  0.00    -0.246 OA
BRANCH  21  23
ATOM     23  C   UNL A   1      39.360  24.239  26.911  1.00  0.00     0.060 A 
ATOM     24  C   UNL A   1      39.235  24.561  28.265  1.00  0.00     0.016 A 
ATOM     25  C   UNL A   1      40.102  25.074  26.067  1.00  0.00     0.016 A 
ATOM     26  C   UNL A   1      39.813  25.728  28.771  1.00  0.00     0.010 A 
ATOM     27  C   UNL A   1      40.678  26.250  26.575  1.00  0.00     0.010 A 
ATOM     28  C   UNL A   1      40.510  26.600  27.926  1.00  0.00    -0.014 A 
BRANCH  28  29
ATOM     29  C   UNL A   1      40.879  27.951  28.428  1.00  0.00     0.031 A 
ATOM     30  C   UNL A   1      42.340  28.301  28.531  1.00  0.00     0.074 A 
ATOM     31  C   UNL A   1      39.950  28.873  28.740  1.00  0.00     0.049 A 
ATOM     32  N   UNL A   1      42.905  29.437  28.853  1.00  0.00    -0.248 NA
ATOM     33  C   UNL A   1      43.288  27.217  28.233  1.00  0.00     0.031 C 
ATOM     34  C   UNL A   1      38.505  28.671  28.678  1.00  0.00     0.029 A 
ATOM     35  N   UNL A   1      40.090  30.171  29.169  1.00  0.00    -0.354 N 
ATOM     36  C   UNL A   1      44.275  29.213  28.775  1.00  0.00     0.074 A 
ATOM     37  C   UNL A   1      44.452  27.816  28.434  1.00  0.00     0.031 C 
ATOM     38  C   UNL A   1      37.890  29.809  29.051  1.00  0.00     0.029 A 
ATOM     39  C   UNL A   1      38.895  30.817  29.388  1.00  0.00     0.049 A 
ATOM     40  H   UNL A   1      40.965  30.600  29.306  1.00  0.00     0.167 HD
ATOM     41  C   UNL A   1      45.294  30.089  28.954  1.00  0.00     0.034 A 
ATOM     42  C   UNL A   1      38.643  32.075  29.808  1.00  0.00     0.034 A 
ATOM     43  C   UNL A   1      45.118  31.470  29.329  1.00  0.00     0.049 A 
ATOM     44  C   UNL A   1      39.798  33.014  30.080  1.00  0.00     0.074 A 
ATOM     45  C   UNL A   1      46.086  32.440  29.531  1.00  0.00     0.029 A 
ATOM     46  N   UNL A   1      43.894  32.076  29.580  1.00  0.00    -0.354 N 
ATOM     47  N   UNL A   1      41.088  32.804  29.952  1.00  0.00    -0.248 NA
ATOM     48  C   UNL A   1      39.457  34.370  30.536  1.00  0.00     0.031 C 
ATOM     49  C   UNL A   1      45.454  33.607  29.975  1.00  0.00     0.029 A 
ATOM     50  C   UNL A   1      44.085  33.394  29.969  1.00  0.00     0.049 A 
ATOM     51  H   UNL A   1      43.019  31.636  29.495  1.00  0.00     0.167 HD
ATOM     52  C   UNL A   1      41.705  34.014  30.267  1.00  0.00     0.074 A 
ATOM     53  C   UNL A   1      40.647  34.950  30.581  1.00  0.00     0.031 C 
ATOM     54  C   UNL A   1      43.027  34.327  30.283  1.00  0.00     0.034 A 
BRANCH  41  55
ATOM     55  C   UNL A   1      46.695  29.549  28.795  1.00  0.00     0.023 A 
ATOM     56  C   UNL A   1      47.240  29.275  27.528  1.00  0.00     0.031 A 
ATOM     57  C   UNL A   1      47.476  29.255  29.927  1.00  0.00     0.131 A 
ATOM     58  C   UNL A   1      48.494  28.653  27.426  1.00  0.00     0.055 A 
ATOM     59  C   UNL A   1      48.758  28.713  29.815  1.00  0.00     0.041 A 
ATOM     60  F   UNL A   1      46.998  29.472  31.163  1.00  0.00    -0.206 F 
ATOM     61  C   UNL A   1      49.267  28.393  28.560  1.00  0.00     0.022 A 
BRANCH  58  62
ATOM     62  S   UNL A   1      49.031  28.044  25.803  1.00  0.00     0.124 S 
ATOM     63  O   UNL A   1      50.174  28.911  25.527  1.00  0.00    -0.237 OA
ATOM     64  O   UNL A   1      49.338  26.645  26.077  1.00  0.00    -0.237 OA
ATOM     65  O   UNL A   1      47.867  28.273  24.950  1.00  0.00    -0.744 OA
ENDBRANCH  58  62
ENDBRANCH  41  55
BRANCH  42  66
ATOM     66  C   UNL A   1      37.241  32.543  30.020  1.00  0.00     0.023 A 
ATOM     67  C   UNL A   1      36.772  32.878  31.301  1.00  0.00     0.031 A 
ATOM     68  C   UNL A   1      36.324  32.572  28.955  1.00  0.00     0.131 A 
ATOM     69  C   UNL A   1      35.411  33.165  31.495  1.00  0.00     0.055 A 
ATOM     70  C   UNL A   1      34.984  32.912  29.144  1.00  0.00     0.041 A 
ATOM     71  F   UNL A   1      36.719  32.262  27.710  1.00  0.00    -0.206 F 
ATOM     72  C   UNL A   1      34.516  33.195  30.424  1.00  0.00     0.022 A 
BRANCH  69  73
ATOM     73  S   UNL A   1      34.805  33.400  33.190  1.00  0.00     0.124 S 
ATOM     74  O   UNL A   1      35.019  34.830  33.384  1.00  0.00    -0.237 OA
ATOM     75  O   UNL A   1      33.417  32.967  33.075  1.00  0.00    -0.237 OA
ATOM     76  O   UNL A   1      35.666  32.525  33.982  1.00  0.00    -0.744 OA
ENDBRANCH  69  73
ENDBRANCH  42  66
BRANCH  54  77
ATOM     77  C   UNL A   1      43.400  35.761  30.589  1.00  0.00     0.023 A 
ATOM     78  C   UNL A   1      43.651  36.209  31.898  1.00  0.00     0.031 A 
ATOM     79  C   UNL A   1      43.492  36.701  29.545  1.00  0.00     0.131 A 
ATOM     80  C   UNL A   1      43.921  37.566  32.137  1.00  0.00     0.055 A 
ATOM     81  C   UNL A   1      43.823  38.036  29.781  1.00  0.00     0.041 A 
ATOM     82  F   UNL A   1      43.263  36.334  28.274  1.00  0.00    -0.206 F 
ATOM     83  C   UNL A   1      44.025  38.479  31.084  1.00  0.00     0.022 A 
BRANCH  80  84
ATOM     84  S   UNL A   1      44.031  38.149  33.852  1.00  0.00     0.124 S 
ATOM     85  O   UNL A   1      42.841  38.985  33.968  1.00  0.00    -0.237 OA
ATOM     86  O   UNL A   1      44.008  36.900  34.607  1.00  0.00    -0.237 OA
ATOM     87  O   UNL A   1      45.302  38.870  33.890  1.00  0.00    -0.744 OA
ENDBRANCH  80  84
ENDBRANCH  54  77
ENDBRANCH  28  29
ENDBRANCH  21  23
ENDBRANCH  20  21
ENDBRANCH  19  20
ENDBRANCH   1  19
TORSDOF 19
ENDMDL
MODEL 2
REMARK VINA RESULT:     -10.4      4.103      6.692
REMARK SMILES O=C(COCCNC(=O)[C@@H]1CCCCO1)OCCOC(=O)c1ccc(-c2c3nc(c(-c4cc(S(=O)(=O)[O-])ccc4F)c4ccc([nH]4)c(-c4cc(S(=O)(=O)[O-])ccc4F)c4nc(c(-c5cc(S(=O)(=O)[O-])ccc5F)c5ccc2[nH]5)C=C4)C=C3)cc1
REMARK SMILES IDX 17 1 16 2 2 3 1 4 3 5 4 6 5 7 6 8 7 9 8 10 9 12 10 13 11 14
REMARK SMILES IDX 15 15 12 16 14 17 13 18 18 19 19 20 20 21 21 22 22 23 23 24
REMARK SMILES IDX 84 25 24 26 83 27 25 28 26 29 27 30 77 31 28 32 82 33 76 34
REMARK SMILES IDX 78 35 29 36 81 37 75 38 74 39 30 41 62 42 42 43 61 44 43 45
REMARK SMILES IDX 46 46 60 47 79 48 44 49 45 50 59 52 80 53 47 54 31 55 32 56
REMARK SMILES IDX 40 57 33 58 39 59 41 60 38 61 34 62 35 63 36 64 37 65 63 66
REMARK SMILES IDX 64 67 72 68 65 69 71 70 73 71 70 72 66 73 67 74 68 75 69 76
REMARK SMILES IDX 48 77 49 78 57 79 50 80 56 81 58 82 55 83 51 84 52 85 53 86
REMARK SMILES IDX 54 87
REMARK H PARENT 7 11 78 40 46 51
REMARK Flexibility Score: inf
ROOT
ATOM      1  C   UNL A   1      35.843  21.641  24.737  1.00  0.00     0.274 C 
ENDROOT
BRANCH   1   2
ATOM      2  O   UNL A   1      34.664  20.822  24.831  1.00  0.00    -0.460 OA
BRANCH   2   3
ATOM      3  C   UNL A   1      33.632  21.025  25.684  1.00  0.00     0.332 C 
ATOM      4  O   UNL A   1      33.857  21.094  26.892  1.00  0.00    -0.250 OA
BRANCH   3   5
ATOM      5  C   UNL A   1      32.206  21.155  25.125  1.00  0.00     0.282 C 
BRANCH   5   6
ATOM      6  O   UNL A   1      31.336  22.109  25.711  1.00  0.00    -0.368 OA
BRANCH   6   7
ATOM      7  C   UNL A   1      31.679  23.485  25.517  1.00  0.00     0.182 C 
BRANCH   7   8
ATOM      8  C   UNL A   1      30.599  24.479  25.967  1.00  0.00     0.144 C 
BRANCH   8   9
ATOM      9  N   UNL A   1      29.958  25.171  24.860  1.00  0.00    -0.352 N 
ATOM     10  C   UNL A   1      30.038  26.472  24.463  1.00  0.00     0.249 C 
ATOM     11  H   UNL A   1      29.370  24.608  24.308  1.00  0.00     0.163 HD
ATOM     12  O   UNL A   1      29.216  26.853  23.625  1.00  0.00    -0.272 OA
BRANCH  10  13
ATOM     13  C   UNL A   1      31.115  27.415  25.048  1.00  0.00     0.207 C 
ATOM     14  C   UNL A   1      31.008  28.812  24.416  1.00  0.00     0.042 C 
ATOM     15  O   UNL A   1      32.470  26.977  24.955  1.00  0.00    -0.368 OA
ATOM     16  C   UNL A   1      31.478  28.786  22.959  1.00  0.00     0.006 C 
ATOM     17  C   UNL A   1      32.916  26.829  23.604  1.00  0.00     0.161 C 
ATOM     18  C   UNL A   1      32.855  28.146  22.847  1.00  0.00     0.029 C 
ENDBRANCH  10  13
ENDBRANCH   8   9
ENDBRANCH   7   8
ENDBRANCH   6   7
ENDBRANCH   5   6
ENDBRANCH   3   5
ENDBRANCH   2   3
ENDBRANCH   1   2
BRANCH   1  19
ATOM     19  C   UNL A   1      37.102  20.872  25.141  1.00  0.00     0.275 C 
BRANCH  19  20
ATOM     20  O   UNL A   1      38.282  21.691  25.040  1.00  0.00    -0.458 OA
BRANCH  20  21
ATOM     21  C   UNL A   1      39.255  21.407  25.951  1.00  0.00     0.338 C 
ATOM     22  O   UNL A   1      39.801  20.333  26.097  1.00  0.00    -0.246 OA
BRANCH  21  23
ATOM     23  C   UNL A   1      39.661  22.639  26.674  1.00  0.00     0.060 A 
ATOM     24  C   UNL A   1      38.972  23.820  26.385  1.00  0.00     0.016 A 
ATOM     25  C   UNL A   1      40.715  22.661  27.596  1.00  0.00     0.016 A 
ATOM     26  C   UNL A   1      39.354  25.026  26.980  1.00  0.00     0.010 A 
ATOM     27  C   UNL A   1      41.100  23.875  28.190  1.00  0.00     0.010 A 
ATOM     28  C   UNL A   1      40.440  25.071  27.861  1.00  0.00    -0.014 A 
BRANCH  28  29
ATOM     29  C   UNL A   1      40.986  26.394  28.266  1.00  0.00     0.031 A 
ATOM     30  C   UNL A   1      42.415  26.716  27.916  1.00  0.00     0.074 A 
ATOM     31  C   UNL A   1      40.229  27.318  28.883  1.00  0.00     0.049 A 
ATOM     32  N   UNL A   1      43.085  27.828  28.082  1.00  0.00    -0.248 NA
ATOM     33  C   UNL A   1      43.192  25.629  27.301  1.00  0.00     0.031 C 
ATOM     34  C   UNL A   1      38.832  27.143  29.271  1.00  0.00     0.029 A 
ATOM     35  N   UNL A   1      40.532  28.596  29.289  1.00  0.00    -0.354 N 
ATOM     36  C   UNL A   1      44.355  27.584  27.571  1.00  0.00     0.074 A 
ATOM     37  C   UNL A   1      44.377  26.199  27.146  1.00  0.00     0.031 C 
ATOM     38  C   UNL A   1      38.398  28.276  29.855  1.00  0.00     0.029 A 
ATOM     39  C   UNL A   1      39.485  29.253  29.893  1.00  0.00     0.049 A 
ATOM     40  H   UNL A   1      41.419  29.004  29.159  1.00  0.00     0.167 HD
ATOM     41  C   UNL A   1      45.404  28.435  27.450  1.00  0.00     0.034 A 
ATOM     42  C   UNL A   1      39.414  30.497  30.412  1.00  0.00     0.034 A 
ATOM     43  C   UNL A   1      45.393  29.803  27.906  1.00  0.00     0.049 A 
ATOM     44  C   UNL A   1      40.622  31.405  30.338  1.00  0.00     0.074 A 
ATOM     45  C   UNL A   1      46.403  30.747  27.826  1.00  0.00     0.029 A 
ATOM     46  N   UNL A   1      44.327  30.419  28.548  1.00  0.00    -0.354 N 
ATOM     47  N   UNL A   1      41.801  31.178  29.806  1.00  0.00    -0.248 NA
ATOM     48  C   UNL A   1      40.480  32.746  30.923  1.00  0.00     0.031 C 
ATOM     49  C   UNL A   1      45.976  31.906  28.484  1.00  0.00     0.029 A 
ATOM     50  C   UNL A   1      44.668  31.717  28.901  1.00  0.00     0.049 A 
ATOM     51  H   UNL A   1      43.457  29.997  28.728  1.00  0.00     0.167 HD
ATOM     52  C   UNL A   1      42.519  32.364  29.950  1.00  0.00     0.074 A 
ATOM     53  C   UNL A   1      41.640  33.304  30.612  1.00  0.00     0.031 C 
ATOM     54  C   UNL A   1      43.788  32.654  29.562  1.00  0.00     0.034 A 
BRANCH  41  55
ATOM     55  C   UNL A   1      46.669  27.878  26.842  1.00  0.00     0.023 A 
ATOM     56  C   UNL A   1      46.975  28.059  25.481  1.00  0.00     0.031 A 
ATOM     57  C   UNL A   1      47.554  27.113  27.621  1.00  0.00     0.131 A 
ATOM     58  C   UNL A   1      48.091  27.417  24.924  1.00  0.00     0.055 A 
ATOM     59  C   UNL A   1      48.709  26.546  27.078  1.00  0.00     0.041 A 
ATOM     60  F   UNL A   1      47.301  26.885  28.919  1.00  0.00    -0.206 F 
ATOM     61  C   UNL A   1      48.974  26.683  25.719  1.00  0.00     0.022 A 
BRANCH  58  62
ATOM     62  S   UNL A   1      48.286  27.425  23.120  1.00  0.00     0.124 S 
ATOM     63  O   UNL A   1      48.229  25.998  22.811  1.00  0.00    -0.237 OA
ATOM     64  O   UNL A   1      47.145  28.222  22.684  1.00  0.00    -0.237 OA
ATOM     65  O   UNL A   1      49.594  28.045  22.920  1.00  0.00    -0.744 OA
ENDBRANCH  58  62
ENDBRANCH  41  55
BRANCH  42  66
ATOM     66  C   UNL A   1      38.163  30.979  31.069  1.00  0.00     0.023 A 
ATOM     67  C   UNL A   1      37.156  31.624  30.332  1.00  0.00     0.031 A 
ATOM     68  C   UNL A   1      37.999  30.882  32.462  1.00  0.00     0.131 A 
ATOM     69  C   UNL A   1      36.063  32.204  30.997  1.00  0.00     0.055 A 
ATOM     70  C   UNL A   1      36.883  31.412  33.112  1.00  0.00     0.041 A 
ATOM     71  F   UNL A   1      38.929  30.275  33.215  1.00  0.00    -0.206 F 
ATOM     72  C   UNL A   1      35.914  32.093  32.380  1.00  0.00     0.022 A 
BRANCH  69  73
ATOM     73  S   UNL A   1      34.887  33.197  30.034  1.00  0.00     0.124 S 
ATOM     74  O   UNL A   1      35.765  34.193  29.431  1.00  0.00    -0.237 OA
ATOM     75  O   UNL A   1      34.325  32.201  29.128  1.00  0.00    -0.237 OA
ATOM     76  O   UNL A   1      33.966  33.707  31.047  1.00  0.00    -0.744 OA
ENDBRANCH  69  73
ENDBRANCH  42  66
BRANCH  54  77
ATOM     77  C   UNL A   1      44.279  34.068  29.782  1.00  0.00     0.023 A 
ATOM     78  C   UNL A   1      44.055  35.095  28.848  1.00  0.00     0.031 A 
ATOM     79  C   UNL A   1      45.001  34.387  30.948  1.00  0.00     0.131 A 
ATOM     80  C   UNL A   1      44.596  36.372  29.065  1.00  0.00     0.055 A 
ATOM     81  C   UNL A   1      45.483  35.675  31.189  1.00  0.00     0.041 A 
ATOM     82  F   UNL A   1      45.248  33.449  31.877  1.00  0.00    -0.206 F 
ATOM     83  C   UNL A   1      45.295  36.672  30.238  1.00  0.00     0.022 A 
BRANCH  80  84
ATOM     84  S   UNL A   1      44.469  37.613  27.747  1.00  0.00     0.124 S 
ATOM     85  O   UNL A   1      45.858  37.748  27.320  1.00  0.00    -0.237 OA
ATOM     86  O   UNL A   1      43.571  36.965  26.796  1.00  0.00    -0.237 OA
ATOM     87  O   UNL A   1      43.912  38.781  28.426  1.00  0.00    -0.744 OA
ENDBRANCH  80  84
ENDBRANCH  54  77
ENDBRANCH  28  29
ENDBRANCH  21  23
ENDBRANCH  20  21
ENDBRANCH  19  20
ENDBRANCH   1  19
TORSDOF 19
ENDMDL
MODEL 3
REMARK VINA RESULT:     -10.2      1.915      2.339
REMARK SMILES O=C(COCCNC(=O)[C@@H]1CCCCO1)OCCOC(=O)c1ccc(-c2c3nc(c(-c4cc(S(=O)(=O)[O-])ccc4F)c4ccc([nH]4)c(-c4cc(S(=O)(=O)[O-])ccc4F)c4nc(c(-c5cc(S(=O)(=O)[O-])ccc5F)c5ccc2[nH]5)C=C4)C=C3)cc1
REMARK SMILES IDX 17 1 16 2 2 3 1 4 3 5 4 6 5 7 6 8 7 9 8 10 9 12 10 13 11 14
REMARK SMILES IDX 15 15 12 16 14 17 13 18 18 19 19 20 20 21 21 22 22 23 23 24
REMARK SMILES IDX 84 25 24 26 83 27 25 28 26 29 27 30 77 31 28 32 82 33 76 34
REMARK SMILES IDX 78 35 29 36 81 37 75 38 74 39 30 41 62 42 42 43 61 44 43 45
REMARK SMILES IDX 46 46 60 47 79 48 44 49 45 50 59 52 80 53 47 54 31 55 32 56
REMARK SMILES IDX 40 57 33 58 39 59 41 60 38 61 34 62 35 63 36 64 37 65 63 66
REMARK SMILES IDX 64 67 72 68 65 69 71 70 73 71 70 72 66 73 67 74 68 75 69 76
REMARK SMILES IDX 48 77 49 78 57 79 50 80 56 81 58 82 55 83 51 84 52 85 53 86
REMARK SMILES IDX 54 87
REMARK H PARENT 7 11 78 40 46 51
REMARK Flexibility Score: inf
ROOT
ATOM      1  C   UNL A   1      40.980  19.746  26.330  1.00  0.00     0.274 C 
ENDROOT
BRANCH   1   2
ATOM      2  O   UNL A   1      42.325  19.417  26.722  1.00  0.00    -0.460 OA
BRANCH   2   3
ATOM      3  C   UNL A   1      43.086  18.438  26.177  1.00  0.00     0.332 C 
ATOM      4  O   UNL A   1      42.968  17.286  26.593  1.00  0.00    -0.250 OA
BRANCH   3   5
ATOM      5  C   UNL A   1      44.081  18.790  25.060  1.00  0.00     0.282 C 
BRANCH   5   6
ATOM      6  O   UNL A   1      45.366  19.264  25.428  1.00  0.00    -0.368 OA
BRANCH   6   7
ATOM      7  C   UNL A   1      45.684  20.603  25.040  1.00  0.00     0.182 C 
BRANCH   7   8
ATOM      8  C   UNL A   1      44.794  21.679  25.680  1.00  0.00     0.144 C 
BRANCH   8   9
ATOM      9  N   UNL A   1      45.510  22.540  26.608  1.00  0.00    -0.352 N 
ATOM     10  C   UNL A   1      46.385  23.559  26.378  1.00  0.00     0.249 C 
ATOM     11  H   UNL A   1      45.333  22.357  27.559  1.00  0.00     0.163 HD
ATOM     12  O   UNL A   1      47.022  23.980  27.346  1.00  0.00    -0.272 OA
BRANCH  10  13
ATOM     13  C   UNL A   1      46.559  24.148  24.958  1.00  0.00     0.207 C 
ATOM     14  C   UNL A   1      47.658  25.223  24.954  1.00  0.00     0.042 C 
ATOM     15  O   UNL A   1      45.392  24.689  24.340  1.00  0.00    -0.368 OA
ATOM     16  C   UNL A   1      47.186  26.485  25.680  1.00  0.00     0.006 C 
ATOM     17  C   UNL A   1      44.850  25.804  25.052  1.00  0.00     0.161 C 
ATOM     18  C   UNL A   1      45.842  26.952  25.135  1.00  0.00     0.029 C 
ENDBRANCH  10  13
ENDBRANCH   8   9
ENDBRANCH   7   8
ENDBRANCH   6   7
ENDBRANCH   5   6
ENDBRANCH   3   5
ENDBRANCH   2   3
ENDBRANCH   1   2
BRANCH   1  19
ATOM     19  C   UNL A   1      40.785  21.257  26.188  1.00  0.00     0.275 C 
BRANCH  19  20
ATOM     20  O   UNL A   1      39.697  21.731  27.004  1.00  0.00    -0.458 OA
BRANCH  20  21
ATOM     21  C   UNL A   1      39.029  22.806  26.498  1.00  0.00     0.338 C 
ATOM     22  O   UNL A   1      37.985  22.767  25.879  1.00  0.00    -0.246 OA
BRANCH  21  23
ATOM     23  C   UNL A   1      39.688  24.069  26.918  1.00  0.00     0.060 A 
ATOM     24  C   UNL A   1      39.957  24.240  28.278  1.00  0.00     0.016 A 
ATOM     25  C   UNL A   1      40.011  25.089  26.015  1.00  0.00     0.016 A 
ATOM     26  C   UNL A   1      40.512  25.435  28.745  1.00  0.00     0.010 A 
ATOM     27  C   UNL A   1      40.564  26.292  26.485  1.00  0.00     0.010 A 
ATOM     28  C   UNL A   1      40.788  26.483  27.859  1.00  0.00    -0.014 A 
BRANCH  28  29
ATOM     29  C   UNL A   1      41.122  27.825  28.410  1.00  0.00     0.031 A 
ATOM     30  C   UNL A   1      42.568  28.244  28.446  1.00  0.00     0.074 A 
ATOM     31  C   UNL A   1      40.171  28.681  28.825  1.00  0.00     0.049 A 
ATOM     32  N   UNL A   1      43.096  29.389  28.794  1.00  0.00    -0.248 NA
ATOM     33  C   UNL A   1      43.548  27.226  28.036  1.00  0.00     0.031 C 
ATOM     34  C   UNL A   1      38.736  28.408  28.837  1.00  0.00     0.029 A 
ATOM     35  N   UNL A   1      40.273  29.962  29.313  1.00  0.00    -0.354 N 
ATOM     36  C   UNL A   1      44.468  29.240  28.624  1.00  0.00     0.074 A 
ATOM     37  C   UNL A   1      44.691  27.873  28.200  1.00  0.00     0.031 C 
ATOM     38  C   UNL A   1      38.091  29.494  29.305  1.00  0.00     0.029 A 
ATOM     39  C   UNL A   1      39.065  30.534  29.636  1.00  0.00     0.049 A 
ATOM     40  H   UNL A   1      41.134  30.427  29.421  1.00  0.00     0.167 HD
ATOM     41  C   UNL A   1      45.453  30.157  28.791  1.00  0.00     0.034 A 
ATOM     42  C   UNL A   1      38.779  31.754  30.137  1.00  0.00     0.034 A 
ATOM     43  C   UNL A   1      45.233  31.507  29.248  1.00  0.00     0.049 A 
ATOM     44  C   UNL A   1      39.901  32.736  30.389  1.00  0.00     0.074 A 
ATOM     45  C   UNL A   1      46.164  32.514  29.444  1.00  0.00     0.029 A 
ATOM     46  N   UNL A   1      44.000  32.036  29.602  1.00  0.00    -0.354 N 
ATOM     47  N   UNL A   1      41.190  32.599  30.176  1.00  0.00    -0.248 NA
ATOM     48  C   UNL A   1      39.524  34.048  30.937  1.00  0.00     0.031 C 
ATOM     49  C   UNL A   1      45.505  33.623  29.986  1.00  0.00     0.029 A 
ATOM     50  C   UNL A   1      44.151  33.341  30.049  1.00  0.00     0.049 A 
ATOM     51  H   UNL A   1      43.143  31.556  29.545  1.00  0.00     0.167 HD
ATOM     52  C   UNL A   1      41.765  33.822  30.518  1.00  0.00     0.074 A 
ATOM     53  C   UNL A   1      40.685  34.685  30.943  1.00  0.00     0.031 C 
ATOM     54  C   UNL A   1      43.069  34.201  30.474  1.00  0.00     0.034 A 
BRANCH  41  55
ATOM     55  C   UNL A   1      46.866  29.698  28.521  1.00  0.00     0.023 A 
ATOM     56  C   UNL A   1      47.663  29.131  29.532  1.00  0.00     0.031 A 
ATOM     57  C   UNL A   1      47.441  29.876  27.251  1.00  0.00     0.131 A 
ATOM     58  C   UNL A   1      49.011  28.837  29.278  1.00  0.00     0.055 A 
ATOM     59  C   UNL A   1      48.759  29.503  26.981  1.00  0.00     0.041 A 
ATOM     60  F   UNL A   1      46.737  30.435  26.254  1.00  0.00    -0.206 F 
ATOM     61  C   UNL A   1      49.557  28.996  28.002  1.00  0.00     0.022 A 
BRANCH  58  62
ATOM     62  S   UNL A   1      50.081  28.394  30.674  1.00  0.00     0.124 S 
ATOM     63  O   UNL A   1      51.287  29.164  30.378  1.00  0.00    -0.237 OA
ATOM     64  O   UNL A   1      49.301  28.841  31.823  1.00  0.00    -0.237 OA
ATOM     65  O   UNL A   1      50.230  26.946  30.545  1.00  0.00    -0.744 OA
ENDBRANCH  58  62
ENDBRANCH  41  55
BRANCH  42  66
ATOM     66  C   UNL A   1      37.371  32.138  30.455  1.00  0.00     0.023 A 
ATOM     67  C   UNL A   1      36.529  32.691  29.477  1.00  0.00     0.031 A 
ATOM     68  C   UNL A   1      36.880  32.041  31.769  1.00  0.00     0.131 A 
ATOM     69  C   UNL A   1      35.265  33.186  29.839  1.00  0.00     0.055 A 
ATOM     70  C   UNL A   1      35.601  32.484  32.112  1.00  0.00     0.041 A 
ATOM     71  F   UNL A   1      37.642  31.519  32.742  1.00  0.00    -0.206 F 
ATOM     72  C   UNL A   1      34.792  33.076  31.148  1.00  0.00     0.022 A 
BRANCH  69  73
ATOM     73  S   UNL A   1      34.287  34.069  28.591  1.00  0.00     0.124 S 
ATOM     74  O   UNL A   1      35.002  35.337  28.498  1.00  0.00    -0.237 OA
ATOM     75  O   UNL A   1      34.398  33.182  27.439  1.00  0.00    -0.237 OA
ATOM     76  O   UNL A   1      32.957  34.144  29.193  1.00  0.00    -0.744 OA
ENDBRANCH  69  73
ENDBRANCH  42  66
BRANCH  54  77
ATOM     77  C   UNL A   1      43.391  35.635  30.833  1.00  0.00     0.023 A 
ATOM     78  C   UNL A   1      43.548  36.059  32.165  1.00  0.00     0.031 A 
ATOM     79  C   UNL A   1      43.530  36.600  29.817  1.00  0.00     0.131 A 
ATOM     80  C   UNL A   1      43.773  37.415  32.449  1.00  0.00     0.055 A 
ATOM     81  C   UNL A   1      43.816  37.936  30.102  1.00  0.00     0.041 A 
ATOM     82  F   UNL A   1      43.391  36.257  28.526  1.00  0.00    -0.206 F 
ATOM     83  C   UNL A   1      43.924  38.353  31.424  1.00  0.00     0.022 A 
BRANCH  80  84
ATOM     84  S   UNL A   1      43.760  37.962  34.179  1.00  0.00     0.124 S 
ATOM     85  O   UNL A   1      44.298  39.314  34.077  1.00  0.00    -0.237 OA
ATOM     86  O   UNL A   1      42.345  37.865  34.525  1.00  0.00    -0.237 OA
ATOM     87  O   UNL A   1      44.628  36.997  34.852  1.00  0.00    -0.744 OA
ENDBRANCH  80  84
ENDBRANCH  54  77
ENDBRANCH  28  29
ENDBRANCH  21  23
ENDBRANCH  20  21
ENDBRANCH  19  20
ENDBRANCH   1  19
TORSDOF 19
ENDMDL
