MODEL 1
REMARK VINA RESULT:     -12.8      0.000      0.000
REMARK SMILES Cc1ccc(-c2cc(Cl)cc3c2O[C@H](C(F)(F)F)C(C(=O)OCCOC(=O)c2ccc(-c4c5nc(c(-c6cc(S(=O)(=O)[O-])ccc6F)c6ccc([nH]6)c(-c6cc(S(=O)(=O)[O-])ccc6F)c6nc(c(-c7cc(S(=O)(=O)[O-])ccc7F)c7ccc4[nH]7)C=C6)C=C5)cc2)=C3)cc1F
REMARK SMILES IDX 24 1 23 2 22 3 20 4 21 5 19 6 6 7 7 8 12 9 8 10 11 11 13 12
REMARK SMILES IDX 9 13 10 14 91 15 14 16 5 17 1 18 2 19 3 20 93 21 4 22 92 23
REMARK SMILES IDX 94 24 15 25 16 26 17 27 18 28 25 29 26 30 27 31 28 32 29 33
REMARK SMILES IDX 90 34 30 35 89 36 31 37 32 38 33 39 83 40 34 41 88 42 82 43
REMARK SMILES IDX 84 44 35 45 87 46 81 47 80 48 36 50 68 51 48 52 67 53 49 54
REMARK SMILES IDX 52 55 66 56 85 57 50 58 51 59 65 61 86 62 53 63 37 64 38 65
REMARK SMILES IDX 46 66 39 67 45 68 47 69 44 70 40 71 41 72 42 73 43 74 69 75
REMARK SMILES IDX 70 76 78 77 71 78 77 79 79 80 76 81 72 82 73 83 74 84 75 85
REMARK SMILES IDX 54 86 55 87 63 88 56 89 62 90 64 91 61 92 57 93 58 94 59 95
REMARK SMILES IDX 60 96
REMARK H PARENT 84 49 52 60
REMARK Flexibility Score: inf
ROOT
ATOM      1  C   UNL A   1      32.845  30.833  27.365  1.00  0.00     0.275 C 
ENDROOT
BRANCH   1   2
ATOM      2  C   UNL A   1      32.399  30.512  25.935  1.00  0.00     0.275 C 
BRANCH   2   3
ATOM      3  O   UNL A   1      31.379  29.488  25.911  1.00  0.00    -0.459 OA
BRANCH   3   4
ATOM      4  C   UNL A   1      31.363  28.695  24.805  1.00  0.00     0.338 C 
ATOM      5  O   UNL A   1      31.141  29.047  23.662  1.00  0.00    -0.246 OA
BRANCH   4   6
ATOM      6  C   UNL A   1      31.583  27.291  25.210  1.00  0.00     0.087 C 
ATOM      7  C   UNL A   1      32.152  23.192  25.901  1.00  0.00     0.026 A 
ATOM      8  C   UNL A   1      31.087  22.437  26.412  1.00  0.00     0.033 A 
ATOM      9  C   UNL A   1      31.969  24.580  25.706  1.00  0.00     0.135 A 
ATOM     10  C   UNL A   1      29.915  23.070  26.817  1.00  0.00     0.042 A 
ATOM     11  C   UNL A   1      30.809  25.217  26.146  1.00  0.00     0.019 A 
ATOM     12  O   UNL A   1      32.967  25.238  25.030  1.00  0.00    -0.475 OA
ATOM     13  Cl  UNL A   1      28.605  22.129  27.415  1.00  0.00    -0.084 Cl
ATOM     14  C   UNL A   1      29.793  24.457  26.737  1.00  0.00     0.032 A 
ATOM     15  C   UNL A   1      30.646  26.644  25.905  1.00  0.00     0.027 C 
ATOM     16  C   UNL A   1      32.901  26.675  24.879  1.00  0.00     0.316 C 
BRANCH   7  17
ATOM     17  C   UNL A   1      33.465  22.577  25.667  1.00  0.00    -0.012 A 
ATOM     18  C   UNL A   1      37.431  21.086  24.845  1.00  0.00     0.047 C 
ATOM     19  C   UNL A   1      36.046  21.559  25.151  1.00  0.00    -0.015 A 
ATOM     20  C   UNL A   1      34.911  20.900  24.660  1.00  0.00     0.007 A 
ATOM     21  C   UNL A   1      35.873  22.707  25.922  1.00  0.00     0.126 A 
ATOM     22  C   UNL A   1      33.630  21.404  24.919  1.00  0.00     0.009 A 
ATOM     23  C   UNL A   1      34.608  23.208  26.186  1.00  0.00     0.048 A 
ATOM     24  F   UNL A   1      36.942  23.356  26.405  1.00  0.00    -0.207 F 
ENDBRANCH   7  17
BRANCH  16  25
ATOM     25  C   UNL A   1      34.014  27.313  25.726  1.00  0.00     0.430 C 
ATOM     26  F   UNL A   1      35.056  26.457  25.878  1.00  0.00    -0.167 F 
ATOM     27  F   UNL A   1      34.519  28.423  25.138  1.00  0.00    -0.167 F 
ATOM     28  F   UNL A   1      33.595  27.653  26.965  1.00  0.00    -0.167 F 
ENDBRANCH  16  25
ENDBRANCH   4   6
ENDBRANCH   3   4
ENDBRANCH   2   3
ENDBRANCH   1   2
BRANCH   1  29
ATOM     29  O   UNL A   1      34.168  31.368  27.334  1.00  0.00    -0.458 OA
BRANCH  29  30
ATOM     30  C   UNL A   1      34.811  31.543  28.518  1.00  0.00     0.338 C 
ATOM     31  O   UNL A   1      34.558  32.334  29.394  1.00  0.00    -0.246 OA
BRANCH  30  32
ATOM     32  C   UNL A   1      35.623  30.317  28.669  1.00  0.00     0.060 A 
ATOM     33  C   UNL A   1      36.060  29.887  29.926  1.00  0.00     0.016 A 
ATOM     34  C   UNL A   1      36.207  29.833  27.504  1.00  0.00     0.016 A 
ATOM     35  C   UNL A   1      37.251  29.168  30.032  1.00  0.00     0.010 A 
ATOM     36  C   UNL A   1      37.356  29.071  27.619  1.00  0.00     0.010 A 
ATOM     37  C   UNL A   1      37.954  28.857  28.873  1.00  0.00    -0.014 A 
BRANCH  37  38
ATOM     38  C   UNL A   1      39.374  28.497  28.860  1.00  0.00     0.031 A 
ATOM     39  C   UNL A   1      39.832  27.117  28.599  1.00  0.00     0.074 A 
ATOM     40  C   UNL A   1      40.329  29.460  28.912  1.00  0.00     0.049 A 
ATOM     41  N   UNL A   1      40.983  26.667  28.977  1.00  0.00    -0.248 NA
ATOM     42  C   UNL A   1      39.026  26.138  27.887  1.00  0.00     0.031 C 
ATOM     43  C   UNL A   1      41.706  29.329  28.433  1.00  0.00     0.029 A 
ATOM     44  N   UNL A   1      40.299  30.736  29.466  1.00  0.00    -0.354 N 
ATOM     45  C   UNL A   1      41.188  25.468  28.338  1.00  0.00     0.074 A 
ATOM     46  C   UNL A   1      39.909  25.144  27.736  1.00  0.00     0.031 C 
ATOM     47  C   UNL A   1      42.442  30.332  28.928  1.00  0.00     0.029 A 
ATOM     48  C   UNL A   1      41.606  31.078  29.846  1.00  0.00     0.049 A 
ATOM     49  H   UNL A   1      39.500  31.301  29.574  1.00  0.00     0.167 HD
ATOM     50  C   UNL A   1      42.443  24.936  28.259  1.00  0.00     0.034 A 
ATOM     51  C   UNL A   1      41.990  31.530  31.072  1.00  0.00     0.034 A 
ATOM     52  C   UNL A   1      43.453  25.809  28.861  1.00  0.00     0.049 A 
ATOM     53  C   UNL A   1      43.031  30.652  31.731  1.00  0.00     0.074 A 
ATOM     54  C   UNL A   1      44.338  26.723  28.312  1.00  0.00     0.029 A 
ATOM     55  N   UNL A   1      43.490  26.008  30.236  1.00  0.00    -0.354 N 
ATOM     56  N   UNL A   1      43.503  29.563  31.194  1.00  0.00    -0.248 NA
ATOM     57  C   UNL A   1      43.549  30.864  33.082  1.00  0.00     0.031 C 
ATOM     58  C   UNL A   1      44.883  27.501  29.362  1.00  0.00     0.029 A 
ATOM     59  C   UNL A   1      44.331  27.066  30.554  1.00  0.00     0.049 A 
ATOM     60  H   UNL A   1      42.989  25.473  30.893  1.00  0.00     0.167 HD
ATOM     61  C   UNL A   1      44.168  28.834  32.146  1.00  0.00     0.074 A 
ATOM     62  C   UNL A   1      44.265  29.741  33.273  1.00  0.00     0.031 C 
ATOM     63  C   UNL A   1      44.486  27.521  31.937  1.00  0.00     0.034 A 
BRANCH  50  64
ATOM     64  C   UNL A   1      42.787  23.741  27.392  1.00  0.00     0.023 A 
ATOM     65  C   UNL A   1      43.626  23.824  26.262  1.00  0.00     0.031 A 
ATOM     66  C   UNL A   1      42.297  22.449  27.685  1.00  0.00     0.131 A 
ATOM     67  C   UNL A   1      44.053  22.673  25.574  1.00  0.00     0.055 A 
ATOM     68  C   UNL A   1      42.663  21.311  26.953  1.00  0.00     0.041 A 
ATOM     69  F   UNL A   1      41.468  22.222  28.714  1.00  0.00    -0.206 F 
ATOM     70  C   UNL A   1      43.570  21.413  25.911  1.00  0.00     0.022 A 
BRANCH  67  71
ATOM     71  S   UNL A   1      45.340  22.774  24.296  1.00  0.00     0.124 S 
ATOM     72  O   UNL A   1      46.380  21.897  24.831  1.00  0.00    -0.237 OA
ATOM     73  O   UNL A   1      44.650  22.274  23.112  1.00  0.00    -0.237 OA
ATOM     74  O   UNL A   1      45.692  24.193  24.271  1.00  0.00    -0.744 OA
ENDBRANCH  67  71
ENDBRANCH  50  64
BRANCH  51  75
ATOM     75  C   UNL A   1      40.958  32.312  31.789  1.00  0.00     0.023 A 
ATOM     76  C   UNL A   1      39.976  31.669  32.558  1.00  0.00     0.031 A 
ATOM     77  C   UNL A   1      40.722  33.628  31.351  1.00  0.00     0.131 A 
ATOM     78  C   UNL A   1      38.739  32.302  32.749  1.00  0.00     0.055 A 
ATOM     79  C   UNL A   1      39.494  34.255  31.553  1.00  0.00     0.041 A 
ATOM     80  F   UNL A   1      41.655  34.283  30.640  1.00  0.00    -0.206 F 
ATOM     81  C   UNL A   1      38.481  33.572  32.218  1.00  0.00     0.022 A 
BRANCH  78  82
ATOM     82  S   UNL A   1      37.359  31.421  33.529  1.00  0.00     0.124 S 
ATOM     83  O   UNL A   1      36.228  31.869  32.727  1.00  0.00    -0.237 OA
ATOM     84  O   UNL A   1      37.736  30.021  33.346  1.00  0.00    -0.237 OA
ATOM     85  O   UNL A   1      37.394  31.890  34.909  1.00  0.00    -0.744 OA
ENDBRANCH  78  82
ENDBRANCH  51  75
BRANCH  63  86
ATOM     86  C   UNL A   1      44.998  26.554  32.980  1.00  0.00     0.023 A 
ATOM     87  C   UNL A   1      44.109  26.113  33.991  1.00  0.00     0.031 A 
ATOM     88  C   UNL A   1      46.336  26.141  33.117  1.00  0.00     0.131 A 
ATOM     89  C   UNL A   1      44.549  25.309  35.053  1.00  0.00     0.055 A 
ATOM     90  C   UNL A   1      46.759  25.280  34.139  1.00  0.00     0.041 A 
ATOM     91  F   UNL A   1      47.305  26.599  32.314  1.00  0.00    -0.206 F 
ATOM     92  C   UNL A   1      45.867  24.868  35.119  1.00  0.00     0.022 A 
BRANCH  89  93
ATOM     93  S   UNL A   1      43.452  24.938  36.452  1.00  0.00     0.124 S 
ATOM     94  O   UNL A   1      44.408  24.530  37.477  1.00  0.00    -0.237 OA
ATOM     95  O   UNL A   1      42.799  26.224  36.686  1.00  0.00    -0.237 OA
ATOM     96  O   UNL A   1      42.583  23.887  35.939  1.00  0.00    -0.744 OA
ENDBRANCH  89  93
ENDBRANCH  63  86
ENDBRANCH  37  38
ENDBRANCH  30  32
ENDBRANCH  29  30
ENDBRANCH   1  29
TORSDOF 16
ENDMDL
MODEL 2
REMARK VINA RESULT:     -12.7      2.077      2.598
REMARK SMILES Cc1ccc(-c2cc(Cl)cc3c2O[C@H](C(F)(F)F)C(C(=O)OCCOC(=O)c2ccc(-c4c5nc(c(-c6cc(S(=O)(=O)[O-])ccc6F)c6ccc([nH]6)c(-c6cc(S(=O)(=O)[O-])ccc6F)c6nc(c(-c7cc(S(=O)(=O)[O-])ccc7F)c7ccc4[nH]7)C=C6)C=C5)cc2)=C3)cc1F
REMARK SMILES IDX 24 1 23 2 22 3 20 4 21 5 19 6 6 7 7 8 12 9 8 10 11 11 13 12
REMARK SMILES IDX 9 13 10 14 91 15 14 16 5 17 1 18 2 19 3 20 93 21 4 22 92 23
REMARK SMILES IDX 94 24 15 25 16 26 17 27 18 28 25 29 26 30 27 31 28 32 29 33
REMARK SMILES IDX 90 34 30 35 89 36 31 37 32 38 33 39 83 40 34 41 88 42 82 43
REMARK SMILES IDX 84 44 35 45 87 46 81 47 80 48 36 50 68 51 48 52 67 53 49 54
REMARK SMILES IDX 52 55 66 56 85 57 50 58 51 59 65 61 86 62 53 63 37 64 38 65
REMARK SMILES IDX 46 66 39 67 45 68 47 69 44 70 40 71 41 72 42 73 43 74 69 75
REMARK SMILES IDX 70 76 78 77 71 78 77 79 79 80 76 81 72 82 73 83 74 84 75 85
REMARK SMILES IDX 54 86 55 87 63 88 56 89 62 90 64 91 61 92 57 93 58 94 59 95
REMARK SMILES IDX 60 96
REMARK H PARENT 84 49 52 60
REMARK Flexibility Score: inf
ROOT
ATOM      1  C   UNL A   1      33.664  31.809  27.496  1.00  0.00     0.275 C 
ENDROOT
BRANCH   1   2
ATOM      2  C   UNL A   1      33.034  30.427  27.295  1.00  0.00     0.275 C 
BRANCH   2   3
ATOM      3  O   UNL A   1      33.241  29.937  25.950  1.00  0.00    -0.459 OA
BRANCH   3   4
ATOM      4  C   UNL A   1      32.114  29.605  25.262  1.00  0.00     0.338 C 
ATOM      5  O   UNL A   1      31.065  30.220  25.245  1.00  0.00    -0.246 OA
BRANCH   4   6
ATOM      6  C   UNL A   1      32.326  28.313  24.578  1.00  0.00     0.087 C 
ATOM      7  C   UNL A   1      33.384  24.769  22.595  1.00  0.00     0.026 A 
ATOM      8  C   UNL A   1      33.099  24.647  21.228  1.00  0.00     0.033 A 
ATOM      9  C   UNL A   1      32.992  25.948  23.268  1.00  0.00     0.135 A 
ATOM     10  C   UNL A   1      32.349  25.627  20.582  1.00  0.00     0.042 A 
ATOM     11  C   UNL A   1      32.209  26.910  22.629  1.00  0.00     0.019 A 
ATOM     12  O   UNL A   1      33.457  26.103  24.551  1.00  0.00    -0.475 OA
ATOM     13  Cl  UNL A   1      32.032  25.479  18.898  1.00  0.00    -0.084 Cl
ATOM     14  C   UNL A   1      31.859  26.725  21.287  1.00  0.00     0.032 A 
ATOM     15  C   UNL A   1      31.845  28.123  23.347  1.00  0.00     0.027 C 
ATOM     16  C   UNL A   1      33.018  27.233  25.341  1.00  0.00     0.316 C 
BRANCH   7  17
ATOM     17  C   UNL A   1      33.987  23.656  23.339  1.00  0.00    -0.012 A 
ATOM     18  C   UNL A   1      35.934  20.297  25.224  1.00  0.00     0.047 C 
ATOM     19  C   UNL A   1      35.240  21.474  24.615  1.00  0.00    -0.015 A 
ATOM     20  C   UNL A   1      33.847  21.615  24.655  1.00  0.00     0.007 A 
ATOM     21  C   UNL A   1      35.994  22.445  23.961  1.00  0.00     0.126 A 
ATOM     22  C   UNL A   1      33.226  22.700  24.024  1.00  0.00     0.009 A 
ATOM     23  C   UNL A   1      35.386  23.524  23.339  1.00  0.00     0.048 A 
ATOM     24  F   UNL A   1      37.329  22.334  23.910  1.00  0.00    -0.207 F 
ENDBRANCH   7  17
BRANCH  16  25
ATOM     25  C   UNL A   1      32.117  26.722  26.476  1.00  0.00     0.430 C 
ATOM     26  F   UNL A   1      30.807  26.814  26.131  1.00  0.00    -0.167 F 
ATOM     27  F   UNL A   1      32.345  25.415  26.748  1.00  0.00    -0.167 F 
ATOM     28  F   UNL A   1      32.276  27.420  27.621  1.00  0.00    -0.167 F 
ENDBRANCH  16  25
ENDBRANCH   4   6
ENDBRANCH   3   4
ENDBRANCH   2   3
ENDBRANCH   1   2
BRANCH   1  29
ATOM     29  O   UNL A   1      35.047  31.651  27.813  1.00  0.00    -0.458 OA
BRANCH  29  30
ATOM     30  C   UNL A   1      35.380  31.419  29.110  1.00  0.00     0.338 C 
ATOM     31  O   UNL A   1      34.891  31.900  30.103  1.00  0.00    -0.246 OA
BRANCH  30  32
ATOM     32  C   UNL A   1      36.184  30.180  29.055  1.00  0.00     0.060 A 
ATOM     33  C   UNL A   1      36.665  29.576  30.221  1.00  0.00     0.016 A 
ATOM     34  C   UNL A   1      36.718  29.860  27.812  1.00  0.00     0.016 A 
ATOM     35  C   UNL A   1      37.852  28.844  30.178  1.00  0.00     0.010 A 
ATOM     36  C   UNL A   1      37.863  29.085  27.774  1.00  0.00     0.010 A 
ATOM     37  C   UNL A   1      38.506  28.695  28.961  1.00  0.00    -0.014 A 
BRANCH  37  38
ATOM     38  C   UNL A   1      39.921  28.333  28.841  1.00  0.00     0.031 A 
ATOM     39  C   UNL A   1      40.354  26.984  28.427  1.00  0.00     0.074 A 
ATOM     40  C   UNL A   1      40.885  29.284  28.937  1.00  0.00     0.049 A 
ATOM     41  N   UNL A   1      41.520  26.496  28.701  1.00  0.00    -0.248 NA
ATOM     42  C   UNL A   1      39.506  26.079  27.667  1.00  0.00     0.031 C 
ATOM     43  C   UNL A   1      42.236  29.195  28.378  1.00  0.00     0.029 A 
ATOM     44  N   UNL A   1      40.892  30.501  29.611  1.00  0.00    -0.354 N 
ATOM     45  C   UNL A   1      41.683  25.363  27.941  1.00  0.00     0.074 A 
ATOM     46  C   UNL A   1      40.373  25.102  27.376  1.00  0.00     0.031 C 
ATOM     47  C   UNL A   1      43.002  30.145  28.928  1.00  0.00     0.029 A 
ATOM     48  C   UNL A   1      42.220  30.801  29.955  1.00  0.00     0.049 A 
ATOM     49  H   UNL A   1      40.104  31.056  29.812  1.00  0.00     0.167 HD
ATOM     50  C   UNL A   1      42.928  24.838  27.748  1.00  0.00     0.034 A 
ATOM     51  C   UNL A   1      42.668  31.133  31.197  1.00  0.00     0.034 A 
ATOM     52  C   UNL A   1      43.974  25.646  28.378  1.00  0.00     0.049 A 
ATOM     53  C   UNL A   1      43.734  30.193  31.715  1.00  0.00     0.074 A 
ATOM     54  C   UNL A   1      44.837  26.606  27.875  1.00  0.00     0.029 A 
ATOM     55  N   UNL A   1      44.082  25.712  29.762  1.00  0.00    -0.354 N 
ATOM     56  N   UNL A   1      44.170  29.158  31.054  1.00  0.00    -0.248 NA
ATOM     57  C   UNL A   1      44.322  30.272  33.052  1.00  0.00     0.031 C 
ATOM     58  C   UNL A   1      45.440  27.277  28.965  1.00  0.00     0.029 A 
ATOM     59  C   UNL A   1      44.946  26.732  30.137  1.00  0.00     0.049 A 
ATOM     60  H   UNL A   1      43.610  25.118  30.389  1.00  0.00     0.167 HD
ATOM     61  C   UNL A   1      44.876  28.340  31.896  1.00  0.00     0.074 A 
ATOM     62  C   UNL A   1      45.038  29.135  33.098  1.00  0.00     0.031 C 
ATOM     63  C   UNL A   1      45.174  27.053  31.547  1.00  0.00     0.034 A 
BRANCH  50  64
ATOM     64  C   UNL A   1      43.218  23.730  26.754  1.00  0.00     0.023 A 
ATOM     65  C   UNL A   1      42.975  22.368  27.025  1.00  0.00     0.031 A 
ATOM     66  C   UNL A   1      43.735  24.006  25.469  1.00  0.00     0.131 A 
ATOM     67  C   UNL A   1      43.104  21.383  26.027  1.00  0.00     0.055 A 
ATOM     68  C   UNL A   1      43.935  23.015  24.498  1.00  0.00     0.041 A 
ATOM     69  F   UNL A   1      44.039  25.253  25.079  1.00  0.00    -0.206 F 
ATOM     70  C   UNL A   1      43.590  21.699  24.763  1.00  0.00     0.022 A 
BRANCH  67  71
ATOM     71  S   UNL A   1      42.530  19.684  26.316  1.00  0.00     0.124 S 
ATOM     72  O   UNL A   1      43.724  18.896  26.015  1.00  0.00    -0.237 OA
ATOM     73  O   UNL A   1      42.142  19.716  27.722  1.00  0.00    -0.237 OA
ATOM     74  O   UNL A   1      41.435  19.521  25.361  1.00  0.00    -0.744 OA
ENDBRANCH  67  71
ENDBRANCH  50  64
BRANCH  51  75
ATOM     75  C   UNL A   1      41.680  31.845  32.037  1.00  0.00     0.023 A 
ATOM     76  C   UNL A   1      40.750  31.134  32.810  1.00  0.00     0.031 A 
ATOM     77  C   UNL A   1      41.413  33.191  31.722  1.00  0.00     0.131 A 
ATOM     78  C   UNL A   1      39.525  31.740  33.127  1.00  0.00     0.055 A 
ATOM     79  C   UNL A   1      40.197  33.788  32.049  1.00  0.00     0.041 A 
ATOM     80  F   UNL A   1      42.298  33.909  31.011  1.00  0.00    -0.206 F 
ATOM     81  C   UNL A   1      39.231  33.046  32.717  1.00  0.00     0.022 A 
BRANCH  78  82
ATOM     82  S   UNL A   1      38.199  30.786  33.917  1.00  0.00     0.124 S 
ATOM     83  O   UNL A   1      38.316  31.208  35.307  1.00  0.00    -0.237 OA
ATOM     84  O   UNL A   1      37.008  31.266  33.219  1.00  0.00    -0.237 OA
ATOM     85  O   UNL A   1      38.562  29.403  33.633  1.00  0.00    -0.744 OA
ENDBRANCH  78  82
ENDBRANCH  51  75
BRANCH  63  86
ATOM     86  C   UNL A   1      45.730  25.988  32.466  1.00  0.00     0.023 A 
ATOM     87  C   UNL A   1      44.823  25.174  33.188  1.00  0.00     0.031 A 
ATOM     88  C   UNL A   1      47.092  25.811  32.773  1.00  0.00     0.131 A 
ATOM     89  C   UNL A   1      45.271  24.248  34.142  1.00  0.00     0.055 A 
ATOM     90  C   UNL A   1      47.541  24.837  33.674  1.00  0.00     0.041 A 
ATOM     91  F   UNL A   1      48.041  26.611  32.269  1.00  0.00    -0.206 F 
ATOM     92  C   UNL A   1      46.630  24.057  34.371  1.00  0.00     0.022 A 
BRANCH  89  93
ATOM     93  S   UNL A   1      44.092  23.373  35.211  1.00  0.00     0.124 S 
ATOM     94  O   UNL A   1      43.050  24.380  35.389  1.00  0.00    -0.237 OA
ATOM     95  O   UNL A   1      43.716  22.226  34.386  1.00  0.00    -0.237 OA
ATOM     96  O   UNL A   1      44.875  23.052  36.397  1.00  0.00    -0.744 OA
ENDBRANCH  89  93
ENDBRANCH  63  86
ENDBRANCH  37  38
ENDBRANCH  30  32
ENDBRANCH  29  30
ENDBRANCH   1  29
TORSDOF 16
ENDMDL
MODEL 3
REMARK VINA RESULT:     -12.4      3.031      4.290
REMARK SMILES Cc1ccc(-c2cc(Cl)cc3c2O[C@H](C(F)(F)F)C(C(=O)OCCOC(=O)c2ccc(-c4c5nc(c(-c6cc(S(=O)(=O)[O-])ccc6F)c6ccc([nH]6)c(-c6cc(S(=O)(=O)[O-])ccc6F)c6nc(c(-c7cc(S(=O)(=O)[O-])ccc7F)c7ccc4[nH]7)C=C6)C=C5)cc2)=C3)cc1F
REMARK SMILES IDX 24 1 23 2 22 3 20 4 21 5 19 6 6 7 7 8 12 9 8 10 11 11 13 12
REMARK SMILES IDX 9 13 10 14 91 15 14 16 5 17 1 18 2 19 3 20 93 21 4 22 92 23
REMARK SMILES IDX 94 24 15 25 16 26 17 27 18 28 25 29 26 30 27 31 28 32 29 33
REMARK SMILES IDX 90 34 30 35 89 36 31 37 32 38 33 39 83 40 34 41 88 42 82 43
REMARK SMILES IDX 84 44 35 45 87 46 81 47 80 48 36 50 68 51 48 52 67 53 49 54
REMARK SMILES IDX 52 55 66 56 85 57 50 58 51 59 65 61 86 62 53 63 37 64 38 65
REMARK SMILES IDX 46 66 39 67 45 68 47 69 44 70 40 71 41 72 42 73 43 74 69 75
REMARK SMILES IDX 70 76 78 77 71 78 77 79 79 80 76 81 72 82 73 83 74 84 75 85
REMARK SMILES IDX 54 86 55 87 63 88 56 89 62 90 64 91 61 92 57 93 58 94 59 95
REMARK SMILES IDX 60 96
REMARK H PARENT 84 49 52 60
REMARK Flexibility Score: inf
ROOT
ATOM      1  C   UNL A   1      33.252  34.538  29.091  1.00  0.00     0.275 C 
ENDROOT
BRANCH   1   2
ATOM      2  C   UNL A   1      33.343  33.886  27.708  1.00  0.00     0.275 C 
BRANCH   2   3
ATOM      3  O   UNL A   1      32.678  32.603  27.678  1.00  0.00    -0.459 OA
BRANCH   3   4
ATOM      4  C   UNL A   1      33.422  31.561  27.216  1.00  0.00     0.338 C 
ATOM      5  O   UNL A   1      34.600  31.356  27.435  1.00  0.00    -0.246 OA
BRANCH   4   6
ATOM      6  C   UNL A   1      32.590  30.730  26.321  1.00  0.00     0.087 C 
ATOM      7  C   UNL A   1      30.559  28.448  23.444  1.00  0.00     0.026 A 
ATOM      8  C   UNL A   1      29.473  29.021  22.768  1.00  0.00     0.033 A 
ATOM      9  C   UNL A   1      31.216  29.206  24.440  1.00  0.00     0.135 A 
ATOM     10  C   UNL A   1      28.993  30.271  23.153  1.00  0.00     0.042 A 
ATOM     11  C   UNL A   1      30.711  30.440  24.849  1.00  0.00     0.019 A 
ATOM     12  O   UNL A   1      32.384  28.680  24.936  1.00  0.00    -0.475 OA
ATOM     13  Cl  UNL A   1      27.678  30.974  22.297  1.00  0.00    -0.084 Cl
ATOM     14  C   UNL A   1      29.570  30.954  24.222  1.00  0.00     0.032 A 
ATOM     15  C   UNL A   1      31.430  31.203  25.860  1.00  0.00     0.027 C 
ATOM     16  C   UNL A   1      33.061  29.345  26.028  1.00  0.00     0.316 C 
BRANCH   7  17
ATOM     17  C   UNL A   1      30.946  27.052  23.197  1.00  0.00    -0.012 A 
ATOM     18  C   UNL A   1      32.213  22.945  22.808  1.00  0.00     0.047 C 
ATOM     19  C   UNL A   1      31.753  24.366  22.898  1.00  0.00    -0.015 A 
ATOM     20  C   UNL A   1      32.159  25.337  21.973  1.00  0.00     0.007 A 
ATOM     21  C   UNL A   1      30.921  24.747  23.948  1.00  0.00     0.126 A 
ATOM     22  C   UNL A   1      31.756  26.670  22.120  1.00  0.00     0.009 A 
ATOM     23  C   UNL A   1      30.514  26.064  24.098  1.00  0.00     0.048 A 
ATOM     24  F   UNL A   1      30.517  23.837  24.846  1.00  0.00    -0.207 F 
ENDBRANCH   7  17
BRANCH  16  25
ATOM     25  C   UNL A   1      32.951  28.469  27.285  1.00  0.00     0.430 C 
ATOM     26  F   UNL A   1      31.876  28.827  28.031  1.00  0.00    -0.167 F 
ATOM     27  F   UNL A   1      32.777  27.163  26.973  1.00  0.00    -0.167 F 
ATOM     28  F   UNL A   1      34.037  28.564  28.083  1.00  0.00    -0.167 F 
ENDBRANCH  16  25
ENDBRANCH   4   6
ENDBRANCH   3   4
ENDBRANCH   2   3
ENDBRANCH   1   2
BRANCH   1  29
ATOM     29  O   UNL A   1      33.705  33.611  30.077  1.00  0.00    -0.458 OA
BRANCH  29  30
ATOM     30  C   UNL A   1      34.948  33.791  30.596  1.00  0.00     0.338 C 
ATOM     31  O   UNL A   1      35.275  34.491  31.523  1.00  0.00    -0.246 OA
BRANCH  30  32
ATOM     32  C   UNL A   1      35.731  32.664  30.045  1.00  0.00     0.060 A 
ATOM     33  C   UNL A   1      35.667  31.389  30.618  1.00  0.00     0.016 A 
ATOM     34  C   UNL A   1      36.767  33.011  29.186  1.00  0.00     0.016 A 
ATOM     35  C   UNL A   1      36.772  30.543  30.538  1.00  0.00     0.010 A 
ATOM     36  C   UNL A   1      37.834  32.139  29.067  1.00  0.00     0.010 A 
ATOM     37  C   UNL A   1      37.901  30.973  29.848  1.00  0.00    -0.014 A 
BRANCH  37  38
ATOM     38  C   UNL A   1      39.234  30.394  30.036  1.00  0.00     0.031 A 
ATOM     39  C   UNL A   1      39.636  29.125  29.397  1.00  0.00     0.074 A 
ATOM     40  C   UNL A   1      40.209  31.100  30.664  1.00  0.00     0.049 A 
ATOM     41  N   UNL A   1      40.594  28.379  29.839  1.00  0.00    -0.248 NA
ATOM     42  C   UNL A   1      38.989  28.600  28.205  1.00  0.00     0.031 C 
ATOM     43  C   UNL A   1      41.650  30.897  30.508  1.00  0.00     0.029 A 
ATOM     44  N   UNL A   1      40.124  32.100  31.628  1.00  0.00    -0.354 N 
ATOM     45  C   UNL A   1      40.875  27.448  28.869  1.00  0.00     0.074 A 
ATOM     46  C   UNL A   1      39.797  27.576  27.907  1.00  0.00     0.031 C 
ATOM     47  C   UNL A   1      42.293  31.530  31.497  1.00  0.00     0.029 A 
ATOM     48  C   UNL A   1      41.294  32.058  32.403  1.00  0.00     0.049 A 
ATOM     49  H   UNL A   1      39.374  32.727  31.747  1.00  0.00     0.167 HD
ATOM     50  C   UNL A   1      42.056  26.762  28.894  1.00  0.00     0.034 A 
ATOM     51  C   UNL A   1      41.350  31.997  33.762  1.00  0.00     0.034 A 
ATOM     52  C   UNL A   1      42.920  27.190  29.996  1.00  0.00     0.049 A 
ATOM     53  C   UNL A   1      42.090  30.780  34.272  1.00  0.00     0.074 A 
ATOM     54  C   UNL A   1      43.994  28.064  30.049  1.00  0.00     0.029 A 
ATOM     55  N   UNL A   1      42.584  26.905  31.314  1.00  0.00    -0.354 N 
ATOM     56  N   UNL A   1      42.607  29.869  33.497  1.00  0.00    -0.248 NA
ATOM     57  C   UNL A   1      42.221  30.430  35.687  1.00  0.00     0.031 C 
ATOM     58  C   UNL A   1      44.280  28.335  31.409  1.00  0.00     0.029 A 
ATOM     59  C   UNL A   1      43.381  27.629  32.189  1.00  0.00     0.049 A 
ATOM     60  H   UNL A   1      41.877  26.277  31.588  1.00  0.00     0.167 HD
ATOM     61  C   UNL A   1      42.916  28.759  34.237  1.00  0.00     0.074 A 
ATOM     62  C   UNL A   1      42.763  29.202  35.609  1.00  0.00     0.031 C 
ATOM     63  C   UNL A   1      43.176  27.558  33.637  1.00  0.00     0.034 A 
BRANCH  50  64
ATOM     64  C   UNL A   1      42.534  25.887  27.752  1.00  0.00     0.023 A 
ATOM     65  C   UNL A   1      42.299  24.498  27.693  1.00  0.00     0.031 A 
ATOM     66  C   UNL A   1      43.234  26.427  26.650  1.00  0.00     0.131 A 
ATOM     67  C   UNL A   1      42.614  23.745  26.548  1.00  0.00     0.055 A 
ATOM     68  C   UNL A   1      43.616  25.661  25.540  1.00  0.00     0.041 A 
ATOM     69  F   UNL A   1      43.551  27.728  26.580  1.00  0.00    -0.206 F 
ATOM     70  C   UNL A   1      43.279  24.319  25.469  1.00  0.00     0.022 A 
BRANCH  67  71
ATOM     71  S   UNL A   1      42.062  22.022  26.384  1.00  0.00     0.124 S 
ATOM     72  O   UNL A   1      40.635  22.177  26.107  1.00  0.00    -0.237 OA
ATOM     73  O   UNL A   1      42.865  21.538  25.267  1.00  0.00    -0.237 OA
ATOM     74  O   UNL A   1      42.371  21.434  27.686  1.00  0.00    -0.744 OA
ENDBRANCH  67  71
ENDBRANCH  50  64
BRANCH  51  75
ATOM     75  C   UNL A   1      40.223  32.660  34.455  1.00  0.00     0.023 A 
ATOM     76  C   UNL A   1      40.416  33.865  35.148  1.00  0.00     0.031 A 
ATOM     77  C   UNL A   1      39.099  31.872  34.764  1.00  0.00     0.131 A 
ATOM     78  C   UNL A   1      39.564  34.178  36.217  1.00  0.00     0.055 A 
ATOM     79  C   UNL A   1      38.252  32.194  35.822  1.00  0.00     0.041 A 
ATOM     80  F   UNL A   1      38.869  30.729  34.098  1.00  0.00    -0.206 F 
ATOM     81  C   UNL A   1      38.510  33.331  36.581  1.00  0.00     0.022 A 
BRANCH  78  82
ATOM     82  S   UNL A   1      39.912  35.598  37.291  1.00  0.00     0.124 S 
ATOM     83  O   UNL A   1      38.931  35.414  38.354  1.00  0.00    -0.237 OA
ATOM     84  O   UNL A   1      41.301  35.366  37.680  1.00  0.00    -0.237 OA
ATOM     85  O   UNL A   1      39.702  36.744  36.415  1.00  0.00    -0.744 OA
ENDBRANCH  78  82
ENDBRANCH  51  75
BRANCH  63  86
ATOM     86  C   UNL A   1      43.294  26.222  34.336  1.00  0.00     0.023 A 
ATOM     87  C   UNL A   1      44.546  25.559  34.323  1.00  0.00     0.031 A 
ATOM     88  C   UNL A   1      42.225  25.502  34.898  1.00  0.00     0.131 A 
ATOM     89  C   UNL A   1      44.696  24.268  34.850  1.00  0.00     0.055 A 
ATOM     90  C   UNL A   1      42.391  24.242  35.488  1.00  0.00     0.041 A 
ATOM     91  F   UNL A   1      40.964  25.952  34.847  1.00  0.00    -0.206 F 
ATOM     92  C   UNL A   1      43.627  23.614  35.457  1.00  0.00     0.022 A 
BRANCH  89  93
ATOM     93  S   UNL A   1      46.247  23.349  34.629  1.00  0.00     0.124 S 
ATOM     94  O   UNL A   1      46.701  23.199  36.009  1.00  0.00    -0.237 OA
ATOM     95  O   UNL A   1      45.790  22.118  33.986  1.00  0.00    -0.237 OA
ATOM     96  O   UNL A   1      47.050  24.225  33.787  1.00  0.00    -0.744 OA
ENDBRANCH  89  93
ENDBRANCH  63  86
ENDBRANCH  37  38
ENDBRANCH  30  32
ENDBRANCH  29  30
ENDBRANCH   1  29
TORSDOF 16
ENDMDL
