MODEL 1
REMARK VINA RESULT:      -9.9      0.000      0.000
REMARK SMILES O=C(CCCc1ccc2c(c1Br)C=CC2)OCCOC(=O)c1ccc(-c2c3nc(c(-c4cc(S(=O)(=O)[O-])ccc4F)c4ccc([nH]4)c(-c4cc(S(=O)(=O)[O-])ccc4F)c4nc(c(-c5cc(S(=O)(=O)[O-])ccc5F)c5ccc2[nH]5)C=C4)C=C3)cc1
REMARK SMILES IDX 17 1 16 2 2 3 1 4 3 5 4 6 5 7 6 8 7 9 11 10 8 11 10 12 12 13
REMARK SMILES IDX 9 14 13 15 15 16 14 17 18 18 19 19 20 20 21 21 22 22 23 23
REMARK SMILES IDX 84 24 24 25 83 26 25 27 26 28 27 29 77 30 28 31 82 32 76 33
REMARK SMILES IDX 78 34 29 35 81 36 75 37 74 38 30 40 62 41 42 42 61 43 43 44
REMARK SMILES IDX 46 45 60 46 79 47 44 48 45 49 59 51 80 52 47 53 31 54 32 55
REMARK SMILES IDX 40 56 33 57 39 58 41 59 38 60 34 61 35 62 36 63 37 64 63 65
REMARK SMILES IDX 64 66 72 67 65 68 71 69 73 70 70 71 66 72 67 73 68 74 69 75
REMARK SMILES IDX 48 76 49 77 57 78 50 79 56 80 58 81 55 82 51 83 52 84 53 85
REMARK SMILES IDX 54 86
REMARK H PARENT 78 39 46 50
REMARK Flexibility Score: inf
ROOT
ATOM      1  C   UNL A   1      34.150  34.886  29.061  1.00  0.00     0.274 C 
ENDROOT
BRANCH   1   2
ATOM      2  O   UNL A   1      33.032  34.913  29.965  1.00  0.00    -0.462 OA
BRANCH   2   3
ATOM      3  C   UNL A   1      32.915  35.907  30.885  1.00  0.00     0.305 C 
ATOM      4  O   UNL A   1      32.651  37.055  30.537  1.00  0.00    -0.252 OA
BRANCH   3   5
ATOM      5  C   UNL A   1      33.280  35.571  32.313  1.00  0.00     0.123 C 
BRANCH   5   6
ATOM      6  C   UNL A   1      34.774  35.613  32.630  1.00  0.00     0.016 C 
BRANCH   6   7
ATOM      7  C   UNL A   1      35.514  34.264  32.720  1.00  0.00     0.037 C 
BRANCH   7   8
ATOM      8  C   UNL A   1      36.861  34.048  32.043  1.00  0.00    -0.033 A 
ATOM      9  C   UNL A   1      36.805  33.584  30.698  1.00  0.00     0.005 A 
ATOM     10  C   UNL A   1      38.130  34.265  32.619  1.00  0.00     0.028 A 
ATOM     11  C   UNL A   1      37.946  33.457  29.901  1.00  0.00     0.005 A 
ATOM     12  C   UNL A   1      39.260  34.202  31.799  1.00  0.00    -0.008 A 
ATOM     13  Br  UNL A   1      38.378  34.574  34.476  1.00  0.00    -0.050 Br
ATOM     14  C   UNL A   1      39.159  33.807  30.456  1.00  0.00    -0.036 A 
ATOM     15  C   UNL A   1      40.663  34.515  32.065  1.00  0.00     0.005 C 
ATOM     16  C   UNL A   1      40.508  33.823  29.805  1.00  0.00     0.063 C 
ATOM     17  C   UNL A   1      41.365  34.318  30.938  1.00  0.00    -0.022 C 
ENDBRANCH   7   8
ENDBRANCH   6   7
ENDBRANCH   5   6
ENDBRANCH   3   5
ENDBRANCH   2   3
ENDBRANCH   1   2
BRANCH   1  18
ATOM     18  C   UNL A   1      33.921  33.986  27.846  1.00  0.00     0.275 C 
BRANCH  18  19
ATOM     19  O   UNL A   1      34.959  33.003  27.725  1.00  0.00    -0.458 OA
BRANCH  19  20
ATOM     20  C   UNL A   1      34.536  31.718  27.838  1.00  0.00     0.338 C 
ATOM     21  O   UNL A   1      33.409  31.305  27.643  1.00  0.00    -0.246 OA
BRANCH  20  22
ATOM     22  C   UNL A   1      35.698  30.833  28.080  1.00  0.00     0.060 A 
ATOM     23  C   UNL A   1      35.527  29.779  28.987  1.00  0.00     0.016 A 
ATOM     24  C   UNL A   1      36.934  31.037  27.460  1.00  0.00     0.016 A 
ATOM     25  C   UNL A   1      36.605  28.962  29.321  1.00  0.00     0.010 A 
ATOM     26  C   UNL A   1      38.017  30.219  27.798  1.00  0.00     0.010 A 
ATOM     27  C   UNL A   1      37.867  29.211  28.766  1.00  0.00    -0.014 A 
BRANCH  27  28
ATOM     28  C   UNL A   1      39.063  28.597  29.389  1.00  0.00     0.031 A 
ATOM     29  C   UNL A   1      39.513  29.132  30.720  1.00  0.00     0.074 A 
ATOM     30  C   UNL A   1      39.723  27.577  28.813  1.00  0.00     0.049 A 
ATOM     31  N   UNL A   1      40.499  28.738  31.480  1.00  0.00    -0.248 NA
ATOM     32  C   UNL A   1      38.747  30.268  31.265  1.00  0.00     0.031 C 
ATOM     33  C   UNL A   1      39.377  26.961  27.537  1.00  0.00     0.029 A 
ATOM     34  N   UNL A   1      40.834  26.886  29.235  1.00  0.00    -0.354 N 
ATOM     35  C   UNL A   1      40.476  29.578  32.586  1.00  0.00     0.074 A 
ATOM     36  C   UNL A   1      39.402  30.523  32.386  1.00  0.00     0.031 C 
ATOM     37  C   UNL A   1      40.262  25.983  27.274  1.00  0.00     0.029 A 
ATOM     38  C   UNL A   1      41.249  25.918  28.355  1.00  0.00     0.049 A 
ATOM     39  H   UNL A   1      41.288  27.068  30.089  1.00  0.00     0.167 HD
ATOM     40  C   UNL A   1      41.272  29.556  33.678  1.00  0.00     0.034 A 
ATOM     41  C   UNL A   1      42.307  25.080  28.410  1.00  0.00     0.034 A 
ATOM     42  C   UNL A   1      42.332  28.612  33.881  1.00  0.00     0.049 A 
ATOM     43  C   UNL A   1      43.215  25.102  29.619  1.00  0.00     0.074 A 
ATOM     44  C   UNL A   1      43.148  28.475  34.988  1.00  0.00     0.029 A 
ATOM     45  N   UNL A   1      42.734  27.659  32.959  1.00  0.00    -0.354 N 
ATOM     46  N   UNL A   1      43.120  25.830  30.707  1.00  0.00    -0.248 NA
ATOM     47  C   UNL A   1      44.369  24.188  29.615  1.00  0.00     0.031 C 
ATOM     48  C   UNL A   1      44.084  27.478  34.713  1.00  0.00     0.029 A 
ATOM     49  C   UNL A   1      43.815  26.955  33.457  1.00  0.00     0.049 A 
ATOM     50  H   UNL A   1      42.313  27.507  32.083  1.00  0.00     0.167 HD
ATOM     51  C   UNL A   1      44.182  25.447  31.523  1.00  0.00     0.074 A 
ATOM     52  C   UNL A   1      44.905  24.417  30.809  1.00  0.00     0.031 C 
ATOM     53  C   UNL A   1      44.519  25.908  32.754  1.00  0.00     0.034 A 
BRANCH  40  54
ATOM     54  C   UNL A   1      41.037  30.590  34.743  1.00  0.00     0.023 A 
ATOM     55  C   UNL A   1      39.867  30.536  35.520  1.00  0.00     0.031 A 
ATOM     56  C   UNL A   1      41.923  31.664  34.932  1.00  0.00     0.131 A 
ATOM     57  C   UNL A   1      39.607  31.551  36.447  1.00  0.00     0.055 A 
ATOM     58  C   UNL A   1      41.672  32.658  35.876  1.00  0.00     0.041 A 
ATOM     59  F   UNL A   1      43.056  31.747  34.215  1.00  0.00    -0.206 F 
ATOM     60  C   UNL A   1      40.505  32.607  36.634  1.00  0.00     0.022 A 
BRANCH  57  61
ATOM     61  S   UNL A   1      38.082  31.551  37.426  1.00  0.00     0.124 S 
ATOM     62  O   UNL A   1      37.665  30.154  37.333  1.00  0.00    -0.237 OA
ATOM     63  O   UNL A   1      38.564  31.971  38.739  1.00  0.00    -0.237 OA
ATOM     64  O   UNL A   1      37.219  32.502  36.735  1.00  0.00    -0.744 OA
ENDBRANCH  57  61
ENDBRANCH  40  54
BRANCH  41  65
ATOM     65  C   UNL A   1      42.525  24.118  27.293  1.00  0.00     0.023 A 
ATOM     66  C   UNL A   1      41.954  22.834  27.323  1.00  0.00     0.031 A 
ATOM     67  C   UNL A   1      43.382  24.440  26.228  1.00  0.00     0.131 A 
ATOM     68  C   UNL A   1      42.294  21.898  26.338  1.00  0.00     0.055 A 
ATOM     69  C   UNL A   1      43.675  23.522  25.218  1.00  0.00     0.041 A 
ATOM     70  F   UNL A   1      43.953  25.651  26.163  1.00  0.00    -0.206 F 
ATOM     71  C   UNL A   1      43.139  22.238  25.276  1.00  0.00     0.022 A 
BRANCH  68  72
ATOM     72  S   UNL A   1      41.706  20.185  26.443  1.00  0.00     0.124 S 
ATOM     73  O   UNL A   1      42.282  19.735  27.708  1.00  0.00    -0.237 OA
ATOM     74  O   UNL A   1      40.258  20.372  26.442  1.00  0.00    -0.237 OA
ATOM     75  O   UNL A   1      42.259  19.558  25.247  1.00  0.00    -0.744 OA
ENDBRANCH  68  72
ENDBRANCH  41  65
BRANCH  53  76
ATOM     76  C   UNL A   1      45.717  25.329  33.463  1.00  0.00     0.023 A 
ATOM     77  C   UNL A   1      47.012  25.752  33.102  1.00  0.00     0.031 A 
ATOM     78  C   UNL A   1      45.589  24.215  34.309  1.00  0.00     0.131 A 
ATOM     79  C   UNL A   1      48.127  25.022  33.530  1.00  0.00     0.055 A 
ATOM     80  C   UNL A   1      46.707  23.518  34.770  1.00  0.00     0.041 A 
ATOM     81  F   UNL A   1      44.376  23.770  34.669  1.00  0.00    -0.206 F 
ATOM     82  C   UNL A   1      47.982  23.910  34.366  1.00  0.00     0.022 A 
BRANCH  79  83
ATOM     83  S   UNL A   1      49.794  25.435  32.945  1.00  0.00     0.124 S 
ATOM     84  O   UNL A   1      50.430  25.936  34.161  1.00  0.00    -0.237 OA
ATOM     85  O   UNL A   1      50.280  24.142  32.473  1.00  0.00    -0.237 OA
ATOM     86  O   UNL A   1      49.564  26.439  31.911  1.00  0.00    -0.744 OA
ENDBRANCH  79  83
ENDBRANCH  53  76
ENDBRANCH  27  28
ENDBRANCH  20  22
ENDBRANCH  19  20
ENDBRANCH  18  19
ENDBRANCH   1  18
TORSDOF 17
ENDMDL
MODEL 2
REMARK VINA RESULT:      -9.9      5.220     11.306
REMARK SMILES O=C(CCCc1ccc2c(c1Br)C=CC2)OCCOC(=O)c1ccc(-c2c3nc(c(-c4cc(S(=O)(=O)[O-])ccc4F)c4ccc([nH]4)c(-c4cc(S(=O)(=O)[O-])ccc4F)c4nc(c(-c5cc(S(=O)(=O)[O-])ccc5F)c5ccc2[nH]5)C=C4)C=C3)cc1
REMARK SMILES IDX 17 1 16 2 2 3 1 4 3 5 4 6 5 7 6 8 7 9 11 10 8 11 10 12 12 13
REMARK SMILES IDX 9 14 13 15 15 16 14 17 18 18 19 19 20 20 21 21 22 22 23 23
REMARK SMILES IDX 84 24 24 25 83 26 25 27 26 28 27 29 77 30 28 31 82 32 76 33
REMARK SMILES IDX 78 34 29 35 81 36 75 37 74 38 30 40 62 41 42 42 61 43 43 44
REMARK SMILES IDX 46 45 60 46 79 47 44 48 45 49 59 51 80 52 47 53 31 54 32 55
REMARK SMILES IDX 40 56 33 57 39 58 41 59 38 60 34 61 35 62 36 63 37 64 63 65
REMARK SMILES IDX 64 66 72 67 65 68 71 69 73 70 70 71 66 72 67 73 68 74 69 75
REMARK SMILES IDX 48 76 49 77 57 78 50 79 56 80 58 81 55 82 51 83 52 84 53 85
REMARK SMILES IDX 54 86
REMARK H PARENT 78 39 46 50
REMARK Flexibility Score: inf
ROOT
ATOM      1  C   UNL A   1      35.988  20.843  25.083  1.00  0.00     0.274 C 
ENDROOT
BRANCH   1   2
ATOM      2  O   UNL A   1      35.728  21.511  26.331  1.00  0.00    -0.462 OA
BRANCH   2   3
ATOM      3  C   UNL A   1      34.987  22.650  26.360  1.00  0.00     0.305 C 
ATOM      4  O   UNL A   1      33.906  22.679  26.939  1.00  0.00    -0.252 OA
BRANCH   3   5
ATOM      5  C   UNL A   1      35.474  23.811  25.521  1.00  0.00     0.123 C 
BRANCH   5   6
ATOM      6  C   UNL A   1      34.378  24.612  24.820  1.00  0.00     0.016 C 
BRANCH   6   7
ATOM      7  C   UNL A   1      34.096  26.032  25.347  1.00  0.00     0.037 C 
BRANCH   7   8
ATOM      8  C   UNL A   1      33.109  26.959  24.649  1.00  0.00    -0.033 A 
ATOM      9  C   UNL A   1      33.689  28.016  23.891  1.00  0.00     0.005 A 
ATOM     10  C   UNL A   1      31.702  26.862  24.686  1.00  0.00     0.028 A 
ATOM     11  C   UNL A   1      32.926  28.873  23.095  1.00  0.00     0.005 A 
ATOM     12  C   UNL A   1      30.950  27.676  23.835  1.00  0.00    -0.008 A 
ATOM     13  Br  UNL A   1      30.781  25.718  25.889  1.00  0.00    -0.050 Br
ATOM     14  C   UNL A   1      31.564  28.664  23.049  1.00  0.00    -0.036 A 
ATOM     15  C   UNL A   1      29.518  27.705  23.545  1.00  0.00     0.005 C 
ATOM     16  C   UNL A   1      30.539  29.392  22.234  1.00  0.00     0.063 C 
ATOM     17  C   UNL A   1      29.287  28.659  22.630  1.00  0.00    -0.022 C 
ENDBRANCH   7   8
ENDBRANCH   6   7
ENDBRANCH   5   6
ENDBRANCH   3   5
ENDBRANCH   2   3
ENDBRANCH   1   2
BRANCH   1  18
ATOM     18  C   UNL A   1      37.408  20.282  24.984  1.00  0.00     0.275 C 
BRANCH  18  19
ATOM     19  O   UNL A   1      38.387  21.324  25.106  1.00  0.00    -0.458 OA
BRANCH  19  20
ATOM     20  C   UNL A   1      39.376  21.069  26.001  1.00  0.00     0.338 C 
ATOM     21  O   UNL A   1      39.987  20.026  26.128  1.00  0.00    -0.246 OA
BRANCH  20  22
ATOM     22  C   UNL A   1      39.734  22.316  26.713  1.00  0.00     0.060 A 
ATOM     23  C   UNL A   1      39.004  23.469  26.399  1.00  0.00     0.016 A 
ATOM     24  C   UNL A   1      40.772  22.370  27.647  1.00  0.00     0.016 A 
ATOM     25  C   UNL A   1      39.347  24.691  26.973  1.00  0.00     0.010 A 
ATOM     26  C   UNL A   1      41.118  23.598  28.221  1.00  0.00     0.010 A 
ATOM     27  C   UNL A   1      40.438  24.769  27.848  1.00  0.00    -0.014 A 
BRANCH  27  28
ATOM     28  C   UNL A   1      41.021  26.096  28.158  1.00  0.00     0.031 A 
ATOM     29  C   UNL A   1      42.427  26.368  27.699  1.00  0.00     0.074 A 
ATOM     30  C   UNL A   1      40.326  27.048  28.804  1.00  0.00     0.049 A 
ATOM     31  N   UNL A   1      43.139  27.458  27.812  1.00  0.00    -0.248 NA
ATOM     32  C   UNL A   1      43.124  25.260  27.022  1.00  0.00     0.031 C 
ATOM     33  C   UNL A   1      38.956  26.912  29.284  1.00  0.00     0.029 A 
ATOM     34  N   UNL A   1      40.692  28.321  29.172  1.00  0.00    -0.354 N 
ATOM     35  C   UNL A   1      44.365  27.165  27.229  1.00  0.00     0.074 A 
ATOM     36  C   UNL A   1      44.315  25.790  26.791  1.00  0.00     0.031 C 
ATOM     37  C   UNL A   1      38.593  28.058  29.890  1.00  0.00     0.029 A 
ATOM     38  C   UNL A   1      39.715  29.000  29.858  1.00  0.00     0.049 A 
ATOM     39  H   UNL A   1      41.571  28.710  28.962  1.00  0.00     0.167 HD
ATOM     40  C   UNL A   1      45.434  27.975  27.061  1.00  0.00     0.034 A 
ATOM     41  C   UNL A   1      39.725  30.235  30.403  1.00  0.00     0.034 A 
ATOM     42  C   UNL A   1      45.479  29.343  27.487  1.00  0.00     0.049 A 
ATOM     43  C   UNL A   1      40.948  31.110  30.246  1.00  0.00     0.074 A 
ATOM     44  C   UNL A   1      46.499  30.258  27.301  1.00  0.00     0.029 A 
ATOM     45  N   UNL A   1      44.479  29.989  28.195  1.00  0.00    -0.354 N 
ATOM     46  N   UNL A   1      42.063  30.859  29.601  1.00  0.00    -0.248 NA
ATOM     47  C   UNL A   1      40.917  32.436  30.884  1.00  0.00     0.031 C 
ATOM     48  C   UNL A   1      46.140  31.441  27.947  1.00  0.00     0.029 A 
ATOM     49  C   UNL A   1      44.873  31.282  28.488  1.00  0.00     0.049 A 
ATOM     50  H   UNL A   1      43.617  29.588  28.450  1.00  0.00     0.167 HD
ATOM     51  C   UNL A   1      42.852  32.000  29.733  1.00  0.00     0.074 A 
ATOM     52  C   UNL A   1      42.087  32.947  30.515  1.00  0.00     0.031 C 
ATOM     53  C   UNL A   1      44.096  32.235  29.245  1.00  0.00     0.034 A 
BRANCH  40  54
ATOM     54  C   UNL A   1      46.653  27.404  26.394  1.00  0.00     0.023 A 
ATOM     55  C   UNL A   1      47.674  26.836  27.177  1.00  0.00     0.031 A 
ATOM     56  C   UNL A   1      46.839  27.492  25.005  1.00  0.00     0.131 A 
ATOM     57  C   UNL A   1      48.847  26.389  26.562  1.00  0.00     0.055 A 
ATOM     58  C   UNL A   1      47.999  27.019  24.393  1.00  0.00     0.041 A 
ATOM     59  F   UNL A   1      45.883  28.019  24.222  1.00  0.00    -0.206 F 
ATOM     60  C   UNL A   1      49.013  26.471  25.175  1.00  0.00     0.022 A 
BRANCH  57  61
ATOM     61  S   UNL A   1      50.211  25.706  27.539  1.00  0.00     0.124 S 
ATOM     62  O   UNL A   1      50.102  26.468  28.781  1.00  0.00    -0.237 OA
ATOM     63  O   UNL A   1      49.840  24.297  27.637  1.00  0.00    -0.237 OA
ATOM     64  O   UNL A   1      51.397  25.994  26.739  1.00  0.00    -0.744 OA
ENDBRANCH  57  61
ENDBRANCH  40  54
BRANCH  41  65
ATOM     65  C   UNL A   1      38.507  30.723  31.108  1.00  0.00     0.023 A 
ATOM     66  C   UNL A   1      37.478  31.377  30.406  1.00  0.00     0.031 A 
ATOM     67  C   UNL A   1      38.399  30.624  32.505  1.00  0.00     0.131 A 
ATOM     68  C   UNL A   1      36.416  31.958  31.110  1.00  0.00     0.055 A 
ATOM     69  C   UNL A   1      37.310  31.157  33.197  1.00  0.00     0.041 A 
ATOM     70  F   UNL A   1      39.359  30.014  33.215  1.00  0.00    -0.206 F 
ATOM     71  C   UNL A   1      36.316  31.839  32.500  1.00  0.00     0.022 A 
BRANCH  68  72
ATOM     72  S   UNL A   1      35.165  32.950  30.249  1.00  0.00     0.124 S 
ATOM     73  O   UNL A   1      34.607  31.991  29.299  1.00  0.00    -0.237 OA
ATOM     74  O   UNL A   1      34.284  33.331  31.350  1.00  0.00    -0.237 OA
ATOM     75  O   UNL A   1      35.937  34.037  29.657  1.00  0.00    -0.744 OA
ENDBRANCH  68  72
ENDBRANCH  41  65
BRANCH  53  76
ATOM     76  C   UNL A   1      44.758  33.565  29.506  1.00  0.00     0.023 A 
ATOM     77  C   UNL A   1      44.713  34.571  28.521  1.00  0.00     0.031 A 
ATOM     78  C   UNL A   1      45.612  33.745  30.607  1.00  0.00     0.131 A 
ATOM     79  C   UNL A   1      45.560  35.681  28.621  1.00  0.00     0.055 A 
ATOM     80  C   UNL A   1      46.421  34.876  30.724  1.00  0.00     0.041 A 
ATOM     81  F   UNL A   1      45.696  32.807  31.563  1.00  0.00    -0.206 F 
ATOM     82  C   UNL A   1      46.411  35.841  29.720  1.00  0.00     0.022 A 
BRANCH  79  83
ATOM     83  S   UNL A   1      45.653  36.908  27.287  1.00  0.00     0.124 S 
ATOM     84  O   UNL A   1      46.668  37.830  27.788  1.00  0.00    -0.237 OA
ATOM     85  O   UNL A   1      46.059  36.089  26.149  1.00  0.00    -0.237 OA
ATOM     86  O   UNL A   1      44.302  37.455  27.220  1.00  0.00    -0.744 OA
ENDBRANCH  79  83
ENDBRANCH  53  76
ENDBRANCH  27  28
ENDBRANCH  20  22
ENDBRANCH  19  20
ENDBRANCH  18  19
ENDBRANCH   1  18
TORSDOF 17
ENDMDL
MODEL 3
REMARK VINA RESULT:      -9.8      6.213     12.206
REMARK SMILES O=C(CCCc1ccc2c(c1Br)C=CC2)OCCOC(=O)c1ccc(-c2c3nc(c(-c4cc(S(=O)(=O)[O-])ccc4F)c4ccc([nH]4)c(-c4cc(S(=O)(=O)[O-])ccc4F)c4nc(c(-c5cc(S(=O)(=O)[O-])ccc5F)c5ccc2[nH]5)C=C4)C=C3)cc1
REMARK SMILES IDX 17 1 16 2 2 3 1 4 3 5 4 6 5 7 6 8 7 9 11 10 8 11 10 12 12 13
REMARK SMILES IDX 9 14 13 15 15 16 14 17 18 18 19 19 20 20 21 21 22 22 23 23
REMARK SMILES IDX 84 24 24 25 83 26 25 27 26 28 27 29 77 30 28 31 82 32 76 33
REMARK SMILES IDX 78 34 29 35 81 36 75 37 74 38 30 40 62 41 42 42 61 43 43 44
REMARK SMILES IDX 46 45 60 46 79 47 44 48 45 49 59 51 80 52 47 53 31 54 32 55
REMARK SMILES IDX 40 56 33 57 39 58 41 59 38 60 34 61 35 62 36 63 37 64 63 65
REMARK SMILES IDX 64 66 72 67 65 68 71 69 73 70 70 71 66 72 67 73 68 74 69 75
REMARK SMILES IDX 48 76 49 77 57 78 50 79 56 80 58 81 55 82 51 83 52 84 53 85
REMARK SMILES IDX 54 86
REMARK H PARENT 78 39 46 50
REMARK Flexibility Score: inf
ROOT
ATOM      1  C   UNL A   1      36.416  21.133  24.998  1.00  0.00     0.274 C 
ENDROOT
BRANCH   1   2
ATOM      2  O   UNL A   1      36.409  22.403  25.673  1.00  0.00    -0.462 OA
BRANCH   2   3
ATOM      3  C   UNL A   1      35.878  23.500  25.071  1.00  0.00     0.305 C 
ATOM      4  O   UNL A   1      35.517  24.466  25.736  1.00  0.00    -0.252 OA
BRANCH   3   5
ATOM      5  C   UNL A   1      35.607  23.407  23.586  1.00  0.00     0.123 C 
BRANCH   5   6
ATOM      6  C   UNL A   1      34.307  24.059  23.119  1.00  0.00     0.016 C 
BRANCH   6   7
ATOM      7  C   UNL A   1      32.992  23.517  23.714  1.00  0.00     0.037 C 
BRANCH   7   8
ATOM      8  C   UNL A   1      32.700  22.023  23.768  1.00  0.00    -0.033 A 
ATOM      9  C   UNL A   1      32.326  21.425  22.531  1.00  0.00     0.005 A 
ATOM     10  C   UNL A   1      32.767  21.200  24.911  1.00  0.00     0.028 A 
ATOM     11  C   UNL A   1      32.147  20.047  22.389  1.00  0.00     0.005 A 
ATOM     12  C   UNL A   1      32.654  19.816  24.750  1.00  0.00    -0.008 A 
ATOM     13  Br  UNL A   1      32.938  21.893  26.671  1.00  0.00    -0.050 Br
ATOM     14  C   UNL A   1      32.353  19.255  23.499  1.00  0.00    -0.036 A 
ATOM     15  C   UNL A   1      32.824  18.718  25.700  1.00  0.00     0.005 C 
ATOM     16  C   UNL A   1      32.289  17.761  23.600  1.00  0.00     0.063 C 
ATOM     17  C   UNL A   1      32.635  17.559  25.049  1.00  0.00    -0.022 C 
ENDBRANCH   7   8
ENDBRANCH   6   7
ENDBRANCH   5   6
ENDBRANCH   3   5
ENDBRANCH   2   3
ENDBRANCH   1   2
BRANCH   1  18
ATOM     18  C   UNL A   1      37.742  20.383  25.139  1.00  0.00     0.275 C 
BRANCH  18  19
ATOM     19  O   UNL A   1      38.854  21.289  25.129  1.00  0.00    -0.458 OA
BRANCH  19  20
ATOM     20  C   UNL A   1      39.762  21.081  26.117  1.00  0.00     0.338 C 
ATOM     21  O   UNL A   1      40.361  20.048  26.345  1.00  0.00    -0.246 OA
BRANCH  20  22
ATOM     22  C   UNL A   1      40.053  22.361  26.800  1.00  0.00     0.060 A 
ATOM     23  C   UNL A   1      39.379  23.502  26.346  1.00  0.00     0.016 A 
ATOM     24  C   UNL A   1      40.980  22.458  27.842  1.00  0.00     0.016 A 
ATOM     25  C   UNL A   1      39.671  24.750  26.891  1.00  0.00     0.010 A 
ATOM     26  C   UNL A   1      41.276  23.712  28.386  1.00  0.00     0.010 A 
ATOM     27  C   UNL A   1      40.658  24.867  27.878  1.00  0.00    -0.014 A 
BRANCH  27  28
ATOM     28  C   UNL A   1      41.219  26.204  28.183  1.00  0.00     0.031 A 
ATOM     29  C   UNL A   1      42.610  26.507  27.697  1.00  0.00     0.074 A 
ATOM     30  C   UNL A   1      40.518  27.138  28.847  1.00  0.00     0.049 A 
ATOM     31  N   UNL A   1      43.301  27.610  27.801  1.00  0.00    -0.248 NA
ATOM     32  C   UNL A   1      43.316  25.416  27.001  1.00  0.00     0.031 C 
ATOM     33  C   UNL A   1      39.160  26.972  29.354  1.00  0.00     0.029 A 
ATOM     34  N   UNL A   1      40.864  28.417  29.213  1.00  0.00    -0.354 N 
ATOM     35  C   UNL A   1      44.521  27.345  27.193  1.00  0.00     0.074 A 
ATOM     36  C   UNL A   1      44.491  25.971  26.750  1.00  0.00     0.031 C 
ATOM     37  C   UNL A   1      38.786  28.107  29.972  1.00  0.00     0.029 A 
ATOM     38  C   UNL A   1      39.888  29.073  29.922  1.00  0.00     0.049 A 
ATOM     39  H   UNL A   1      41.731  28.825  28.988  1.00  0.00     0.167 HD
ATOM     40  C   UNL A   1      45.570  28.177  27.008  1.00  0.00     0.034 A 
ATOM     41  C   UNL A   1      39.884  30.306  30.472  1.00  0.00     0.034 A 
ATOM     42  C   UNL A   1      45.596  29.545  27.439  1.00  0.00     0.049 A 
ATOM     43  C   UNL A   1      41.085  31.206  30.295  1.00  0.00     0.074 A 
ATOM     44  C   UNL A   1      46.592  30.481  27.237  1.00  0.00     0.029 A 
ATOM     45  N   UNL A   1      44.596  30.167  28.169  1.00  0.00    -0.354 N 
ATOM     46  N   UNL A   1      42.192  30.981  29.627  1.00  0.00    -0.248 NA
ATOM     47  C   UNL A   1      41.040  32.529  30.940  1.00  0.00     0.031 C 
ATOM     48  C   UNL A   1      46.222  31.654  27.895  1.00  0.00     0.029 A 
ATOM     49  C   UNL A   1      44.969  31.466  28.461  1.00  0.00     0.049 A 
ATOM     50  H   UNL A   1      43.748  29.747  28.439  1.00  0.00     0.167 HD
ATOM     51  C   UNL A   1      42.960  32.137  29.749  1.00  0.00     0.074 A 
ATOM     52  C   UNL A   1      42.192  33.065  30.550  1.00  0.00     0.031 C 
ATOM     53  C   UNL A   1      44.189  32.400  29.237  1.00  0.00     0.034 A 
BRANCH  40  54
ATOM     54  C   UNL A   1      46.787  27.634  26.314  1.00  0.00     0.023 A 
ATOM     55  C   UNL A   1      46.991  27.907  24.950  1.00  0.00     0.031 A 
ATOM     56  C   UNL A   1      47.694  26.790  26.976  1.00  0.00     0.131 A 
ATOM     57  C   UNL A   1      48.075  27.326  24.285  1.00  0.00     0.055 A 
ATOM     58  C   UNL A   1      48.788  26.235  26.315  1.00  0.00     0.041 A 
ATOM     59  F   UNL A   1      47.538  26.512  28.281  1.00  0.00    -0.206 F 
ATOM     60  C   UNL A   1      48.978  26.497  24.961  1.00  0.00     0.022 A 
BRANCH  57  61
ATOM     61  S   UNL A   1      48.342  27.604  22.515  1.00  0.00     0.124 S 
ATOM     62  O   UNL A   1      48.389  26.237  22.000  1.00  0.00    -0.237 OA
ATOM     63  O   UNL A   1      47.155  28.369  22.145  1.00  0.00    -0.237 OA
ATOM     64  O   UNL A   1      49.606  28.330  22.458  1.00  0.00    -0.744 OA
ENDBRANCH  57  61
ENDBRANCH  40  54
BRANCH  41  65
ATOM     65  C   UNL A   1      38.670  30.765  31.203  1.00  0.00     0.023 A 
ATOM     66  C   UNL A   1      37.583  31.335  30.516  1.00  0.00     0.031 A 
ATOM     67  C   UNL A   1      38.620  30.726  32.606  1.00  0.00     0.131 A 
ATOM     68  C   UNL A   1      36.520  31.895  31.235  1.00  0.00     0.055 A 
ATOM     69  C   UNL A   1      37.533  31.236  33.318  1.00  0.00     0.041 A 
ATOM     70  F   UNL A   1      39.637  30.197  33.303  1.00  0.00    -0.206 F 
ATOM     71  C   UNL A   1      36.480  31.836  32.632  1.00  0.00     0.022 A 
BRANCH  68  72
ATOM     72  S   UNL A   1      35.189  32.784  30.382  1.00  0.00     0.124 S 
ATOM     73  O   UNL A   1      35.848  34.024  29.981  1.00  0.00    -0.237 OA
ATOM     74  O   UNL A   1      34.870  31.861  29.296  1.00  0.00    -0.237 OA
ATOM     75  O   UNL A   1      34.160  32.927  31.407  1.00  0.00    -0.744 OA
ENDBRANCH  68  72
ENDBRANCH  41  65
BRANCH  53  76
ATOM     76  C   UNL A   1      44.829  33.742  29.492  1.00  0.00     0.023 A 
ATOM     77  C   UNL A   1      44.587  34.808  28.603  1.00  0.00     0.031 A 
ATOM     78  C   UNL A   1      45.837  33.892  30.458  1.00  0.00     0.131 A 
ATOM     79  C   UNL A   1      45.393  35.951  28.654  1.00  0.00     0.055 A 
ATOM     80  C   UNL A   1      46.607  35.053  30.532  1.00  0.00     0.041 A 
ATOM     81  F   UNL A   1      46.110  32.897  31.317  1.00  0.00    -0.206 F 
ATOM     82  C   UNL A   1      46.399  36.082  29.617  1.00  0.00     0.022 A 
BRANCH  79  83
ATOM     83  S   UNL A   1      45.223  37.268  27.417  1.00  0.00     0.124 S 
ATOM     84  O   UNL A   1      45.550  38.462  28.193  1.00  0.00    -0.237 OA
ATOM     85  O   UNL A   1      46.217  36.880  26.420  1.00  0.00    -0.237 OA
ATOM     86  O   UNL A   1      43.831  37.171  26.990  1.00  0.00    -0.744 OA
ENDBRANCH  79  83
ENDBRANCH  53  76
ENDBRANCH  27  28
ENDBRANCH  20  22
ENDBRANCH  19  20
ENDBRANCH  18  19
ENDBRANCH   1  18
TORSDOF 17
ENDMDL
