MODEL 1
REMARK VINA RESULT:     -11.7      0.000      0.000
REMARK SMILES CCCN1CCC[C@@]2(CCN(c3ccc(C(=O)OCCOC(=O)c4ccc(-c5c6nc(c(-c7cc(S(=O)(=O)[O-])ccc7F)c7ccc([nH]7)c(-c7cc(S(=O)(=O)[O-])ccc7F)c7nc(c(-c8cc(S(=O)(=O)[O-])ccc8F)c8ccc5[nH]8)C=C7)C=C6)cc4)cn3)C2)C1=O
REMARK SMILES IDX 19 1 18 2 16 3 17 4 15 5 12 6 13 7 88 8 14 9 87 10 11 11
REMARK SMILES IDX 4 12 5 13 90 14 6 15 8 16 91 17 7 18 9 19 89 20 10 21 3 22
REMARK SMILES IDX 2 23 1 24 20 25 21 26 22 27 23 28 24 29 25 30 86 31 26 32
REMARK SMILES IDX 85 33 27 34 28 35 29 36 79 37 30 38 84 39 78 40 80 41 31 42
REMARK SMILES IDX 83 43 77 44 76 45 32 47 64 48 44 49 63 50 45 51 48 52 62 53
REMARK SMILES IDX 81 54 46 55 47 56 61 58 82 59 49 60 33 61 34 62 42 63 35 64
REMARK SMILES IDX 41 65 43 66 40 67 36 68 37 69 38 70 39 71 65 72 66 73 74 74
REMARK SMILES IDX 67 75 73 76 75 77 72 78 68 79 69 80 70 81 71 82 50 83 51 84
REMARK SMILES IDX 59 85 52 86 58 87 60 88 57 89 53 90 54 91 55 92 56 93
REMARK H PARENT 80 46 48 57
REMARK Flexibility Score: inf
ROOT
ATOM      1  C   UNL A   1      37.226  19.549  24.654  1.00  0.00     0.275 C 
ENDROOT
BRANCH   1   2
ATOM      2  O   UNL A   1      36.345  20.412  25.402  1.00  0.00    -0.458 OA
BRANCH   2   3
ATOM      3  C   UNL A   1      35.033  20.356  25.058  1.00  0.00     0.339 C 
ATOM      4  O   UNL A   1      34.464  19.425  24.519  1.00  0.00    -0.246 OA
BRANCH   3   5
ATOM      5  C   UNL A   1      34.337  21.585  25.475  1.00  0.00     0.078 A 
ATOM      6  C   UNL A   1      32.821  23.753  26.263  1.00  0.00     0.128 A 
ATOM      7  C   UNL A   1      33.840  23.919  25.321  1.00  0.00     0.048 A 
ATOM      8  N   UNL A   1      32.559  22.555  26.802  1.00  0.00    -0.238 NA
ATOM      9  C   UNL A   1      34.624  22.829  24.935  1.00  0.00     0.021 A 
ATOM     10  C   UNL A   1      33.290  21.503  26.379  1.00  0.00     0.129 A 
BRANCH   6  11
ATOM     11  N   UNL A   1      31.970  24.807  26.542  1.00  0.00    -0.356 N 
ATOM     12  N   UNL A   1      32.208  28.641  24.454  1.00  0.00    -0.342 N 
ATOM     13  C   UNL A   1      32.516  29.651  25.454  1.00  0.00     0.119 C 
ATOM     14  C   UNL A   1      31.266  27.647  24.716  1.00  0.00     0.230 C 
ATOM     15  C   UNL A   1      32.647  29.089  26.859  1.00  0.00     0.023 C 
ATOM     16  C   UNL A   1      31.322  27.070  26.135  1.00  0.00     0.069 C 
ATOM     17  O   UNL A   1      30.553  27.167  23.840  1.00  0.00    -0.274 OA
ATOM     18  C   UNL A   1      31.460  28.184  27.178  1.00  0.00     0.021 C 
ATOM     19  C   UNL A   1      30.107  26.160  26.424  1.00  0.00     0.040 C 
ATOM     20  C   UNL A   1      32.535  26.105  26.182  1.00  0.00     0.135 C 
ATOM     21  C   UNL A   1      30.598  24.761  26.047  1.00  0.00     0.119 C 
BRANCH  12  22
ATOM     22  C   UNL A   1      32.642  28.842  23.072  1.00  0.00     0.119 C 
BRANCH  22  23
ATOM     23  C   UNL A   1      33.881  28.059  22.642  1.00  0.00     0.018 C 
ATOM     24  C   UNL A   1      33.563  26.693  22.055  1.00  0.00     0.006 C 
ENDBRANCH  22  23
ENDBRANCH  12  22
ENDBRANCH   6  11
ENDBRANCH   3   5
ENDBRANCH   2   3
ENDBRANCH   1   2
BRANCH   1  25
ATOM     25  C   UNL A   1      38.564  19.351  25.371  1.00  0.00     0.275 C 
BRANCH  25  26
ATOM     26  O   UNL A   1      39.196  20.615  25.647  1.00  0.00    -0.458 OA
BRANCH  26  27
ATOM     27  C   UNL A   1      40.125  20.579  26.630  1.00  0.00     0.338 C 
ATOM     28  O   UNL A   1      40.745  19.602  27.018  1.00  0.00    -0.246 OA
BRANCH  27  29
ATOM     29  C   UNL A   1      40.402  21.933  27.130  1.00  0.00     0.060 A 
ATOM     30  C   UNL A   1      39.767  22.988  26.492  1.00  0.00     0.016 A 
ATOM     31  C   UNL A   1      41.421  22.187  28.041  1.00  0.00     0.016 A 
ATOM     32  C   UNL A   1      40.254  24.282  26.619  1.00  0.00     0.010 A 
ATOM     33  C   UNL A   1      41.799  23.515  28.297  1.00  0.00     0.010 A 
ATOM     34  C   UNL A   1      41.252  24.580  27.554  1.00  0.00    -0.014 A 
BRANCH  34  35
ATOM     35  C   UNL A   1      41.702  25.995  27.735  1.00  0.00     0.031 A 
ATOM     36  C   UNL A   1      43.009  26.470  27.145  1.00  0.00     0.074 A 
ATOM     37  C   UNL A   1      40.926  26.868  28.414  1.00  0.00     0.049 A 
ATOM     38  N   UNL A   1      43.642  27.601  27.337  1.00  0.00    -0.248 NA
ATOM     39  C   UNL A   1      43.706  25.545  26.238  1.00  0.00     0.031 C 
ATOM     40  C   UNL A   1      39.617  26.562  28.998  1.00  0.00     0.029 A 
ATOM     41  N   UNL A   1      41.112  28.195  28.721  1.00  0.00    -0.354 N 
ATOM     42  C   UNL A   1      44.832  27.503  26.620  1.00  0.00     0.074 A 
ATOM     43  C   UNL A   1      44.840  26.191  26.007  1.00  0.00     0.031 C 
ATOM     44  C   UNL A   1      39.096  27.672  29.536  1.00  0.00     0.029 A 
ATOM     45  C   UNL A   1      40.083  28.740  29.458  1.00  0.00     0.049 A 
ATOM     46  H   UNL A   1      41.904  28.709  28.441  1.00  0.00     0.167 HD
ATOM     47  C   UNL A   1      45.823  28.422  26.489  1.00  0.00     0.034 A 
ATOM     48  C   UNL A   1      39.960  29.938  30.063  1.00  0.00     0.034 A 
ATOM     49  C   UNL A   1      45.773  29.743  27.076  1.00  0.00     0.049 A 
ATOM     50  C   UNL A   1      41.099  30.914  29.957  1.00  0.00     0.074 A 
ATOM     51  C   UNL A   1      46.708  30.761  26.984  1.00  0.00     0.029 A 
ATOM     52  N   UNL A   1      44.735  30.233  27.859  1.00  0.00    -0.354 N 
ATOM     53  N   UNL A   1      42.240  30.787  29.319  1.00  0.00    -0.248 NA
ATOM     54  C   UNL A   1      40.941  32.191  30.663  1.00  0.00     0.031 C 
ATOM     55  C   UNL A   1      46.276  31.829  27.777  1.00  0.00     0.029 A 
ATOM     56  C   UNL A   1      45.026  31.520  28.289  1.00  0.00     0.049 A 
ATOM     57  H   UNL A   1      43.912  29.739  28.078  1.00  0.00     0.167 HD
ATOM     58  C   UNL A   1      42.925  31.979  29.530  1.00  0.00     0.074 A 
ATOM     59  C   UNL A   1      42.058  32.819  30.329  1.00  0.00     0.031 C 
ATOM     60  C   UNL A   1      44.161  32.343  29.103  1.00  0.00     0.034 A 
BRANCH  47  61
ATOM     61  C   UNL A   1      47.073  28.014  25.741  1.00  0.00     0.023 A 
ATOM     62  C   UNL A   1      47.226  28.207  24.357  1.00  0.00     0.031 A 
ATOM     63  C   UNL A   1      48.138  27.409  26.438  1.00  0.00     0.131 A 
ATOM     64  C   UNL A   1      48.382  27.743  23.707  1.00  0.00     0.055 A 
ATOM     65  C   UNL A   1      49.319  27.025  25.800  1.00  0.00     0.041 A 
ATOM     66  F   UNL A   1      48.046  27.175  27.757  1.00  0.00    -0.206 F 
ATOM     67  C   UNL A   1      49.440  27.179  24.423  1.00  0.00     0.022 A 
BRANCH  64  68
ATOM     68  S   UNL A   1      48.429  27.759  21.893  1.00  0.00     0.124 S 
ATOM     69  O   UNL A   1      48.700  26.356  21.592  1.00  0.00    -0.237 OA
ATOM     70  O   UNL A   1      47.098  28.243  21.547  1.00  0.00    -0.237 OA
ATOM     71  O   UNL A   1      49.525  28.677  21.586  1.00  0.00    -0.744 OA
ENDBRANCH  64  68
ENDBRANCH  47  61
BRANCH  48  72
ATOM     72  C   UNL A   1      38.757  30.247  30.894  1.00  0.00     0.023 A 
ATOM     73  C   UNL A   1      37.673  30.969  30.368  1.00  0.00     0.031 A 
ATOM     74  C   UNL A   1      38.695  29.862  32.247  1.00  0.00     0.131 A 
ATOM     75  C   UNL A   1      36.599  31.321  31.200  1.00  0.00     0.055 A 
ATOM     76  C   UNL A   1      37.590  30.151  33.050  1.00  0.00     0.041 A 
ATOM     77  F   UNL A   1      39.705  29.179  32.809  1.00  0.00    -0.206 F 
ATOM     78  C   UNL A   1      36.540  30.899  32.531  1.00  0.00     0.022 A 
BRANCH  75  79
ATOM     79  S   UNL A   1      35.323  32.434  30.549  1.00  0.00     0.124 S 
ATOM     80  O   UNL A   1      34.306  32.361  31.591  1.00  0.00    -0.237 OA
ATOM     81  O   UNL A   1      36.047  33.697  30.445  1.00  0.00    -0.237 OA
ATOM     82  O   UNL A   1      34.957  31.822  29.273  1.00  0.00    -0.744 OA
ENDBRANCH  75  79
ENDBRANCH  48  72
BRANCH  60  83
ATOM     83  C   UNL A   1      44.621  33.735  29.466  1.00  0.00     0.023 A 
ATOM     84  C   UNL A   1      44.281  34.853  28.683  1.00  0.00     0.031 A 
ATOM     85  C   UNL A   1      45.442  33.940  30.589  1.00  0.00     0.131 A 
ATOM     86  C   UNL A   1      44.820  36.112  28.992  1.00  0.00     0.055 A 
ATOM     87  C   UNL A   1      45.914  35.207  30.934  1.00  0.00     0.041 A 
ATOM     88  F   UNL A   1      45.805  32.909  31.369  1.00  0.00    -0.206 F 
ATOM     89  C   UNL A   1      45.616  36.299  30.124  1.00  0.00     0.022 A 
BRANCH  86  90
ATOM     90  S   UNL A   1      44.565  37.476  27.824  1.00  0.00     0.124 S 
ATOM     91  O   UNL A   1      45.157  38.602  28.539  1.00  0.00    -0.237 OA
ATOM     92  O   UNL A   1      45.292  37.018  26.644  1.00  0.00    -0.237 OA
ATOM     93  O   UNL A   1      43.112  37.531  27.672  1.00  0.00    -0.744 OA
ENDBRANCH  86  90
ENDBRANCH  60  83
ENDBRANCH  34  35
ENDBRANCH  27  29
ENDBRANCH  26  27
ENDBRANCH  25  26
ENDBRANCH   1  25
TORSDOF 17
ENDMDL
MODEL 2
REMARK VINA RESULT:     -11.6      6.288     11.865
REMARK SMILES CCCN1CCC[C@@]2(CCN(c3ccc(C(=O)OCCOC(=O)c4ccc(-c5c6nc(c(-c7cc(S(=O)(=O)[O-])ccc7F)c7ccc([nH]7)c(-c7cc(S(=O)(=O)[O-])ccc7F)c7nc(c(-c8cc(S(=O)(=O)[O-])ccc8F)c8ccc5[nH]8)C=C7)C=C6)cc4)cn3)C2)C1=O
REMARK SMILES IDX 19 1 18 2 16 3 17 4 15 5 12 6 13 7 88 8 14 9 87 10 11 11
REMARK SMILES IDX 4 12 5 13 90 14 6 15 8 16 91 17 7 18 9 19 89 20 10 21 3 22
REMARK SMILES IDX 2 23 1 24 20 25 21 26 22 27 23 28 24 29 25 30 86 31 26 32
REMARK SMILES IDX 85 33 27 34 28 35 29 36 79 37 30 38 84 39 78 40 80 41 31 42
REMARK SMILES IDX 83 43 77 44 76 45 32 47 64 48 44 49 63 50 45 51 48 52 62 53
REMARK SMILES IDX 81 54 46 55 47 56 61 58 82 59 49 60 33 61 34 62 42 63 35 64
REMARK SMILES IDX 41 65 43 66 40 67 36 68 37 69 38 70 39 71 65 72 66 73 74 74
REMARK SMILES IDX 67 75 73 76 75 77 72 78 68 79 69 80 70 81 71 82 50 83 51 84
REMARK SMILES IDX 59 85 52 86 58 87 60 88 57 89 53 90 54 91 55 92 56 93
REMARK H PARENT 80 46 48 57
REMARK Flexibility Score: inf
ROOT
ATOM      1  C   UNL A   1      34.350  34.830  28.892  1.00  0.00     0.275 C 
ENDROOT
BRANCH   1   2
ATOM      2  O   UNL A   1      33.872  33.738  28.080  1.00  0.00    -0.458 OA
BRANCH   2   3
ATOM      3  C   UNL A   1      34.170  32.494  28.532  1.00  0.00     0.339 C 
ATOM      4  O   UNL A   1      34.788  32.218  29.544  1.00  0.00    -0.246 OA
BRANCH   3   5
ATOM      5  C   UNL A   1      33.589  31.470  27.647  1.00  0.00     0.078 A 
ATOM      6  C   UNL A   1      32.726  29.535  25.877  1.00  0.00     0.128 A 
ATOM      7  C   UNL A   1      31.890  30.605  26.204  1.00  0.00     0.048 A 
ATOM      8  N   UNL A   1      33.952  29.420  26.409  1.00  0.00    -0.238 NA
ATOM      9  C   UNL A   1      32.313  31.576  27.115  1.00  0.00     0.021 A 
ATOM     10  C   UNL A   1      34.366  30.394  27.246  1.00  0.00     0.129 A 
BRANCH   6  11
ATOM     11  N   UNL A   1      32.350  28.652  24.881  1.00  0.00    -0.356 N 
ATOM     12  N   UNL A   1      28.474  28.883  22.872  1.00  0.00    -0.342 N 
ATOM     13  C   UNL A   1      27.775  27.640  23.153  1.00  0.00     0.119 C 
ATOM     14  C   UNL A   1      29.827  28.877  22.540  1.00  0.00     0.230 C 
ATOM     15  C   UNL A   1      28.575  26.679  24.016  1.00  0.00     0.023 C 
ATOM     16  C   UNL A   1      30.681  27.894  23.350  1.00  0.00     0.069 C 
ATOM     17  O   UNL A   1      30.321  29.697  21.771  1.00  0.00    -0.274 OA
ATOM     18  C   UNL A   1      29.991  26.531  23.465  1.00  0.00     0.021 C 
ATOM     19  C   UNL A   1      32.107  27.770  22.766  1.00  0.00     0.040 C 
ATOM     20  C   UNL A   1      30.900  28.532  24.746  1.00  0.00     0.135 C 
ATOM     21  C   UNL A   1      32.915  28.808  23.545  1.00  0.00     0.119 C 
BRANCH  12  22
ATOM     22  C   UNL A   1      27.702  30.102  22.629  1.00  0.00     0.119 C 
BRANCH  22  23
ATOM     23  C   UNL A   1      27.902  31.230  23.640  1.00  0.00     0.018 C 
ATOM     24  C   UNL A   1      28.493  32.493  23.032  1.00  0.00     0.006 C 
ENDBRANCH  22  23
ENDBRANCH  12  22
ENDBRANCH   6  11
ENDBRANCH   3   5
ENDBRANCH   2   3
ENDBRANCH   1   2
BRANCH   1  25
ATOM     25  C   UNL A   1      33.198  35.696  29.408  1.00  0.00     0.275 C 
BRANCH  25  26
ATOM     26  O   UNL A   1      32.604  35.119  30.587  1.00  0.00    -0.458 OA
BRANCH  26  27
ATOM     27  C   UNL A   1      32.870  35.782  31.735  1.00  0.00     0.338 C 
ATOM     28  O   UNL A   1      32.301  36.775  32.158  1.00  0.00    -0.246 OA
BRANCH  27  29
ATOM     29  C   UNL A   1      33.898  35.076  32.513  1.00  0.00     0.060 A 
ATOM     30  C   UNL A   1      35.172  35.623  32.525  1.00  0.00     0.016 A 
ATOM     31  C   UNL A   1      33.685  33.802  33.027  1.00  0.00     0.016 A 
ATOM     32  C   UNL A   1      36.267  34.846  32.882  1.00  0.00     0.010 A 
ATOM     33  C   UNL A   1      34.773  33.081  33.548  1.00  0.00     0.010 A 
ATOM     34  C   UNL A   1      36.088  33.574  33.440  1.00  0.00    -0.014 A 
BRANCH  34  35
ATOM     35  C   UNL A   1      37.276  32.789  33.896  1.00  0.00     0.031 A 
ATOM     36  C   UNL A   1      37.953  33.105  35.209  1.00  0.00     0.074 A 
ATOM     37  C   UNL A   1      37.743  31.771  33.139  1.00  0.00     0.049 A 
ATOM     38  N   UNL A   1      39.084  32.653  35.689  1.00  0.00    -0.248 NA
ATOM     39  C   UNL A   1      37.278  34.073  36.089  1.00  0.00     0.031 C 
ATOM     40  C   UNL A   1      37.162  31.322  31.870  1.00  0.00     0.029 A 
ATOM     41  N   UNL A   1      38.803  30.916  33.326  1.00  0.00    -0.354 N 
ATOM     42  C   UNL A   1      39.284  33.316  36.897  1.00  0.00     0.074 A 
ATOM     43  C   UNL A   1      38.165  34.219  37.063  1.00  0.00     0.031 C 
ATOM     44  C   UNL A   1      37.830  30.250  31.427  1.00  0.00     0.029 A 
ATOM     45  C   UNL A   1      38.967  30.010  32.302  1.00  0.00     0.049 A 
ATOM     46  H   UNL A   1      39.390  30.948  34.117  1.00  0.00     0.167 HD
ATOM     47  C   UNL A   1      40.308  33.183  37.779  1.00  0.00     0.034 A 
ATOM     48  C   UNL A   1      39.951  29.124  32.049  1.00  0.00     0.034 A 
ATOM     49  C   UNL A   1      41.394  32.243  37.611  1.00  0.00     0.049 A 
ATOM     50  C   UNL A   1      41.107  29.041  33.008  1.00  0.00     0.074 A 
ATOM     51  C   UNL A   1      42.466  32.007  38.456  1.00  0.00     0.029 A 
ATOM     52  N   UNL A   1      41.548  31.382  36.532  1.00  0.00    -0.354 N 
ATOM     53  N   UNL A   1      41.307  29.712  34.119  1.00  0.00    -0.248 NA
ATOM     54  C   UNL A   1      42.175  28.091  32.675  1.00  0.00     0.031 C 
ATOM     55  C   UNL A   1      43.307  31.070  37.849  1.00  0.00     0.029 A 
ATOM     56  C   UNL A   1      42.716  30.645  36.670  1.00  0.00     0.049 A 
ATOM     57  H   UNL A   1      40.919  31.304  35.778  1.00  0.00     0.167 HD
ATOM     58  C   UNL A   1      42.515  29.248  34.628  1.00  0.00     0.074 A 
ATOM     59  C   UNL A   1      42.981  28.222  33.717  1.00  0.00     0.031 C 
ATOM     60  C   UNL A   1      43.181  29.637  35.745  1.00  0.00     0.034 A 
BRANCH  47  61
ATOM     61  C   UNL A   1      40.342  34.118  38.968  1.00  0.00     0.023 A 
ATOM     62  C   UNL A   1      39.676  33.834  40.174  1.00  0.00     0.031 A 
ATOM     63  C   UNL A   1      41.059  35.327  38.887  1.00  0.00     0.131 A 
ATOM     64  C   UNL A   1      39.687  34.774  41.219  1.00  0.00     0.055 A 
ATOM     65  C   UNL A   1      41.135  36.219  39.958  1.00  0.00     0.041 A 
ATOM     66  F   UNL A   1      41.698  35.667  37.756  1.00  0.00    -0.206 F 
ATOM     67  C   UNL A   1      40.435  35.950  41.130  1.00  0.00     0.022 A 
BRANCH  64  68
ATOM     68  S   UNL A   1      38.599  34.505  42.646  1.00  0.00     0.124 S 
ATOM     69  O   UNL A   1      38.514  33.047  42.682  1.00  0.00    -0.237 OA
ATOM     70  O   UNL A   1      39.344  35.129  43.733  1.00  0.00    -0.237 OA
ATOM     71  O   UNL A   1      37.362  35.185  42.268  1.00  0.00    -0.744 OA
ENDBRANCH  64  68
ENDBRANCH  47  61
BRANCH  48  72
ATOM     72  C   UNL A   1      39.934  28.310  30.796  1.00  0.00     0.023 A 
ATOM     73  C   UNL A   1      40.713  28.666  29.683  1.00  0.00     0.031 A 
ATOM     74  C   UNL A   1      39.097  27.183  30.677  1.00  0.00     0.131 A 
ATOM     75  C   UNL A   1      40.605  27.934  28.491  1.00  0.00     0.055 A 
ATOM     76  C   UNL A   1      39.050  26.414  29.513  1.00  0.00     0.041 A 
ATOM     77  F   UNL A   1      38.321  26.798  31.703  1.00  0.00    -0.206 F 
ATOM     78  C   UNL A   1      39.795  26.798  28.405  1.00  0.00     0.022 A 
BRANCH  75  79
ATOM     79  S   UNL A   1      41.457  28.549  27.012  1.00  0.00     0.124 S 
ATOM     80  O   UNL A   1      42.062  27.329  26.490  1.00  0.00    -0.237 OA
ATOM     81  O   UNL A   1      40.355  29.104  26.235  1.00  0.00    -0.237 OA
ATOM     82  O   UNL A   1      42.397  29.533  27.546  1.00  0.00    -0.744 OA
ENDBRANCH  75  79
ENDBRANCH  48  72
BRANCH  60  83
ATOM     83  C   UNL A   1      44.467  28.909  36.057  1.00  0.00     0.023 A 
ATOM     84  C   UNL A   1      44.477  27.704  36.782  1.00  0.00     0.031 A 
ATOM     85  C   UNL A   1      45.702  29.448  35.655  1.00  0.00     0.131 A 
ATOM     86  C   UNL A   1      45.699  27.119  37.146  1.00  0.00     0.055 A 
ATOM     87  C   UNL A   1      46.911  28.821  35.955  1.00  0.00     0.041 A 
ATOM     88  F   UNL A   1      45.754  30.600  34.965  1.00  0.00    -0.206 F 
ATOM     89  C   UNL A   1      46.915  27.658  36.719  1.00  0.00     0.022 A 
BRANCH  86  90
ATOM     90  S   UNL A   1      45.682  25.710  38.289  1.00  0.00     0.124 S 
ATOM     91  O   UNL A   1      44.683  26.126  39.268  1.00  0.00    -0.237 OA
ATOM     92  O   UNL A   1      45.298  24.604  37.417  1.00  0.00    -0.237 OA
ATOM     93  O   UNL A   1      47.055  25.656  38.788  1.00  0.00    -0.744 OA
ENDBRANCH  86  90
ENDBRANCH  60  83
ENDBRANCH  34  35
ENDBRANCH  27  29
ENDBRANCH  26  27
ENDBRANCH  25  26
ENDBRANCH   1  25
TORSDOF 17
ENDMDL
MODEL 3
REMARK VINA RESULT:     -11.4      5.025      8.826
REMARK SMILES CCCN1CCC[C@@]2(CCN(c3ccc(C(=O)OCCOC(=O)c4ccc(-c5c6nc(c(-c7cc(S(=O)(=O)[O-])ccc7F)c7ccc([nH]7)c(-c7cc(S(=O)(=O)[O-])ccc7F)c7nc(c(-c8cc(S(=O)(=O)[O-])ccc8F)c8ccc5[nH]8)C=C7)C=C6)cc4)cn3)C2)C1=O
REMARK SMILES IDX 19 1 18 2 16 3 17 4 15 5 12 6 13 7 88 8 14 9 87 10 11 11
REMARK SMILES IDX 4 12 5 13 90 14 6 15 8 16 91 17 7 18 9 19 89 20 10 21 3 22
REMARK SMILES IDX 2 23 1 24 20 25 21 26 22 27 23 28 24 29 25 30 86 31 26 32
REMARK SMILES IDX 85 33 27 34 28 35 29 36 79 37 30 38 84 39 78 40 80 41 31 42
REMARK SMILES IDX 83 43 77 44 76 45 32 47 64 48 44 49 63 50 45 51 48 52 62 53
REMARK SMILES IDX 81 54 46 55 47 56 61 58 82 59 49 60 33 61 34 62 42 63 35 64
REMARK SMILES IDX 41 65 43 66 40 67 36 68 37 69 38 70 39 71 65 72 66 73 74 74
REMARK SMILES IDX 67 75 73 76 75 77 72 78 68 79 69 80 70 81 71 82 50 83 51 84
REMARK SMILES IDX 59 85 52 86 58 87 60 88 57 89 53 90 54 91 55 92 56 93
REMARK H PARENT 80 46 48 57
REMARK Flexibility Score: inf
ROOT
ATOM      1  C   UNL A   1      43.131  21.329  25.696  1.00  0.00     0.275 C 
ENDROOT
BRANCH   1   2
ATOM      2  O   UNL A   1      41.793  21.849  25.553  1.00  0.00    -0.458 OA
BRANCH   2   3
ATOM      3  C   UNL A   1      40.917  21.496  26.527  1.00  0.00     0.339 C 
ATOM      4  O   UNL A   1      41.140  20.765  27.474  1.00  0.00    -0.246 OA
BRANCH   3   5
ATOM      5  C   UNL A   1      39.624  22.172  26.327  1.00  0.00     0.078 A 
ATOM      6  C   UNL A   1      37.181  23.314  25.734  1.00  0.00     0.128 A 
ATOM      7  C   UNL A   1      38.187  24.084  26.323  1.00  0.00     0.048 A 
ATOM      8  N   UNL A   1      37.373  22.019  25.446  1.00  0.00    -0.238 NA
ATOM      9  C   UNL A   1      39.417  23.506  26.645  1.00  0.00     0.021 A 
ATOM     10  C   UNL A   1      38.585  21.490  25.714  1.00  0.00     0.129 A 
BRANCH   6  11
ATOM     11  N   UNL A   1      36.017  23.924  25.303  1.00  0.00    -0.356 N 
ATOM     12  N   UNL A   1      32.526  21.654  23.971  1.00  0.00    -0.342 N 
ATOM     13  C   UNL A   1      32.296  22.006  22.579  1.00  0.00     0.119 C 
ATOM     14  C   UNL A   1      32.842  22.636  24.908  1.00  0.00     0.230 C 
ATOM     15  C   UNL A   1      33.293  23.017  22.040  1.00  0.00     0.023 C 
ATOM     16  C   UNL A   1      33.813  23.711  24.407  1.00  0.00     0.069 C 
ATOM     17  O   UNL A   1      32.492  22.562  26.083  1.00  0.00    -0.274 OA
ATOM     18  C   UNL A   1      33.426  24.192  23.005  1.00  0.00     0.021 C 
ATOM     19  C   UNL A   1      33.923  24.883  25.408  1.00  0.00     0.040 C 
ATOM     20  C   UNL A   1      35.228  23.077  24.411  1.00  0.00     0.135 C 
ATOM     21  C   UNL A   1      35.112  24.502  26.291  1.00  0.00     0.119 C 
BRANCH  12  22
ATOM     22  C   UNL A   1      32.123  20.333  24.454  1.00  0.00     0.119 C 
BRANCH  22  23
ATOM     23  C   UNL A   1      32.929  19.152  23.916  1.00  0.00     0.018 C 
ATOM     24  C   UNL A   1      34.265  18.959  24.617  1.00  0.00     0.006 C 
ENDBRANCH  22  23
ENDBRANCH  12  22
ENDBRANCH   6  11
ENDBRANCH   3   5
ENDBRANCH   2   3
ENDBRANCH   1   2
BRANCH   1  25
ATOM     25  C   UNL A   1      44.164  22.238  25.026  1.00  0.00     0.275 C 
BRANCH  25  26
ATOM     26  O   UNL A   1      44.654  23.232  25.946  1.00  0.00    -0.458 OA
BRANCH  26  27
ATOM     27  C   UNL A   1      44.468  24.511  25.547  1.00  0.00     0.338 C 
ATOM     28  O   UNL A   1      44.868  25.024  24.515  1.00  0.00    -0.246 OA
BRANCH  27  29
ATOM     29  C   UNL A   1      43.591  25.223  26.487  1.00  0.00     0.060 A 
ATOM     30  C   UNL A   1      43.734  26.600  26.571  1.00  0.00     0.016 A 
ATOM     31  C   UNL A   1      42.813  24.549  27.423  1.00  0.00     0.016 A 
ATOM     32  C   UNL A   1      43.256  27.291  27.677  1.00  0.00     0.010 A 
ATOM     33  C   UNL A   1      42.187  25.277  28.448  1.00  0.00     0.010 A 
ATOM     34  C   UNL A   1      42.438  26.653  28.617  1.00  0.00    -0.014 A 
BRANCH  34  35
ATOM     35  C   UNL A   1      41.864  27.436  29.755  1.00  0.00     0.031 A 
ATOM     36  C   UNL A   1      40.563  28.187  29.597  1.00  0.00     0.074 A 
ATOM     37  C   UNL A   1      42.500  27.459  30.947  1.00  0.00     0.049 A 
ATOM     38  N   UNL A   1      40.000  29.050  30.405  1.00  0.00    -0.248 NA
ATOM     39  C   UNL A   1      39.807  27.954  28.356  1.00  0.00     0.031 C 
ATOM     40  C   UNL A   1      43.740  26.743  31.260  1.00  0.00     0.029 A 
ATOM     41  N   UNL A   1      42.192  28.096  32.126  1.00  0.00    -0.354 N 
ATOM     42  C   UNL A   1      38.855  29.501  29.753  1.00  0.00     0.074 A 
ATOM     43  C   UNL A   1      38.819  28.830  28.470  1.00  0.00     0.031 C 
ATOM     44  C   UNL A   1      44.052  26.930  32.548  1.00  0.00     0.029 A 
ATOM     45  C   UNL A   1      43.116  27.884  33.125  1.00  0.00     0.049 A 
ATOM     46  H   UNL A   1      41.387  28.650  32.245  1.00  0.00     0.167 HD
ATOM     47  C   UNL A   1      37.927  30.392  30.186  1.00  0.00     0.034 A 
ATOM     48  C   UNL A   1      43.245  28.436  34.347  1.00  0.00     0.034 A 
ATOM     49  C   UNL A   1      37.962  31.017  31.490  1.00  0.00     0.049 A 
ATOM     50  C   UNL A   1      42.241  29.468  34.778  1.00  0.00     0.074 A 
ATOM     51  C   UNL A   1      37.059  31.912  32.039  1.00  0.00     0.029 A 
ATOM     52  N   UNL A   1      38.946  30.813  32.449  1.00  0.00    -0.354 N 
ATOM     53  N   UNL A   1      41.193  29.922  34.129  1.00  0.00    -0.248 NA
ATOM     54  C   UNL A   1      42.440  30.072  36.100  1.00  0.00     0.031 C 
ATOM     55  C   UNL A   1      37.540  32.311  33.290  1.00  0.00     0.029 A 
ATOM     56  C   UNL A   1      38.694  31.596  33.567  1.00  0.00     0.049 A 
ATOM     57  H   UNL A   1      39.712  30.202  32.350  1.00  0.00     0.167 HD
ATOM     58  C   UNL A   1      40.597  30.850  34.976  1.00  0.00     0.074 A 
ATOM     59  C   UNL A   1      41.386  30.869  36.190  1.00  0.00     0.031 C 
ATOM     60  C   UNL A   1      39.499  31.621  34.767  1.00  0.00     0.034 A 
BRANCH  47  61
ATOM     61  C   UNL A   1      36.833  30.798  29.222  1.00  0.00     0.023 A 
ATOM     62  C   UNL A   1      35.860  29.895  28.756  1.00  0.00     0.031 A 
ATOM     63  C   UNL A   1      36.768  32.125  28.757  1.00  0.00     0.131 A 
ATOM     64  C   UNL A   1      34.911  30.314  27.808  1.00  0.00     0.055 A 
ATOM     65  C   UNL A   1      35.772  32.556  27.879  1.00  0.00     0.041 A 
ATOM     66  F   UNL A   1      37.680  33.031  29.147  1.00  0.00    -0.206 F 
ATOM     67  C   UNL A   1      34.844  31.644  27.388  1.00  0.00     0.022 A 
BRANCH  64  68
ATOM     68  S   UNL A   1      33.852  29.067  27.024  1.00  0.00     0.124 S 
ATOM     69  O   UNL A   1      33.090  28.566  28.165  1.00  0.00    -0.237 OA
ATOM     70  O   UNL A   1      33.104  29.855  26.051  1.00  0.00    -0.237 OA
ATOM     71  O   UNL A   1      34.805  28.116  26.454  1.00  0.00    -0.744 OA
ENDBRANCH  64  68
ENDBRANCH  47  61
BRANCH  48  72
ATOM     72  C   UNL A   1      44.414  28.093  35.214  1.00  0.00     0.023 A 
ATOM     73  C   UNL A   1      44.438  26.913  35.974  1.00  0.00     0.031 A 
ATOM     74  C   UNL A   1      45.511  28.969  35.328  1.00  0.00     0.131 A 
ATOM     75  C   UNL A   1      45.509  26.664  36.846  1.00  0.00     0.055 A 
ATOM     76  C   UNL A   1      46.609  28.681  36.141  1.00  0.00     0.041 A 
ATOM     77  F   UNL A   1      45.542  30.118  34.633  1.00  0.00    -0.206 F 
ATOM     78  C   UNL A   1      46.605  27.530  36.919  1.00  0.00     0.022 A 
BRANCH  75  79
ATOM     79  S   UNL A   1      45.404  25.244  37.970  1.00  0.00     0.124 S 
ATOM     80  O   UNL A   1      46.244  25.682  39.079  1.00  0.00    -0.237 OA
ATOM     81  O   UNL A   1      43.972  25.174  38.238  1.00  0.00    -0.237 OA
ATOM     82  O   UNL A   1      45.943  24.142  37.176  1.00  0.00    -0.744 OA
ENDBRANCH  75  79
ENDBRANCH  48  72
BRANCH  60  83
ATOM     83  C   UNL A   1      39.071  32.515  35.906  1.00  0.00     0.023 A 
ATOM     84  C   UNL A   1      39.528  33.839  36.018  1.00  0.00     0.031 A 
ATOM     85  C   UNL A   1      38.223  32.021  36.914  1.00  0.00     0.131 A 
ATOM     86  C   UNL A   1      39.195  34.600  37.150  1.00  0.00     0.055 A 
ATOM     87  C   UNL A   1      37.835  32.807  37.999  1.00  0.00     0.041 A 
ATOM     88  F   UNL A   1      37.760  30.761  36.863  1.00  0.00    -0.206 F 
ATOM     89  C   UNL A   1      38.335  34.099  38.130  1.00  0.00     0.022 A 
BRANCH  86  90
ATOM     90  S   UNL A   1      40.001  36.208  37.384  1.00  0.00     0.124 S 
ATOM     91  O   UNL A   1      39.864  36.811  36.063  1.00  0.00    -0.237 OA
ATOM     92  O   UNL A   1      39.198  36.808  38.446  1.00  0.00    -0.237 OA
ATOM     93  O   UNL A   1      41.367  35.855  37.767  1.00  0.00    -0.744 OA
ENDBRANCH  86  90
ENDBRANCH  60  83
ENDBRANCH  34  35
ENDBRANCH  27  29
ENDBRANCH  26  27
ENDBRANCH  25  26
ENDBRANCH   1  25
TORSDOF 17
ENDMDL
