MODEL 1
REMARK VINA RESULT:     -11.9      0.000      0.000
REMARK SMILES CSCC[C@@H](C(=O)OCCOC(=O)c1ccc(-c2c3nc(c(-c4cc(S(=O)(=O)[O-])ccc4F)c4ccc([nH]4)c(-c4cc(S(=O)(=O)[O-])ccc4F)c4nc(c(-c5cc(S(=O)(=O)[O-])ccc5F)c5ccc2[nH]5)C=C4)C=C3)cc1)N1C(=O)/C(=C/c2ccc(-c3ccccc3Cl)o2)SC1=S
REMARK SMILES IDX 9 1 8 2 6 3 7 4 5 5 4 6 3 7 2 8 1 9 77 10 78 11 95 12 79 13
REMARK SMILES IDX 80 14 94 15 96 16 81 17 82 18 83 19 93 20 84 21 85 22 86 23
REMARK SMILES IDX 87 24 91 25 88 26 90 27 92 28 89 29 10 30 11 31 12 32 13 33
REMARK SMILES IDX 14 34 15 35 76 36 16 37 75 38 17 39 18 40 19 41 69 42 20 43
REMARK SMILES IDX 74 44 68 45 70 46 21 47 73 48 67 49 66 50 22 52 54 53 34 54
REMARK SMILES IDX 53 55 35 56 38 57 52 58 71 59 36 60 37 61 51 63 72 64 39 65
REMARK SMILES IDX 23 66 24 67 32 68 25 69 31 70 33 71 30 72 26 73 27 74 28 75
REMARK SMILES IDX 29 76 55 77 56 78 64 79 57 80 63 81 65 82 62 83 58 84 59 85
REMARK SMILES IDX 60 86 61 87 40 88 41 89 49 90 42 91 48 92 50 93 47 94 43 95
REMARK SMILES IDX 44 96 45 97 46 98
REMARK H PARENT 70 51 38 62
REMARK Flexibility Score: inf
ROOT
ATOM      1  C   UNL A   1      47.194  39.285  26.997  1.00  0.00     0.274 C 
ENDROOT
BRANCH   1   2
ATOM      2  O   UNL A   1      46.420  39.704  25.848  1.00  0.00    -0.461 OA
BRANCH   2   3
ATOM      3  C   UNL A   1      45.234  40.297  26.182  1.00  0.00     0.329 C 
ATOM      4  O   UNL A   1      44.280  39.687  26.655  1.00  0.00    -0.250 OA
BRANCH   3   5
ATOM      5  C   UNL A   1      45.186  41.805  25.845  1.00  0.00     0.202 C 
BRANCH   5   6
ATOM      6  C   UNL A   1      44.582  42.521  27.088  1.00  0.00     0.048 C 
BRANCH   6   7
ATOM      7  C   UNL A   1      45.565  42.871  28.220  1.00  0.00     0.072 C 
BRANCH   7   8
ATOM      8  S   UNL A   1      46.654  44.297  27.883  1.00  0.00    -0.165 SA
ATOM      9  C   UNL A   1      48.053  43.482  27.069  1.00  0.00     0.085 C 
ENDBRANCH   7   8
ENDBRANCH   6   7
ENDBRANCH   5   6
BRANCH   5  10
ATOM     10  N   UNL A   1      44.486  42.188  24.582  1.00  0.00    -0.278 N 
ATOM     11  C   UNL A   1      45.199  42.220  23.376  1.00  0.00     0.267 C 
ATOM     12  C   UNL A   1      43.129  42.164  24.361  1.00  0.00     0.149 C 
ATOM     13  O   UNL A   1      46.350  41.838  23.214  1.00  0.00    -0.268 OA
ATOM     14  C   UNL A   1      44.332  42.709  22.255  1.00  0.00     0.084 C 
ATOM     15  S   UNL A   1      42.789  43.067  22.909  1.00  0.00    -0.054 SA
ATOM     16  S   UNL A   1      41.904  41.397  25.189  1.00  0.00    -0.052 S 
ATOM     17  C   UNL A   1      44.635  42.788  20.949  1.00  0.00     0.068 C 
BRANCH  17  18
ATOM     18  C   UNL A   1      43.748  43.461  20.046  1.00  0.00     0.128 A 
ATOM     19  C   UNL A   1      42.571  42.956  19.500  1.00  0.00     0.051 A 
ATOM     20  O   UNL A   1      43.952  44.716  19.505  1.00  0.00    -0.457 OA
ATOM     21  C   UNL A   1      42.098  43.881  18.548  1.00  0.00     0.051 A 
ATOM     22  C   UNL A   1      42.971  44.946  18.574  1.00  0.00     0.136 A 
BRANCH  22  23
ATOM     23  C   UNL A   1      42.971  46.216  17.848  1.00  0.00     0.036 A 
ATOM     24  C   UNL A   1      41.740  46.892  17.719  1.00  0.00     0.013 A 
ATOM     25  C   UNL A   1      44.093  46.771  17.213  1.00  0.00     0.052 A 
ATOM     26  C   UNL A   1      41.627  48.080  16.992  1.00  0.00     0.001 A 
ATOM     27  C   UNL A   1      43.982  47.980  16.508  1.00  0.00     0.021 A 
ATOM     28  Cl  UNL A   1      45.633  45.979  17.183  1.00  0.00    -0.084 Cl
ATOM     29  C   UNL A   1      42.751  48.626  16.387  1.00  0.00     0.002 A 
ENDBRANCH  22  23
ENDBRANCH  17  18
ENDBRANCH   5  10
ENDBRANCH   3   5
ENDBRANCH   2   3
ENDBRANCH   1   2
BRANCH   1  30
ATOM     30  C   UNL A   1      47.195  37.760  27.124  1.00  0.00     0.275 C 
BRANCH  30  31
ATOM     31  O   UNL A   1      47.044  37.437  28.513  1.00  0.00    -0.458 OA
BRANCH  31  32
ATOM     32  C   UNL A   1      45.796  37.125  28.944  1.00  0.00     0.338 C 
ATOM     33  O   UNL A   1      44.929  37.894  29.308  1.00  0.00    -0.246 OA
BRANCH  32  34
ATOM     34  C   UNL A   1      45.617  35.666  28.779  1.00  0.00     0.060 A 
ATOM     35  C   UNL A   1      44.975  35.219  27.632  1.00  0.00     0.016 A 
ATOM     36  C   UNL A   1      45.956  34.751  29.774  1.00  0.00     0.016 A 
ATOM     37  C   UNL A   1      44.600  33.887  27.517  1.00  0.00     0.010 A 
ATOM     38  C   UNL A   1      45.634  33.389  29.611  1.00  0.00     0.010 A 
ATOM     39  C   UNL A   1      44.892  32.939  28.502  1.00  0.00    -0.014 A 
BRANCH  39  40
ATOM     40  C   UNL A   1      44.296  31.557  28.408  1.00  0.00     0.031 A 
ATOM     41  C   UNL A   1      45.087  30.448  27.746  1.00  0.00     0.074 A 
ATOM     42  C   UNL A   1      43.123  31.230  28.999  1.00  0.00     0.049 A 
ATOM     43  N   UNL A   1      44.691  29.267  27.342  1.00  0.00    -0.248 NA
ATOM     44  C   UNL A   1      46.512  30.711  27.492  1.00  0.00     0.031 C 
ATOM     45  C   UNL A   1      42.287  32.133  29.792  1.00  0.00     0.029 A 
ATOM     46  N   UNL A   1      42.445  30.031  29.067  1.00  0.00    -0.354 N 
ATOM     47  C   UNL A   1      45.778  28.702  26.678  1.00  0.00     0.074 A 
ATOM     48  C   UNL A   1      46.863  29.655  26.771  1.00  0.00     0.031 C 
ATOM     49  C   UNL A   1      41.286  31.441  30.350  1.00  0.00     0.029 A 
ATOM     50  C   UNL A   1      41.284  30.088  29.812  1.00  0.00     0.049 A 
ATOM     51  H   UNL A   1      42.759  29.210  28.624  1.00  0.00     0.167 HD
ATOM     52  C   UNL A   1      45.847  27.513  26.029  1.00  0.00     0.034 A 
ATOM     53  C   UNL A   1      40.288  29.193  29.989  1.00  0.00     0.034 A 
ATOM     54  C   UNL A   1      44.778  26.542  26.027  1.00  0.00     0.049 A 
ATOM     55  C   UNL A   1      40.385  27.871  29.267  1.00  0.00     0.074 A 
ATOM     56  C   UNL A   1      44.708  25.331  25.360  1.00  0.00     0.029 A 
ATOM     57  N   UNL A   1      43.601  26.659  26.756  1.00  0.00    -0.354 N 
ATOM     58  N   UNL A   1      41.354  27.415  28.505  1.00  0.00    -0.248 NA
ATOM     59  C   UNL A   1      39.243  26.956  29.398  1.00  0.00     0.031 C 
ATOM     60  C   UNL A   1      43.471  24.741  25.646  1.00  0.00     0.029 A 
ATOM     61  C   UNL A   1      42.797  25.548  26.547  1.00  0.00     0.049 A 
ATOM     62  H   UNL A   1      43.370  27.421  27.335  1.00  0.00     0.167 HD
ATOM     63  C   UNL A   1      40.927  26.168  28.057  1.00  0.00     0.074 A 
ATOM     64  C   UNL A   1      39.647  25.917  28.684  1.00  0.00     0.031 C 
ATOM     65  C   UNL A   1      41.520  25.321  27.178  1.00  0.00     0.034 A 
BRANCH  52  66
ATOM     66  C   UNL A   1      47.071  27.250  25.179  1.00  0.00     0.023 A 
ATOM     67  C   UNL A   1      47.204  27.726  23.864  1.00  0.00     0.031 A 
ATOM     68  C   UNL A   1      48.116  26.462  25.701  1.00  0.00     0.131 A 
ATOM     69  C   UNL A   1      48.321  27.351  23.096  1.00  0.00     0.055 A 
ATOM     70  C   UNL A   1      49.258  26.159  24.959  1.00  0.00     0.041 A 
ATOM     71  F   UNL A   1      48.036  25.959  26.943  1.00  0.00    -0.206 F 
ATOM     72  C   UNL A   1      49.359  26.592  23.642  1.00  0.00     0.022 A 
BRANCH  69  73
ATOM     73  S   UNL A   1      48.330  27.747  21.325  1.00  0.00     0.124 S 
ATOM     74  O   UNL A   1      46.977  28.267  21.134  1.00  0.00    -0.237 OA
ATOM     75  O   UNL A   1      49.409  28.722  21.227  1.00  0.00    -0.237 OA
ATOM     76  O   UNL A   1      48.591  26.459  20.686  1.00  0.00    -0.744 OA
ENDBRANCH  69  73
ENDBRANCH  52  66
BRANCH  53  77
ATOM     77  C   UNL A   1      39.074  29.545  30.797  1.00  0.00     0.023 A 
ATOM     78  C   UNL A   1      38.124  30.460  30.319  1.00  0.00     0.031 A 
ATOM     79  C   UNL A   1      38.851  29.006  32.079  1.00  0.00     0.131 A 
ATOM     80  C   UNL A   1      37.012  30.815  31.100  1.00  0.00     0.055 A 
ATOM     81  C   UNL A   1      37.709  29.304  32.827  1.00  0.00     0.041 A 
ATOM     82  F   UNL A   1      39.737  28.157  32.625  1.00  0.00    -0.206 F 
ATOM     83  C   UNL A   1      36.783  30.222  32.342  1.00  0.00     0.022 A 
BRANCH  80  84
ATOM     84  S   UNL A   1      35.929  32.148  30.515  1.00  0.00     0.124 S 
ATOM     85  O   UNL A   1      34.829  32.082  31.471  1.00  0.00    -0.237 OA
ATOM     86  O   UNL A   1      36.794  33.317  30.627  1.00  0.00    -0.237 OA
ATOM     87  O   UNL A   1      35.597  31.742  29.151  1.00  0.00    -0.744 OA
ENDBRANCH  80  84
ENDBRANCH  53  77
BRANCH  65  88
ATOM     88  C   UNL A   1      40.783  24.043  26.866  1.00  0.00     0.023 A 
ATOM     89  C   UNL A   1      41.431  22.796  26.917  1.00  0.00     0.031 A 
ATOM     90  C   UNL A   1      39.428  24.073  26.495  1.00  0.00     0.131 A 
ATOM     91  C   UNL A   1      40.740  21.635  26.541  1.00  0.00     0.055 A 
ATOM     92  C   UNL A   1      38.729  22.906  26.182  1.00  0.00     0.041 A 
ATOM     93  F   UNL A   1      38.764  25.238  26.427  1.00  0.00    -0.206 F 
ATOM     94  C   UNL A   1      39.389  21.680  26.191  1.00  0.00     0.022 A 
BRANCH  91  95
ATOM     95  S   UNL A   1      41.659  20.075  26.426  1.00  0.00     0.124 S 
ATOM     96  O   UNL A   1      41.952  19.792  27.827  1.00  0.00    -0.237 OA
ATOM     97  O   UNL A   1      40.694  19.190  25.784  1.00  0.00    -0.237 OA
ATOM     98  O   UNL A   1      42.820  20.423  25.608  1.00  0.00    -0.744 OA
ENDBRANCH  91  95
ENDBRANCH  65  88
ENDBRANCH  39  40
ENDBRANCH  32  34
ENDBRANCH  31  32
ENDBRANCH  30  31
ENDBRANCH   1  30
TORSDOF 20
ENDMDL
MODEL 2
REMARK VINA RESULT:     -11.8     10.963     21.112
REMARK SMILES CSCC[C@@H](C(=O)OCCOC(=O)c1ccc(-c2c3nc(c(-c4cc(S(=O)(=O)[O-])ccc4F)c4ccc([nH]4)c(-c4cc(S(=O)(=O)[O-])ccc4F)c4nc(c(-c5cc(S(=O)(=O)[O-])ccc5F)c5ccc2[nH]5)C=C4)C=C3)cc1)N1C(=O)/C(=C/c2ccc(-c3ccccc3Cl)o2)SC1=S
REMARK SMILES IDX 9 1 8 2 6 3 7 4 5 5 4 6 3 7 2 8 1 9 77 10 78 11 95 12 79 13
REMARK SMILES IDX 80 14 94 15 96 16 81 17 82 18 83 19 93 20 84 21 85 22 86 23
REMARK SMILES IDX 87 24 91 25 88 26 90 27 92 28 89 29 10 30 11 31 12 32 13 33
REMARK SMILES IDX 14 34 15 35 76 36 16 37 75 38 17 39 18 40 19 41 69 42 20 43
REMARK SMILES IDX 74 44 68 45 70 46 21 47 73 48 67 49 66 50 22 52 54 53 34 54
REMARK SMILES IDX 53 55 35 56 38 57 52 58 71 59 36 60 37 61 51 63 72 64 39 65
REMARK SMILES IDX 23 66 24 67 32 68 25 69 31 70 33 71 30 72 26 73 27 74 28 75
REMARK SMILES IDX 29 76 55 77 56 78 64 79 57 80 63 81 65 82 62 83 58 84 59 85
REMARK SMILES IDX 60 86 61 87 40 88 41 89 49 90 42 91 48 92 50 93 47 94 43 95
REMARK SMILES IDX 44 96 45 97 46 98
REMARK H PARENT 70 51 38 62
REMARK Flexibility Score: inf
ROOT
ATOM      1  C   UNL A   1      47.412  23.546  39.390  1.00  0.00     0.274 C 
ENDROOT
BRANCH   1   2
ATOM      2  O   UNL A   1      47.887  22.180  39.381  1.00  0.00    -0.461 OA
BRANCH   2   3
ATOM      3  C   UNL A   1      46.892  21.259  39.563  1.00  0.00     0.329 C 
ATOM      4  O   UNL A   1      45.697  21.532  39.500  1.00  0.00    -0.250 OA
BRANCH   3   5
ATOM      5  C   UNL A   1      47.417  19.851  39.923  1.00  0.00     0.202 C 
BRANCH   5   6
ATOM      6  C   UNL A   1      48.434  19.456  38.812  1.00  0.00     0.048 C 
BRANCH   6   7
ATOM      7  C   UNL A   1      49.919  19.456  39.214  1.00  0.00     0.072 C 
BRANCH   7   8
ATOM      8  S   UNL A   1      51.076  18.953  37.896  1.00  0.00    -0.165 SA
ATOM      9  C   UNL A   1      50.917  20.342  36.743  1.00  0.00     0.085 C 
ENDBRANCH   7   8
ENDBRANCH   6   7
ENDBRANCH   5   6
BRANCH   5  10
ATOM     10  N   UNL A   1      46.389  18.789  40.146  1.00  0.00    -0.278 N 
ATOM     11  C   UNL A   1      45.738  18.703  41.384  1.00  0.00     0.267 C 
ATOM     12  C   UNL A   1      45.712  18.092  39.173  1.00  0.00     0.149 C 
ATOM     13  O   UNL A   1      45.834  19.507  42.301  1.00  0.00    -0.268 OA
ATOM     14  C   UNL A   1      44.815  17.522  41.421  1.00  0.00     0.084 C 
ATOM     15  S   UNL A   1      44.944  16.714  39.916  1.00  0.00    -0.054 SA
ATOM     16  S   UNL A   1      45.500  18.410  37.553  1.00  0.00    -0.052 S 
ATOM     17  C   UNL A   1      43.962  17.170  42.396  1.00  0.00     0.068 C 
BRANCH  17  18
ATOM     18  C   UNL A   1      43.296  15.902  42.344  1.00  0.00     0.128 A 
ATOM     19  C   UNL A   1      42.114  15.606  41.670  1.00  0.00     0.051 A 
ATOM     20  O   UNL A   1      43.684  14.762  43.021  1.00  0.00    -0.457 OA
ATOM     21  C   UNL A   1      41.733  14.294  42.010  1.00  0.00     0.051 A 
ATOM     22  C   UNL A   1      42.715  13.807  42.844  1.00  0.00     0.136 A 
BRANCH  22  23
ATOM     23  C   UNL A   1      42.890  12.498  43.473  1.00  0.00     0.036 A 
ATOM     24  C   UNL A   1      42.110  11.430  42.982  1.00  0.00     0.013 A 
ATOM     25  C   UNL A   1      43.724  12.248  44.574  1.00  0.00     0.052 A 
ATOM     26  C   UNL A   1      42.162  10.158  43.557  1.00  0.00     0.001 A 
ATOM     27  C   UNL A   1      43.795  10.961  45.131  1.00  0.00     0.021 A 
ATOM     28  Cl  UNL A   1      44.634  13.497  45.355  1.00  0.00    -0.084 Cl
ATOM     29  C   UNL A   1      43.008   9.922  44.633  1.00  0.00     0.002 A 
ENDBRANCH  22  23
ENDBRANCH  17  18
ENDBRANCH   5  10
ENDBRANCH   3   5
ENDBRANCH   2   3
ENDBRANCH   1   2
BRANCH   1  30
ATOM     30  C   UNL A   1      47.145  24.037  37.965  1.00  0.00     0.275 C 
BRANCH  30  31
ATOM     31  O   UNL A   1      46.223  25.132  38.046  1.00  0.00    -0.458 OA
BRANCH  31  32
ATOM     32  C   UNL A   1      46.606  26.307  37.485  1.00  0.00     0.338 C 
ATOM     33  O   UNL A   1      47.585  26.971  37.762  1.00  0.00    -0.246 OA
BRANCH  32  34
ATOM     34  C   UNL A   1      45.680  26.594  36.369  1.00  0.00     0.060 A 
ATOM     35  C   UNL A   1      45.993  27.649  35.524  1.00  0.00     0.016 A 
ATOM     36  C   UNL A   1      44.465  25.929  36.212  1.00  0.00     0.016 A 
ATOM     37  C   UNL A   1      45.066  28.092  34.588  1.00  0.00     0.010 A 
ATOM     38  C   UNL A   1      43.564  26.343  35.210  1.00  0.00     0.010 A 
ATOM     39  C   UNL A   1      43.824  27.476  34.415  1.00  0.00    -0.014 A 
BRANCH  39  40
ATOM     40  C   UNL A   1      42.792  28.115  33.520  1.00  0.00     0.031 A 
ATOM     41  C   UNL A   1      41.876  29.181  34.082  1.00  0.00     0.074 A 
ATOM     42  C   UNL A   1      42.724  27.860  32.192  1.00  0.00     0.049 A 
ATOM     43  N   UNL A   1      40.777  29.687  33.580  1.00  0.00    -0.248 NA
ATOM     44  C   UNL A   1      42.237  29.743  35.392  1.00  0.00     0.031 C 
ATOM     45  C   UNL A   1      43.611  26.962  31.450  1.00  0.00     0.029 A 
ATOM     46  N   UNL A   1      41.898  28.367  31.212  1.00  0.00    -0.354 N 
ATOM     47  C   UNL A   1      40.254  30.525  34.562  1.00  0.00     0.074 A 
ATOM     48  C   UNL A   1      41.180  30.491  35.674  1.00  0.00     0.031 C 
ATOM     49  C   UNL A   1      43.359  27.066  30.139  1.00  0.00     0.029 A 
ATOM     50  C   UNL A   1      42.172  27.887  29.947  1.00  0.00     0.049 A 
ATOM     51  H   UNL A   1      41.178  29.013  31.397  1.00  0.00     0.167 HD
ATOM     52  C   UNL A   1      39.094  31.229  34.543  1.00  0.00     0.034 A 
ATOM     53  C   UNL A   1      41.511  28.019  28.776  1.00  0.00     0.034 A 
ATOM     54  C   UNL A   1      38.233  31.316  33.387  1.00  0.00     0.049 A 
ATOM     55  C   UNL A   1      40.229  28.814  28.770  1.00  0.00     0.074 A 
ATOM     56  C   UNL A   1      37.008  31.949  33.265  1.00  0.00     0.029 A 
ATOM     57  N   UNL A   1      38.524  30.776  32.140  1.00  0.00    -0.354 N 
ATOM     58  N   UNL A   1      39.659  29.471  29.756  1.00  0.00    -0.248 NA
ATOM     59  C   UNL A   1      39.481  28.860  27.506  1.00  0.00     0.031 C 
ATOM     60  C   UNL A   1      36.537  31.750  31.961  1.00  0.00     0.029 A 
ATOM     61  C   UNL A   1      37.499  31.055  31.248  1.00  0.00     0.049 A 
ATOM     62  H   UNL A   1      39.338  30.269  31.922  1.00  0.00     0.167 HD
ATOM     63  C   UNL A   1      38.480  29.992  29.231  1.00  0.00     0.074 A 
ATOM     64  C   UNL A   1      38.453  29.630  27.830  1.00  0.00     0.031 C 
ATOM     65  C   UNL A   1      37.490  30.678  29.856  1.00  0.00     0.034 A 
BRANCH  52  66
ATOM     66  C   UNL A   1      38.641  31.865  35.839  1.00  0.00     0.023 A 
ATOM     67  C   UNL A   1      38.055  31.132  36.884  1.00  0.00     0.031 A 
ATOM     68  C   UNL A   1      38.768  33.258  36.005  1.00  0.00     0.131 A 
ATOM     69  C   UNL A   1      37.557  31.804  38.014  1.00  0.00     0.055 A 
ATOM     70  C   UNL A   1      38.342  33.909  37.163  1.00  0.00     0.041 A 
ATOM     71  F   UNL A   1      39.298  34.015  35.032  1.00  0.00    -0.206 F 
ATOM     72  C   UNL A   1      37.719  33.183  38.172  1.00  0.00     0.022 A 
BRANCH  69  73
ATOM     73  S   UNL A   1      36.564  30.872  39.213  1.00  0.00     0.124 S 
ATOM     74  O   UNL A   1      36.308  29.632  38.481  1.00  0.00    -0.237 OA
ATOM     75  O   UNL A   1      37.466  30.766  40.354  1.00  0.00    -0.237 OA
ATOM     76  O   UNL A   1      35.391  31.717  39.420  1.00  0.00    -0.744 OA
ENDBRANCH  69  73
ENDBRANCH  52  66
BRANCH  53  77
ATOM     77  C   UNL A   1      41.988  27.310  27.542  1.00  0.00     0.023 A 
ATOM     78  C   UNL A   1      41.929  25.912  27.440  1.00  0.00     0.031 A 
ATOM     79  C   UNL A   1      42.545  28.007  26.452  1.00  0.00     0.131 A 
ATOM     80  C   UNL A   1      42.414  25.255  26.298  1.00  0.00     0.055 A 
ATOM     81  C   UNL A   1      42.963  27.358  25.287  1.00  0.00     0.041 A 
ATOM     82  F   UNL A   1      42.677  29.342  26.492  1.00  0.00    -0.206 F 
ATOM     83  C   UNL A   1      42.908  25.971  25.207  1.00  0.00     0.022 A 
BRANCH  80  84
ATOM     84  S   UNL A   1      42.495  23.442  26.308  1.00  0.00     0.124 S 
ATOM     85  O   UNL A   1      42.622  23.140  24.886  1.00  0.00    -0.237 OA
ATOM     86  O   UNL A   1      43.683  23.193  27.116  1.00  0.00    -0.237 OA
ATOM     87  O   UNL A   1      41.227  23.049  26.919  1.00  0.00    -0.744 OA
ENDBRANCH  80  84
ENDBRANCH  53  77
BRANCH  65  88
ATOM     88  C   UNL A   1      36.308  31.084  29.011  1.00  0.00     0.023 A 
ATOM     89  C   UNL A   1      35.439  30.125  28.464  1.00  0.00     0.031 A 
ATOM     90  C   UNL A   1      36.061  32.439  28.735  1.00  0.00     0.131 A 
ATOM     91  C   UNL A   1      34.398  30.529  27.616  1.00  0.00     0.055 A 
ATOM     92  C   UNL A   1      34.986  32.840  27.940  1.00  0.00     0.041 A 
ATOM     93  F   UNL A   1      36.863  33.395  29.230  1.00  0.00    -0.206 F 
ATOM     94  C   UNL A   1      34.155  31.881  27.364  1.00  0.00     0.022 A 
BRANCH  91  95
ATOM     95  S   UNL A   1      33.421  29.256  26.769  1.00  0.00     0.124 S 
ATOM     96  O   UNL A   1      32.222  29.195  27.597  1.00  0.00    -0.237 OA
ATOM     97  O   UNL A   1      33.249  29.828  25.438  1.00  0.00    -0.237 OA
ATOM     98  O   UNL A   1      34.278  28.073  26.829  1.00  0.00    -0.744 OA
ENDBRANCH  91  95
ENDBRANCH  65  88
ENDBRANCH  39  40
ENDBRANCH  32  34
ENDBRANCH  31  32
ENDBRANCH  30  31
ENDBRANCH   1  30
TORSDOF 20
ENDMDL
MODEL 3
REMARK VINA RESULT:     -11.7      1.384      1.684
REMARK SMILES CSCC[C@@H](C(=O)OCCOC(=O)c1ccc(-c2c3nc(c(-c4cc(S(=O)(=O)[O-])ccc4F)c4ccc([nH]4)c(-c4cc(S(=O)(=O)[O-])ccc4F)c4nc(c(-c5cc(S(=O)(=O)[O-])ccc5F)c5ccc2[nH]5)C=C4)C=C3)cc1)N1C(=O)/C(=C/c2ccc(-c3ccccc3Cl)o2)SC1=S
REMARK SMILES IDX 9 1 8 2 6 3 7 4 5 5 4 6 3 7 2 8 1 9 77 10 78 11 95 12 79 13
REMARK SMILES IDX 80 14 94 15 96 16 81 17 82 18 83 19 93 20 84 21 85 22 86 23
REMARK SMILES IDX 87 24 91 25 88 26 90 27 92 28 89 29 10 30 11 31 12 32 13 33
REMARK SMILES IDX 14 34 15 35 76 36 16 37 75 38 17 39 18 40 19 41 69 42 20 43
REMARK SMILES IDX 74 44 68 45 70 46 21 47 73 48 67 49 66 50 22 52 54 53 34 54
REMARK SMILES IDX 53 55 35 56 38 57 52 58 71 59 36 60 37 61 51 63 72 64 39 65
REMARK SMILES IDX 23 66 24 67 32 68 25 69 31 70 33 71 30 72 26 73 27 74 28 75
REMARK SMILES IDX 29 76 55 77 56 78 64 79 57 80 63 81 65 82 62 83 58 84 59 85
REMARK SMILES IDX 60 86 61 87 40 88 41 89 49 90 42 91 48 92 50 93 47 94 43 95
REMARK SMILES IDX 44 96 45 97 46 98
REMARK H PARENT 70 51 38 62
REMARK Flexibility Score: inf
ROOT
ATOM      1  C   UNL A   1      47.622  39.418  26.952  1.00  0.00     0.274 C 
ENDROOT
BRANCH   1   2
ATOM      2  O   UNL A   1      47.037  39.797  25.684  1.00  0.00    -0.461 OA
BRANCH   2   3
ATOM      3  C   UNL A   1      45.793  40.354  25.808  1.00  0.00     0.329 C 
ATOM      4  O   UNL A   1      44.786  39.710  26.084  1.00  0.00    -0.250 OA
BRANCH   3   5
ATOM      5  C   UNL A   1      45.766  41.869  25.500  1.00  0.00     0.202 C 
BRANCH   5   6
ATOM      6  C   UNL A   1      45.254  42.577  26.788  1.00  0.00     0.048 C 
BRANCH   6   7
ATOM      7  C   UNL A   1      46.313  43.306  27.633  1.00  0.00     0.072 C 
BRANCH   7   8
ATOM      8  S   UNL A   1      46.907  44.884  26.934  1.00  0.00    -0.165 SA
ATOM      9  C   UNL A   1      45.506  45.348  25.882  1.00  0.00     0.085 C 
ENDBRANCH   7   8
ENDBRANCH   6   7
ENDBRANCH   5   6
BRANCH   5  10
ATOM     10  N   UNL A   1      45.004  42.292  24.286  1.00  0.00    -0.278 N 
ATOM     11  C   UNL A   1      45.637  42.294  23.035  1.00  0.00     0.267 C 
ATOM     12  C   UNL A   1      43.636  42.339  24.156  1.00  0.00     0.149 C 
ATOM     13  O   UNL A   1      46.753  41.855  22.797  1.00  0.00    -0.268 OA
ATOM     14  C   UNL A   1      44.723  42.832  21.976  1.00  0.00     0.084 C 
ATOM     15  S   UNL A   1      43.248  43.265  22.731  1.00  0.00    -0.054 SA
ATOM     16  S   UNL A   1      42.431  41.632  25.062  1.00  0.00    -0.052 S 
ATOM     17  C   UNL A   1      44.943  42.901  20.653  1.00  0.00     0.068 C 
BRANCH  17  18
ATOM     18  C   UNL A   1      44.034  43.623  19.811  1.00  0.00     0.128 A 
ATOM     19  C   UNL A   1      42.837  43.153  19.277  1.00  0.00     0.051 A 
ATOM     20  O   UNL A   1      44.230  44.901  19.326  1.00  0.00    -0.457 OA
ATOM     21  C   UNL A   1      42.342  44.126  18.388  1.00  0.00     0.051 A 
ATOM     22  C   UNL A   1      43.223  45.183  18.438  1.00  0.00     0.136 A 
BRANCH  22  23
ATOM     23  C   UNL A   1      43.210  46.487  17.775  1.00  0.00     0.036 A 
ATOM     24  C   UNL A   1      41.962  47.126  17.620  1.00  0.00     0.013 A 
ATOM     25  C   UNL A   1      44.339  47.111  17.223  1.00  0.00     0.052 A 
ATOM     26  C   UNL A   1      41.840  48.344  16.947  1.00  0.00     0.001 A 
ATOM     27  C   UNL A   1      44.217  48.350  16.572  1.00  0.00     0.021 A 
ATOM     28  Cl  UNL A   1      45.907  46.376  17.229  1.00  0.00    -0.084 Cl
ATOM     29  C   UNL A   1      42.970  48.959  16.424  1.00  0.00     0.002 A 
ENDBRANCH  22  23
ENDBRANCH  17  18
ENDBRANCH   5  10
ENDBRANCH   3   5
ENDBRANCH   2   3
ENDBRANCH   1   2
BRANCH   1  30
ATOM     30  C   UNL A   1      47.585  37.899  27.134  1.00  0.00     0.275 C 
BRANCH  30  31
ATOM     31  O   UNL A   1      47.233  37.631  28.498  1.00  0.00    -0.458 OA
BRANCH  31  32
ATOM     32  C   UNL A   1      45.927  37.375  28.762  1.00  0.00     0.338 C 
ATOM     33  O   UNL A   1      45.045  38.183  28.970  1.00  0.00    -0.246 OA
BRANCH  32  34
ATOM     34  C   UNL A   1      45.722  35.916  28.632  1.00  0.00     0.060 A 
ATOM     35  C   UNL A   1      45.041  35.456  27.513  1.00  0.00     0.016 A 
ATOM     36  C   UNL A   1      46.077  35.015  29.634  1.00  0.00     0.016 A 
ATOM     37  C   UNL A   1      44.642  34.127  27.437  1.00  0.00     0.010 A 
ATOM     38  C   UNL A   1      45.731  33.655  29.509  1.00  0.00     0.010 A 
ATOM     39  C   UNL A   1      44.950  33.195  28.431  1.00  0.00    -0.014 A 
BRANCH  39  40
ATOM     40  C   UNL A   1      44.332  31.820  28.383  1.00  0.00     0.031 A 
ATOM     41  C   UNL A   1      45.101  30.680  27.749  1.00  0.00     0.074 A 
ATOM     42  C   UNL A   1      43.158  31.529  28.991  1.00  0.00     0.049 A 
ATOM     43  N   UNL A   1      44.683  29.494  27.383  1.00  0.00    -0.248 NA
ATOM     44  C   UNL A   1      46.528  30.912  27.478  1.00  0.00     0.031 C 
ATOM     45  C   UNL A   1      42.342  32.469  29.762  1.00  0.00     0.029 A 
ATOM     46  N   UNL A   1      42.461  30.345  29.099  1.00  0.00    -0.354 N 
ATOM     47  C   UNL A   1      45.756  28.892  26.730  1.00  0.00     0.074 A 
ATOM     48  C   UNL A   1      46.857  29.830  26.787  1.00  0.00     0.031 C 
ATOM     49  C   UNL A   1      41.333  31.811  30.347  1.00  0.00     0.029 A 
ATOM     50  C   UNL A   1      41.307  30.442  29.850  1.00  0.00     0.049 A 
ATOM     51  H   UNL A   1      42.760  29.505  28.679  1.00  0.00     0.167 HD
ATOM     52  C   UNL A   1      45.802  27.683  26.116  1.00  0.00     0.034 A 
ATOM     53  C   UNL A   1      40.298  29.569  30.059  1.00  0.00     0.034 A 
ATOM     54  C   UNL A   1      44.718  26.729  26.150  1.00  0.00     0.049 A 
ATOM     55  C   UNL A   1      40.369  28.224  29.377  1.00  0.00     0.074 A 
ATOM     56  C   UNL A   1      44.624  25.500  25.520  1.00  0.00     0.029 A 
ATOM     57  N   UNL A   1      43.548  26.887  26.883  1.00  0.00    -0.354 N 
ATOM     58  N   UNL A   1      41.326  27.731  28.623  1.00  0.00    -0.248 NA
ATOM     59  C   UNL A   1      39.214  27.333  29.543  1.00  0.00     0.031 C 
ATOM     60  C   UNL A   1      43.380  24.939  25.832  1.00  0.00     0.029 A 
ATOM     61  C   UNL A   1      42.726  25.783  26.713  1.00  0.00     0.049 A 
ATOM     62  H   UNL A   1      43.333  27.669  27.440  1.00  0.00     0.167 HD
ATOM     63  C   UNL A   1      40.876  26.478  28.215  1.00  0.00     0.074 A 
ATOM     64  C   UNL A   1      39.597  26.266  28.858  1.00  0.00     0.031 C 
ATOM     65  C   UNL A   1      41.450  25.596  27.359  1.00  0.00     0.034 A 
BRANCH  52  66
ATOM     66  C   UNL A   1      47.016  27.375  25.266  1.00  0.00     0.023 A 
ATOM     67  C   UNL A   1      47.171  27.852  23.955  1.00  0.00     0.031 A 
ATOM     68  C   UNL A   1      48.027  26.542  25.785  1.00  0.00     0.131 A 
ATOM     69  C   UNL A   1      48.272  27.436  23.186  1.00  0.00     0.055 A 
ATOM     70  C   UNL A   1      49.157  26.197  25.043  1.00  0.00     0.041 A 
ATOM     71  F   UNL A   1      47.924  26.036  27.024  1.00  0.00    -0.206 F 
ATOM     72  C   UNL A   1      49.278  26.633  23.729  1.00  0.00     0.022 A 
BRANCH  69  73
ATOM     73  S   UNL A   1      48.300  27.842  21.417  1.00  0.00     0.124 S 
ATOM     74  O   UNL A   1      48.597  26.541  20.822  1.00  0.00    -0.237 OA
ATOM     75  O   UNL A   1      46.955  28.356  21.191  1.00  0.00    -0.237 OA
ATOM     76  O   UNL A   1      49.373  28.829  21.308  1.00  0.00    -0.744 OA
ENDBRANCH  69  73
ENDBRANCH  52  66
BRANCH  53  77
ATOM     77  C   UNL A   1      39.095  29.964  30.865  1.00  0.00     0.023 A 
ATOM     78  C   UNL A   1      38.189  30.925  30.391  1.00  0.00     0.031 A 
ATOM     79  C   UNL A   1      38.842  29.421  32.140  1.00  0.00     0.131 A 
ATOM     80  C   UNL A   1      37.088  31.319  31.170  1.00  0.00     0.055 A 
ATOM     81  C   UNL A   1      37.709  29.760  32.884  1.00  0.00     0.041 A 
ATOM     82  F   UNL A   1      39.686  28.529  32.680  1.00  0.00    -0.206 F 
ATOM     83  C   UNL A   1      36.827  30.722  32.404  1.00  0.00     0.022 A 
BRANCH  80  84
ATOM     84  S   UNL A   1      36.068  32.704  30.594  1.00  0.00     0.124 S 
ATOM     85  O   UNL A   1      36.497  32.836  29.207  1.00  0.00    -0.237 OA
ATOM     86  O   UNL A   1      34.716  32.191  30.791  1.00  0.00    -0.237 OA
ATOM     87  O   UNL A   1      36.456  33.802  31.476  1.00  0.00    -0.744 OA
ENDBRANCH  80  84
ENDBRANCH  53  77
BRANCH  65  88
ATOM     88  C   UNL A   1      40.690  24.320  27.089  1.00  0.00     0.023 A 
ATOM     89  C   UNL A   1      39.478  24.330  26.377  1.00  0.00     0.031 A 
ATOM     90  C   UNL A   1      41.171  23.089  27.565  1.00  0.00     0.131 A 
ATOM     91  C   UNL A   1      38.755  23.140  26.214  1.00  0.00     0.055 A 
ATOM     92  C   UNL A   1      40.478  21.898  27.346  1.00  0.00     0.041 A 
ATOM     93  F   UNL A   1      42.322  23.025  28.254  1.00  0.00    -0.206 F 
ATOM     94  C   UNL A   1      39.255  21.921  26.679  1.00  0.00     0.022 A 
BRANCH  91  95
ATOM     95  S   UNL A   1      37.104  23.221  25.468  1.00  0.00     0.124 S 
ATOM     96  O   UNL A   1      36.536  24.398  26.117  1.00  0.00    -0.237 OA
ATOM     97  O   UNL A   1      37.408  23.360  24.048  1.00  0.00    -0.237 OA
ATOM     98  O   UNL A   1      36.494  21.948  25.848  1.00  0.00    -0.744 OA
ENDBRANCH  91  95
ENDBRANCH  65  88
ENDBRANCH  39  40
ENDBRANCH  32  34
ENDBRANCH  31  32
ENDBRANCH  30  31
ENDBRANCH   1  30
TORSDOF 20
ENDMDL
