MODEL 1
REMARK VINA RESULT:     -12.6      0.000      0.000
REMARK SMILES CC1=C(CC(=O)OCCOC(=O)c2ccc(-c3c4nc(c(-c5cc(S(=O)(=O)[O-])ccc5F)c5ccc([nH]5)c(-c5cc(S(=O)(=O)[O-])ccc5F)c5nc(c(-c6cc(S(=O)(=O)[O-])ccc6F)c6ccc3[nH]6)C=C5)C=C4)cc2)c2cc(F)ccc2/C1=C\c1ccc([S@@+](C)[O-])cc1
REMARK SMILES IDX 8 1 7 2 5 3 6 4 4 5 3 6 1 7 2 8 83 9 76 10 82 11 84 12 77 13
REMARK SMILES IDX 81 14 78 15 80 16 79 17 85 18 86 19 93 20 87 21 92 22 88 23
REMARK SMILES IDX 89 24 90 25 91 26 9 27 10 28 11 29 12 30 13 31 14 32 75 33
REMARK SMILES IDX 15 34 74 35 16 36 17 37 18 38 68 39 19 40 73 41 67 42 69 43
REMARK SMILES IDX 20 44 72 45 66 46 65 47 21 49 53 50 33 51 52 52 34 53 37 54
REMARK SMILES IDX 51 55 70 56 35 57 36 58 50 60 71 61 38 62 22 63 23 64 31 65
REMARK SMILES IDX 24 66 30 67 32 68 29 69 25 70 26 71 27 72 28 73 54 74 55 75
REMARK SMILES IDX 63 76 56 77 62 78 64 79 61 80 57 81 58 82 59 83 60 84 39 85
REMARK SMILES IDX 40 86 48 87 41 88 47 89 49 90 46 91 42 92 43 93 44 94 45 95
REMARK H PARENT 69 48 37 59
REMARK Flexibility Score: inf
ROOT
ATOM      1  C   UNL A   1      31.808  29.400  24.952  1.00  0.00     0.274 C 
ENDROOT
BRANCH   1   2
ATOM      2  O   UNL A   1      33.083  28.928  24.470  1.00  0.00    -0.462 OA
BRANCH   2   3
ATOM      3  C   UNL A   1      33.166  27.592  24.234  1.00  0.00     0.310 C 
ATOM      4  O   UNL A   1      33.082  27.080  23.122  1.00  0.00    -0.252 OA
BRANCH   3   5
ATOM      5  C   UNL A   1      33.379  26.742  25.481  1.00  0.00     0.159 C 
BRANCH   5   6
ATOM      6  C   UNL A   1      33.282  25.262  25.323  1.00  0.00    -0.025 C 
ATOM      7  C   UNL A   1      30.787  24.973  24.886  1.00  0.00     0.045 C 
ATOM      8  C   UNL A   1      32.191  24.503  25.071  1.00  0.00    -0.039 C 
ATOM      9  C   UNL A   1      32.588  23.090  24.957  1.00  0.00    -0.014 C 
ATOM     10  C   UNL A   1      34.457  24.373  25.320  1.00  0.00    -0.011 A 
ATOM     11  C   UNL A   1      34.059  23.046  25.092  1.00  0.00    -0.010 A 
ATOM     12  C   UNL A   1      31.727  22.071  24.769  1.00  0.00     0.017 C 
ATOM     13  C   UNL A   1      35.802  24.687  25.454  1.00  0.00     0.048 A 
ATOM     14  C   UNL A   1      35.010  22.033  24.999  1.00  0.00     0.012 A 
ATOM     15  C   UNL A   1      36.742  23.664  25.395  1.00  0.00     0.123 A 
ATOM     16  C   UNL A   1      36.360  22.345  25.171  1.00  0.00     0.040 A 
ATOM     17  F   UNL A   1      38.040  23.955  25.537  1.00  0.00    -0.207 F 
BRANCH  12  18
ATOM     18  C   UNL A   1      32.114  20.665  24.663  1.00  0.00    -0.025 A 
ATOM     19  C   UNL A   1      32.440  19.936  25.812  1.00  0.00     0.013 A 
ATOM     20  C   UNL A   1      32.293  20.089  23.404  1.00  0.00     0.013 A 
ATOM     21  C   UNL A   1      33.035  18.677  25.697  1.00  0.00     0.061 A 
ATOM     22  C   UNL A   1      32.867  18.820  23.293  1.00  0.00     0.061 A 
ATOM     23  C   UNL A   1      33.268  18.116  24.436  1.00  0.00     0.152 A 
BRANCH  23  24
ATOM     24  S   UNL A   1      34.220  16.587  24.236  1.00  0.00    -0.018 S 
ATOM     25  C   UNL A   1      33.150  15.434  25.120  1.00  0.00     0.346 C 
ATOM     26  O   UNL A   1      34.162  16.211  22.712  1.00  0.00    -0.612 OA
ENDBRANCH  23  24
ENDBRANCH  12  18
ENDBRANCH   5   6
ENDBRANCH   3   5
ENDBRANCH   2   3
ENDBRANCH   1   2
BRANCH   1  27
ATOM     27  C   UNL A   1      31.992  30.412  26.078  1.00  0.00     0.275 C 
BRANCH  27  28
ATOM     28  O   UNL A   1      33.365  30.419  26.499  1.00  0.00    -0.458 OA
BRANCH  28  29
ATOM     29  C   UNL A   1      33.705  31.406  27.360  1.00  0.00     0.338 C 
ATOM     30  O   UNL A   1      33.085  32.426  27.597  1.00  0.00    -0.246 OA
BRANCH  29  31
ATOM     31  C   UNL A   1      35.004  31.079  27.974  1.00  0.00     0.060 A 
ATOM     32  C   UNL A   1      35.232  29.774  28.401  1.00  0.00     0.016 A 
ATOM     33  C   UNL A   1      36.019  32.037  28.053  1.00  0.00     0.016 A 
ATOM     34  C   UNL A   1      36.469  29.444  28.955  1.00  0.00     0.010 A 
ATOM     35  C   UNL A   1      37.285  31.677  28.509  1.00  0.00     0.010 A 
ATOM     36  C   UNL A   1      37.510  30.389  29.007  1.00  0.00    -0.014 A 
BRANCH  36  37
ATOM     37  C   UNL A   1      38.816  30.022  29.612  1.00  0.00     0.031 A 
ATOM     38  C   UNL A   1      39.205  30.553  30.966  1.00  0.00     0.074 A 
ATOM     39  C   UNL A   1      39.640  29.185  28.954  1.00  0.00     0.049 A 
ATOM     40  N   UNL A   1      40.218  30.212  31.720  1.00  0.00    -0.248 NA
ATOM     41  C   UNL A   1      38.361  31.612  31.545  1.00  0.00     0.031 C 
ATOM     42  C   UNL A   1      39.407  28.671  27.604  1.00  0.00     0.029 A 
ATOM     43  N   UNL A   1      40.824  28.601  29.333  1.00  0.00    -0.354 N 
ATOM     44  C   UNL A   1      40.122  30.999  32.862  1.00  0.00     0.074 A 
ATOM     45  C   UNL A   1      39.003  31.891  32.669  1.00  0.00     0.031 C 
ATOM     46  C   UNL A   1      40.384  27.807  27.289  1.00  0.00     0.029 A 
ATOM     47  C   UNL A   1      41.326  27.719  28.404  1.00  0.00     0.049 A 
ATOM     48  H   UNL A   1      41.272  28.797  30.188  1.00  0.00     0.167 HD
ATOM     49  C   UNL A   1      40.871  30.950  33.988  1.00  0.00     0.034 A 
ATOM     50  C   UNL A   1      42.403  26.908  28.454  1.00  0.00     0.034 A 
ATOM     51  C   UNL A   1      41.975  30.046  34.172  1.00  0.00     0.049 A 
ATOM     52  C   UNL A   1      43.218  26.858  29.723  1.00  0.00     0.074 A 
ATOM     53  C   UNL A   1      42.761  29.875  35.296  1.00  0.00     0.029 A 
ATOM     54  N   UNL A   1      42.451  29.165  33.211  1.00  0.00    -0.354 N 
ATOM     55  N   UNL A   1      43.034  27.510  30.847  1.00  0.00    -0.248 NA
ATOM     56  C   UNL A   1      44.373  25.949  29.745  1.00  0.00     0.031 C 
ATOM     57  C   UNL A   1      43.746  28.933  34.999  1.00  0.00     0.029 A 
ATOM     58  C   UNL A   1      43.536  28.466  33.710  1.00  0.00     0.049 A 
ATOM     59  H   UNL A   1      42.072  29.053  32.309  1.00  0.00     0.167 HD
ATOM     60  C   UNL A   1      44.031  27.074  31.715  1.00  0.00     0.074 A 
ATOM     61  C   UNL A   1      44.801  26.082  30.994  1.00  0.00     0.031 C 
ATOM     62  C   UNL A   1      44.287  27.463  32.990  1.00  0.00     0.034 A 
BRANCH  49  63
ATOM     63  C   UNL A   1      40.505  31.859  35.135  1.00  0.00     0.023 A 
ATOM     64  C   UNL A   1      39.496  31.492  36.042  1.00  0.00     0.031 A 
ATOM     65  C   UNL A   1      41.076  33.141  35.256  1.00  0.00     0.131 A 
ATOM     66  C   UNL A   1      39.069  32.406  37.013  1.00  0.00     0.055 A 
ATOM     67  C   UNL A   1      40.674  34.032  36.250  1.00  0.00     0.041 A 
ATOM     68  F   UNL A   1      42.042  33.539  34.413  1.00  0.00    -0.206 F 
ATOM     69  C   UNL A   1      39.658  33.670  37.127  1.00  0.00     0.022 A 
BRANCH  66  70
ATOM     70  S   UNL A   1      37.694  32.017  38.131  1.00  0.00     0.124 S 
ATOM     71  O   UNL A   1      38.307  32.218  39.442  1.00  0.00    -0.237 OA
ATOM     72  O   UNL A   1      36.699  33.016  37.749  1.00  0.00    -0.237 OA
ATOM     73  O   UNL A   1      37.358  30.635  37.808  1.00  0.00    -0.744 OA
ENDBRANCH  66  70
ENDBRANCH  49  63
BRANCH  50  74
ATOM     74  C   UNL A   1      42.691  26.011  27.296  1.00  0.00     0.023 A 
ATOM     75  C   UNL A   1      42.178  24.702  27.245  1.00  0.00     0.031 A 
ATOM     76  C   UNL A   1      43.574  26.413  26.279  1.00  0.00     0.131 A 
ATOM     77  C   UNL A   1      42.598  23.827  26.235  1.00  0.00     0.055 A 
ATOM     78  C   UNL A   1      43.940  25.559  25.238  1.00  0.00     0.041 A 
ATOM     79  F   UNL A   1      44.103  27.647  26.293  1.00  0.00    -0.206 F 
ATOM     80  C   UNL A   1      43.464  24.252  25.222  1.00  0.00     0.022 A 
BRANCH  77  81
ATOM     81  S   UNL A   1      42.138  22.071  26.270  1.00  0.00     0.124 S 
ATOM     82  O   UNL A   1      42.472  21.697  27.641  1.00  0.00    -0.237 OA
ATOM     83  O   UNL A   1      40.711  22.130  25.961  1.00  0.00    -0.237 OA
ATOM     84  O   UNL A   1      42.974  21.476  25.232  1.00  0.00    -0.744 OA
ENDBRANCH  77  81
ENDBRANCH  50  74
BRANCH  62  85
ATOM     85  C   UNL A   1      45.447  26.835  33.724  1.00  0.00     0.023 A 
ATOM     86  C   UNL A   1      45.232  25.717  34.553  1.00  0.00     0.031 A 
ATOM     87  C   UNL A   1      46.713  27.444  33.742  1.00  0.00     0.131 A 
ATOM     88  C   UNL A   1      46.254  25.271  35.401  1.00  0.00     0.055 A 
ATOM     89  C   UNL A   1      47.743  26.967  34.554  1.00  0.00     0.041 A 
ATOM     90  F   UNL A   1      46.962  28.521  32.980  1.00  0.00    -0.206 F 
ATOM     91  C   UNL A   1      47.510  25.887  35.400  1.00  0.00     0.022 A 
BRANCH  88  92
ATOM     92  S   UNL A   1      45.961  23.946  36.606  1.00  0.00     0.124 S 
ATOM     93  O   UNL A   1      46.539  24.511  37.821  1.00  0.00    -0.237 OA
ATOM     94  O   UNL A   1      44.504  23.842  36.599  1.00  0.00    -0.237 OA
ATOM     95  O   UNL A   1      46.674  22.801  36.051  1.00  0.00    -0.744 OA
ENDBRANCH  88  92
ENDBRANCH  62  85
ENDBRANCH  36  37
ENDBRANCH  29  31
ENDBRANCH  28  29
ENDBRANCH  27  28
ENDBRANCH   1  27
TORSDOF 17
ENDMDL
MODEL 2
REMARK VINA RESULT:     -12.5      5.152     10.340
REMARK SMILES CC1=C(CC(=O)OCCOC(=O)c2ccc(-c3c4nc(c(-c5cc(S(=O)(=O)[O-])ccc5F)c5ccc([nH]5)c(-c5cc(S(=O)(=O)[O-])ccc5F)c5nc(c(-c6cc(S(=O)(=O)[O-])ccc6F)c6ccc3[nH]6)C=C5)C=C4)cc2)c2cc(F)ccc2/C1=C\c1ccc([S@@+](C)[O-])cc1
REMARK SMILES IDX 8 1 7 2 5 3 6 4 4 5 3 6 1 7 2 8 83 9 76 10 82 11 84 12 77 13
REMARK SMILES IDX 81 14 78 15 80 16 79 17 85 18 86 19 93 20 87 21 92 22 88 23
REMARK SMILES IDX 89 24 90 25 91 26 9 27 10 28 11 29 12 30 13 31 14 32 75 33
REMARK SMILES IDX 15 34 74 35 16 36 17 37 18 38 68 39 19 40 73 41 67 42 69 43
REMARK SMILES IDX 20 44 72 45 66 46 65 47 21 49 53 50 33 51 52 52 34 53 37 54
REMARK SMILES IDX 51 55 70 56 35 57 36 58 50 60 71 61 38 62 22 63 23 64 31 65
REMARK SMILES IDX 24 66 30 67 32 68 29 69 25 70 26 71 27 72 28 73 54 74 55 75
REMARK SMILES IDX 63 76 56 77 62 78 64 79 61 80 57 81 58 82 59 83 60 84 39 85
REMARK SMILES IDX 40 86 48 87 41 88 47 89 49 90 46 91 42 92 43 93 44 94 45 95
REMARK H PARENT 69 48 37 59
REMARK Flexibility Score: inf
ROOT
ATOM      1  C   UNL A   1      35.704  21.441  24.657  1.00  0.00     0.274 C 
ENDROOT
BRANCH   1   2
ATOM      2  O   UNL A   1      34.613  20.545  24.957  1.00  0.00    -0.462 OA
BRANCH   2   3
ATOM      3  C   UNL A   1      33.614  21.068  25.717  1.00  0.00     0.310 C 
ATOM      4  O   UNL A   1      33.752  21.439  26.879  1.00  0.00    -0.252 OA
BRANCH   3   5
ATOM      5  C   UNL A   1      32.269  21.169  25.009  1.00  0.00     0.159 C 
BRANCH   5   6
ATOM      6  C   UNL A   1      31.780  22.535  24.664  1.00  0.00    -0.025 C 
ATOM      7  C   UNL A   1      30.605  23.202  26.826  1.00  0.00     0.045 C 
ATOM      8  C   UNL A   1      31.075  23.404  25.424  1.00  0.00    -0.039 C 
ATOM      9  C   UNL A   1      30.855  24.651  24.674  1.00  0.00    -0.014 C 
ATOM     10  C   UNL A   1      32.106  23.212  23.397  1.00  0.00    -0.011 A 
ATOM     11  C   UNL A   1      31.558  24.505  23.383  1.00  0.00    -0.010 A 
ATOM     12  C   UNL A   1      30.134  25.695  25.129  1.00  0.00     0.017 C 
ATOM     13  C   UNL A   1      32.874  22.765  22.330  1.00  0.00     0.048 A 
ATOM     14  C   UNL A   1      31.780  25.351  22.300  1.00  0.00     0.012 A 
ATOM     15  C   UNL A   1      33.060  23.605  21.237  1.00  0.00     0.123 A 
ATOM     16  C   UNL A   1      32.522  24.887  21.212  1.00  0.00     0.040 A 
ATOM     17  F   UNL A   1      33.788  23.178  20.198  1.00  0.00    -0.207 F 
BRANCH  12  18
ATOM     18  C   UNL A   1      29.904  26.933  24.385  1.00  0.00    -0.025 A 
ATOM     19  C   UNL A   1      30.779  28.014  24.532  1.00  0.00     0.013 A 
ATOM     20  C   UNL A   1      28.735  27.085  23.638  1.00  0.00     0.013 A 
ATOM     21  C   UNL A   1      30.436  29.267  24.017  1.00  0.00     0.061 A 
ATOM     22  C   UNL A   1      28.406  28.333  23.103  1.00  0.00     0.061 A 
ATOM     23  C   UNL A   1      29.239  29.440  23.312  1.00  0.00     0.152 A 
BRANCH  23  24
ATOM     24  S   UNL A   1      28.660  31.082  22.809  1.00  0.00    -0.018 S 
ATOM     25  C   UNL A   1      28.237  30.752  21.087  1.00  0.00     0.346 C 
ATOM     26  O   UNL A   1      27.319  31.348  23.583  1.00  0.00    -0.612 OA
ENDBRANCH  23  24
ENDBRANCH  12  18
ENDBRANCH   5   6
ENDBRANCH   3   5
ENDBRANCH   2   3
ENDBRANCH   1   2
BRANCH   1  27
ATOM     27  C   UNL A   1      37.029  20.868  25.149  1.00  0.00     0.275 C 
BRANCH  27  28
ATOM     28  O   UNL A   1      37.951  21.939  25.404  1.00  0.00    -0.458 OA
BRANCH  28  29
ATOM     29  C   UNL A   1      39.039  21.608  26.137  1.00  0.00     0.338 C 
ATOM     30  O   UNL A   1      39.444  20.490  26.395  1.00  0.00    -0.246 OA
BRANCH  29  31
ATOM     31  C   UNL A   1      39.676  22.841  26.632  1.00  0.00     0.060 A 
ATOM     32  C   UNL A   1      39.224  24.067  26.151  1.00  0.00     0.016 A 
ATOM     33  C   UNL A   1      40.657  22.790  27.626  1.00  0.00     0.016 A 
ATOM     34  C   UNL A   1      39.796  25.243  26.634  1.00  0.00     0.010 A 
ATOM     35  C   UNL A   1      41.150  23.969  28.182  1.00  0.00     0.010 A 
ATOM     36  C   UNL A   1      40.759  25.207  27.660  1.00  0.00    -0.014 A 
BRANCH  36  37
ATOM     37  C   UNL A   1      41.366  26.469  28.153  1.00  0.00     0.031 A 
ATOM     38  C   UNL A   1      42.789  26.817  27.808  1.00  0.00     0.074 A 
ATOM     39  C   UNL A   1      40.624  27.319  28.889  1.00  0.00     0.049 A 
ATOM     40  N   UNL A   1      43.430  27.940  28.005  1.00  0.00    -0.248 NA
ATOM     41  C   UNL A   1      43.606  25.768  27.176  1.00  0.00     0.031 C 
ATOM     42  C   UNL A   1      39.261  27.054  29.353  1.00  0.00     0.029 A 
ATOM     43  N   UNL A   1      40.896  28.581  29.358  1.00  0.00    -0.354 N 
ATOM     44  C   UNL A   1      44.712  27.738  27.507  1.00  0.00     0.074 A 
ATOM     45  C   UNL A   1      44.786  26.362  27.075  1.00  0.00     0.031 C 
ATOM     46  C   UNL A   1      38.796  28.139  29.989  1.00  0.00     0.029 A 
ATOM     47  C   UNL A   1      39.832  29.172  30.000  1.00  0.00     0.049 A 
ATOM     48  H   UNL A   1      41.770  29.021  29.245  1.00  0.00     0.167 HD
ATOM     49  C   UNL A   1      45.720  28.631  27.380  1.00  0.00     0.034 A 
ATOM     50  C   UNL A   1      39.692  30.413  30.512  1.00  0.00     0.034 A 
ATOM     51  C   UNL A   1      45.628  30.003  27.804  1.00  0.00     0.049 A 
ATOM     52  C   UNL A   1      40.824  31.398  30.348  1.00  0.00     0.074 A 
ATOM     53  C   UNL A   1      46.570  31.005  27.666  1.00  0.00     0.029 A 
ATOM     54  N   UNL A   1      44.534  30.566  28.446  1.00  0.00    -0.354 N 
ATOM     55  N   UNL A   1      41.982  31.232  29.753  1.00  0.00    -0.248 NA
ATOM     56  C   UNL A   1      40.627  32.745  30.904  1.00  0.00     0.031 C 
ATOM     57  C   UNL A   1      46.071  32.157  28.274  1.00  0.00     0.029 A 
ATOM     58  C   UNL A   1      44.789  31.895  28.734  1.00  0.00     0.049 A 
ATOM     59  H   UNL A   1      43.700  30.090  28.663  1.00  0.00     0.167 HD
ATOM     60  C   UNL A   1      42.640  32.456  29.840  1.00  0.00     0.074 A 
ATOM     61  C   UNL A   1      41.739  33.361  30.523  1.00  0.00     0.031 C 
ATOM     62  C   UNL A   1      43.877  32.796  29.398  1.00  0.00     0.034 A 
BRANCH  49  63
ATOM     63  C   UNL A   1      46.999  28.182  26.718  1.00  0.00     0.023 A 
ATOM     64  C   UNL A   1      47.115  28.182  25.317  1.00  0.00     0.031 A 
ATOM     65  C   UNL A   1      48.057  27.642  27.474  1.00  0.00     0.131 A 
ATOM     66  C   UNL A   1      48.252  27.628  24.714  1.00  0.00     0.055 A 
ATOM     67  C   UNL A   1      49.205  27.129  26.870  1.00  0.00     0.041 A 
ATOM     68  F   UNL A   1      47.994  27.617  28.815  1.00  0.00    -0.206 F 
ATOM     69  C   UNL A   1      49.300  27.110  25.483  1.00  0.00     0.022 A 
BRANCH  66  70
ATOM     70  S   UNL A   1      48.394  27.506  22.910  1.00  0.00     0.124 S 
ATOM     71  O   UNL A   1      49.705  28.105  22.671  1.00  0.00    -0.237 OA
ATOM     72  O   UNL A   1      48.320  26.063  22.696  1.00  0.00    -0.237 OA
ATOM     73  O   UNL A   1      47.259  28.276  22.414  1.00  0.00    -0.744 OA
ENDBRANCH  66  70
ENDBRANCH  49  63
BRANCH  50  74
ATOM     74  C   UNL A   1      38.390  30.802  31.126  1.00  0.00     0.023 A 
ATOM     75  C   UNL A   1      37.379  31.413  30.361  1.00  0.00     0.031 A 
ATOM     76  C   UNL A   1      38.181  30.670  32.510  1.00  0.00     0.131 A 
ATOM     77  C   UNL A   1      36.236  31.921  30.994  1.00  0.00     0.055 A 
ATOM     78  C   UNL A   1      37.012  31.119  33.126  1.00  0.00     0.041 A 
ATOM     79  F   UNL A   1      39.123  30.109  33.284  1.00  0.00    -0.206 F 
ATOM     80  C   UNL A   1      36.039  31.764  32.370  1.00  0.00     0.022 A 
BRANCH  77  81
ATOM     81  S   UNL A   1      35.025  32.914  30.076  1.00  0.00     0.124 S 
ATOM     82  O   UNL A   1      34.080  33.285  31.125  1.00  0.00    -0.237 OA
ATOM     83  O   UNL A   1      35.857  33.999  29.563  1.00  0.00    -0.237 OA
ATOM     84  O   UNL A   1      34.517  31.990  29.067  1.00  0.00    -0.744 OA
ENDBRANCH  77  81
ENDBRANCH  50  74
BRANCH  62  85
ATOM     85  C   UNL A   1      44.369  34.206  29.625  1.00  0.00     0.023 A 
ATOM     86  C   UNL A   1      44.081  35.211  28.681  1.00  0.00     0.031 A 
ATOM     87  C   UNL A   1      45.260  34.507  30.669  1.00  0.00     0.131 A 
ATOM     88  C   UNL A   1      44.717  36.456  28.773  1.00  0.00     0.055 A 
ATOM     89  C   UNL A   1      45.854  35.765  30.783  1.00  0.00     0.041 A 
ATOM     90  F   UNL A   1      45.576  33.578  31.584  1.00  0.00    -0.206 F 
ATOM     91  C   UNL A   1      45.596  36.740  29.823  1.00  0.00     0.022 A 
BRANCH  88  92
ATOM     92  S   UNL A   1      44.505  37.714  27.483  1.00  0.00     0.124 S 
ATOM     93  O   UNL A   1      43.359  37.195  26.742  1.00  0.00    -0.237 OA
ATOM     94  O   UNL A   1      44.247  38.918  28.268  1.00  0.00    -0.237 OA
ATOM     95  O   UNL A   1      45.773  37.696  26.760  1.00  0.00    -0.744 OA
ENDBRANCH  88  92
ENDBRANCH  62  85
ENDBRANCH  36  37
ENDBRANCH  29  31
ENDBRANCH  28  29
ENDBRANCH  27  28
ENDBRANCH   1  27
TORSDOF 17
ENDMDL
MODEL 3
REMARK VINA RESULT:     -12.5      5.211     10.355
REMARK SMILES CC1=C(CC(=O)OCCOC(=O)c2ccc(-c3c4nc(c(-c5cc(S(=O)(=O)[O-])ccc5F)c5ccc([nH]5)c(-c5cc(S(=O)(=O)[O-])ccc5F)c5nc(c(-c6cc(S(=O)(=O)[O-])ccc6F)c6ccc3[nH]6)C=C5)C=C4)cc2)c2cc(F)ccc2/C1=C\c1ccc([S@@+](C)[O-])cc1
REMARK SMILES IDX 8 1 7 2 5 3 6 4 4 5 3 6 1 7 2 8 83 9 76 10 82 11 84 12 77 13
REMARK SMILES IDX 81 14 78 15 80 16 79 17 85 18 86 19 93 20 87 21 92 22 88 23
REMARK SMILES IDX 89 24 90 25 91 26 9 27 10 28 11 29 12 30 13 31 14 32 75 33
REMARK SMILES IDX 15 34 74 35 16 36 17 37 18 38 68 39 19 40 73 41 67 42 69 43
REMARK SMILES IDX 20 44 72 45 66 46 65 47 21 49 53 50 33 51 52 52 34 53 37 54
REMARK SMILES IDX 51 55 70 56 35 57 36 58 50 60 71 61 38 62 22 63 23 64 31 65
REMARK SMILES IDX 24 66 30 67 32 68 29 69 25 70 26 71 27 72 28 73 54 74 55 75
REMARK SMILES IDX 63 76 56 77 62 78 64 79 61 80 57 81 58 82 59 83 60 84 39 85
REMARK SMILES IDX 40 86 48 87 41 88 47 89 49 90 46 91 42 92 43 93 44 94 45 95
REMARK H PARENT 69 48 37 59
REMARK Flexibility Score: inf
ROOT
ATOM      1  C   UNL A   1      35.259  21.134  25.578  1.00  0.00     0.274 C 
ENDROOT
BRANCH   1   2
ATOM      2  O   UNL A   1      35.274  22.237  26.508  1.00  0.00    -0.462 OA
BRANCH   2   3
ATOM      3  C   UNL A   1      34.394  23.240  26.247  1.00  0.00     0.310 C 
ATOM      4  O   UNL A   1      33.320  23.385  26.822  1.00  0.00    -0.252 OA
BRANCH   3   5
ATOM      5  C   UNL A   1      34.844  24.206  25.158  1.00  0.00     0.159 C 
BRANCH   5   6
ATOM      6  C   UNL A   1      33.843  25.199  24.670  1.00  0.00    -0.025 C 
ATOM      7  C   UNL A   1      32.584  23.821  22.935  1.00  0.00     0.045 C 
ATOM      8  C   UNL A   1      32.882  25.047  23.730  1.00  0.00    -0.039 C 
ATOM      9  C   UNL A   1      32.103  26.291  23.614  1.00  0.00    -0.014 C 
ATOM     10  C   UNL A   1      33.687  26.541  25.257  1.00  0.00    -0.011 A 
ATOM     11  C   UNL A   1      32.629  27.222  24.633  1.00  0.00    -0.010 A 
ATOM     12  C   UNL A   1      31.112  26.486  22.723  1.00  0.00     0.017 C 
ATOM     13  C   UNL A   1      34.380  27.133  26.303  1.00  0.00     0.048 A 
ATOM     14  C   UNL A   1      32.266  28.497  25.059  1.00  0.00     0.012 A 
ATOM     15  C   UNL A   1      34.033  28.421  26.698  1.00  0.00     0.123 A 
ATOM     16  C   UNL A   1      32.987  29.105  26.088  1.00  0.00     0.040 A 
ATOM     17  F   UNL A   1      34.705  29.005  27.698  1.00  0.00    -0.207 F 
BRANCH  12  18
ATOM     18  C   UNL A   1      30.340  27.722  22.596  1.00  0.00    -0.025 A 
ATOM     19  C   UNL A   1      30.910  28.849  21.995  1.00  0.00     0.013 A 
ATOM     20  C   UNL A   1      29.086  27.820  23.201  1.00  0.00     0.013 A 
ATOM     21  C   UNL A   1      30.273  30.089  22.086  1.00  0.00     0.061 A 
ATOM     22  C   UNL A   1      28.439  29.057  23.270  1.00  0.00     0.061 A 
ATOM     23  C   UNL A   1      29.039  30.206  22.738  1.00  0.00     0.152 A 
BRANCH  23  24
ATOM     24  S   UNL A   1      28.281  31.821  23.058  1.00  0.00    -0.018 S 
ATOM     25  C   UNL A   1      27.964  32.358  21.366  1.00  0.00     0.346 C 
ATOM     26  O   UNL A   1      26.891  31.543  23.735  1.00  0.00    -0.612 OA
ENDBRANCH  23  24
ENDBRANCH  12  18
ENDBRANCH   5   6
ENDBRANCH   3   5
ENDBRANCH   2   3
ENDBRANCH   1   2
BRANCH   1  27
ATOM     27  C   UNL A   1      36.675  20.770  25.143  1.00  0.00     0.275 C 
BRANCH  27  28
ATOM     28  O   UNL A   1      37.558  21.870  25.409  1.00  0.00    -0.458 OA
BRANCH  28  29
ATOM     29  C   UNL A   1      38.735  21.545  25.992  1.00  0.00     0.338 C 
ATOM     30  O   UNL A   1      39.223  20.436  26.102  1.00  0.00    -0.246 OA
BRANCH  29  31
ATOM     31  C   UNL A   1      39.358  22.768  26.528  1.00  0.00     0.060 A 
ATOM     32  C   UNL A   1      40.433  22.641  27.404  1.00  0.00     0.016 A 
ATOM     33  C   UNL A   1      38.936  24.031  26.104  1.00  0.00     0.016 A 
ATOM     34  C   UNL A   1      41.053  23.791  27.894  1.00  0.00     0.010 A 
ATOM     35  C   UNL A   1      39.625  25.171  26.512  1.00  0.00     0.010 A 
ATOM     36  C   UNL A   1      40.661  25.067  27.447  1.00  0.00    -0.014 A 
BRANCH  36  37
ATOM     37  C   UNL A   1      41.325  26.279  27.989  1.00  0.00     0.031 A 
ATOM     38  C   UNL A   1      42.757  26.585  27.639  1.00  0.00     0.074 A 
ATOM     39  C   UNL A   1      40.628  27.123  28.774  1.00  0.00     0.049 A 
ATOM     40  N   UNL A   1      43.445  27.671  27.879  1.00  0.00    -0.248 NA
ATOM     41  C   UNL A   1      43.522  25.535  26.947  1.00  0.00     0.031 C 
ATOM     42  C   UNL A   1      39.262  26.891  29.246  1.00  0.00     0.029 A 
ATOM     43  N   UNL A   1      40.958  28.349  29.297  1.00  0.00    -0.354 N 
ATOM     44  C   UNL A   1      44.711  27.440  27.353  1.00  0.00     0.074 A 
ATOM     45  C   UNL A   1      44.724  26.085  26.856  1.00  0.00     0.031 C 
ATOM     46  C   UNL A   1      38.850  27.963  29.939  1.00  0.00     0.029 A 
ATOM     47  C   UNL A   1      39.928  28.951  29.982  1.00  0.00     0.049 A 
ATOM     48  H   UNL A   1      41.847  28.758  29.192  1.00  0.00     0.167 HD
ATOM     49  C   UNL A   1      45.754  28.297  27.253  1.00  0.00     0.034 A 
ATOM     50  C   UNL A   1      39.846  30.171  30.553  1.00  0.00     0.034 A 
ATOM     51  C   UNL A   1      45.723  29.650  27.741  1.00  0.00     0.049 A 
ATOM     52  C   UNL A   1      41.015  31.117  30.419  1.00  0.00     0.074 A 
ATOM     53  C   UNL A   1      46.704  30.619  27.637  1.00  0.00     0.029 A 
ATOM     54  N   UNL A   1      44.662  30.226  28.425  1.00  0.00    -0.354 N 
ATOM     55  N   UNL A   1      42.157  30.933  29.799  1.00  0.00    -0.248 NA
ATOM     56  C   UNL A   1      40.881  32.443  31.039  1.00  0.00     0.031 C 
ATOM     57  C   UNL A   1      46.261  31.760  28.305  1.00  0.00     0.029 A 
ATOM     58  C   UNL A   1      44.976  31.529  28.770  1.00  0.00     0.049 A 
ATOM     59  H   UNL A   1      43.812  29.774  28.633  1.00  0.00     0.167 HD
ATOM     60  C   UNL A   1      42.866  32.124  29.933  1.00  0.00     0.074 A 
ATOM     61  C   UNL A   1      42.012  33.031  30.672  1.00  0.00     0.031 C 
ATOM     62  C   UNL A   1      44.110  32.434  29.489  1.00  0.00     0.034 A 
BRANCH  49  63
ATOM     63  C   UNL A   1      47.005  27.828  26.552  1.00  0.00     0.023 A 
ATOM     64  C   UNL A   1      47.155  28.007  25.165  1.00  0.00     0.031 A 
ATOM     65  C   UNL A   1      47.992  27.098  27.240  1.00  0.00     0.131 A 
ATOM     66  C   UNL A   1      48.254  27.441  24.507  1.00  0.00     0.055 A 
ATOM     67  C   UNL A   1      49.105  26.570  26.585  1.00  0.00     0.041 A 
ATOM     68  F   UNL A   1      47.894  26.897  28.564  1.00  0.00    -0.206 F 
ATOM     69  C   UNL A   1      49.233  26.731  25.210  1.00  0.00     0.022 A 
BRANCH  66  70
ATOM     70  S   UNL A   1      48.429  27.551  22.705  1.00  0.00     0.124 S 
ATOM     71  O   UNL A   1      49.676  28.301  22.570  1.00  0.00    -0.237 OA
ATOM     72  O   UNL A   1      48.503  26.144  22.320  1.00  0.00    -0.237 OA
ATOM     73  O   UNL A   1      47.229  28.260  22.277  1.00  0.00    -0.744 OA
ENDBRANCH  66  70
ENDBRANCH  49  63
BRANCH  50  74
ATOM     74  C   UNL A   1      38.568  30.584  31.205  1.00  0.00     0.023 A 
ATOM     75  C   UNL A   1      37.536  31.189  30.463  1.00  0.00     0.031 A 
ATOM     76  C   UNL A   1      38.406  30.480  32.597  1.00  0.00     0.131 A 
ATOM     77  C   UNL A   1      36.420  31.718  31.125  1.00  0.00     0.055 A 
ATOM     78  C   UNL A   1      37.263  30.951  33.245  1.00  0.00     0.041 A 
ATOM     79  F   UNL A   1      39.370  29.926  33.349  1.00  0.00    -0.206 F 
ATOM     80  C   UNL A   1      36.270  31.589  32.509  1.00  0.00     0.022 A 
BRANCH  77  81
ATOM     81  S   UNL A   1      35.186  32.704  30.230  1.00  0.00     0.124 S 
ATOM     82  O   UNL A   1      34.211  32.993  31.277  1.00  0.00    -0.237 OA
ATOM     83  O   UNL A   1      35.983  33.842  29.779  1.00  0.00    -0.237 OA
ATOM     84  O   UNL A   1      34.730  31.807  29.174  1.00  0.00    -0.744 OA
ENDBRANCH  77  81
ENDBRANCH  50  74
BRANCH  62  85
ATOM     85  C   UNL A   1      44.662  33.810  29.774  1.00  0.00     0.023 A 
ATOM     86  C   UNL A   1      44.660  34.791  28.764  1.00  0.00     0.031 A 
ATOM     87  C   UNL A   1      45.343  34.088  30.972  1.00  0.00     0.131 A 
ATOM     88  C   UNL A   1      45.366  35.986  28.952  1.00  0.00     0.055 A 
ATOM     89  C   UNL A   1      46.004  35.301  31.172  1.00  0.00     0.041 A 
ATOM     90  F   UNL A   1      45.385  33.180  31.959  1.00  0.00    -0.206 F 
ATOM     91  C   UNL A   1      46.032  36.248  30.153  1.00  0.00     0.022 A 
BRANCH  88  92
ATOM     92  S   UNL A   1      45.530  37.198  27.611  1.00  0.00     0.124 S 
ATOM     93  O   UNL A   1      44.201  37.802  27.586  1.00  0.00    -0.237 OA
ATOM     94  O   UNL A   1      46.598  38.063  28.108  1.00  0.00    -0.237 OA
ATOM     95  O   UNL A   1      45.869  36.391  26.444  1.00  0.00    -0.744 OA
ENDBRANCH  88  92
ENDBRANCH  62  85
ENDBRANCH  36  37
ENDBRANCH  29  31
ENDBRANCH  28  29
ENDBRANCH  27  28
ENDBRANCH   1  27
TORSDOF 17
ENDMDL
