MODEL 1
REMARK VINA RESULT:     -10.5      0.000      0.000
REMARK SMILES CCC[NH2+][C@]1(C(=O)OCCOC(=O)c2ccc(-c3c4nc(c(-c5cc(S(=O)(=O)[O-])ccc5F)c5ccc([nH]5)c(-c5cc(S(=O)(=O)[O-])ccc5F)c5nc(c(-c6cc(S(=O)(=O)[O-])ccc6F)c6ccc3[nH]6)C=C5)C=C4)cc2)CCC[C@@H]([N@@H+](C)[C@@H](C)C2CC2)C1
REMARK SMILES IDX 9 1 8 2 6 3 7 4 5 5 77 6 88 7 78 8 80 9 79 10 4 11 3 14 2 15
REMARK SMILES IDX 1 16 81 17 82 18 83 20 84 21 85 22 86 23 87 24 10 25 11 26
REMARK SMILES IDX 12 27 13 28 14 29 15 30 76 31 16 32 75 33 17 34 18 35 19 36
REMARK SMILES IDX 69 37 20 38 74 39 68 40 70 41 21 42 73 43 67 44 66 45 22 47
REMARK SMILES IDX 54 48 34 49 53 50 35 51 38 52 52 53 71 54 36 55 37 56 51 58
REMARK SMILES IDX 72 59 39 60 23 61 24 62 32 63 25 64 31 65 33 66 30 67 26 68
REMARK SMILES IDX 27 69 28 70 29 71 55 72 56 73 64 74 57 75 63 76 65 77 62 78
REMARK SMILES IDX 58 79 59 80 60 81 61 82 40 83 41 84 49 85 42 86 48 87 50 88
REMARK SMILES IDX 47 89 43 90 44 91 45 92 46 93
REMARK H PARENT 4 12 4 13 81 19 70 46 38 57
REMARK Flexibility Score: inf
ROOT
ATOM      1  C   UNL A   1      35.070  20.713  24.998  1.00  0.00     0.274 C 
ENDROOT
BRANCH   1   2
ATOM      2  O   UNL A   1      34.665  22.089  24.874  1.00  0.00    -0.457 OA
BRANCH   2   3
ATOM      3  C   UNL A   1      33.855  22.560  25.872  1.00  0.00     0.368 C 
ATOM      4  O   UNL A   1      33.720  22.015  26.963  1.00  0.00    -0.245 OA
BRANCH   3   5
ATOM      5  C   UNL A   1      33.003  23.790  25.402  1.00  0.00     0.200 C 
ATOM      6  C   UNL A   1      31.787  23.887  26.365  1.00  0.00     0.081 C 
ATOM      7  C   UNL A   1      33.863  25.085  25.536  1.00  0.00     0.146 C 
ATOM      8  C   UNL A   1      30.981  25.172  26.239  1.00  0.00     0.013 C 
ATOM      9  C   UNL A   1      33.069  26.412  25.487  1.00  0.00     0.190 C 
ATOM     10  C   UNL A   1      31.867  26.396  26.446  1.00  0.00     0.065 C 
BRANCH   5  11
ATOM     11  N   UNL A   1      32.532  23.375  24.054  1.00  0.00    -0.332 N 
ATOM     12  H   UNL A   1      32.743  22.381  23.964  1.00  0.00     0.347 HD
ATOM     13  H   UNL A   1      31.552  23.656  24.058  1.00  0.00     0.347 HD
BRANCH  11  14
ATOM     14  C   UNL A   1      33.050  24.017  22.867  1.00  0.00     0.261 C 
BRANCH  14  15
ATOM     15  C   UNL A   1      31.952  24.817  22.156  1.00  0.00     0.058 C 
ATOM     16  C   UNL A   1      32.510  25.865  21.196  1.00  0.00     0.010 C 
ENDBRANCH  14  15
ENDBRANCH  11  14
ENDBRANCH   5  11
BRANCH   9  17
ATOM     17  N   UNL A   1      33.910  27.632  25.488  1.00  0.00    -0.332 N 
ATOM     18  C   UNL A   1      33.965  28.243  24.153  1.00  0.00     0.333 C 
ATOM     19  H   UNL A   1      34.787  27.204  25.785  1.00  0.00     0.348 HD
BRANCH  17  20
ATOM     20  C   UNL A   1      33.778  28.679  26.522  1.00  0.00     0.184 C 
ATOM     21  C   UNL A   1      35.030  29.067  27.317  1.00  0.00     0.075 C 
BRANCH  20  22
ATOM     22  C   UNL A   1      33.065  29.913  26.010  1.00  0.00     0.047 C 
ATOM     23  C   UNL A   1      31.613  29.926  25.589  1.00  0.00     0.010 C 
ATOM     24  C   UNL A   1      32.008  30.553  26.889  1.00  0.00     0.010 C 
ENDBRANCH  20  22
ENDBRANCH  17  20
ENDBRANCH   9  17
ENDBRANCH   3   5
ENDBRANCH   2   3
ENDBRANCH   1   2
BRANCH   1  25
ATOM     25  C   UNL A   1      36.578  20.570  24.821  1.00  0.00     0.275 C 
BRANCH  25  26
ATOM     26  O   UNL A   1      37.247  21.536  25.645  1.00  0.00    -0.458 OA
BRANCH  26  27
ATOM     27  C   UNL A   1      38.561  21.311  25.862  1.00  0.00     0.338 C 
ATOM     28  O   UNL A   1      39.187  20.285  25.625  1.00  0.00    -0.246 OA
BRANCH  27  29
ATOM     29  C   UNL A   1      39.169  22.503  26.468  1.00  0.00     0.060 A 
ATOM     30  C   UNL A   1      38.720  23.776  26.112  1.00  0.00     0.016 A 
ATOM     31  C   UNL A   1      40.260  22.354  27.320  1.00  0.00     0.016 A 
ATOM     32  C   UNL A   1      39.400  24.908  26.557  1.00  0.00     0.010 A 
ATOM     33  C   UNL A   1      40.897  23.490  27.824  1.00  0.00     0.010 A 
ATOM     34  C   UNL A   1      40.493  24.777  27.422  1.00  0.00    -0.014 A 
BRANCH  34  35
ATOM     35  C   UNL A   1      41.264  25.967  27.871  1.00  0.00     0.031 A 
ATOM     36  C   UNL A   1      40.576  27.031  28.683  1.00  0.00     0.074 A 
ATOM     37  C   UNL A   1      42.561  26.112  27.538  1.00  0.00     0.049 A 
ATOM     38  N   UNL A   1      40.972  28.243  28.973  1.00  0.00    -0.248 NA
ATOM     39  C   UNL A   1      39.251  26.685  29.220  1.00  0.00     0.031 C 
ATOM     40  C   UNL A   1      43.362  25.130  26.804  1.00  0.00     0.029 A 
ATOM     41  N   UNL A   1      43.431  27.148  27.764  1.00  0.00    -0.354 N 
ATOM     42  C   UNL A   1      39.925  28.825  29.682  1.00  0.00     0.074 A 
ATOM     43  C   UNL A   1      38.875  27.831  29.765  1.00  0.00     0.031 C 
ATOM     44  C   UNL A   1      44.606  25.608  26.648  1.00  0.00     0.029 A 
ATOM     45  C   UNL A   1      44.669  26.959  27.195  1.00  0.00     0.049 A 
ATOM     46  H   UNL A   1      43.193  27.950  28.284  1.00  0.00     0.167 HD
ATOM     47  C   UNL A   1      39.849  30.075  30.204  1.00  0.00     0.034 A 
ATOM     48  C   UNL A   1      45.717  27.798  27.075  1.00  0.00     0.034 A 
ATOM     49  C   UNL A   1      40.921  31.040  30.133  1.00  0.00     0.049 A 
ATOM     50  C   UNL A   1      45.599  29.194  27.622  1.00  0.00     0.074 A 
ATOM     51  C   UNL A   1      40.958  32.332  30.629  1.00  0.00     0.029 A 
ATOM     52  N   UNL A   1      42.152  30.814  29.529  1.00  0.00    -0.354 N 
ATOM     53  N   UNL A   1      44.579  29.762  28.223  1.00  0.00    -0.248 NA
ATOM     54  C   UNL A   1      46.770  30.066  27.465  1.00  0.00     0.031 C 
ATOM     55  C   UNL A   1      42.189  32.903  30.282  1.00  0.00     0.029 A 
ATOM     56  C   UNL A   1      42.948  31.947  29.624  1.00  0.00     0.049 A 
ATOM     57  H   UNL A   1      42.421  29.972  29.095  1.00  0.00     0.167 HD
ATOM     58  C   UNL A   1      44.988  31.057  28.521  1.00  0.00     0.074 A 
ATOM     59  C   UNL A   1      46.355  31.179  28.051  1.00  0.00     0.031 C 
ATOM     60  C   UNL A   1      44.300  32.056  29.129  1.00  0.00     0.034 A 
BRANCH  47  61
ATOM     61  C   UNL A   1      38.537  30.482  30.832  1.00  0.00     0.023 A 
ATOM     62  C   UNL A   1      37.554  31.190  30.116  1.00  0.00     0.031 A 
ATOM     63  C   UNL A   1      38.287  30.201  32.187  1.00  0.00     0.131 A 
ATOM     64  C   UNL A   1      36.407  31.656  30.778  1.00  0.00     0.055 A 
ATOM     65  C   UNL A   1      37.108  30.599  32.820  1.00  0.00     0.041 A 
ATOM     66  F   UNL A   1      39.198  29.548  32.928  1.00  0.00    -0.206 F 
ATOM     67  C   UNL A   1      36.167  31.346  32.119  1.00  0.00     0.022 A 
BRANCH  64  68
ATOM     68  S   UNL A   1      35.306  32.802  29.901  1.00  0.00     0.124 S 
ATOM     69  O   UNL A   1      34.873  31.988  28.767  1.00  0.00    -0.237 OA
ATOM     70  O   UNL A   1      34.288  33.090  30.906  1.00  0.00    -0.237 OA
ATOM     71  O   UNL A   1      36.180  33.922  29.558  1.00  0.00    -0.744 OA
ENDBRANCH  64  68
ENDBRANCH  47  61
BRANCH  48  72
ATOM     72  C   UNL A   1      46.938  27.363  26.340  1.00  0.00     0.023 A 
ATOM     73  C   UNL A   1      47.130  27.695  24.991  1.00  0.00     0.031 A 
ATOM     74  C   UNL A   1      47.928  26.600  26.984  1.00  0.00     0.131 A 
ATOM     75  C   UNL A   1      48.280  27.247  24.322  1.00  0.00     0.055 A 
ATOM     76  C   UNL A   1      49.090  26.194  26.327  1.00  0.00     0.041 A 
ATOM     77  F   UNL A   1      47.791  26.258  28.275  1.00  0.00    -0.206 F 
ATOM     78  C   UNL A   1      49.268  26.513  24.984  1.00  0.00     0.022 A 
BRANCH  75  79
ATOM     79  S   UNL A   1      48.449  27.600  22.550  1.00  0.00     0.124 S 
ATOM     80  O   UNL A   1      48.518  26.258  21.984  1.00  0.00    -0.237 OA
ATOM     81  O   UNL A   1      47.229  28.351  22.273  1.00  0.00    -0.237 OA
ATOM     82  O   UNL A   1      49.685  28.376  22.475  1.00  0.00    -0.744 OA
ENDBRANCH  75  79
ENDBRANCH  48  72
BRANCH  60  83
ATOM     83  C   UNL A   1      45.039  33.351  29.346  1.00  0.00     0.023 A 
ATOM     84  C   UNL A   1      45.779  33.590  30.516  1.00  0.00     0.031 A 
ATOM     85  C   UNL A   1      44.976  34.368  28.376  1.00  0.00     0.131 A 
ATOM     86  C   UNL A   1      46.388  34.840  30.712  1.00  0.00     0.055 A 
ATOM     87  C   UNL A   1      45.623  35.591  28.556  1.00  0.00     0.041 A 
ATOM     88  F   UNL A   1      44.280  34.189  27.242  1.00  0.00    -0.206 F 
ATOM     89  C   UNL A   1      46.325  35.836  29.733  1.00  0.00     0.022 A 
BRANCH  86  90
ATOM     90  S   UNL A   1      47.197  35.177  32.299  1.00  0.00     0.124 S 
ATOM     91  O   UNL A   1      47.475  33.832  32.791  1.00  0.00    -0.237 OA
ATOM     92  O   UNL A   1      48.360  35.961  31.896  1.00  0.00    -0.237 OA
ATOM     93  O   UNL A   1      46.184  35.915  33.051  1.00  0.00    -0.744 OA
ENDBRANCH  86  90
ENDBRANCH  60  83
ENDBRANCH  34  35
ENDBRANCH  27  29
ENDBRANCH  26  27
ENDBRANCH  25  26
ENDBRANCH   1  25
TORSDOF 20
ENDMDL
MODEL 2
REMARK VINA RESULT:     -10.4      4.684      9.776
REMARK SMILES CCC[NH2+][C@]1(C(=O)OCCOC(=O)c2ccc(-c3c4nc(c(-c5cc(S(=O)(=O)[O-])ccc5F)c5ccc([nH]5)c(-c5cc(S(=O)(=O)[O-])ccc5F)c5nc(c(-c6cc(S(=O)(=O)[O-])ccc6F)c6ccc3[nH]6)C=C5)C=C4)cc2)CCC[C@@H]([N@@H+](C)[C@@H](C)C2CC2)C1
REMARK SMILES IDX 9 1 8 2 6 3 7 4 5 5 77 6 88 7 78 8 80 9 79 10 4 11 3 14 2 15
REMARK SMILES IDX 1 16 81 17 82 18 83 20 84 21 85 22 86 23 87 24 10 25 11 26
REMARK SMILES IDX 12 27 13 28 14 29 15 30 76 31 16 32 75 33 17 34 18 35 19 36
REMARK SMILES IDX 69 37 20 38 74 39 68 40 70 41 21 42 73 43 67 44 66 45 22 47
REMARK SMILES IDX 54 48 34 49 53 50 35 51 38 52 52 53 71 54 36 55 37 56 51 58
REMARK SMILES IDX 72 59 39 60 23 61 24 62 32 63 25 64 31 65 33 66 30 67 26 68
REMARK SMILES IDX 27 69 28 70 29 71 55 72 56 73 64 74 57 75 63 76 65 77 62 78
REMARK SMILES IDX 58 79 59 80 60 81 61 82 40 83 41 84 49 85 42 86 48 87 50 88
REMARK SMILES IDX 47 89 43 90 44 91 45 92 46 93
REMARK H PARENT 4 12 4 13 81 19 70 46 38 57
REMARK Flexibility Score: inf
ROOT
ATOM      1  C   UNL A   1      32.918  29.313  24.798  1.00  0.00     0.274 C 
ENDROOT
BRANCH   1   2
ATOM      2  O   UNL A   1      32.436  28.966  23.486  1.00  0.00    -0.457 OA
BRANCH   2   3
ATOM      3  C   UNL A   1      33.200  28.066  22.793  1.00  0.00     0.368 C 
ATOM      4  O   UNL A   1      34.213  28.363  22.166  1.00  0.00    -0.245 OA
BRANCH   3   5
ATOM      5  C   UNL A   1      32.546  26.642  22.766  1.00  0.00     0.200 C 
ATOM      6  C   UNL A   1      32.900  26.011  21.391  1.00  0.00     0.081 C 
ATOM      7  C   UNL A   1      33.172  25.774  23.901  1.00  0.00     0.146 C 
ATOM      8  C   UNL A   1      32.580  24.528  21.273  1.00  0.00     0.013 C 
ATOM      9  C   UNL A   1      32.930  24.250  23.776  1.00  0.00     0.190 C 
ATOM     10  C   UNL A   1      33.275  23.730  22.371  1.00  0.00     0.065 C 
BRANCH   5  11
ATOM     11  N   UNL A   1      31.090  26.942  22.810  1.00  0.00    -0.332 N 
ATOM     12  H   UNL A   1      30.996  27.950  22.689  1.00  0.00     0.347 HD
ATOM     13  H   UNL A   1      30.710  26.337  22.081  1.00  0.00     0.347 HD
BRANCH  11  14
ATOM     14  C   UNL A   1      30.303  26.589  23.970  1.00  0.00     0.261 C 
BRANCH  14  15
ATOM     15  C   UNL A   1      28.810  26.815  23.706  1.00  0.00     0.058 C 
ATOM     16  C   UNL A   1      28.515  28.187  23.107  1.00  0.00     0.010 C 
ENDBRANCH  14  15
ENDBRANCH  11  14
ENDBRANCH   5  11
BRANCH   9  17
ATOM     17  N   UNL A   1      33.421  23.454  24.924  1.00  0.00    -0.332 N 
ATOM     18  C   UNL A   1      34.068  24.310  25.929  1.00  0.00     0.333 C 
ATOM     19  H   UNL A   1      34.066  22.849  24.417  1.00  0.00     0.348 HD
BRANCH  17  20
ATOM     20  C   UNL A   1      32.587  22.431  25.589  1.00  0.00     0.184 C 
ATOM     21  C   UNL A   1      31.197  22.847  26.083  1.00  0.00     0.075 C 
BRANCH  20  22
ATOM     22  C   UNL A   1      32.510  21.141  24.799  1.00  0.00     0.047 C 
ATOM     23  C   UNL A   1      33.723  20.327  24.408  1.00  0.00     0.010 C 
ATOM     24  C   UNL A   1      32.834  19.840  25.508  1.00  0.00     0.010 C 
ENDBRANCH  20  22
ENDBRANCH  17  20
ENDBRANCH   9  17
ENDBRANCH   3   5
ENDBRANCH   2   3
ENDBRANCH   1   2
BRANCH   1  25
ATOM     25  C   UNL A   1      31.848  30.053  25.593  1.00  0.00     0.275 C 
BRANCH  25  26
ATOM     26  O   UNL A   1      32.306  30.248  26.940  1.00  0.00    -0.458 OA
BRANCH  26  27
ATOM     27  C   UNL A   1      32.921  31.425  27.184  1.00  0.00     0.338 C 
ATOM     28  O   UNL A   1      32.467  32.550  27.015  1.00  0.00    -0.246 OA
BRANCH  27  29
ATOM     29  C   UNL A   1      34.279  31.174  27.684  1.00  0.00     0.060 A 
ATOM     30  C   UNL A   1      34.673  29.877  28.020  1.00  0.00     0.016 A 
ATOM     31  C   UNL A   1      35.133  32.250  27.913  1.00  0.00     0.016 A 
ATOM     32  C   UNL A   1      35.898  29.658  28.646  1.00  0.00     0.010 A 
ATOM     33  C   UNL A   1      36.390  32.021  28.475  1.00  0.00     0.010 A 
ATOM     34  C   UNL A   1      36.773  30.727  28.876  1.00  0.00    -0.014 A 
BRANCH  34  35
ATOM     35  C   UNL A   1      38.064  30.525  29.586  1.00  0.00     0.031 A 
ATOM     36  C   UNL A   1      39.119  29.648  28.967  1.00  0.00     0.074 A 
ATOM     37  C   UNL A   1      38.286  31.097  30.784  1.00  0.00     0.049 A 
ATOM     38  N   UNL A   1      40.201  29.144  29.501  1.00  0.00    -0.248 NA
ATOM     39  C   UNL A   1      38.911  29.274  27.559  1.00  0.00     0.031 C 
ATOM     40  C   UNL A   1      37.372  32.013  31.469  1.00  0.00     0.029 A 
ATOM     41  N   UNL A   1      39.349  30.983  31.645  1.00  0.00    -0.354 N 
ATOM     42  C   UNL A   1      40.777  28.349  28.514  1.00  0.00     0.074 A 
ATOM     43  C   UNL A   1      39.914  28.435  27.353  1.00  0.00     0.031 C 
ATOM     44  C   UNL A   1      37.916  32.382  32.639  1.00  0.00     0.029 A 
ATOM     45  C   UNL A   1      39.174  31.668  32.825  1.00  0.00     0.049 A 
ATOM     46  H   UNL A   1      40.158  30.461  31.439  1.00  0.00     0.167 HD
ATOM     47  C   UNL A   1      41.914  27.612  28.577  1.00  0.00     0.034 A 
ATOM     48  C   UNL A   1      39.913  31.677  33.953  1.00  0.00     0.034 A 
ATOM     49  C   UNL A   1      42.774  27.565  29.737  1.00  0.00     0.049 A 
ATOM     50  C   UNL A   1      41.148  30.821  34.021  1.00  0.00     0.074 A 
ATOM     51  C   UNL A   1      43.951  26.859  29.914  1.00  0.00     0.029 A 
ATOM     52  N   UNL A   1      42.550  28.260  30.920  1.00  0.00    -0.354 N 
ATOM     53  N   UNL A   1      41.645  30.014  33.112  1.00  0.00    -0.248 NA
ATOM     54  C   UNL A   1      41.916  30.868  35.271  1.00  0.00     0.031 C 
ATOM     55  C   UNL A   1      44.411  27.086  31.217  1.00  0.00     0.029 A 
ATOM     56  C   UNL A   1      43.555  27.985  31.835  1.00  0.00     0.049 A 
ATOM     57  H   UNL A   1      41.787  28.860  31.085  1.00  0.00     0.167 HD
ATOM     58  C   UNL A   1      42.788  29.462  33.679  1.00  0.00     0.074 A 
ATOM     59  C   UNL A   1      42.917  30.043  35.001  1.00  0.00     0.031 C 
ATOM     60  C   UNL A   1      43.654  28.557  33.157  1.00  0.00     0.034 A 
BRANCH  47  61
ATOM     61  C   UNL A   1      42.246  26.750  27.383  1.00  0.00     0.023 A 
ATOM     62  C   UNL A   1      41.869  25.396  27.312  1.00  0.00     0.031 A 
ATOM     63  C   UNL A   1      42.997  27.279  26.319  1.00  0.00     0.131 A 
ATOM     64  C   UNL A   1      42.310  24.603  26.241  1.00  0.00     0.055 A 
ATOM     65  C   UNL A   1      43.366  26.505  25.217  1.00  0.00     0.041 A 
ATOM     66  F   UNL A   1      43.405  28.559  26.341  1.00  0.00    -0.206 F 
ATOM     67  C   UNL A   1      43.036  25.153  25.182  1.00  0.00     0.022 A 
BRANCH  64  68
ATOM     68  S   UNL A   1      42.049  22.809  26.325  1.00  0.00     0.124 S 
ATOM     69  O   UNL A   1      42.628  22.366  25.059  1.00  0.00    -0.237 OA
ATOM     70  O   UNL A   1      42.787  22.441  27.528  1.00  0.00    -0.237 OA
ATOM     71  O   UNL A   1      40.597  22.677  26.417  1.00  0.00    -0.744 OA
ENDBRANCH  64  68
ENDBRANCH  47  61
BRANCH  48  72
ATOM     72  C   UNL A   1      39.460  32.465  35.132  1.00  0.00     0.023 A 
ATOM     73  C   UNL A   1      38.757  31.859  36.184  1.00  0.00     0.031 A 
ATOM     74  C   UNL A   1      39.722  33.845  35.217  1.00  0.00     0.131 A 
ATOM     75  C   UNL A   1      38.323  32.636  37.269  1.00  0.00     0.055 A 
ATOM     76  C   UNL A   1      39.326  34.604  36.319  1.00  0.00     0.041 A 
ATOM     77  F   UNL A   1      40.392  34.470  34.237  1.00  0.00    -0.206 F 
ATOM     78  C   UNL A   1      38.616  34.000  37.351  1.00  0.00     0.022 A 
BRANCH  75  79
ATOM     79  S   UNL A   1      37.324  31.845  38.561  1.00  0.00     0.124 S 
ATOM     80  O   UNL A   1      37.127  30.510  38.009  1.00  0.00    -0.237 OA
ATOM     81  O   UNL A   1      38.203  31.937  39.722  1.00  0.00    -0.237 OA
ATOM     82  O   UNL A   1      36.126  32.679  38.623  1.00  0.00    -0.744 OA
ENDBRANCH  75  79
ENDBRANCH  48  72
BRANCH  60  83
ATOM     83  C   UNL A   1      44.833  28.178  34.015  1.00  0.00     0.023 A 
ATOM     84  C   UNL A   1      44.792  27.066  34.872  1.00  0.00     0.031 A 
ATOM     85  C   UNL A   1      46.002  28.959  33.990  1.00  0.00     0.131 A 
ATOM     86  C   UNL A   1      45.884  26.793  35.712  1.00  0.00     0.055 A 
ATOM     87  C   UNL A   1      47.103  28.655  34.792  1.00  0.00     0.041 A 
ATOM     88  F   UNL A   1      46.090  30.033  33.189  1.00  0.00    -0.206 F 
ATOM     89  C   UNL A   1      47.043  27.573  35.667  1.00  0.00     0.022 A 
BRANCH  86  90
ATOM     90  S   UNL A   1      45.739  25.451  36.924  1.00  0.00     0.124 S 
ATOM     91  O   UNL A   1      44.643  24.661  36.374  1.00  0.00    -0.237 OA
ATOM     92  O   UNL A   1      47.061  24.834  36.866  1.00  0.00    -0.237 OA
ATOM     93  O   UNL A   1      45.437  26.148  38.173  1.00  0.00    -0.744 OA
ENDBRANCH  86  90
ENDBRANCH  60  83
ENDBRANCH  34  35
ENDBRANCH  27  29
ENDBRANCH  26  27
ENDBRANCH  25  26
ENDBRANCH   1  25
TORSDOF 20
ENDMDL
MODEL 3
REMARK VINA RESULT:     -10.4      2.141      2.747
REMARK SMILES CCC[NH2+][C@]1(C(=O)OCCOC(=O)c2ccc(-c3c4nc(c(-c5cc(S(=O)(=O)[O-])ccc5F)c5ccc([nH]5)c(-c5cc(S(=O)(=O)[O-])ccc5F)c5nc(c(-c6cc(S(=O)(=O)[O-])ccc6F)c6ccc3[nH]6)C=C5)C=C4)cc2)CCC[C@@H]([N@@H+](C)[C@@H](C)C2CC2)C1
REMARK SMILES IDX 9 1 8 2 6 3 7 4 5 5 77 6 88 7 78 8 80 9 79 10 4 11 3 14 2 15
REMARK SMILES IDX 1 16 81 17 82 18 83 20 84 21 85 22 86 23 87 24 10 25 11 26
REMARK SMILES IDX 12 27 13 28 14 29 15 30 76 31 16 32 75 33 17 34 18 35 19 36
REMARK SMILES IDX 69 37 20 38 74 39 68 40 70 41 21 42 73 43 67 44 66 45 22 47
REMARK SMILES IDX 54 48 34 49 53 50 35 51 38 52 52 53 71 54 36 55 37 56 51 58
REMARK SMILES IDX 72 59 39 60 23 61 24 62 32 63 25 64 31 65 33 66 30 67 26 68
REMARK SMILES IDX 27 69 28 70 29 71 55 72 56 73 64 74 57 75 63 76 65 77 62 78
REMARK SMILES IDX 58 79 59 80 60 81 61 82 40 83 41 84 49 85 42 86 48 87 50 88
REMARK SMILES IDX 47 89 43 90 44 91 45 92 46 93
REMARK H PARENT 4 12 4 13 81 19 70 46 38 57
REMARK Flexibility Score: inf
ROOT
ATOM      1  C   UNL A   1      35.296  21.376  24.379  1.00  0.00     0.274 C 
ENDROOT
BRANCH   1   2
ATOM      2  O   UNL A   1      35.431  22.809  24.420  1.00  0.00    -0.457 OA
BRANCH   2   3
ATOM      3  C   UNL A   1      34.592  23.507  23.596  1.00  0.00     0.368 C 
ATOM      4  O   UNL A   1      34.607  23.426  22.371  1.00  0.00    -0.245 OA
BRANCH   3   5
ATOM      5  C   UNL A   1      33.716  24.537  24.389  1.00  0.00     0.200 C 
ATOM      6  C   UNL A   1      34.590  25.060  25.563  1.00  0.00     0.081 C 
ATOM      7  C   UNL A   1      33.359  25.730  23.449  1.00  0.00     0.146 C 
ATOM      8  C   UNL A   1      34.013  26.263  26.295  1.00  0.00     0.013 C 
ATOM      9  C   UNL A   1      32.837  27.000  24.164  1.00  0.00     0.190 C 
ATOM     10  C   UNL A   1      33.749  27.415  25.330  1.00  0.00     0.065 C 
BRANCH   5  11
ATOM     11  N   UNL A   1      32.618  23.694  24.931  1.00  0.00    -0.332 N 
ATOM     12  H   UNL A   1      32.787  22.745  24.599  1.00  0.00     0.347 HD
ATOM     13  H   UNL A   1      32.673  23.865  25.935  1.00  0.00     0.347 HD
BRANCH  11  14
ATOM     14  C   UNL A   1      31.239  24.000  24.623  1.00  0.00     0.261 C 
BRANCH  14  15
ATOM     15  C   UNL A   1      30.518  24.569  25.851  1.00  0.00     0.058 C 
ATOM     16  C   UNL A   1      29.861  25.920  25.581  1.00  0.00     0.010 C 
ENDBRANCH  14  15
ENDBRANCH  11  14
ENDBRANCH   5  11
BRANCH   9  17
ATOM     17  N   UNL A   1      32.385  28.076  23.252  1.00  0.00    -0.332 N 
ATOM     18  C   UNL A   1      33.519  28.685  22.542  1.00  0.00     0.333 C 
ATOM     19  H   UNL A   1      31.955  28.686  23.947  1.00  0.00     0.348 HD
BRANCH  17  20
ATOM     20  C   UNL A   1      31.243  27.901  22.331  1.00  0.00     0.184 C 
ATOM     21  C   UNL A   1      30.944  26.488  21.817  1.00  0.00     0.075 C 
BRANCH  20  22
ATOM     22  C   UNL A   1      29.980  28.564  22.839  1.00  0.00     0.047 C 
ATOM     23  C   UNL A   1      29.969  29.872  23.598  1.00  0.00     0.010 C 
ATOM     24  C   UNL A   1      29.518  29.845  22.172  1.00  0.00     0.010 C 
ENDBRANCH  20  22
ENDBRANCH  17  20
ENDBRANCH   9  17
ENDBRANCH   3   5
ENDBRANCH   2   3
ENDBRANCH   1   2
BRANCH   1  25
ATOM     25  C   UNL A   1      36.415  20.699  25.162  1.00  0.00     0.275 C 
BRANCH  25  26
ATOM     26  O   UNL A   1      37.655  21.375  24.901  1.00  0.00    -0.458 OA
BRANCH  26  27
ATOM     27  C   UNL A   1      38.700  20.998  25.668  1.00  0.00     0.338 C 
ATOM     28  O   UNL A   1      39.109  19.859  25.857  1.00  0.00    -0.246 OA
BRANCH  27  29
ATOM     29  C   UNL A   1      39.302  22.183  26.293  1.00  0.00     0.060 A 
ATOM     30  C   UNL A   1      38.798  23.454  26.015  1.00  0.00     0.016 A 
ATOM     31  C   UNL A   1      40.439  22.035  27.083  1.00  0.00     0.016 A 
ATOM     32  C   UNL A   1      39.465  24.588  26.474  1.00  0.00     0.010 A 
ATOM     33  C   UNL A   1      41.066  23.168  27.603  1.00  0.00     0.010 A 
ATOM     34  C   UNL A   1      40.604  24.458  27.278  1.00  0.00    -0.014 A 
BRANCH  34  35
ATOM     35  C   UNL A   1      41.361  25.652  27.738  1.00  0.00     0.031 A 
ATOM     36  C   UNL A   1      40.655  26.709  28.545  1.00  0.00     0.074 A 
ATOM     37  C   UNL A   1      42.660  25.808  27.420  1.00  0.00     0.049 A 
ATOM     38  N   UNL A   1      41.038  27.923  28.843  1.00  0.00    -0.248 NA
ATOM     39  C   UNL A   1      39.327  26.351  29.066  1.00  0.00     0.031 C 
ATOM     40  C   UNL A   1      43.477  24.835  26.693  1.00  0.00     0.029 A 
ATOM     41  N   UNL A   1      43.519  26.851  27.659  1.00  0.00    -0.354 N 
ATOM     42  C   UNL A   1      39.979  28.495  29.541  1.00  0.00     0.074 A 
ATOM     43  C   UNL A   1      38.935  27.492  29.610  1.00  0.00     0.031 C 
ATOM     44  C   UNL A   1      44.719  25.323  26.552  1.00  0.00     0.029 A 
ATOM     45  C   UNL A   1      44.765  26.673  27.103  1.00  0.00     0.049 A 
ATOM     46  H   UNL A   1      43.270  27.649  28.179  1.00  0.00     0.167 HD
ATOM     47  C   UNL A   1      39.887  29.743  30.066  1.00  0.00     0.034 A 
ATOM     48  C   UNL A   1      45.808  27.520  26.997  1.00  0.00     0.034 A 
ATOM     49  C   UNL A   1      40.952  30.716  30.009  1.00  0.00     0.049 A 
ATOM     50  C   UNL A   1      45.673  28.913  27.547  1.00  0.00     0.074 A 
ATOM     51  C   UNL A   1      40.974  32.007  30.509  1.00  0.00     0.029 A 
ATOM     52  N   UNL A   1      42.192  30.502  29.419  1.00  0.00    -0.354 N 
ATOM     53  N   UNL A   1      44.642  29.472  28.138  1.00  0.00    -0.248 NA
ATOM     54  C   UNL A   1      46.839  29.795  27.405  1.00  0.00     0.031 C 
ATOM     55  C   UNL A   1      42.204  32.588  30.177  1.00  0.00     0.029 A 
ATOM     56  C   UNL A   1      42.978  31.640  29.526  1.00  0.00     0.049 A 
ATOM     57  H   UNL A   1      42.473  29.663  28.986  1.00  0.00     0.167 HD
ATOM     58  C   UNL A   1      45.038  30.770  28.444  1.00  0.00     0.074 A 
ATOM     59  C   UNL A   1      46.408  30.903  27.990  1.00  0.00     0.031 C 
ATOM     60  C   UNL A   1      44.334  31.761  29.047  1.00  0.00     0.034 A 
BRANCH  47  61
ATOM     61  C   UNL A   1      38.565  30.138  30.680  1.00  0.00     0.023 A 
ATOM     62  C   UNL A   1      37.562  30.789  29.939  1.00  0.00     0.031 A 
ATOM     63  C   UNL A   1      38.325  29.904  32.045  1.00  0.00     0.131 A 
ATOM     64  C   UNL A   1      36.403  31.249  30.583  1.00  0.00     0.055 A 
ATOM     65  C   UNL A   1      37.136  30.295  32.664  1.00  0.00     0.041 A 
ATOM     66  F   UNL A   1      39.254  29.307  32.810  1.00  0.00    -0.206 F 
ATOM     67  C   UNL A   1      36.173  30.986  31.936  1.00  0.00     0.022 A 
BRANCH  64  68
ATOM     68  S   UNL A   1      35.270  32.328  29.664  1.00  0.00     0.124 S 
ATOM     69  O   UNL A   1      34.783  31.427  28.622  1.00  0.00    -0.237 OA
ATOM     70  O   UNL A   1      34.299  32.706  30.685  1.00  0.00    -0.237 OA
ATOM     71  O   UNL A   1      36.133  33.408  29.191  1.00  0.00    -0.744 OA
ENDBRANCH  64  68
ENDBRANCH  47  61
BRANCH  48  72
ATOM     72  C   UNL A   1      47.040  27.096  26.275  1.00  0.00     0.023 A 
ATOM     73  C   UNL A   1      48.088  26.448  26.946  1.00  0.00     0.031 A 
ATOM     74  C   UNL A   1      47.185  27.342  24.898  1.00  0.00     0.131 A 
ATOM     75  C   UNL A   1      49.246  26.085  26.240  1.00  0.00     0.055 A 
ATOM     76  C   UNL A   1      48.319  26.940  24.192  1.00  0.00     0.041 A 
ATOM     77  F   UNL A   1      46.209  27.957  24.212  1.00  0.00    -0.206 F 
ATOM     78  C   UNL A   1      49.362  26.312  24.866  1.00  0.00     0.022 A 
BRANCH  75  79
ATOM     79  S   UNL A   1      50.627  25.346  27.156  1.00  0.00     0.124 S 
ATOM     80  O   UNL A   1      49.956  24.289  27.905  1.00  0.00    -0.237 OA
ATOM     81  O   UNL A   1      51.507  24.908  26.078  1.00  0.00    -0.237 OA
ATOM     82  O   UNL A   1      51.135  26.456  27.959  1.00  0.00    -0.744 OA
ENDBRANCH  75  79
ENDBRANCH  48  72
BRANCH  60  83
ATOM     83  C   UNL A   1      45.061  33.061  29.275  1.00  0.00     0.023 A 
ATOM     84  C   UNL A   1      45.041  34.094  28.322  1.00  0.00     0.031 A 
ATOM     85  C   UNL A   1      45.803  33.255  30.454  1.00  0.00     0.131 A 
ATOM     86  C   UNL A   1      45.795  35.257  28.540  1.00  0.00     0.055 A 
ATOM     87  C   UNL A   1      46.512  34.435  30.686  1.00  0.00     0.041 A 
ATOM     88  F   UNL A   1      45.855  32.298  31.394  1.00  0.00    -0.206 F 
ATOM     89  C   UNL A   1      46.519  35.439  29.722  1.00  0.00     0.022 A 
BRANCH  86  90
ATOM     90  S   UNL A   1      45.883  36.501  27.223  1.00  0.00     0.124 S 
ATOM     91  O   UNL A   1      46.263  35.694  26.068  1.00  0.00    -0.237 OA
ATOM     92  O   UNL A   1      44.525  37.035  27.207  1.00  0.00    -0.237 OA
ATOM     93  O   UNL A   1      46.908  37.429  27.695  1.00  0.00    -0.744 OA
ENDBRANCH  86  90
ENDBRANCH  60  83
ENDBRANCH  34  35
ENDBRANCH  27  29
ENDBRANCH  26  27
ENDBRANCH  25  26
ENDBRANCH   1  25
TORSDOF 20
ENDMDL
