MODEL 1
REMARK VINA RESULT:     -11.4      0.000      0.000
REMARK SMILES C/C=C/C(=O)N[C@@H](Cc1ccc(F)cc1)C(=O)OCCOC(=O)c1ccc(-c2c3nc(c(-c4cc(S(=O)(=O)[O-])ccc4F)c4ccc([nH]4)c(-c4cc(S(=O)(=O)[O-])ccc4F)c4nc(c(-c5cc(S(=O)(=O)[O-])ccc5F)c5ccc2[nH]5)C=C4)C=C3)cc1
REMARK SMILES IDX 20 1 19 2 18 3 16 4 17 5 7 6 6 7 4 8 5 9 3 11 1 12 2 13 8 14
REMARK SMILES IDX 9 15 10 16 15 17 11 18 14 19 12 20 13 21 21 22 22 23 23 24
REMARK SMILES IDX 24 25 25 26 86 27 26 28 85 29 27 30 28 31 29 32 79 33 30 34
REMARK SMILES IDX 84 35 78 36 80 37 31 38 83 39 77 40 76 41 32 43 64 44 44 45
REMARK SMILES IDX 63 46 45 47 48 48 62 49 81 50 46 51 47 52 61 54 82 55 49 56
REMARK SMILES IDX 33 57 34 58 42 59 35 60 41 61 43 62 40 63 36 64 37 65 38 66
REMARK SMILES IDX 39 67 65 68 66 69 74 70 67 71 73 72 75 73 72 74 68 75 69 76
REMARK SMILES IDX 70 77 71 78 50 79 51 80 59 81 52 82 58 83 60 84 57 85 53 86
REMARK SMILES IDX 54 87 55 88 56 89
REMARK H PARENT 6 10 80 42 48 53
REMARK Flexibility Score: inf
ROOT
ATOM      1  C   UNL A   1      36.574  20.532  25.001  1.00  0.00     0.275 C 
ENDROOT
BRANCH   1   2
ATOM      2  C   UNL A   1      35.234  21.257  24.883  1.00  0.00     0.274 C 
BRANCH   2   3
ATOM      3  O   UNL A   1      35.406  22.685  24.932  1.00  0.00    -0.461 OA
BRANCH   3   4
ATOM      4  C   UNL A   1      34.802  23.397  23.940  1.00  0.00     0.329 C 
ATOM      5  O   UNL A   1      35.121  23.350  22.756  1.00  0.00    -0.250 OA
BRANCH   4   6
ATOM      6  C   UNL A   1      33.722  24.357  24.467  1.00  0.00     0.196 C 
BRANCH   6   7
ATOM      7  N   UNL A   1      32.619  23.698  25.176  1.00  0.00    -0.339 N 
ATOM      8  C   UNL A   1      31.274  23.857  25.096  1.00  0.00     0.244 C 
ATOM      9  O   UNL A   1      30.538  23.123  25.750  1.00  0.00    -0.270 OA
ATOM     10  H   UNL A   1      32.907  23.018  25.827  1.00  0.00     0.164 HD
BRANCH   8  11
ATOM     11  C   UNL A   1      30.685  24.864  24.185  1.00  0.00     0.066 C 
ATOM     12  C   UNL A   1      29.487  26.989  23.643  1.00  0.00     0.036 C 
ATOM     13  C   UNL A   1      30.101  26.003  24.587  1.00  0.00    -0.025 C 
ENDBRANCH   8  11
ENDBRANCH   6   7
BRANCH   6  14
ATOM     14  C   UNL A   1      34.383  25.432  25.349  1.00  0.00     0.072 C 
BRANCH  14  15
ATOM     15  C   UNL A   1      33.651  26.759  25.350  1.00  0.00    -0.045 A 
ATOM     16  C   UNL A   1      33.595  27.540  24.185  1.00  0.00     0.007 A 
ATOM     17  C   UNL A   1      32.979  27.198  26.503  1.00  0.00     0.007 A 
ATOM     18  C   UNL A   1      32.868  28.731  24.171  1.00  0.00     0.039 A 
ATOM     19  C   UNL A   1      32.249  28.386  26.483  1.00  0.00     0.039 A 
ATOM     20  C   UNL A   1      32.199  29.141  25.318  1.00  0.00     0.123 A 
ATOM     21  F   UNL A   1      31.494  30.279  25.300  1.00  0.00    -0.207 F 
ENDBRANCH  14  15
ENDBRANCH   6  14
ENDBRANCH   4   6
ENDBRANCH   3   4
ENDBRANCH   2   3
ENDBRANCH   1   2
BRANCH   1  22
ATOM     22  O   UNL A   1      37.665  21.468  24.972  1.00  0.00    -0.458 OA
BRANCH  22  23
ATOM     23  C   UNL A   1      38.718  21.125  25.745  1.00  0.00     0.338 C 
ATOM     24  O   UNL A   1      39.239  20.018  25.840  1.00  0.00    -0.246 OA
BRANCH  23  25
ATOM     25  C   UNL A   1      39.263  22.310  26.408  1.00  0.00     0.060 A 
ATOM     26  C   UNL A   1      38.704  23.547  26.092  1.00  0.00     0.016 A 
ATOM     27  C   UNL A   1      40.407  22.228  27.202  1.00  0.00     0.016 A 
ATOM     28  C   UNL A   1      39.321  24.717  26.518  1.00  0.00     0.010 A 
ATOM     29  C   UNL A   1      41.009  23.408  27.656  1.00  0.00     0.010 A 
ATOM     30  C   UNL A   1      40.492  24.662  27.285  1.00  0.00    -0.014 A 
BRANCH  30  31
ATOM     31  C   UNL A   1      41.223  25.920  27.586  1.00  0.00     0.031 A 
ATOM     32  C   UNL A   1      40.571  26.968  28.449  1.00  0.00     0.074 A 
ATOM     33  C   UNL A   1      42.494  26.088  27.174  1.00  0.00     0.049 A 
ATOM     34  N   UNL A   1      40.992  28.169  28.752  1.00  0.00    -0.248 NA
ATOM     35  C   UNL A   1      39.276  26.615  29.053  1.00  0.00     0.031 C 
ATOM     36  C   UNL A   1      43.273  25.110  26.413  1.00  0.00     0.029 A 
ATOM     37  N   UNL A   1      43.365  27.131  27.364  1.00  0.00    -0.354 N 
ATOM     38  C   UNL A   1      40.000  28.730  29.548  1.00  0.00     0.074 A 
ATOM     39  C   UNL A   1      38.955  27.737  29.683  1.00  0.00     0.031 C 
ATOM     40  C   UNL A   1      44.519  25.580  26.241  1.00  0.00     0.029 A 
ATOM     41  C   UNL A   1      44.609  26.920  26.816  1.00  0.00     0.049 A 
ATOM     42  H   UNL A   1      43.122  27.954  27.846  1.00  0.00     0.167 HD
ATOM     43  C   UNL A   1      39.963  29.962  30.110  1.00  0.00     0.034 A 
ATOM     44  C   UNL A   1      45.689  27.723  26.761  1.00  0.00     0.034 A 
ATOM     45  C   UNL A   1      41.020  30.933  29.999  1.00  0.00     0.049 A 
ATOM     46  C   UNL A   1      45.601  29.112  27.336  1.00  0.00     0.074 A 
ATOM     47  C   UNL A   1      41.065  32.223  30.499  1.00  0.00     0.029 A 
ATOM     48  N   UNL A   1      42.229  30.714  29.355  1.00  0.00    -0.354 N 
ATOM     49  N   UNL A   1      44.600  29.676  27.970  1.00  0.00    -0.248 NA
ATOM     50  C   UNL A   1      46.773  29.979  27.160  1.00  0.00     0.031 C 
ATOM     51  C   UNL A   1      42.285  32.797  30.127  1.00  0.00     0.029 A 
ATOM     52  C   UNL A   1      43.020  31.848  29.435  1.00  0.00     0.049 A 
ATOM     53  H   UNL A   1      42.486  29.876  28.907  1.00  0.00     0.167 HD
ATOM     54  C   UNL A   1      45.022  30.970  28.262  1.00  0.00     0.074 A 
ATOM     55  C   UNL A   1      46.372  31.097  27.750  1.00  0.00     0.031 C 
ATOM     56  C   UNL A   1      44.351  31.963  28.896  1.00  0.00     0.034 A 
BRANCH  43  57
ATOM     57  C   UNL A   1      38.706  30.349  30.841  1.00  0.00     0.023 A 
ATOM     58  C   UNL A   1      37.671  31.059  30.213  1.00  0.00     0.031 A 
ATOM     59  C   UNL A   1      38.549  30.001  32.195  1.00  0.00     0.131 A 
ATOM     60  C   UNL A   1      36.540  31.436  30.952  1.00  0.00     0.055 A 
ATOM     61  C   UNL A   1      37.398  30.331  32.910  1.00  0.00     0.041 A 
ATOM     62  F   UNL A   1      39.521  29.338  32.844  1.00  0.00    -0.206 F 
ATOM     63  C   UNL A   1      36.388  31.060  32.290  1.00  0.00     0.022 A 
BRANCH  60  64
ATOM     64  S   UNL A   1      35.293  32.492  30.165  1.00  0.00     0.124 S 
ATOM     65  O   UNL A   1      34.358  32.708  31.265  1.00  0.00    -0.237 OA
ATOM     66  O   UNL A   1      36.073  33.653  29.751  1.00  0.00    -0.237 OA
ATOM     67  O   UNL A   1      34.784  31.664  29.073  1.00  0.00    -0.744 OA
ENDBRANCH  60  64
ENDBRANCH  43  57
BRANCH  44  68
ATOM     68  C   UNL A   1      46.928  27.262  26.079  1.00  0.00     0.023 A 
ATOM     69  C   UNL A   1      47.167  27.569  24.731  1.00  0.00     0.031 A 
ATOM     70  C   UNL A   1      47.885  26.498  26.769  1.00  0.00     0.131 A 
ATOM     71  C   UNL A   1      48.334  27.099  24.110  1.00  0.00     0.055 A 
ATOM     72  C   UNL A   1      49.059  26.061  26.156  1.00  0.00     0.041 A 
ATOM     73  F   UNL A   1      47.698  26.183  28.061  1.00  0.00    -0.206 F 
ATOM     74  C   UNL A   1      49.287  26.358  24.815  1.00  0.00     0.022 A 
BRANCH  71  75
ATOM     75  S   UNL A   1      48.591  27.457  22.350  1.00  0.00     0.124 S 
ATOM     76  O   UNL A   1      49.844  28.204  22.379  1.00  0.00    -0.237 OA
ATOM     77  O   UNL A   1      48.653  26.119  21.770  1.00  0.00    -0.237 OA
ATOM     78  O   UNL A   1      47.408  28.232  21.985  1.00  0.00    -0.744 OA
ENDBRANCH  71  75
ENDBRANCH  44  68
BRANCH  56  79
ATOM     79  C   UNL A   1      45.071  33.269  29.075  1.00  0.00     0.023 A 
ATOM     80  C   UNL A   1      45.087  34.236  28.056  1.00  0.00     0.031 A 
ATOM     81  C   UNL A   1      45.715  33.561  30.289  1.00  0.00     0.131 A 
ATOM     82  C   UNL A   1      45.760  35.450  28.263  1.00  0.00     0.055 A 
ATOM     83  C   UNL A   1      46.354  34.783  30.501  1.00  0.00     0.041 A 
ATOM     84  F   UNL A   1      45.721  32.667  31.290  1.00  0.00    -0.206 F 
ATOM     85  C   UNL A   1      46.381  35.733  29.483  1.00  0.00     0.022 A 
BRANCH  82  86
ATOM     86  S   UNL A   1      45.820  36.659  26.912  1.00  0.00     0.124 S 
ATOM     87  O   UNL A   1      46.888  37.550  27.355  1.00  0.00    -0.237 OA
ATOM     88  O   UNL A   1      46.123  35.828  25.752  1.00  0.00    -0.237 OA
ATOM     89  O   UNL A   1      44.480  37.244  26.918  1.00  0.00    -0.744 OA
ENDBRANCH  82  86
ENDBRANCH  56  79
ENDBRANCH  30  31
ENDBRANCH  23  25
ENDBRANCH  22  23
ENDBRANCH   1  22
TORSDOF 18
ENDMDL
MODEL 2
REMARK VINA RESULT:     -11.3      5.217     10.305
REMARK SMILES C/C=C/C(=O)N[C@@H](Cc1ccc(F)cc1)C(=O)OCCOC(=O)c1ccc(-c2c3nc(c(-c4cc(S(=O)(=O)[O-])ccc4F)c4ccc([nH]4)c(-c4cc(S(=O)(=O)[O-])ccc4F)c4nc(c(-c5cc(S(=O)(=O)[O-])ccc5F)c5ccc2[nH]5)C=C4)C=C3)cc1
REMARK SMILES IDX 20 1 19 2 18 3 16 4 17 5 7 6 6 7 4 8 5 9 3 11 1 12 2 13 8 14
REMARK SMILES IDX 9 15 10 16 15 17 11 18 14 19 12 20 13 21 21 22 22 23 23 24
REMARK SMILES IDX 24 25 25 26 86 27 26 28 85 29 27 30 28 31 29 32 79 33 30 34
REMARK SMILES IDX 84 35 78 36 80 37 31 38 83 39 77 40 76 41 32 43 64 44 44 45
REMARK SMILES IDX 63 46 45 47 48 48 62 49 81 50 46 51 47 52 61 54 82 55 49 56
REMARK SMILES IDX 33 57 34 58 42 59 35 60 41 61 43 62 40 63 36 64 37 65 38 66
REMARK SMILES IDX 39 67 65 68 66 69 74 70 67 71 73 72 75 73 72 74 68 75 69 76
REMARK SMILES IDX 70 77 71 78 50 79 51 80 59 81 52 82 58 83 60 84 57 85 53 86
REMARK SMILES IDX 54 87 55 88 56 89
REMARK H PARENT 6 10 80 42 48 53
REMARK Flexibility Score: inf
ROOT
ATOM      1  C   UNL A   1      31.876  30.426  25.592  1.00  0.00     0.275 C 
ENDROOT
BRANCH   1   2
ATOM      2  C   UNL A   1      31.420  29.010  25.243  1.00  0.00     0.274 C 
BRANCH   2   3
ATOM      3  O   UNL A   1      32.444  28.043  25.539  1.00  0.00    -0.461 OA
BRANCH   3   4
ATOM      4  C   UNL A   1      32.044  26.935  26.223  1.00  0.00     0.329 C 
ATOM      5  O   UNL A   1      31.486  26.954  27.315  1.00  0.00    -0.250 OA
BRANCH   4   6
ATOM      6  C   UNL A   1      32.451  25.625  25.526  1.00  0.00     0.196 C 
BRANCH   6   7
ATOM      7  N   UNL A   1      31.565  25.223  24.427  1.00  0.00    -0.339 N 
ATOM      8  C   UNL A   1      31.087  24.008  24.054  1.00  0.00     0.244 C 
ATOM      9  O   UNL A   1      30.286  23.933  23.127  1.00  0.00    -0.270 OA
ATOM     10  H   UNL A   1      31.263  25.967  23.859  1.00  0.00     0.164 HD
BRANCH   8  11
ATOM     11  C   UNL A   1      31.476  22.784  24.790  1.00  0.00     0.066 C 
ATOM     12  C   UNL A   1      32.505  20.518  25.016  1.00  0.00     0.036 C 
ATOM     13  C   UNL A   1      32.152  21.757  24.254  1.00  0.00    -0.025 C 
ENDBRANCH   8  11
ENDBRANCH   6   7
BRANCH   6  14
ATOM     14  C   UNL A   1      33.910  25.735  25.048  1.00  0.00     0.072 C 
BRANCH  14  15
ATOM     15  C   UNL A   1      34.631  24.404  24.968  1.00  0.00    -0.045 A 
ATOM     16  C   UNL A   1      35.151  23.950  23.747  1.00  0.00     0.007 A 
ATOM     17  C   UNL A   1      34.830  23.634  26.127  1.00  0.00     0.007 A 
ATOM     18  C   UNL A   1      35.869  22.754  23.688  1.00  0.00     0.039 A 
ATOM     19  C   UNL A   1      35.553  22.443  26.065  1.00  0.00     0.039 A 
ATOM     20  C   UNL A   1      36.066  22.014  24.848  1.00  0.00     0.123 A 
ATOM     21  F   UNL A   1      36.763  20.872  24.792  1.00  0.00    -0.207 F 
ENDBRANCH  14  15
ENDBRANCH   6  14
ENDBRANCH   4   6
ENDBRANCH   3   4
ENDBRANCH   2   3
ENDBRANCH   1   2
BRANCH   1  22
ATOM     22  O   UNL A   1      32.326  30.496  26.956  1.00  0.00    -0.458 OA
BRANCH  22  23
ATOM     23  C   UNL A   1      33.029  31.609  27.257  1.00  0.00     0.338 C 
ATOM     24  O   UNL A   1      32.621  32.767  27.259  1.00  0.00    -0.246 OA
BRANCH  23  25
ATOM     25  C   UNL A   1      34.372  31.249  27.712  1.00  0.00     0.060 A 
ATOM     26  C   UNL A   1      34.623  29.909  28.004  1.00  0.00     0.016 A 
ATOM     27  C   UNL A   1      35.321  32.230  28.001  1.00  0.00     0.016 A 
ATOM     28  C   UNL A   1      35.802  29.546  28.643  1.00  0.00     0.010 A 
ATOM     29  C   UNL A   1      36.522  31.857  28.619  1.00  0.00     0.010 A 
ATOM     30  C   UNL A   1      36.753  30.518  28.979  1.00  0.00    -0.014 A 
BRANCH  30  31
ATOM     31  C   UNL A   1      37.925  30.132  29.807  1.00  0.00     0.031 A 
ATOM     32  C   UNL A   1      39.012  29.282  29.205  1.00  0.00     0.074 A 
ATOM     33  C   UNL A   1      38.066  30.612  31.057  1.00  0.00     0.049 A 
ATOM     34  N   UNL A   1      40.064  28.756  29.778  1.00  0.00    -0.248 NA
ATOM     35  C   UNL A   1      38.902  28.989  27.766  1.00  0.00     0.031 C 
ATOM     36  C   UNL A   1      37.133  31.522  31.725  1.00  0.00     0.029 A 
ATOM     37  N   UNL A   1      39.066  30.427  31.979  1.00  0.00    -0.354 N 
ATOM     38  C   UNL A   1      40.720  28.039  28.783  1.00  0.00     0.074 A 
ATOM     39  C   UNL A   1      39.948  28.198  27.569  1.00  0.00     0.031 C 
ATOM     40  C   UNL A   1      37.627  31.850  32.930  1.00  0.00     0.029 A 
ATOM     41  C   UNL A   1      38.874  31.122  33.150  1.00  0.00     0.049 A 
ATOM     42  H   UNL A   1      39.846  29.849  31.817  1.00  0.00     0.167 HD
ATOM     43  C   UNL A   1      41.859  27.311  28.877  1.00  0.00     0.034 A 
ATOM     44  C   UNL A   1      39.606  31.150  34.281  1.00  0.00     0.034 A 
ATOM     45  C   UNL A   1      42.640  27.184  30.079  1.00  0.00     0.049 A 
ATOM     46  C   UNL A   1      40.832  30.282  34.383  1.00  0.00     0.074 A 
ATOM     47  C   UNL A   1      43.788  26.440  30.290  1.00  0.00     0.029 A 
ATOM     48  N   UNL A   1      42.361  27.830  31.275  1.00  0.00    -0.354 N 
ATOM     49  N   UNL A   1      41.364  29.502  33.474  1.00  0.00    -0.248 NA
ATOM     50  C   UNL A   1      41.535  30.276  35.674  1.00  0.00     0.031 C 
ATOM     51  C   UNL A   1      44.183  26.608  31.621  1.00  0.00     0.029 A 
ATOM     52  C   UNL A   1      43.308  27.494  32.228  1.00  0.00     0.049 A 
ATOM     53  H   UNL A   1      41.602  28.439  31.423  1.00  0.00     0.167 HD
ATOM     54  C   UNL A   1      42.462  28.905  34.085  1.00  0.00     0.074 A 
ATOM     55  C   UNL A   1      42.526  29.427  35.435  1.00  0.00     0.031 C 
ATOM     56  C   UNL A   1      43.338  28.004  33.575  1.00  0.00     0.034 A 
BRANCH  43  57
ATOM     57  C   UNL A   1      42.289  26.544  27.656  1.00  0.00     0.023 A 
ATOM     58  C   UNL A   1      42.000  25.179  27.498  1.00  0.00     0.031 A 
ATOM     59  C   UNL A   1      43.006  27.196  26.637  1.00  0.00     0.131 A 
ATOM     60  C   UNL A   1      42.464  24.499  26.363  1.00  0.00     0.055 A 
ATOM     61  C   UNL A   1      43.417  26.527  25.485  1.00  0.00     0.041 A 
ATOM     62  F   UNL A   1      43.322  28.496  26.753  1.00  0.00    -0.206 F 
ATOM     63  C   UNL A   1      43.153  25.168  25.346  1.00  0.00     0.022 A 
BRANCH  60  64
ATOM     64  S   UNL A   1      42.221  22.705  26.258  1.00  0.00     0.124 S 
ATOM     65  O   UNL A   1      40.782  22.592  26.473  1.00  0.00    -0.237 OA
ATOM     66  O   UNL A   1      42.692  22.398  24.912  1.00  0.00    -0.237 OA
ATOM     67  O   UNL A   1      43.052  22.184  27.341  1.00  0.00    -0.744 OA
ENDBRANCH  60  64
ENDBRANCH  43  57
BRANCH  44  68
ATOM     68  C   UNL A   1      39.165  31.979  35.435  1.00  0.00     0.023 A 
ATOM     69  C   UNL A   1      38.439  31.413  36.494  1.00  0.00     0.031 A 
ATOM     70  C   UNL A   1      39.457  33.352  35.486  1.00  0.00     0.131 A 
ATOM     71  C   UNL A   1      38.016  32.226  37.557  1.00  0.00     0.055 A 
ATOM     72  C   UNL A   1      39.064  34.149  36.561  1.00  0.00     0.041 A 
ATOM     73  F   UNL A   1      40.152  33.935  34.495  1.00  0.00    -0.206 F 
ATOM     74  C   UNL A   1      38.333  33.586  37.604  1.00  0.00     0.022 A 
BRANCH  71  75
ATOM     75  S   UNL A   1      37.026  31.484  38.885  1.00  0.00     0.124 S 
ATOM     76  O   UNL A   1      35.833  32.322  38.869  1.00  0.00    -0.237 OA
ATOM     77  O   UNL A   1      36.856  30.114  38.411  1.00  0.00    -0.237 OA
ATOM     78  O   UNL A   1      37.877  31.628  40.063  1.00  0.00    -0.744 OA
ENDBRANCH  71  75
ENDBRANCH  44  68
BRANCH  56  79
ATOM     79  C   UNL A   1      44.441  27.534  34.478  1.00  0.00     0.023 A 
ATOM     80  C   UNL A   1      44.328  26.334  35.200  1.00  0.00     0.031 A 
ATOM     81  C   UNL A   1      45.629  28.276  34.591  1.00  0.00     0.131 A 
ATOM     82  C   UNL A   1      45.384  25.920  36.026  1.00  0.00     0.055 A 
ATOM     83  C   UNL A   1      46.688  27.842  35.388  1.00  0.00     0.041 A 
ATOM     84  F   UNL A   1      45.780  29.427  33.916  1.00  0.00    -0.206 F 
ATOM     85  C   UNL A   1      46.567  26.660  36.114  1.00  0.00     0.022 A 
BRANCH  82  86
ATOM     86  S   UNL A   1      45.192  24.399  36.996  1.00  0.00     0.124 S 
ATOM     87  O   UNL A   1      44.453  24.876  38.160  1.00  0.00    -0.237 OA
ATOM     88  O   UNL A   1      44.455  23.529  36.085  1.00  0.00    -0.237 OA
ATOM     89  O   UNL A   1      46.570  23.987  37.261  1.00  0.00    -0.744 OA
ENDBRANCH  82  86
ENDBRANCH  56  79
ENDBRANCH  30  31
ENDBRANCH  23  25
ENDBRANCH  22  23
ENDBRANCH   1  22
TORSDOF 18
ENDMDL
MODEL 3
REMARK VINA RESULT:     -11.2      5.219     10.160
REMARK SMILES C/C=C/C(=O)N[C@@H](Cc1ccc(F)cc1)C(=O)OCCOC(=O)c1ccc(-c2c3nc(c(-c4cc(S(=O)(=O)[O-])ccc4F)c4ccc([nH]4)c(-c4cc(S(=O)(=O)[O-])ccc4F)c4nc(c(-c5cc(S(=O)(=O)[O-])ccc5F)c5ccc2[nH]5)C=C4)C=C3)cc1
REMARK SMILES IDX 20 1 19 2 18 3 16 4 17 5 7 6 6 7 4 8 5 9 3 11 1 12 2 13 8 14
REMARK SMILES IDX 9 15 10 16 15 17 11 18 14 19 12 20 13 21 21 22 22 23 23 24
REMARK SMILES IDX 24 25 25 26 86 27 26 28 85 29 27 30 28 31 29 32 79 33 30 34
REMARK SMILES IDX 84 35 78 36 80 37 31 38 83 39 77 40 76 41 32 43 64 44 44 45
REMARK SMILES IDX 63 46 45 47 48 48 62 49 81 50 46 51 47 52 61 54 82 55 49 56
REMARK SMILES IDX 33 57 34 58 42 59 35 60 41 61 43 62 40 63 36 64 37 65 38 66
REMARK SMILES IDX 39 67 65 68 66 69 74 70 67 71 73 72 75 73 72 74 68 75 69 76
REMARK SMILES IDX 70 77 71 78 50 79 51 80 59 81 52 82 58 83 60 84 57 85 53 86
REMARK SMILES IDX 54 87 55 88 56 89
REMARK H PARENT 6 10 80 42 48 53
REMARK Flexibility Score: inf
ROOT
ATOM      1  C   UNL A   1      31.677  29.252  26.529  1.00  0.00     0.275 C 
ENDROOT
BRANCH   1   2
ATOM      2  C   UNL A   1      31.790  27.840  25.956  1.00  0.00     0.274 C 
BRANCH   2   3
ATOM      3  O   UNL A   1      31.011  26.901  26.720  1.00  0.00    -0.461 OA
BRANCH   3   4
ATOM      4  C   UNL A   1      30.279  26.004  26.003  1.00  0.00     0.329 C 
ATOM      5  O   UNL A   1      29.639  25.078  26.492  1.00  0.00    -0.250 OA
BRANCH   4   6
ATOM      6  C   UNL A   1      30.411  26.205  24.484  1.00  0.00     0.196 C 
BRANCH   6   7
ATOM      7  N   UNL A   1      31.030  25.079  23.775  1.00  0.00    -0.339 N 
ATOM      8  C   UNL A   1      31.944  25.039  22.772  1.00  0.00     0.244 C 
ATOM      9  O   UNL A   1      32.373  23.955  22.388  1.00  0.00    -0.270 OA
ATOM     10  H   UNL A   1      30.729  24.194  24.082  1.00  0.00     0.164 HD
BRANCH   8  11
ATOM     11  C   UNL A   1      32.472  26.289  22.181  1.00  0.00     0.066 C 
ATOM     12  C   UNL A   1      34.068  28.204  22.005  1.00  0.00     0.036 C 
ATOM     13  C   UNL A   1      33.575  26.924  22.604  1.00  0.00    -0.025 C 
ENDBRANCH   8  11
ENDBRANCH   6   7
BRANCH   6  14
ATOM     14  C   UNL A   1      29.029  26.538  23.893  1.00  0.00     0.072 C 
BRANCH  14  15
ATOM     15  C   UNL A   1      28.954  27.903  23.238  1.00  0.00    -0.045 A 
ATOM     16  C   UNL A   1      30.104  28.489  22.686  1.00  0.00     0.007 A 
ATOM     17  C   UNL A   1      27.724  28.574  23.133  1.00  0.00     0.007 A 
ATOM     18  C   UNL A   1      30.021  29.717  22.028  1.00  0.00     0.039 A 
ATOM     19  C   UNL A   1      27.645  29.798  22.470  1.00  0.00     0.039 A 
ATOM     20  C   UNL A   1      28.793  30.358  21.923  1.00  0.00     0.123 A 
ATOM     21  F   UNL A   1      28.713  31.532  21.284  1.00  0.00    -0.207 F 
ENDBRANCH  14  15
ENDBRANCH   6  14
ENDBRANCH   4   6
ENDBRANCH   3   4
ENDBRANCH   2   3
ENDBRANCH   1   2
BRANCH   1  22
ATOM     22  O   UNL A   1      32.738  30.088  26.037  1.00  0.00    -0.458 OA
BRANCH  22  23
ATOM     23  C   UNL A   1      33.105  31.080  26.877  1.00  0.00     0.338 C 
ATOM     24  O   UNL A   1      32.415  32.018  27.264  1.00  0.00    -0.246 OA
BRANCH  23  25
ATOM     25  C   UNL A   1      34.455  30.836  27.385  1.00  0.00     0.060 A 
ATOM     26  C   UNL A   1      34.862  29.512  27.542  1.00  0.00     0.016 A 
ATOM     27  C   UNL A   1      35.249  31.885  27.850  1.00  0.00     0.016 A 
ATOM     28  C   UNL A   1      36.039  29.223  28.222  1.00  0.00     0.010 A 
ATOM     29  C   UNL A   1      36.450  31.592  28.508  1.00  0.00     0.010 A 
ATOM     30  C   UNL A   1      36.834  30.258  28.732  1.00  0.00    -0.014 A 
BRANCH  30  31
ATOM     31  C   UNL A   1      37.996  29.922  29.596  1.00  0.00     0.031 A 
ATOM     32  C   UNL A   1      39.115  29.081  29.041  1.00  0.00     0.074 A 
ATOM     33  C   UNL A   1      38.099  30.439  30.835  1.00  0.00     0.049 A 
ATOM     34  N   UNL A   1      40.166  28.596  29.650  1.00  0.00    -0.248 NA
ATOM     35  C   UNL A   1      39.042  28.747  27.609  1.00  0.00     0.031 C 
ATOM     36  C   UNL A   1      37.131  31.345  31.457  1.00  0.00     0.029 A 
ATOM     37  N   UNL A   1      39.082  30.303  31.782  1.00  0.00    -0.354 N 
ATOM     38  C   UNL A   1      40.859  27.868  28.690  1.00  0.00     0.074 A 
ATOM     39  C   UNL A   1      40.111  27.975  27.456  1.00  0.00     0.031 C 
ATOM     40  C   UNL A   1      37.591  31.717  32.662  1.00  0.00     0.029 A 
ATOM     41  C   UNL A   1      38.850  31.025  32.929  1.00  0.00     0.049 A 
ATOM     42  H   UNL A   1      39.879  29.740  31.653  1.00  0.00     0.167 HD
ATOM     43  C   UNL A   1      42.012  27.170  28.827  1.00  0.00     0.034 A 
ATOM     44  C   UNL A   1      39.555  31.101  34.074  1.00  0.00     0.034 A 
ATOM     45  C   UNL A   1      42.770  27.094  30.050  1.00  0.00     0.049 A 
ATOM     46  C   UNL A   1      40.799  30.266  34.226  1.00  0.00     0.074 A 
ATOM     47  C   UNL A   1      43.930  26.383  30.305  1.00  0.00     0.029 A 
ATOM     48  N   UNL A   1      42.450  27.766  31.220  1.00  0.00    -0.354 N 
ATOM     49  N   UNL A   1      41.368  29.473  33.350  1.00  0.00    -0.248 NA
ATOM     50  C   UNL A   1      41.473  30.311  35.531  1.00  0.00     0.031 C 
ATOM     51  C   UNL A   1      44.292  26.597  31.639  1.00  0.00     0.029 A 
ATOM     52  C   UNL A   1      43.383  27.478  32.202  1.00  0.00     0.049 A 
ATOM     53  H   UNL A   1      41.674  28.360  31.336  1.00  0.00     0.167 HD
ATOM     54  C   UNL A   1      42.466  28.919  34.001  1.00  0.00     0.074 A 
ATOM     55  C   UNL A   1      42.489  29.480  35.337  1.00  0.00     0.031 C 
ATOM     56  C   UNL A   1      43.373  28.026  33.535  1.00  0.00     0.034 A 
BRANCH  43  57
ATOM     57  C   UNL A   1      42.486  26.379  27.638  1.00  0.00     0.023 A 
ATOM     58  C   UNL A   1      42.114  25.040  27.442  1.00  0.00     0.031 A 
ATOM     59  C   UNL A   1      43.330  26.983  26.689  1.00  0.00     0.131 A 
ATOM     60  C   UNL A   1      42.621  24.333  26.341  1.00  0.00     0.055 A 
ATOM     61  C   UNL A   1      43.787  26.292  25.568  1.00  0.00     0.041 A 
ATOM     62  F   UNL A   1      43.729  28.256  26.845  1.00  0.00    -0.206 F 
ATOM     63  C   UNL A   1      43.439  24.956  25.392  1.00  0.00     0.022 A 
BRANCH  60  64
ATOM     64  S   UNL A   1      42.260  22.562  26.196  1.00  0.00     0.124 S 
ATOM     65  O   UNL A   1      40.802  22.567  26.123  1.00  0.00    -0.237 OA
ATOM     66  O   UNL A   1      42.960  22.193  24.971  1.00  0.00    -0.237 OA
ATOM     67  O   UNL A   1      42.816  21.999  27.425  1.00  0.00    -0.744 OA
ENDBRANCH  60  64
ENDBRANCH  43  57
BRANCH  44  68
ATOM     68  C   UNL A   1      39.070  31.951  35.195  1.00  0.00     0.023 A 
ATOM     69  C   UNL A   1      38.462  31.379  36.323  1.00  0.00     0.031 A 
ATOM     70  C   UNL A   1      39.202  33.349  35.145  1.00  0.00     0.131 A 
ATOM     71  C   UNL A   1      37.994  32.209  37.353  1.00  0.00     0.055 A 
ATOM     72  C   UNL A   1      38.765  34.167  36.186  1.00  0.00     0.041 A 
ATOM     73  F   UNL A   1      39.780  33.938  34.086  1.00  0.00    -0.206 F 
ATOM     74  C   UNL A   1      38.151  33.596  37.298  1.00  0.00     0.022 A 
BRANCH  71  75
ATOM     75  S   UNL A   1      37.156  31.451  38.773  1.00  0.00     0.124 S 
ATOM     76  O   UNL A   1      37.032  30.064  38.337  1.00  0.00    -0.237 OA
ATOM     77  O   UNL A   1      38.100  31.703  39.857  1.00  0.00    -0.237 OA
ATOM     78  O   UNL A   1      35.901  32.194  38.862  1.00  0.00    -0.744 OA
ENDBRANCH  71  75
ENDBRANCH  44  68
BRANCH  56  79
ATOM     79  C   UNL A   1      44.467  27.606  34.474  1.00  0.00     0.023 A 
ATOM     80  C   UNL A   1      44.328  26.473  35.292  1.00  0.00     0.031 A 
ATOM     81  C   UNL A   1      45.671  28.328  34.525  1.00  0.00     0.131 A 
ATOM     82  C   UNL A   1      45.375  26.104  36.150  1.00  0.00     0.055 A 
ATOM     83  C   UNL A   1      46.722  27.937  35.355  1.00  0.00     0.041 A 
ATOM     84  F   UNL A   1      45.847  29.415  33.758  1.00  0.00    -0.206 F 
ATOM     85  C   UNL A   1      46.575  26.822  36.176  1.00  0.00     0.022 A 
BRANCH  82  86
ATOM     86  S   UNL A   1      45.150  24.673  37.242  1.00  0.00     0.124 S 
ATOM     87  O   UNL A   1      43.769  24.843  37.679  1.00  0.00    -0.237 OA
ATOM     88  O   UNL A   1      45.403  23.546  36.349  1.00  0.00    -0.237 OA
ATOM     89  O   UNL A   1      46.160  24.875  38.280  1.00  0.00    -0.744 OA
ENDBRANCH  82  86
ENDBRANCH  56  79
ENDBRANCH  30  31
ENDBRANCH  23  25
ENDBRANCH  22  23
ENDBRANCH   1  22
TORSDOF 18
ENDMDL
