MODEL 1
REMARK VINA RESULT:     -13.1      0.000      0.000
REMARK SMILES Cc1cc(C(=O)OCCOC(=O)c2ccc(-c3c4nc(c(-c5cc(S(=O)(=O)[O-])ccc5F)c5ccc([nH]5)c(-c5cc(S(=O)(=O)[O-])ccc5F)c5nc(c(-c6cc(S(=O)(=O)[O-])ccc6F)c6ccc3[nH]6)C=C5)C=C4)cc2)ccc1NC(=O)N1C[C@@H](C)[C@H](C)C1
REMARK SMILES IDX 9 1 8 2 7 3 5 4 6 5 4 6 1 7 2 8 3 9 78 10 77 11 76 12 79 13
REMARK SMILES IDX 80 14 81 16 82 17 83 18 88 19 84 20 86 21 85 22 87 23 10 24
REMARK SMILES IDX 11 25 12 26 13 27 14 28 75 29 15 30 74 31 16 32 17 33 18 34
REMARK SMILES IDX 68 35 19 36 73 37 67 38 69 39 20 40 72 41 66 42 65 43 21 45
REMARK SMILES IDX 53 46 33 47 52 48 34 49 37 50 51 51 70 52 35 53 36 54 50 56
REMARK SMILES IDX 71 57 38 58 22 59 23 60 31 61 24 62 30 63 32 64 29 65 25 66
REMARK SMILES IDX 26 67 27 68 28 69 54 70 55 71 63 72 56 73 62 74 64 75 61 76
REMARK SMILES IDX 57 77 58 78 59 79 60 80 39 81 40 82 48 83 41 84 47 85 49 86
REMARK SMILES IDX 46 87 42 88 43 89 44 90 45 91
REMARK H PARENT 79 15 69 44 37 55
REMARK Flexibility Score: inf
ROOT
ATOM      1  C   UNL A   1      33.822  31.551  27.736  1.00  0.00     0.275 C 
ENDROOT
BRANCH   1   2
ATOM      2  C   UNL A   1      32.729  30.957  26.839  1.00  0.00     0.275 C 
BRANCH   2   3
ATOM      3  O   UNL A   1      32.322  29.648  27.255  1.00  0.00    -0.458 OA
BRANCH   3   4
ATOM      4  C   UNL A   1      33.002  28.663  26.637  1.00  0.00     0.338 C 
ATOM      5  O   UNL A   1      33.931  27.994  27.104  1.00  0.00    -0.246 OA
BRANCH   4   6
ATOM      6  C   UNL A   1      32.658  28.572  25.222  1.00  0.00     0.060 A 
ATOM      7  C   UNL A   1      29.651  27.627  23.108  1.00  0.00     0.046 C 
ATOM      8  C   UNL A   1      31.086  27.877  23.484  1.00  0.00    -0.027 A 
ATOM      9  C   UNL A   1      31.347  28.353  24.783  1.00  0.00     0.021 A 
ATOM     10  C   UNL A   1      32.186  27.551  22.678  1.00  0.00     0.045 A 
ATOM     11  C   UNL A   1      33.476  27.951  23.075  1.00  0.00     0.027 A 
ATOM     12  C   UNL A   1      33.722  28.438  24.346  1.00  0.00     0.018 A 
BRANCH  10  13
ATOM     13  N   UNL A   1      32.034  26.789  21.499  1.00  0.00    -0.308 N 
ATOM     14  C   UNL A   1      32.595  25.559  21.257  1.00  0.00     0.321 C 
ATOM     15  H   UNL A   1      31.476  27.175  20.785  1.00  0.00     0.171 HD
ATOM     16  O   UNL A   1      32.998  25.271  20.131  1.00  0.00    -0.248 OA
ATOM     17  N   UNL A   1      32.691  24.694  22.322  1.00  0.00    -0.324 N 
ATOM     18  C   UNL A   1      33.796  23.775  22.470  1.00  0.00     0.125 C 
ATOM     19  C   UNL A   1      31.610  24.395  23.257  1.00  0.00     0.125 C 
ATOM     20  C   UNL A   1      33.406  22.824  23.602  1.00  0.00     0.010 C 
ATOM     21  C   UNL A   1      32.264  23.549  24.346  1.00  0.00     0.010 C 
ATOM     22  C   UNL A   1      34.577  22.503  24.524  1.00  0.00     0.010 C 
ATOM     23  C   UNL A   1      31.292  22.578  25.005  1.00  0.00     0.010 C 
ENDBRANCH  10  13
ENDBRANCH   4   6
ENDBRANCH   3   4
ENDBRANCH   2   3
ENDBRANCH   1   2
BRANCH   1  24
ATOM     24  O   UNL A   1      35.151  30.968  27.773  1.00  0.00    -0.458 OA
BRANCH  24  25
ATOM     25  C   UNL A   1      35.813  30.740  28.931  1.00  0.00     0.338 C 
ATOM     26  O   UNL A   1      35.391  31.135  30.020  1.00  0.00    -0.246 OA
BRANCH  25  27
ATOM     27  C   UNL A   1      37.008  29.875  28.788  1.00  0.00     0.060 A 
ATOM     28  C   UNL A   1      37.787  29.993  27.629  1.00  0.00     0.016 A 
ATOM     29  C   UNL A   1      37.465  29.107  29.858  1.00  0.00     0.016 A 
ATOM     30  C   UNL A   1      39.095  29.506  27.608  1.00  0.00     0.010 A 
ATOM     31  C   UNL A   1      38.774  28.661  29.860  1.00  0.00     0.010 A 
ATOM     32  C   UNL A   1      39.603  28.878  28.749  1.00  0.00    -0.014 A 
BRANCH  32  33
ATOM     33  C   UNL A   1      40.848  28.112  28.734  1.00  0.00     0.031 A 
ATOM     34  C   UNL A   1      40.970  26.695  28.325  1.00  0.00     0.074 A 
ATOM     35  C   UNL A   1      41.915  28.801  29.192  1.00  0.00     0.049 A 
ATOM     36  N   UNL A   1      41.886  25.896  28.765  1.00  0.00    -0.248 NA
ATOM     37  C   UNL A   1      40.058  26.045  27.390  1.00  0.00     0.031 C 
ATOM     38  C   UNL A   1      43.315  28.421  29.229  1.00  0.00     0.029 A 
ATOM     39  N   UNL A   1      41.852  29.946  29.991  1.00  0.00    -0.354 N 
ATOM     40  C   UNL A   1      41.875  24.757  27.986  1.00  0.00     0.074 A 
ATOM     41  C   UNL A   1      40.668  24.866  27.198  1.00  0.00     0.031 C 
ATOM     42  C   UNL A   1      43.891  29.082  30.251  1.00  0.00     0.029 A 
ATOM     43  C   UNL A   1      42.822  29.772  30.969  1.00  0.00     0.049 A 
ATOM     44  H   UNL A   1      41.248  30.716  29.883  1.00  0.00     0.167 HD
ATOM     45  C   UNL A   1      42.963  23.929  27.987  1.00  0.00     0.034 A 
ATOM     46  C   UNL A   1      42.518  29.627  32.291  1.00  0.00     0.034 A 
ATOM     47  C   UNL A   1      43.969  24.382  28.943  1.00  0.00     0.049 A 
ATOM     48  C   UNL A   1      43.162  28.384  32.848  1.00  0.00     0.074 A 
ATOM     49  C   UNL A   1      45.113  25.149  28.784  1.00  0.00     0.029 A 
ATOM     50  N   UNL A   1      43.718  24.315  30.308  1.00  0.00    -0.354 N 
ATOM     51  N   UNL A   1      43.349  27.288  32.164  1.00  0.00    -0.248 NA
ATOM     52  C   UNL A   1      43.675  28.312  34.209  1.00  0.00     0.031 C 
ATOM     53  C   UNL A   1      45.490  25.629  30.061  1.00  0.00     0.029 A 
ATOM     54  C   UNL A   1      44.608  25.115  30.997  1.00  0.00     0.049 A 
ATOM     55  H   UNL A   1      43.009  23.774  30.724  1.00  0.00     0.167 HD
ATOM     56  C   UNL A   1      44.084  26.416  32.929  1.00  0.00     0.074 A 
ATOM     57  C   UNL A   1      44.236  27.092  34.208  1.00  0.00     0.031 C 
ATOM     58  C   UNL A   1      44.563  25.230  32.445  1.00  0.00     0.034 A 
BRANCH  45  59
ATOM     59  C   UNL A   1      43.276  22.908  26.907  1.00  0.00     0.023 A 
ATOM     60  C   UNL A   1      42.697  21.618  26.986  1.00  0.00     0.031 A 
ATOM     61  C   UNL A   1      44.146  23.109  25.822  1.00  0.00     0.131 A 
ATOM     62  C   UNL A   1      43.062  20.583  26.104  1.00  0.00     0.055 A 
ATOM     63  C   UNL A   1      44.540  22.069  24.962  1.00  0.00     0.041 A 
ATOM     64  F   UNL A   1      44.620  24.327  25.523  1.00  0.00    -0.206 F 
ATOM     65  C   UNL A   1      44.012  20.793  25.111  1.00  0.00     0.022 A 
BRANCH  62  66
ATOM     66  S   UNL A   1      42.290  18.947  26.286  1.00  0.00     0.124 S 
ATOM     67  O   UNL A   1      43.148  18.103  25.460  1.00  0.00    -0.237 OA
ATOM     68  O   UNL A   1      42.362  18.729  27.727  1.00  0.00    -0.237 OA
ATOM     69  O   UNL A   1      40.940  19.148  25.761  1.00  0.00    -0.744 OA
ENDBRANCH  62  66
ENDBRANCH  45  59
BRANCH  46  70
ATOM     70  C   UNL A   1      41.214  30.183  32.782  1.00  0.00     0.023 A 
ATOM     71  C   UNL A   1      41.010  31.582  32.763  1.00  0.00     0.031 A 
ATOM     72  C   UNL A   1      40.099  29.381  33.070  1.00  0.00     0.131 A 
ATOM     73  C   UNL A   1      39.722  32.126  32.907  1.00  0.00     0.055 A 
ATOM     74  C   UNL A   1      38.822  29.931  33.267  1.00  0.00     0.041 A 
ATOM     75  F   UNL A   1      40.201  28.045  33.096  1.00  0.00    -0.206 F 
ATOM     76  C   UNL A   1      38.623  31.306  33.159  1.00  0.00     0.022 A 
BRANCH  73  77
ATOM     77  S   UNL A   1      39.472  33.890  32.548  1.00  0.00     0.124 S 
ATOM     78  O   UNL A   1      40.841  34.358  32.366  1.00  0.00    -0.237 OA
ATOM     79  O   UNL A   1      38.642  33.853  31.348  1.00  0.00    -0.237 OA
ATOM     80  O   UNL A   1      38.792  34.382  33.742  1.00  0.00    -0.744 OA
ENDBRANCH  73  77
ENDBRANCH  46  70
BRANCH  58  81
ATOM     81  C   UNL A   1      45.192  24.149  33.289  1.00  0.00     0.023 A 
ATOM     82  C   UNL A   1      46.496  24.248  33.792  1.00  0.00     0.031 A 
ATOM     83  C   UNL A   1      44.463  23.004  33.691  1.00  0.00     0.131 A 
ATOM     84  C   UNL A   1      47.071  23.205  34.533  1.00  0.00     0.055 A 
ATOM     85  C   UNL A   1      45.008  22.006  34.505  1.00  0.00     0.041 A 
ATOM     86  F   UNL A   1      43.190  22.809  33.320  1.00  0.00    -0.206 F 
ATOM     87  C   UNL A   1      46.330  22.090  34.913  1.00  0.00     0.022 A 
BRANCH  84  88
ATOM     88  S   UNL A   1      48.837  23.312  34.916  1.00  0.00     0.124 S 
ATOM     89  O   UNL A   1      48.855  24.352  35.943  1.00  0.00    -0.237 OA
ATOM     90  O   UNL A   1      49.141  21.962  35.379  1.00  0.00    -0.237 OA
ATOM     91  O   UNL A   1      49.445  23.687  33.642  1.00  0.00    -0.744 OA
ENDBRANCH  84  88
ENDBRANCH  58  81
ENDBRANCH  32  33
ENDBRANCH  25  27
ENDBRANCH  24  25
ENDBRANCH   1  24
TORSDOF 15
ENDMDL
MODEL 2
REMARK VINA RESULT:     -12.8      2.091      2.440
REMARK SMILES Cc1cc(C(=O)OCCOC(=O)c2ccc(-c3c4nc(c(-c5cc(S(=O)(=O)[O-])ccc5F)c5ccc([nH]5)c(-c5cc(S(=O)(=O)[O-])ccc5F)c5nc(c(-c6cc(S(=O)(=O)[O-])ccc6F)c6ccc3[nH]6)C=C5)C=C4)cc2)ccc1NC(=O)N1C[C@@H](C)[C@H](C)C1
REMARK SMILES IDX 9 1 8 2 7 3 5 4 6 5 4 6 1 7 2 8 3 9 78 10 77 11 76 12 79 13
REMARK SMILES IDX 80 14 81 16 82 17 83 18 88 19 84 20 86 21 85 22 87 23 10 24
REMARK SMILES IDX 11 25 12 26 13 27 14 28 75 29 15 30 74 31 16 32 17 33 18 34
REMARK SMILES IDX 68 35 19 36 73 37 67 38 69 39 20 40 72 41 66 42 65 43 21 45
REMARK SMILES IDX 53 46 33 47 52 48 34 49 37 50 51 51 70 52 35 53 36 54 50 56
REMARK SMILES IDX 71 57 38 58 22 59 23 60 31 61 24 62 30 63 32 64 29 65 25 66
REMARK SMILES IDX 26 67 27 68 28 69 54 70 55 71 63 72 56 73 62 74 64 75 61 76
REMARK SMILES IDX 57 77 58 78 59 79 60 80 39 81 40 82 48 83 41 84 47 85 49 86
REMARK SMILES IDX 46 87 42 88 43 89 44 90 45 91
REMARK H PARENT 79 15 69 44 37 55
REMARK Flexibility Score: inf
ROOT
ATOM      1  C   UNL A   1      33.905  31.748  27.756  1.00  0.00     0.275 C 
ENDROOT
BRANCH   1   2
ATOM      2  C   UNL A   1      32.841  30.771  27.239  1.00  0.00     0.275 C 
BRANCH   2   3
ATOM      3  O   UNL A   1      33.246  29.401  27.354  1.00  0.00    -0.458 OA
BRANCH   3   4
ATOM      4  C   UNL A   1      32.307  28.536  26.922  1.00  0.00     0.338 C 
ATOM      5  O   UNL A   1      31.664  27.733  27.607  1.00  0.00    -0.246 OA
BRANCH   4   6
ATOM      6  C   UNL A   1      32.243  28.490  25.465  1.00  0.00     0.060 A 
ATOM      7  C   UNL A   1      29.587  28.176  22.772  1.00  0.00     0.046 C 
ATOM      8  C   UNL A   1      30.937  28.115  23.432  1.00  0.00    -0.027 A 
ATOM      9  C   UNL A   1      31.030  28.553  24.768  1.00  0.00     0.021 A 
ATOM     10  C   UNL A   1      32.077  27.537  22.857  1.00  0.00     0.045 A 
ATOM     11  C   UNL A   1      33.318  27.655  23.513  1.00  0.00     0.027 A 
ATOM     12  C   UNL A   1      33.405  28.106  24.818  1.00  0.00     0.018 A 
BRANCH  10  13
ATOM     13  N   UNL A   1      32.002  26.800  21.655  1.00  0.00    -0.308 N 
ATOM     14  C   UNL A   1      32.608  25.592  21.412  1.00  0.00     0.321 C 
ATOM     15  H   UNL A   1      31.466  27.187  20.925  1.00  0.00     0.171 HD
ATOM     16  O   UNL A   1      33.071  25.342  20.300  1.00  0.00    -0.248 OA
ATOM     17  N   UNL A   1      32.680  24.705  22.461  1.00  0.00    -0.324 N 
ATOM     18  C   UNL A   1      33.804  23.814  22.639  1.00  0.00     0.125 C 
ATOM     19  C   UNL A   1      31.567  24.354  23.337  1.00  0.00     0.125 C 
ATOM     20  C   UNL A   1      33.389  22.826  23.730  1.00  0.00     0.010 C 
ATOM     21  C   UNL A   1      32.194  23.501  24.436  1.00  0.00     0.010 C 
ATOM     22  C   UNL A   1      34.526  22.515  24.698  1.00  0.00     0.010 C 
ATOM     23  C   UNL A   1      31.221  22.488  25.027  1.00  0.00     0.010 C 
ENDBRANCH  10  13
ENDBRANCH   4   6
ENDBRANCH   3   4
ENDBRANCH   2   3
ENDBRANCH   1   2
BRANCH   1  24
ATOM     24  O   UNL A   1      35.308  31.376  27.778  1.00  0.00    -0.458 OA
BRANCH  24  25
ATOM     25  C   UNL A   1      35.971  31.105  28.927  1.00  0.00     0.338 C 
ATOM     26  O   UNL A   1      35.595  31.534  30.020  1.00  0.00    -0.246 OA
BRANCH  25  27
ATOM     27  C   UNL A   1      37.099  30.158  28.769  1.00  0.00     0.060 A 
ATOM     28  C   UNL A   1      37.648  29.975  27.493  1.00  0.00     0.016 A 
ATOM     29  C   UNL A   1      37.733  29.612  29.884  1.00  0.00     0.016 A 
ATOM     30  C   UNL A   1      38.918  29.415  27.347  1.00  0.00     0.010 A 
ATOM     31  C   UNL A   1      39.011  29.098  29.751  1.00  0.00     0.010 A 
ATOM     32  C   UNL A   1      39.619  29.018  28.490  1.00  0.00    -0.014 A 
BRANCH  32  33
ATOM     33  C   UNL A   1      40.823  28.191  28.424  1.00  0.00     0.031 A 
ATOM     34  C   UNL A   1      40.838  26.712  28.381  1.00  0.00     0.074 A 
ATOM     35  C   UNL A   1      41.971  28.901  28.463  1.00  0.00     0.049 A 
ATOM     36  N   UNL A   1      41.817  25.990  28.819  1.00  0.00    -0.248 NA
ATOM     37  C   UNL A   1      39.740  25.911  27.850  1.00  0.00     0.031 C 
ATOM     38  C   UNL A   1      43.343  28.450  28.314  1.00  0.00     0.029 A 
ATOM     39  N   UNL A   1      42.094  30.211  28.933  1.00  0.00    -0.354 N 
ATOM     40  C   UNL A   1      41.627  24.695  28.382  1.00  0.00     0.074 A 
ATOM     41  C   UNL A   1      40.281  24.683  27.852  1.00  0.00     0.031 C 
ATOM     42  C   UNL A   1      44.130  29.306  28.992  1.00  0.00     0.029 A 
ATOM     43  C   UNL A   1      43.246  30.225  29.707  1.00  0.00     0.049 A 
ATOM     44  H   UNL A   1      41.489  30.968  28.752  1.00  0.00     0.167 HD
ATOM     45  C   UNL A   1      42.680  23.823  28.379  1.00  0.00     0.034 A 
ATOM     46  C   UNL A   1      43.227  30.437  31.054  1.00  0.00     0.034 A 
ATOM     47  C   UNL A   1      43.871  24.434  28.961  1.00  0.00     0.049 A 
ATOM     48  C   UNL A   1      43.960  29.333  31.773  1.00  0.00     0.074 A 
ATOM     49  C   UNL A   1      44.964  25.058  28.382  1.00  0.00     0.029 A 
ATOM     50  N   UNL A   1      43.914  24.729  30.319  1.00  0.00    -0.354 N 
ATOM     51  N   UNL A   1      43.984  28.091  31.374  1.00  0.00    -0.248 NA
ATOM     52  C   UNL A   1      44.748  29.571  32.974  1.00  0.00     0.031 C 
ATOM     53  C   UNL A   1      45.610  25.818  29.387  1.00  0.00     0.029 A 
ATOM     54  C   UNL A   1      44.940  25.615  30.582  1.00  0.00     0.049 A 
ATOM     55  H   UNL A   1      43.302  24.358  30.994  1.00  0.00     0.167 HD
ATOM     56  C   UNL A   1      44.853  27.392  32.174  1.00  0.00     0.074 A 
ATOM     57  C   UNL A   1      45.280  28.355  33.176  1.00  0.00     0.031 C 
ATOM     58  C   UNL A   1      45.203  26.093  31.929  1.00  0.00     0.034 A 
BRANCH  45  59
ATOM     59  C   UNL A   1      42.745  22.545  27.561  1.00  0.00     0.023 A 
ATOM     60  C   UNL A   1      43.792  22.376  26.623  1.00  0.00     0.031 A 
ATOM     61  C   UNL A   1      41.813  21.494  27.615  1.00  0.00     0.131 A 
ATOM     62  C   UNL A   1      43.826  21.287  25.732  1.00  0.00     0.055 A 
ATOM     63  C   UNL A   1      41.823  20.425  26.703  1.00  0.00     0.041 A 
ATOM     64  F   UNL A   1      40.879  21.436  28.575  1.00  0.00    -0.206 F 
ATOM     65  C   UNL A   1      42.822  20.325  25.743  1.00  0.00     0.022 A 
BRANCH  62  66
ATOM     66  S   UNL A   1      45.192  21.155  24.541  1.00  0.00     0.124 S 
ATOM     67  O   UNL A   1      44.620  21.754  23.339  1.00  0.00    -0.237 OA
ATOM     68  O   UNL A   1      46.251  21.913  25.199  1.00  0.00    -0.237 OA
ATOM     69  O   UNL A   1      45.430  19.715  24.454  1.00  0.00    -0.744 OA
ENDBRANCH  62  66
ENDBRANCH  45  59
BRANCH  46  70
ATOM     70  C   UNL A   1      42.064  31.184  31.636  1.00  0.00     0.023 A 
ATOM     71  C   UNL A   1      41.014  30.461  32.245  1.00  0.00     0.031 A 
ATOM     72  C   UNL A   1      42.052  32.579  31.795  1.00  0.00     0.131 A 
ATOM     73  C   UNL A   1      40.076  31.105  33.070  1.00  0.00     0.055 A 
ATOM     74  C   UNL A   1      41.083  33.227  32.577  1.00  0.00     0.041 A 
ATOM     75  F   UNL A   1      43.018  33.339  31.261  1.00  0.00    -0.206 F 
ATOM     76  C   UNL A   1      40.105  32.488  33.241  1.00  0.00     0.022 A 
BRANCH  73  77
ATOM     77  S   UNL A   1      38.958  30.091  34.082  1.00  0.00     0.124 S 
ATOM     78  O   UNL A   1      39.715  29.950  35.321  1.00  0.00    -0.237 OA
ATOM     79  O   UNL A   1      37.758  30.920  34.154  1.00  0.00    -0.237 OA
ATOM     80  O   UNL A   1      38.807  28.871  33.295  1.00  0.00    -0.744 OA
ENDBRANCH  73  77
ENDBRANCH  46  70
BRANCH  58  81
ATOM     81  C   UNL A   1      45.984  25.219  32.881  1.00  0.00     0.023 A 
ATOM     82  C   UNL A   1      45.405  24.137  33.557  1.00  0.00     0.031 A 
ATOM     83  C   UNL A   1      47.373  25.398  33.080  1.00  0.00     0.131 A 
ATOM     84  C   UNL A   1      46.143  23.373  34.474  1.00  0.00     0.055 A 
ATOM     85  C   UNL A   1      48.128  24.580  33.926  1.00  0.00     0.041 A 
ATOM     86  F   UNL A   1      48.060  26.366  32.457  1.00  0.00    -0.206 F 
ATOM     87  C   UNL A   1      47.509  23.572  34.650  1.00  0.00     0.022 A 
BRANCH  84  88
ATOM     88  S   UNL A   1      45.249  22.169  35.486  1.00  0.00     0.124 S 
ATOM     89  O   UNL A   1      43.867  22.615  35.326  1.00  0.00    -0.237 OA
ATOM     90  O   UNL A   1      45.584  20.904  34.839  1.00  0.00    -0.237 OA
ATOM     91  O   UNL A   1      45.810  22.354  36.821  1.00  0.00    -0.744 OA
ENDBRANCH  84  88
ENDBRANCH  58  81
ENDBRANCH  32  33
ENDBRANCH  25  27
ENDBRANCH  24  25
ENDBRANCH   1  24
TORSDOF 15
ENDMDL
MODEL 3
REMARK VINA RESULT:     -12.7      1.332      2.052
REMARK SMILES Cc1cc(C(=O)OCCOC(=O)c2ccc(-c3c4nc(c(-c5cc(S(=O)(=O)[O-])ccc5F)c5ccc([nH]5)c(-c5cc(S(=O)(=O)[O-])ccc5F)c5nc(c(-c6cc(S(=O)(=O)[O-])ccc6F)c6ccc3[nH]6)C=C5)C=C4)cc2)ccc1NC(=O)N1C[C@@H](C)[C@H](C)C1
REMARK SMILES IDX 9 1 8 2 7 3 5 4 6 5 4 6 1 7 2 8 3 9 78 10 77 11 76 12 79 13
REMARK SMILES IDX 80 14 81 16 82 17 83 18 88 19 84 20 86 21 85 22 87 23 10 24
REMARK SMILES IDX 11 25 12 26 13 27 14 28 75 29 15 30 74 31 16 32 17 33 18 34
REMARK SMILES IDX 68 35 19 36 73 37 67 38 69 39 20 40 72 41 66 42 65 43 21 45
REMARK SMILES IDX 53 46 33 47 52 48 34 49 37 50 51 51 70 52 35 53 36 54 50 56
REMARK SMILES IDX 71 57 38 58 22 59 23 60 31 61 24 62 30 63 32 64 29 65 25 66
REMARK SMILES IDX 26 67 27 68 28 69 54 70 55 71 63 72 56 73 62 74 64 75 61 76
REMARK SMILES IDX 57 77 58 78 59 79 60 80 39 81 40 82 48 83 41 84 47 85 49 86
REMARK SMILES IDX 46 87 42 88 43 89 44 90 45 91
REMARK H PARENT 79 15 69 44 37 55
REMARK Flexibility Score: inf
ROOT
ATOM      1  C   UNL A   1      34.035  30.507  26.660  1.00  0.00     0.275 C 
ENDROOT
BRANCH   1   2
ATOM      2  C   UNL A   1      32.535  30.816  26.576  1.00  0.00     0.275 C 
BRANCH   2   3
ATOM      3  O   UNL A   1      31.722  29.640  26.661  1.00  0.00    -0.458 OA
BRANCH   3   4
ATOM      4  C   UNL A   1      31.385  29.142  25.455  1.00  0.00     0.338 C 
ATOM      5  O   UNL A   1      30.682  29.686  24.596  1.00  0.00    -0.246 OA
BRANCH   4   6
ATOM      6  C   UNL A   1      31.787  27.747  25.313  1.00  0.00     0.060 A 
ATOM      7  C   UNL A   1      30.898  24.766  23.138  1.00  0.00     0.046 C 
ATOM      8  C   UNL A   1      31.415  25.546  24.316  1.00  0.00    -0.027 A 
ATOM      9  C   UNL A   1      31.363  26.951  24.242  1.00  0.00     0.021 A 
ATOM     10  C   UNL A   1      31.827  24.974  25.528  1.00  0.00     0.045 A 
ATOM     11  C   UNL A   1      32.416  25.790  26.513  1.00  0.00     0.027 A 
ATOM     12  C   UNL A   1      32.380  27.170  26.423  1.00  0.00     0.018 A 
BRANCH  10  13
ATOM     13  N   UNL A   1      31.621  23.604  25.802  1.00  0.00    -0.308 N 
ATOM     14  C   UNL A   1      32.339  22.560  25.272  1.00  0.00     0.321 C 
ATOM     15  H   UNL A   1      30.898  23.377  26.430  1.00  0.00     0.171 HD
ATOM     16  O   UNL A   1      31.779  21.503  24.988  1.00  0.00    -0.248 OA
ATOM     17  N   UNL A   1      33.684  22.765  25.069  1.00  0.00    -0.324 N 
ATOM     18  C   UNL A   1      34.392  22.175  23.956  1.00  0.00     0.125 C 
ATOM     19  C   UNL A   1      34.599  23.342  26.048  1.00  0.00     0.125 C 
ATOM     20  C   UNL A   1      35.879  22.410  24.229  1.00  0.00     0.010 C 
ATOM     21  C   UNL A   1      35.909  23.533  25.287  1.00  0.00     0.010 C 
ATOM     22  C   UNL A   1      36.651  22.787  22.970  1.00  0.00     0.010 C 
ATOM     23  C   UNL A   1      37.135  23.450  26.188  1.00  0.00     0.010 C 
ENDBRANCH  10  13
ENDBRANCH   4   6
ENDBRANCH   3   4
ENDBRANCH   2   3
ENDBRANCH   1   2
BRANCH   1  24
ATOM     24  O   UNL A   1      34.613  29.956  27.872  1.00  0.00    -0.458 OA
BRANCH  24  25
ATOM     25  C   UNL A   1      35.440  30.669  28.673  1.00  0.00     0.338 C 
ATOM     26  O   UNL A   1      35.044  31.626  29.343  1.00  0.00    -0.246 OA
BRANCH  25  27
ATOM     27  C   UNL A   1      36.814  30.124  28.767  1.00  0.00     0.060 A 
ATOM     28  C   UNL A   1      37.151  29.338  29.877  1.00  0.00     0.016 A 
ATOM     29  C   UNL A   1      37.693  30.217  27.688  1.00  0.00     0.016 A 
ATOM     30  C   UNL A   1      38.267  28.501  29.835  1.00  0.00     0.010 A 
ATOM     31  C   UNL A   1      38.775  29.357  27.621  1.00  0.00     0.010 A 
ATOM     32  C   UNL A   1      39.055  28.480  28.679  1.00  0.00    -0.014 A 
BRANCH  32  33
ATOM     33  C   UNL A   1      40.372  27.847  28.640  1.00  0.00     0.031 A 
ATOM     34  C   UNL A   1      40.630  26.442  28.255  1.00  0.00     0.074 A 
ATOM     35  C   UNL A   1      41.374  28.654  29.051  1.00  0.00     0.049 A 
ATOM     36  N   UNL A   1      41.637  25.753  28.682  1.00  0.00    -0.248 NA
ATOM     37  C   UNL A   1      39.763  25.680  27.362  1.00  0.00     0.031 C 
ATOM     38  C   UNL A   1      42.807  28.422  29.051  1.00  0.00     0.029 A 
ATOM     39  N   UNL A   1      41.216  29.804  29.828  1.00  0.00    -0.354 N 
ATOM     40  C   UNL A   1      41.722  24.601  27.926  1.00  0.00     0.074 A 
ATOM     41  C   UNL A   1      40.487  24.566  27.175  1.00  0.00     0.031 C 
ATOM     42  C   UNL A   1      43.340  29.163  30.041  1.00  0.00     0.029 A 
ATOM     43  C   UNL A   1      42.226  29.755  30.779  1.00  0.00     0.049 A 
ATOM     44  H   UNL A   1      40.531  30.505  29.724  1.00  0.00     0.167 HD
ATOM     45  C   UNL A   1      42.890  23.890  27.910  1.00  0.00     0.034 A 
ATOM     46  C   UNL A   1      41.977  29.609  32.112  1.00  0.00     0.034 A 
ATOM     47  C   UNL A   1      43.871  24.467  28.824  1.00  0.00     0.049 A 
ATOM     48  C   UNL A   1      42.764  28.452  32.673  1.00  0.00     0.074 A 
ATOM     49  C   UNL A   1      44.923  25.345  28.615  1.00  0.00     0.029 A 
ATOM     50  N   UNL A   1      43.668  24.406  30.198  1.00  0.00    -0.354 N 
ATOM     51  N   UNL A   1      43.045  27.367  32.006  1.00  0.00    -0.248 NA
ATOM     52  C   UNL A   1      43.321  28.465  34.019  1.00  0.00     0.031 C 
ATOM     53  C   UNL A   1      45.285  25.891  29.870  1.00  0.00     0.029 A 
ATOM     54  C   UNL A   1      44.489  25.310  30.843  1.00  0.00     0.049 A 
ATOM     55  H   UNL A   1      43.031  23.804  30.646  1.00  0.00     0.167 HD
ATOM     56  C   UNL A   1      43.889  26.593  32.764  1.00  0.00     0.074 A 
ATOM     57  C   UNL A   1      44.006  27.310  34.024  1.00  0.00     0.031 C 
ATOM     58  C   UNL A   1      44.474  25.452  32.289  1.00  0.00     0.034 A 
BRANCH  45  59
ATOM     59  C   UNL A   1      43.277  22.883  26.842  1.00  0.00     0.023 A 
ATOM     60  C   UNL A   1      42.746  21.572  26.902  1.00  0.00     0.031 A 
ATOM     61  C   UNL A   1      44.172  23.118  25.784  1.00  0.00     0.131 A 
ATOM     62  C   UNL A   1      43.178  20.552  26.033  1.00  0.00     0.055 A 
ATOM     63  C   UNL A   1      44.633  22.095  24.938  1.00  0.00     0.041 A 
ATOM     64  F   UNL A   1      44.608  24.354  25.500  1.00  0.00    -0.206 F 
ATOM     65  C   UNL A   1      44.150  20.799  25.071  1.00  0.00     0.022 A 
BRANCH  62  66
ATOM     66  S   UNL A   1      42.464  18.888  26.191  1.00  0.00     0.124 S 
ATOM     67  O   UNL A   1      42.618  18.615  27.617  1.00  0.00    -0.237 OA
ATOM     68  O   UNL A   1      41.099  19.089  25.715  1.00  0.00    -0.237 OA
ATOM     69  O   UNL A   1      43.306  18.072  25.316  1.00  0.00    -0.744 OA
ENDBRANCH  62  66
ENDBRANCH  45  59
BRANCH  46  70
ATOM     70  C   UNL A   1      40.637  30.038  32.633  1.00  0.00     0.023 A 
ATOM     71  C   UNL A   1      40.260  31.396  32.530  1.00  0.00     0.031 A 
ATOM     72  C   UNL A   1      39.645  29.130  33.033  1.00  0.00     0.131 A 
ATOM     73  C   UNL A   1      38.922  31.790  32.705  1.00  0.00     0.055 A 
ATOM     74  C   UNL A   1      38.320  29.534  33.259  1.00  0.00     0.041 A 
ATOM     75  F   UNL A   1      39.914  27.822  33.143  1.00  0.00    -0.206 F 
ATOM     76  C   UNL A   1      37.946  30.863  33.069  1.00  0.00     0.022 A 
BRANCH  73  77
ATOM     77  S   UNL A   1      38.439  33.479  32.241  1.00  0.00     0.124 S 
ATOM     78  O   UNL A   1      37.145  33.260  31.605  1.00  0.00    -0.237 OA
ATOM     79  O   UNL A   1      38.412  34.165  33.530  1.00  0.00    -0.237 OA
ATOM     80  O   UNL A   1      39.515  33.903  31.350  1.00  0.00    -0.744 OA
ENDBRANCH  73  77
ENDBRANCH  46  70
BRANCH  58  81
ATOM     81  C   UNL A   1      45.237  24.462  33.135  1.00  0.00     0.023 A 
ATOM     82  C   UNL A   1      46.531  24.715  33.608  1.00  0.00     0.031 A 
ATOM     83  C   UNL A   1      44.649  23.250  33.567  1.00  0.00     0.131 A 
ATOM     84  C   UNL A   1      47.234  23.754  34.351  1.00  0.00     0.055 A 
ATOM     85  C   UNL A   1      45.318  22.332  34.383  1.00  0.00     0.041 A 
ATOM     86  F   UNL A   1      43.399  22.907  33.226  1.00  0.00    -0.206 F 
ATOM     87  C   UNL A   1      46.631  22.570  34.762  1.00  0.00     0.022 A 
BRANCH  84  88
ATOM     88  S   UNL A   1      48.984  24.065  34.694  1.00  0.00     0.124 S 
ATOM     89  O   UNL A   1      49.111  25.476  34.337  1.00  0.00    -0.237 OA
ATOM     90  O   UNL A   1      49.083  23.763  36.118  1.00  0.00    -0.237 OA
ATOM     91  O   UNL A   1      49.680  23.135  33.809  1.00  0.00    -0.744 OA
ENDBRANCH  84  88
ENDBRANCH  58  81
ENDBRANCH  32  33
ENDBRANCH  25  27
ENDBRANCH  24  25
ENDBRANCH   1  24
TORSDOF 15
ENDMDL
