MODEL 1
REMARK VINA RESULT:     -11.8      0.000      0.000
REMARK SMILES COc1ccc(NC(=O)NCc2ccc(C(=O)OCCOC(=O)c3ccc(-c4c5nc(c(-c6cc(S(=O)(=O)[O-])ccc6F)c6ccc([nH]6)c(-c6cc(S(=O)(=O)[O-])ccc6F)c6nc(c(-c7cc(S(=O)(=O)[O-])ccc7F)c7ccc4[nH]7)C=C6)C=C5)cc3)cc2)c(OC)c1
REMARK SMILES IDX 19 1 18 2 16 3 17 4 15 5 12 6 13 7 88 8 14 9 87 10 11 11
REMARK SMILES IDX 10 12 7 13 8 14 9 16 6 18 3 19 4 20 92 21 5 22 89 23 2 24
REMARK SMILES IDX 1 25 90 26 91 27 20 28 21 29 22 30 23 31 24 32 25 33 86 34
REMARK SMILES IDX 26 35 85 36 27 37 28 38 29 39 79 40 30 41 84 42 78 43 80 44
REMARK SMILES IDX 31 45 83 46 77 47 76 48 32 50 64 51 44 52 63 53 45 54 48 55
REMARK SMILES IDX 62 56 81 57 46 58 47 59 61 61 82 62 49 63 33 64 34 65 42 66
REMARK SMILES IDX 35 67 41 68 43 69 40 70 36 71 37 72 38 73 39 74 65 75 66 76
REMARK SMILES IDX 74 77 67 78 73 79 75 80 72 81 68 82 69 83 70 84 71 85 50 86
REMARK SMILES IDX 51 87 59 88 52 89 58 90 60 91 57 92 53 93 54 94 55 95 56 96
REMARK H PARENT 7 15 10 17 80 49 48 60
REMARK Flexibility Score: inf
ROOT
ATOM      1  C   UNL A   1      31.411  29.546  24.556  1.00  0.00     0.275 C 
ENDROOT
BRANCH   1   2
ATOM      2  O   UNL A   1      30.653  28.323  24.680  1.00  0.00    -0.458 OA
BRANCH   2   3
ATOM      3  C   UNL A   1      30.202  27.806  23.508  1.00  0.00     0.338 C 
ATOM      4  O   UNL A   1      29.453  28.369  22.722  1.00  0.00    -0.246 OA
BRANCH   3   5
ATOM      5  C   UNL A   1      30.779  26.469  23.224  1.00  0.00     0.060 A 
ATOM      6  C   UNL A   1      32.001  24.007  22.617  1.00  0.00    -0.029 A 
ATOM      7  C   UNL A   1      32.608  25.208  22.244  1.00  0.00     0.006 A 
ATOM      8  C   UNL A   1      30.752  24.046  23.261  1.00  0.00     0.006 A 
ATOM      9  C   UNL A   1      31.987  26.420  22.520  1.00  0.00     0.016 A 
ATOM     10  C   UNL A   1      30.149  25.273  23.581  1.00  0.00     0.016 A 
BRANCH   6  11
ATOM     11  C   UNL A   1      32.777  22.730  22.439  1.00  0.00     0.153 C 
BRANCH  11  12
ATOM     12  N   UNL A   1      34.214  22.884  22.451  1.00  0.00    -0.334 N 
ATOM     13  N   UNL A   1      35.028  23.418  24.648  1.00  0.00    -0.305 N 
ATOM     14  C   UNL A   1      35.181  23.107  23.350  1.00  0.00     0.319 C 
ATOM     15  H   UNL A   1      35.886  23.650  25.072  1.00  0.00     0.172 HD
ATOM     16  O   UNL A   1      36.335  23.113  22.899  1.00  0.00    -0.248 OA
ATOM     17  H   UNL A   1      34.587  22.802  21.543  1.00  0.00     0.165 HD
BRANCH  13  18
ATOM     18  C   UNL A   1      33.962  23.496  25.553  1.00  0.00     0.085 A 
ATOM     19  C   UNL A   1      31.509  23.788  26.850  1.00  0.00     0.122 A 
ATOM     20  C   UNL A   1      32.107  22.533  26.743  1.00  0.00     0.049 A 
ATOM     21  C   UNL A   1      32.238  24.919  26.498  1.00  0.00     0.095 A 
ATOM     22  C   UNL A   1      33.354  22.395  26.131  1.00  0.00     0.034 A 
ATOM     23  C   UNL A   1      33.498  24.773  25.910  1.00  0.00     0.146 A 
BRANCH  19  24
ATOM     24  O   UNL A   1      30.234  23.780  27.335  1.00  0.00    -0.497 OA
ATOM     25  C   UNL A   1      29.481  22.589  27.119  1.00  0.00     0.278 C 
ENDBRANCH  19  24
BRANCH  23  26
ATOM     26  O   UNL A   1      34.294  25.852  25.601  1.00  0.00    -0.494 OA
ATOM     27  C   UNL A   1      33.715  27.098  26.009  1.00  0.00     0.278 C 
ENDBRANCH  23  26
ENDBRANCH  13  18
ENDBRANCH  11  12
ENDBRANCH   6  11
ENDBRANCH   3   5
ENDBRANCH   2   3
ENDBRANCH   1   2
BRANCH   1  28
ATOM     28  C   UNL A   1      31.746  30.184  25.908  1.00  0.00     0.275 C 
BRANCH  28  29
ATOM     29  O   UNL A   1      33.155  30.442  26.050  1.00  0.00    -0.458 OA
BRANCH  29  30
ATOM     30  C   UNL A   1      33.474  31.283  27.060  1.00  0.00     0.338 C 
ATOM     31  O   UNL A   1      32.750  32.118  27.578  1.00  0.00    -0.246 OA
BRANCH  30  32
ATOM     32  C   UNL A   1      34.839  31.028  27.545  1.00  0.00     0.060 A 
ATOM     33  C   UNL A   1      35.170  29.720  27.865  1.00  0.00     0.016 A 
ATOM     34  C   UNL A   1      35.698  32.066  27.895  1.00  0.00     0.016 A 
ATOM     35  C   UNL A   1      36.280  29.445  28.657  1.00  0.00     0.010 A 
ATOM     36  C   UNL A   1      36.890  31.773  28.576  1.00  0.00     0.010 A 
ATOM     37  C   UNL A   1      37.176  30.465  29.015  1.00  0.00    -0.014 A 
BRANCH  37  38
ATOM     38  C   UNL A   1      38.373  30.160  29.862  1.00  0.00     0.031 A 
ATOM     39  C   UNL A   1      39.450  29.221  29.366  1.00  0.00     0.074 A 
ATOM     40  C   UNL A   1      38.520  30.736  31.076  1.00  0.00     0.049 A 
ATOM     41  N   UNL A   1      40.487  28.732  30.001  1.00  0.00    -0.248 NA
ATOM     42  C   UNL A   1      39.345  28.771  27.970  1.00  0.00     0.031 C 
ATOM     43  C   UNL A   1      37.591  31.698  31.675  1.00  0.00     0.029 A 
ATOM     44  N   UNL A   1      39.504  30.601  32.029  1.00  0.00    -0.354 N 
ATOM     45  C   UNL A   1      41.126  27.880  29.103  1.00  0.00     0.074 A 
ATOM     46  C   UNL A   1      40.348  27.910  27.882  1.00  0.00     0.031 C 
ATOM     47  C   UNL A   1      38.067  32.096  32.863  1.00  0.00     0.029 A 
ATOM     48  C   UNL A   1      39.269  31.334  33.171  1.00  0.00     0.049 A 
ATOM     49  H   UNL A   1      40.300  30.036  31.905  1.00  0.00     0.167 HD
ATOM     50  C   UNL A   1      42.255  27.147  29.277  1.00  0.00     0.034 A 
ATOM     51  C   UNL A   1      39.901  31.353  34.362  1.00  0.00     0.034 A 
ATOM     52  C   UNL A   1      43.026  27.129  30.499  1.00  0.00     0.049 A 
ATOM     53  C   UNL A   1      41.090  30.454  34.569  1.00  0.00     0.074 A 
ATOM     54  C   UNL A   1      44.186  26.426  30.776  1.00  0.00     0.029 A 
ATOM     55  N   UNL A   1      42.709  27.834  31.653  1.00  0.00    -0.354 N 
ATOM     56  N   UNL A   1      41.660  29.631  33.720  1.00  0.00    -0.248 NA
ATOM     57  C   UNL A   1      41.715  30.480  35.897  1.00  0.00     0.031 C 
ATOM     58  C   UNL A   1      44.526  26.645  32.116  1.00  0.00     0.029 A 
ATOM     59  C   UNL A   1      43.631  27.555  32.654  1.00  0.00     0.049 A 
ATOM     60  H   UNL A   1      41.942  28.444  31.748  1.00  0.00     0.167 HD
ATOM     61  C   UNL A   1      42.725  29.056  34.407  1.00  0.00     0.074 A 
ATOM     62  C   UNL A   1      42.727  29.642  35.733  1.00  0.00     0.031 C 
ATOM     63  C   UNL A   1      43.619  28.129  33.979  1.00  0.00     0.034 A 
BRANCH  50  64
ATOM     64  C   UNL A   1      42.684  26.247  28.137  1.00  0.00     0.023 A 
ATOM     65  C   UNL A   1      42.042  25.025  27.868  1.00  0.00     0.031 A 
ATOM     66  C   UNL A   1      43.779  26.604  27.328  1.00  0.00     0.131 A 
ATOM     67  C   UNL A   1      42.549  24.171  26.875  1.00  0.00     0.055 A 
ATOM     68  C   UNL A   1      44.224  25.787  26.285  1.00  0.00     0.041 A 
ATOM     69  F   UNL A   1      44.445  27.747  27.546  1.00  0.00    -0.206 F 
ATOM     70  C   UNL A   1      43.621  24.554  26.066  1.00  0.00     0.022 A 
BRANCH  67  71
ATOM     71  S   UNL A   1      41.891  22.483  26.766  1.00  0.00     0.124 S 
ATOM     72  O   UNL A   1      42.354  22.074  25.442  1.00  0.00    -0.237 OA
ATOM     73  O   UNL A   1      42.529  21.825  27.900  1.00  0.00    -0.237 OA
ATOM     74  O   UNL A   1      40.446  22.670  26.883  1.00  0.00    -0.744 OA
ENDBRANCH  67  71
ENDBRANCH  50  64
BRANCH  51  75
ATOM     75  C   UNL A   1      39.372  32.191  35.480  1.00  0.00     0.023 A 
ATOM     76  C   UNL A   1      38.662  31.619  36.546  1.00  0.00     0.031 A 
ATOM     77  C   UNL A   1      39.549  33.588  35.482  1.00  0.00     0.131 A 
ATOM     78  C   UNL A   1      38.129  32.441  37.552  1.00  0.00     0.055 A 
ATOM     79  C   UNL A   1      39.074  34.394  36.516  1.00  0.00     0.041 A 
ATOM     80  F   UNL A   1      40.213  34.190  34.482  1.00  0.00    -0.206 F 
ATOM     81  C   UNL A   1      38.348  33.822  37.556  1.00  0.00     0.022 A 
BRANCH  78  82
ATOM     82  S   UNL A   1      37.073  31.690  38.821  1.00  0.00     0.124 S 
ATOM     83  O   UNL A   1      37.909  31.813  40.011  1.00  0.00    -0.237 OA
ATOM     84  O   UNL A   1      35.891  32.543  38.777  1.00  0.00    -0.237 OA
ATOM     85  O   UNL A   1      36.875  30.326  38.335  1.00  0.00    -0.744 OA
ENDBRANCH  78  82
ENDBRANCH  51  75
BRANCH  63  86
ATOM     86  C   UNL A   1      44.709  27.734  34.945  1.00  0.00     0.023 A 
ATOM     87  C   UNL A   1      44.463  26.875  36.031  1.00  0.00     0.031 A 
ATOM     88  C   UNL A   1      46.010  28.246  34.789  1.00  0.00     0.131 A 
ATOM     89  C   UNL A   1      45.486  26.602  36.952  1.00  0.00     0.055 A 
ATOM     90  C   UNL A   1      47.040  27.918  35.670  1.00  0.00     0.041 A 
ATOM     91  F   UNL A   1      46.300  29.077  33.774  1.00  0.00    -0.206 F 
ATOM     92  C   UNL A   1      46.778  27.103  36.767  1.00  0.00     0.022 A 
BRANCH  89  93
ATOM     93  S   UNL A   1      45.082  25.667  38.452  1.00  0.00     0.124 S 
ATOM     94  O   UNL A   1      43.928  26.400  38.963  1.00  0.00    -0.237 OA
ATOM     95  O   UNL A   1      44.811  24.334  37.926  1.00  0.00    -0.237 OA
ATOM     96  O   UNL A   1      46.294  25.779  39.263  1.00  0.00    -0.744 OA
ENDBRANCH  89  93
ENDBRANCH  63  86
ENDBRANCH  37  38
ENDBRANCH  30  32
ENDBRANCH  29  30
ENDBRANCH  28  29
ENDBRANCH   1  28
TORSDOF 19
ENDMDL
MODEL 2
REMARK VINA RESULT:     -11.4      1.860      2.764
REMARK SMILES COc1ccc(NC(=O)NCc2ccc(C(=O)OCCOC(=O)c3ccc(-c4c5nc(c(-c6cc(S(=O)(=O)[O-])ccc6F)c6ccc([nH]6)c(-c6cc(S(=O)(=O)[O-])ccc6F)c6nc(c(-c7cc(S(=O)(=O)[O-])ccc7F)c7ccc4[nH]7)C=C6)C=C5)cc3)cc2)c(OC)c1
REMARK SMILES IDX 19 1 18 2 16 3 17 4 15 5 12 6 13 7 88 8 14 9 87 10 11 11
REMARK SMILES IDX 10 12 7 13 8 14 9 16 6 18 3 19 4 20 92 21 5 22 89 23 2 24
REMARK SMILES IDX 1 25 90 26 91 27 20 28 21 29 22 30 23 31 24 32 25 33 86 34
REMARK SMILES IDX 26 35 85 36 27 37 28 38 29 39 79 40 30 41 84 42 78 43 80 44
REMARK SMILES IDX 31 45 83 46 77 47 76 48 32 50 64 51 44 52 63 53 45 54 48 55
REMARK SMILES IDX 62 56 81 57 46 58 47 59 61 61 82 62 49 63 33 64 34 65 42 66
REMARK SMILES IDX 35 67 41 68 43 69 40 70 36 71 37 72 38 73 39 74 65 75 66 76
REMARK SMILES IDX 74 77 67 78 73 79 75 80 72 81 68 82 69 83 70 84 71 85 50 86
REMARK SMILES IDX 51 87 59 88 52 89 58 90 60 91 57 92 53 93 54 94 55 95 56 96
REMARK H PARENT 7 15 10 17 80 49 48 60
REMARK Flexibility Score: inf
ROOT
ATOM      1  C   UNL A   1      30.736  31.032  25.658  1.00  0.00     0.275 C 
ENDROOT
BRANCH   1   2
ATOM      2  O   UNL A   1      31.483  29.796  25.689  1.00  0.00    -0.458 OA
BRANCH   2   3
ATOM      3  C   UNL A   1      31.316  28.997  24.604  1.00  0.00     0.338 C 
ATOM      4  O   UNL A   1      31.383  29.356  23.437  1.00  0.00    -0.246 OA
BRANCH   3   5
ATOM      5  C   UNL A   1      31.105  27.577  24.979  1.00  0.00     0.060 A 
ATOM      6  C   UNL A   1      30.667  24.853  25.534  1.00  0.00    -0.029 A 
ATOM      7  C   UNL A   1      30.477  25.350  24.242  1.00  0.00     0.006 A 
ATOM      8  C   UNL A   1      31.036  25.740  26.558  1.00  0.00     0.006 A 
ATOM      9  C   UNL A   1      30.667  26.701  23.979  1.00  0.00     0.016 A 
ATOM     10  C   UNL A   1      31.274  27.096  26.280  1.00  0.00     0.016 A 
BRANCH   6  11
ATOM     11  C   UNL A   1      30.602  23.364  25.741  1.00  0.00     0.153 C 
BRANCH  11  12
ATOM     12  N   UNL A   1      31.313  22.878  26.902  1.00  0.00    -0.334 N 
ATOM     13  N   UNL A   1      33.684  23.218  26.693  1.00  0.00    -0.305 N 
ATOM     14  C   UNL A   1      32.573  22.855  27.356  1.00  0.00     0.319 C 
ATOM     15  H   UNL A   1      34.499  22.997  27.199  1.00  0.00     0.172 HD
ATOM     16  O   UNL A   1      32.723  22.354  28.480  1.00  0.00    -0.248 OA
ATOM     17  H   UNL A   1      30.699  22.441  27.536  1.00  0.00     0.165 HD
BRANCH  13  18
ATOM     18  C   UNL A   1      33.979  23.831  25.469  1.00  0.00     0.085 A 
ATOM     19  C   UNL A   1      33.954  25.025  22.948  1.00  0.00     0.122 A 
ATOM     20  C   UNL A   1      34.282  25.770  24.079  1.00  0.00     0.049 A 
ATOM     21  C   UNL A   1      33.849  23.642  23.053  1.00  0.00     0.095 A 
ATOM     22  C   UNL A   1      34.334  25.162  25.334  1.00  0.00     0.034 A 
ATOM     23  C   UNL A   1      33.931  23.037  24.311  1.00  0.00     0.146 A 
BRANCH  19  24
ATOM     24  O   UNL A   1      33.793  25.752  21.805  1.00  0.00    -0.497 OA
ATOM     25  C   UNL A   1      32.579  25.544  21.087  1.00  0.00     0.278 C 
ENDBRANCH  19  24
BRANCH  23  26
ATOM     26  O   UNL A   1      33.900  21.671  24.473  1.00  0.00    -0.494 OA
ATOM     27  C   UNL A   1      35.205  21.111  24.675  1.00  0.00     0.278 C 
ENDBRANCH  23  26
ENDBRANCH  13  18
ENDBRANCH  11  12
ENDBRANCH   6  11
ENDBRANCH   3   5
ENDBRANCH   2   3
ENDBRANCH   1   2
BRANCH   1  28
ATOM     28  C   UNL A   1      31.445  32.180  26.385  1.00  0.00     0.275 C 
BRANCH  28  29
ATOM     29  O   UNL A   1      32.597  31.726  27.119  1.00  0.00    -0.458 OA
BRANCH  29  30
ATOM     30  C   UNL A   1      33.389  32.715  27.592  1.00  0.00     0.338 C 
ATOM     31  O   UNL A   1      33.079  33.881  27.773  1.00  0.00    -0.246 OA
BRANCH  30  32
ATOM     32  C   UNL A   1      34.718  32.198  27.951  1.00  0.00     0.060 A 
ATOM     33  C   UNL A   1      34.789  30.903  28.446  1.00  0.00     0.016 A 
ATOM     34  C   UNL A   1      35.833  33.028  28.020  1.00  0.00     0.016 A 
ATOM     35  C   UNL A   1      35.916  30.472  29.138  1.00  0.00     0.010 A 
ATOM     36  C   UNL A   1      37.018  32.543  28.598  1.00  0.00     0.010 A 
ATOM     37  C   UNL A   1      37.063  31.277  29.213  1.00  0.00    -0.014 A 
BRANCH  37  38
ATOM     38  C   UNL A   1      38.275  30.803  29.955  1.00  0.00     0.031 A 
ATOM     39  C   UNL A   1      39.235  29.823  29.317  1.00  0.00     0.074 A 
ATOM     40  C   UNL A   1      38.541  31.258  31.200  1.00  0.00     0.049 A 
ATOM     41  N   UNL A   1      40.259  29.197  29.843  1.00  0.00    -0.248 NA
ATOM     42  C   UNL A   1      39.011  29.504  27.899  1.00  0.00     0.031 C 
ATOM     43  C   UNL A   1      37.736  32.240  31.932  1.00  0.00     0.029 A 
ATOM     44  N   UNL A   1      39.562  30.961  32.073  1.00  0.00    -0.354 N 
ATOM     45  C   UNL A   1      40.769  28.375  28.840  1.00  0.00     0.074 A 
ATOM     46  C   UNL A   1      39.928  28.573  27.678  1.00  0.00     0.031 C 
ATOM     47  C   UNL A   1      38.312  32.494  33.115  1.00  0.00     0.029 A 
ATOM     48  C   UNL A   1      39.459  31.611  33.283  1.00  0.00     0.049 A 
ATOM     49  H   UNL A   1      40.297  30.345  31.853  1.00  0.00     0.167 HD
ATOM     50  C   UNL A   1      41.836  27.538  28.882  1.00  0.00     0.034 A 
ATOM     51  C   UNL A   1      40.156  31.475  34.429  1.00  0.00     0.034 A 
ATOM     52  C   UNL A   1      42.671  27.352  30.047  1.00  0.00     0.049 A 
ATOM     53  C   UNL A   1      41.271  30.467  34.486  1.00  0.00     0.074 A 
ATOM     54  C   UNL A   1      43.778  26.534  30.192  1.00  0.00     0.029 A 
ATOM     55  N   UNL A   1      42.484  27.980  31.271  1.00  0.00    -0.354 N 
ATOM     56  N   UNL A   1      41.717  29.675  33.539  1.00  0.00    -0.248 NA
ATOM     57  C   UNL A   1      41.970  30.327  35.770  1.00  0.00     0.031 C 
ATOM     58  C   UNL A   1      44.212  26.608  31.520  1.00  0.00     0.029 A 
ATOM     59  C   UNL A   1      43.433  27.541  32.185  1.00  0.00     0.049 A 
ATOM     60  H   UNL A   1      41.780  28.641  31.465  1.00  0.00     0.167 HD
ATOM     61  C   UNL A   1      42.764  28.957  34.109  1.00  0.00     0.074 A 
ATOM     62  C   UNL A   1      42.894  29.425  35.473  1.00  0.00     0.031 C 
ATOM     63  C   UNL A   1      43.547  27.999  33.551  1.00  0.00     0.034 A 
BRANCH  50  64
ATOM     64  C   UNL A   1      42.118  26.706  27.649  1.00  0.00     0.023 A 
ATOM     65  C   UNL A   1      41.807  25.336  27.585  1.00  0.00     0.031 A 
ATOM     66  C   UNL A   1      42.743  27.289  26.530  1.00  0.00     0.131 A 
ATOM     67  C   UNL A   1      42.193  24.582  26.465  1.00  0.00     0.055 A 
ATOM     68  C   UNL A   1      43.047  26.549  25.384  1.00  0.00     0.041 A 
ATOM     69  F   UNL A   1      43.083  28.587  26.536  1.00  0.00    -0.206 F 
ATOM     70  C   UNL A   1      42.789  25.184  25.354  1.00  0.00     0.022 A 
BRANCH  67  71
ATOM     71  S   UNL A   1      42.054  22.774  26.549  1.00  0.00     0.124 S 
ATOM     72  O   UNL A   1      42.298  22.398  25.158  1.00  0.00    -0.237 OA
ATOM     73  O   UNL A   1      43.100  22.424  27.501  1.00  0.00    -0.237 OA
ATOM     74  O   UNL A   1      40.686  22.557  27.015  1.00  0.00    -0.744 OA
ENDBRANCH  67  71
ENDBRANCH  50  64
BRANCH  51  75
ATOM     75  C   UNL A   1      39.767  32.256  35.642  1.00  0.00     0.023 A 
ATOM     76  C   UNL A   1      40.355  33.498  35.928  1.00  0.00     0.031 A 
ATOM     77  C   UNL A   1      38.816  31.754  36.549  1.00  0.00     0.131 A 
ATOM     78  C   UNL A   1      40.008  34.180  37.105  1.00  0.00     0.055 A 
ATOM     79  C   UNL A   1      38.428  32.465  37.685  1.00  0.00     0.041 A 
ATOM     80  F   UNL A   1      38.228  30.567  36.331  1.00  0.00    -0.206 F 
ATOM     81  C   UNL A   1      39.034  33.683  37.975  1.00  0.00     0.022 A 
BRANCH  78  82
ATOM     82  S   UNL A   1      40.910  35.696  37.529  1.00  0.00     0.124 S 
ATOM     83  O   UNL A   1      41.915  35.746  36.473  1.00  0.00    -0.237 OA
ATOM     84  O   UNL A   1      39.857  36.704  37.459  1.00  0.00    -0.237 OA
ATOM     85  O   UNL A   1      41.423  35.424  38.869  1.00  0.00    -0.744 OA
ENDBRANCH  78  82
ENDBRANCH  51  75
BRANCH  63  86
ATOM     86  C   UNL A   1      44.652  27.433  34.410  1.00  0.00     0.023 A 
ATOM     87  C   UNL A   1      44.480  26.255  35.159  1.00  0.00     0.031 A 
ATOM     88  C   UNL A   1      45.888  28.099  34.499  1.00  0.00     0.131 A 
ATOM     89  C   UNL A   1      45.505  25.813  36.009  1.00  0.00     0.055 A 
ATOM     90  C   UNL A   1      46.927  27.617  35.295  1.00  0.00     0.041 A 
ATOM     91  F   UNL A   1      46.104  29.231  33.811  1.00  0.00    -0.206 F 
ATOM     92  C   UNL A   1      46.734  26.475  36.067  1.00  0.00     0.022 A 
BRANCH  89  93
ATOM     93  S   UNL A   1      45.175  24.417  37.119  1.00  0.00     0.124 S 
ATOM     94  O   UNL A   1      44.617  23.427  36.203  1.00  0.00    -0.237 OA
ATOM     95  O   UNL A   1      46.501  24.119  37.649  1.00  0.00    -0.237 OA
ATOM     96  O   UNL A   1      44.229  24.966  38.089  1.00  0.00    -0.744 OA
ENDBRANCH  89  93
ENDBRANCH  63  86
ENDBRANCH  37  38
ENDBRANCH  30  32
ENDBRANCH  29  30
ENDBRANCH  28  29
ENDBRANCH   1  28
TORSDOF 19
ENDMDL
MODEL 3
REMARK VINA RESULT:     -11.4      1.835      7.808
REMARK SMILES COc1ccc(NC(=O)NCc2ccc(C(=O)OCCOC(=O)c3ccc(-c4c5nc(c(-c6cc(S(=O)(=O)[O-])ccc6F)c6ccc([nH]6)c(-c6cc(S(=O)(=O)[O-])ccc6F)c6nc(c(-c7cc(S(=O)(=O)[O-])ccc7F)c7ccc4[nH]7)C=C6)C=C5)cc3)cc2)c(OC)c1
REMARK SMILES IDX 19 1 18 2 16 3 17 4 15 5 12 6 13 7 88 8 14 9 87 10 11 11
REMARK SMILES IDX 10 12 7 13 8 14 9 16 6 18 3 19 4 20 92 21 5 22 89 23 2 24
REMARK SMILES IDX 1 25 90 26 91 27 20 28 21 29 22 30 23 31 24 32 25 33 86 34
REMARK SMILES IDX 26 35 85 36 27 37 28 38 29 39 79 40 30 41 84 42 78 43 80 44
REMARK SMILES IDX 31 45 83 46 77 47 76 48 32 50 64 51 44 52 63 53 45 54 48 55
REMARK SMILES IDX 62 56 81 57 46 58 47 59 61 61 82 62 49 63 33 64 34 65 42 66
REMARK SMILES IDX 35 67 41 68 43 69 40 70 36 71 37 72 38 73 39 74 65 75 66 76
REMARK SMILES IDX 74 77 67 78 73 79 75 80 72 81 68 82 69 83 70 84 71 85 50 86
REMARK SMILES IDX 51 87 59 88 52 89 58 90 60 91 57 92 53 93 54 94 55 95 56 96
REMARK H PARENT 7 15 10 17 80 49 48 60
REMARK Flexibility Score: inf
ROOT
ATOM      1  C   UNL A   1      31.376  29.933  24.705  1.00  0.00     0.275 C 
ENDROOT
BRANCH   1   2
ATOM      2  O   UNL A   1      30.206  30.102  23.876  1.00  0.00    -0.458 OA
BRANCH   2   3
ATOM      3  C   UNL A   1      30.145  29.283  22.795  1.00  0.00     0.338 C 
ATOM      4  O   UNL A   1      30.098  29.647  21.628  1.00  0.00    -0.246 OA
BRANCH   3   5
ATOM      5  C   UNL A   1      30.214  27.849  23.170  1.00  0.00     0.060 A 
ATOM      6  C   UNL A   1      30.473  25.114  23.783  1.00  0.00    -0.029 A 
ATOM      7  C   UNL A   1      31.342  25.720  22.871  1.00  0.00     0.006 A 
ATOM      8  C   UNL A   1      29.443  25.881  24.354  1.00  0.00     0.006 A 
ATOM      9  C   UNL A   1      31.192  27.063  22.551  1.00  0.00     0.016 A 
ATOM     10  C   UNL A   1      29.323  27.249  24.064  1.00  0.00     0.016 A 
BRANCH   6  11
ATOM     11  C   UNL A   1      30.766  23.704  24.217  1.00  0.00     0.153 C 
BRANCH  11  12
ATOM     12  N   UNL A   1      30.280  23.358  25.534  1.00  0.00    -0.334 N 
ATOM     13  N   UNL A   1      32.064  22.638  26.974  1.00  0.00    -0.305 N 
ATOM     14  C   UNL A   1      30.790  22.974  26.711  1.00  0.00     0.319 C 
ATOM     15  H   UNL A   1      32.166  22.278  27.885  1.00  0.00     0.172 HD
ATOM     16  O   UNL A   1      29.966  22.829  27.625  1.00  0.00    -0.248 OA
ATOM     17  H   UNL A   1      29.298  23.423  25.577  1.00  0.00     0.165 HD
BRANCH  13  18
ATOM     18  C   UNL A   1      33.284  22.671  26.287  1.00  0.00     0.085 A 
ATOM     19  C   UNL A   1      35.949  22.847  25.481  1.00  0.00     0.122 A 
ATOM     20  C   UNL A   1      35.278  21.625  25.443  1.00  0.00     0.049 A 
ATOM     21  C   UNL A   1      35.225  24.011  25.717  1.00  0.00     0.095 A 
ATOM     22  C   UNL A   1      33.934  21.547  25.807  1.00  0.00     0.034 A 
ATOM     23  C   UNL A   1      33.871  23.926  26.055  1.00  0.00     0.146 A 
BRANCH  19  24
ATOM     24  O   UNL A   1      37.290  22.776  25.243  1.00  0.00    -0.497 OA
ATOM     25  C   UNL A   1      37.891  21.491  25.378  1.00  0.00     0.278 C 
ENDBRANCH  19  24
BRANCH  23  26
ATOM     26  O   UNL A   1      33.088  25.042  26.236  1.00  0.00    -0.494 OA
ATOM     27  C   UNL A   1      33.685  26.228  25.696  1.00  0.00     0.278 C 
ENDBRANCH  23  26
ENDBRANCH  13  18
ENDBRANCH  11  12
ENDBRANCH   6  11
ENDBRANCH   3   5
ENDBRANCH   2   3
ENDBRANCH   1   2
BRANCH   1  28
ATOM     28  C   UNL A   1      31.403  30.885  25.906  1.00  0.00     0.275 C 
BRANCH  28  29
ATOM     29  O   UNL A   1      32.473  30.574  26.818  1.00  0.00    -0.458 OA
BRANCH  29  30
ATOM     30  C   UNL A   1      33.176  31.646  27.247  1.00  0.00     0.338 C 
ATOM     31  O   UNL A   1      32.771  32.791  27.365  1.00  0.00    -0.246 OA
BRANCH  30  32
ATOM     32  C   UNL A   1      34.537  31.257  27.645  1.00  0.00     0.060 A 
ATOM     33  C   UNL A   1      34.776  29.910  27.876  1.00  0.00     0.016 A 
ATOM     34  C   UNL A   1      35.494  32.202  28.005  1.00  0.00     0.016 A 
ATOM     35  C   UNL A   1      35.897  29.504  28.592  1.00  0.00     0.010 A 
ATOM     36  C   UNL A   1      36.689  31.777  28.606  1.00  0.00     0.010 A 
ATOM     37  C   UNL A   1      36.888  30.427  28.957  1.00  0.00    -0.014 A 
BRANCH  37  38
ATOM     38  C   UNL A   1      38.097  29.981  29.722  1.00  0.00     0.031 A 
ATOM     39  C   UNL A   1      38.338  30.469  31.133  1.00  0.00     0.074 A 
ATOM     40  C   UNL A   1      38.980  29.119  29.171  1.00  0.00     0.049 A 
ATOM     41  N   UNL A   1      39.386  30.304  31.905  1.00  0.00    -0.248 NA
ATOM     42  C   UNL A   1      37.260  31.248  31.759  1.00  0.00     0.031 C 
ATOM     43  C   UNL A   1      38.862  28.523  27.837  1.00  0.00     0.029 A 
ATOM     44  N   UNL A   1      40.153  28.589  29.659  1.00  0.00    -0.354 N 
ATOM     45  C   UNL A   1      39.115  30.998  33.081  1.00  0.00     0.074 A 
ATOM     46  C   UNL A   1      37.808  31.599  32.914  1.00  0.00     0.031 C 
ATOM     47  C   UNL A   1      39.886  27.684  27.632  1.00  0.00     0.029 A 
ATOM     48  C   UNL A   1      40.801  27.768  28.763  1.00  0.00     0.049 A 
ATOM     49  H   UNL A   1      40.494  28.777  30.562  1.00  0.00     0.167 HD
ATOM     50  C   UNL A   1      39.879  31.121  34.196  1.00  0.00     0.034 A 
ATOM     51  C   UNL A   1      42.020  27.194  28.803  1.00  0.00     0.034 A 
ATOM     52  C   UNL A   1      41.180  30.512  34.354  1.00  0.00     0.049 A 
ATOM     53  C   UNL A   1      42.894  27.427  30.005  1.00  0.00     0.074 A 
ATOM     54  C   UNL A   1      42.032  30.569  35.443  1.00  0.00     0.029 A 
ATOM     55  N   UNL A   1      41.825  29.747  33.391  1.00  0.00    -0.354 N 
ATOM     56  N   UNL A   1      42.635  28.113  31.093  1.00  0.00    -0.248 NA
ATOM     57  C   UNL A   1      44.229  26.816  29.980  1.00  0.00     0.031 C 
ATOM     58  C   UNL A   1      43.220  29.907  35.112  1.00  0.00     0.029 A 
ATOM     59  C   UNL A   1      43.078  29.357  33.848  1.00  0.00     0.049 A 
ATOM     60  H   UNL A   1      41.450  29.514  32.510  1.00  0.00     0.167 HD
ATOM     61  C   UNL A   1      43.769  27.999  31.892  1.00  0.00     0.074 A 
ATOM     62  C   UNL A   1      44.704  27.162  31.167  1.00  0.00     0.031 C 
ATOM     63  C   UNL A   1      44.013  28.536  33.114  1.00  0.00     0.034 A 
BRANCH  50  64
ATOM     64  C   UNL A   1      39.354  32.005  35.308  1.00  0.00     0.023 A 
ATOM     65  C   UNL A   1      39.712  33.360  35.416  1.00  0.00     0.031 A 
ATOM     66  C   UNL A   1      38.507  31.470  36.296  1.00  0.00     0.131 A 
ATOM     67  C   UNL A   1      39.294  34.109  36.528  1.00  0.00     0.055 A 
ATOM     68  C   UNL A   1      38.025  32.245  37.354  1.00  0.00     0.041 A 
ATOM     69  F   UNL A   1      38.144  30.179  36.260  1.00  0.00    -0.206 F 
ATOM     70  C   UNL A   1      38.433  33.568  37.485  1.00  0.00     0.022 A 
BRANCH  67  71
ATOM     71  S   UNL A   1      40.023  35.750  36.791  1.00  0.00     0.124 S 
ATOM     72  O   UNL A   1      41.439  35.419  36.940  1.00  0.00    -0.237 OA
ATOM     73  O   UNL A   1      39.655  36.455  35.570  1.00  0.00    -0.237 OA
ATOM     74  O   UNL A   1      39.369  36.223  38.009  1.00  0.00    -0.744 OA
ENDBRANCH  67  71
ENDBRANCH  50  64
BRANCH  51  75
ATOM     75  C   UNL A   1      42.521  26.411  27.633  1.00  0.00     0.023 A 
ATOM     76  C   UNL A   1      42.385  25.015  27.579  1.00  0.00     0.031 A 
ATOM     77  C   UNL A   1      43.168  27.052  26.559  1.00  0.00     0.131 A 
ATOM     78  C   UNL A   1      42.917  24.304  26.491  1.00  0.00     0.055 A 
ATOM     79  C   UNL A   1      43.637  26.347  25.450  1.00  0.00     0.041 A 
ATOM     80  F   UNL A   1      43.332  28.384  26.562  1.00  0.00    -0.206 F 
ATOM     81  C   UNL A   1      43.523  24.962  25.417  1.00  0.00     0.022 A 
BRANCH  78  82
ATOM     82  S   UNL A   1      42.876  22.491  26.535  1.00  0.00     0.124 S 
ATOM     83  O   UNL A   1      42.040  22.187  25.379  1.00  0.00    -0.237 OA
ATOM     84  O   UNL A   1      44.290  22.153  26.410  1.00  0.00    -0.237 OA
ATOM     85  O   UNL A   1      42.278  22.196  27.835  1.00  0.00    -0.744 OA
ENDBRANCH  78  82
ENDBRANCH  51  75
BRANCH  63  86
ATOM     86  C   UNL A   1      45.329  28.186  33.765  1.00  0.00     0.023 A 
ATOM     87  C   UNL A   1      45.466  27.069  34.608  1.00  0.00     0.031 A 
ATOM     88  C   UNL A   1      46.457  28.999  33.556  1.00  0.00     0.131 A 
ATOM     89  C   UNL A   1      46.686  26.830  35.258  1.00  0.00     0.055 A 
ATOM     90  C   UNL A   1      47.686  28.718  34.153  1.00  0.00     0.041 A 
ATOM     91  F   UNL A   1      46.382  30.083  32.767  1.00  0.00    -0.206 F 
ATOM     92  C   UNL A   1      47.803  27.637  35.021  1.00  0.00     0.022 A 
BRANCH  89  93
ATOM     93  S   UNL A   1      46.768  25.511  36.500  1.00  0.00     0.124 S 
ATOM     94  O   UNL A   1      47.420  24.436  35.757  1.00  0.00    -0.237 OA
ATOM     95  O   UNL A   1      47.561  26.127  37.558  1.00  0.00    -0.237 OA
ATOM     96  O   UNL A   1      45.367  25.269  36.838  1.00  0.00    -0.744 OA
ENDBRANCH  89  93
ENDBRANCH  63  86
ENDBRANCH  37  38
ENDBRANCH  30  32
ENDBRANCH  29  30
ENDBRANCH  28  29
ENDBRANCH   1  28
TORSDOF 19
ENDMDL
