MODEL 1
REMARK VINA RESULT:     -11.5      0.000      0.000
REMARK SMILES CCOc1ccccc1NC(=O)N[C@@](C)(CC)C(=O)OCCOC(=O)c1ccc(-c2c3nc(c(-c4cc(S(=O)(=O)[O-])ccc4F)c4ccc([nH]4)c(-c4cc(S(=O)(=O)[O-])ccc4F)c4nc(c(-c5cc(S(=O)(=O)[O-])ccc5F)c5ccc2[nH]5)C=C4)C=C3)cc1
REMARK SMILES IDX 21 1 20 2 18 3 19 4 14 5 15 6 13 7 10 8 11 9 12 11 9 13 4 14
REMARK SMILES IDX 5 15 6 16 8 17 7 18 3 19 2 20 1 21 16 22 17 23 22 24 23 25
REMARK SMILES IDX 24 26 25 27 26 28 27 29 88 30 28 31 87 32 29 33 30 34 31 35
REMARK SMILES IDX 81 36 32 37 86 38 80 39 82 40 33 41 85 42 79 43 78 44 34 46
REMARK SMILES IDX 66 47 46 48 65 49 47 50 50 51 64 52 83 53 48 54 49 55 63 57
REMARK SMILES IDX 84 58 51 59 35 60 36 61 44 62 37 63 43 64 45 65 42 66 38 67
REMARK SMILES IDX 39 68 40 69 41 70 67 71 68 72 76 73 69 74 75 75 77 76 74 77
REMARK SMILES IDX 70 78 71 79 72 80 73 81 52 82 53 83 61 84 54 85 60 86 62 87
REMARK SMILES IDX 59 88 55 89 56 90 57 91 58 92
REMARK H PARENT 10 10 13 12 82 45 50 56
REMARK Flexibility Score: inf
ROOT
ATOM      1  C   UNL A   1      36.310  23.210  23.542  1.00  0.00     0.274 C 
ENDROOT
BRANCH   1   2
ATOM      2  O   UNL A   1      35.061  23.136  22.808  1.00  0.00    -0.460 OA
BRANCH   2   3
ATOM      3  C   UNL A   1      33.963  23.070  23.611  1.00  0.00     0.331 C 
ATOM      4  O   UNL A   1      34.052  23.009  24.818  1.00  0.00    -0.249 OA
BRANCH   3   5
ATOM      5  C   UNL A   1      32.605  23.145  22.880  1.00  0.00     0.136 C 
ATOM      6  C   UNL A   1      31.449  23.708  23.722  1.00  0.00     0.047 C 
BRANCH   5   7
ATOM      7  N   UNL A   1      32.733  23.980  21.645  1.00  0.00    -0.322 N 
ATOM      8  N   UNL A   1      33.563  26.110  22.288  1.00  0.00    -0.305 N 
ATOM      9  C   UNL A   1      32.975  25.293  21.389  1.00  0.00     0.320 C 
ATOM     10  H   UNL A   1      34.404  26.506  21.960  1.00  0.00     0.172 HD
ATOM     11  O   UNL A   1      32.912  25.638  20.206  1.00  0.00    -0.248 OA
ATOM     12  H   UNL A   1      32.612  23.454  20.822  1.00  0.00     0.166 HD
BRANCH   8  13
ATOM     13  C   UNL A   1      33.236  26.521  23.593  1.00  0.00     0.085 A 
ATOM     14  C   UNL A   1      32.041  27.243  23.779  1.00  0.00     0.142 A 
ATOM     15  C   UNL A   1      31.711  27.781  25.023  1.00  0.00     0.048 A 
ATOM     16  C   UNL A   1      32.562  27.569  26.106  1.00  0.00     0.004 A 
ATOM     17  C   UNL A   1      34.029  26.242  24.699  1.00  0.00     0.030 A 
ATOM     18  C   UNL A   1      33.709  26.788  25.947  1.00  0.00     0.002 A 
BRANCH  14  19
ATOM     19  O   UNL A   1      31.301  27.605  22.683  1.00  0.00    -0.492 OA
BRANCH  19  20
ATOM     20  C   UNL A   1      30.712  28.899  22.811  1.00  0.00     0.226 C 
ATOM     21  C   UNL A   1      29.207  28.715  22.721  1.00  0.00     0.049 C 
ENDBRANCH  19  20
ENDBRANCH  14  19
ENDBRANCH   8  13
ENDBRANCH   5   7
BRANCH   5  22
ATOM     22  C   UNL A   1      32.170  21.692  22.488  1.00  0.00     0.037 C 
ATOM     23  C   UNL A   1      32.375  20.583  23.510  1.00  0.00     0.007 C 
ENDBRANCH   5  22
ENDBRANCH   3   5
ENDBRANCH   2   3
ENDBRANCH   1   2
BRANCH   1  24
ATOM     24  C   UNL A   1      36.943  21.871  23.978  1.00  0.00     0.275 C 
BRANCH  24  25
ATOM     25  O   UNL A   1      37.185  21.787  25.402  1.00  0.00    -0.458 OA
BRANCH  25  26
ATOM     26  C   UNL A   1      38.467  21.537  25.767  1.00  0.00     0.338 C 
ATOM     27  O   UNL A   1      39.142  20.582  25.408  1.00  0.00    -0.246 OA
BRANCH  26  28
ATOM     28  C   UNL A   1      39.042  22.631  26.587  1.00  0.00     0.060 A 
ATOM     29  C   UNL A   1      38.558  23.929  26.386  1.00  0.00     0.016 A 
ATOM     30  C   UNL A   1      40.171  22.437  27.379  1.00  0.00     0.016 A 
ATOM     31  C   UNL A   1      39.193  25.037  26.933  1.00  0.00     0.010 A 
ATOM     32  C   UNL A   1      40.830  23.555  27.921  1.00  0.00     0.010 A 
ATOM     33  C   UNL A   1      40.365  24.860  27.666  1.00  0.00    -0.014 A 
BRANCH  33  34
ATOM     34  C   UNL A   1      41.211  26.048  27.944  1.00  0.00     0.031 A 
ATOM     35  C   UNL A   1      40.615  27.170  28.751  1.00  0.00     0.074 A 
ATOM     36  C   UNL A   1      42.507  26.090  27.584  1.00  0.00     0.049 A 
ATOM     37  N   UNL A   1      41.099  28.353  29.022  1.00  0.00    -0.248 NA
ATOM     38  C   UNL A   1      39.291  26.911  29.338  1.00  0.00     0.031 C 
ATOM     39  C   UNL A   1      43.240  25.001  26.942  1.00  0.00     0.029 A 
ATOM     40  N   UNL A   1      43.439  27.089  27.717  1.00  0.00    -0.354 N 
ATOM     41  C   UNL A   1      40.129  28.990  29.790  1.00  0.00     0.074 A 
ATOM     42  C   UNL A   1      39.026  28.063  29.932  1.00  0.00     0.031 C 
ATOM     43  C   UNL A   1      44.506  25.396  26.723  1.00  0.00     0.029 A 
ATOM     44  C   UNL A   1      44.658  26.783  27.155  1.00  0.00     0.049 A 
ATOM     45  H   UNL A   1      43.253  27.942  28.171  1.00  0.00     0.167 HD
ATOM     46  C   UNL A   1      40.156  30.238  30.318  1.00  0.00     0.034 A 
ATOM     47  C   UNL A   1      45.751  27.553  26.976  1.00  0.00     0.034 A 
ATOM     48  C   UNL A   1      41.264  31.147  30.155  1.00  0.00     0.049 A 
ATOM     49  C   UNL A   1      45.711  28.985  27.456  1.00  0.00     0.074 A 
ATOM     50  C   UNL A   1      41.381  32.458  30.583  1.00  0.00     0.029 A 
ATOM     51  N   UNL A   1      42.453  30.833  29.507  1.00  0.00    -0.354 N 
ATOM     52  N   UNL A   1      44.752  29.619  28.093  1.00  0.00    -0.248 NA
ATOM     53  C   UNL A   1      46.897  29.809  27.185  1.00  0.00     0.031 C 
ATOM     54  C   UNL A   1      42.615  32.953  30.143  1.00  0.00     0.029 A 
ATOM     55  C   UNL A   1      43.297  31.932  29.500  1.00  0.00     0.049 A 
ATOM     56  H   UNL A   1      42.664  29.958  29.111  1.00  0.00     0.167 HD
ATOM     57  C   UNL A   1      45.230  30.907  28.318  1.00  0.00     0.074 A 
ATOM     58  C   UNL A   1      46.566  30.956  27.761  1.00  0.00     0.031 C 
ATOM     59  C   UNL A   1      44.624  31.957  28.931  1.00  0.00     0.034 A 
BRANCH  46  60
ATOM     60  C   UNL A   1      38.907  30.707  31.025  1.00  0.00     0.023 A 
ATOM     61  C   UNL A   1      37.938  31.499  30.383  1.00  0.00     0.031 A 
ATOM     62  C   UNL A   1      38.726  30.420  32.389  1.00  0.00     0.131 A 
ATOM     63  C   UNL A   1      36.873  32.036  31.125  1.00  0.00     0.055 A 
ATOM     64  C   UNL A   1      37.626  30.897  33.104  1.00  0.00     0.041 A 
ATOM     65  F   UNL A   1      39.633  29.693  33.060  1.00  0.00    -0.206 F 
ATOM     66  C   UNL A   1      36.700  31.724  32.475  1.00  0.00     0.022 A 
BRANCH  63  67
ATOM     67  S   UNL A   1      35.799  33.272  30.340  1.00  0.00     0.124 S 
ATOM     68  O   UNL A   1      35.645  34.253  31.410  1.00  0.00    -0.237 OA
ATOM     69  O   UNL A   1      36.592  33.697  29.192  1.00  0.00    -0.237 OA
ATOM     70  O   UNL A   1      34.589  32.518  30.016  1.00  0.00    -0.744 OA
ENDBRANCH  63  67
ENDBRANCH  46  60
BRANCH  47  71
ATOM     71  C   UNL A   1      46.940  27.030  26.242  1.00  0.00     0.023 A 
ATOM     72  C   UNL A   1      48.000  26.400  26.916  1.00  0.00     0.031 A 
ATOM     73  C   UNL A   1      47.068  27.220  24.852  1.00  0.00     0.131 A 
ATOM     74  C   UNL A   1      49.153  26.019  26.209  1.00  0.00     0.055 A 
ATOM     75  C   UNL A   1      48.193  26.793  24.146  1.00  0.00     0.041 A 
ATOM     76  F   UNL A   1      46.092  27.828  24.157  1.00  0.00    -0.206 F 
ATOM     77  C   UNL A   1      49.250  26.200  24.827  1.00  0.00     0.022 A 
BRANCH  74  78
ATOM     78  S   UNL A   1      50.571  25.369  27.136  1.00  0.00     0.124 S 
ATOM     79  O   UNL A   1      51.492  25.015  26.063  1.00  0.00    -0.237 OA
ATOM     80  O   UNL A   1      50.950  26.514  27.956  1.00  0.00    -0.237 OA
ATOM     81  O   UNL A   1      50.007  24.238  27.871  1.00  0.00    -0.744 OA
ENDBRANCH  74  78
ENDBRANCH  47  71
BRANCH  59  82
ATOM     82  C   UNL A   1      45.427  33.225  29.064  1.00  0.00     0.023 A 
ATOM     83  C   UNL A   1      45.378  34.237  28.089  1.00  0.00     0.031 A 
ATOM     84  C   UNL A   1      46.257  33.418  30.182  1.00  0.00     0.131 A 
ATOM     85  C   UNL A   1      46.182  35.378  28.228  1.00  0.00     0.055 A 
ATOM     86  C   UNL A   1      47.017  34.578  30.339  1.00  0.00     0.041 A 
ATOM     87  F   UNL A   1      46.339  32.483  31.141  1.00  0.00    -0.206 F 
ATOM     88  C   UNL A   1      46.991  35.561  29.354  1.00  0.00     0.022 A 
BRANCH  85  89
ATOM     89  S   UNL A   1      46.217  36.592  26.881  1.00  0.00     0.124 S 
ATOM     90  O   UNL A   1      44.843  37.083  26.877  1.00  0.00    -0.237 OA
ATOM     91  O   UNL A   1      47.231  37.537  27.337  1.00  0.00    -0.237 OA
ATOM     92  O   UNL A   1      46.594  35.798  25.713  1.00  0.00    -0.744 OA
ENDBRANCH  85  89
ENDBRANCH  59  82
ENDBRANCH  33  34
ENDBRANCH  26  28
ENDBRANCH  25  26
ENDBRANCH  24  25
ENDBRANCH   1  24
TORSDOF 19
ENDMDL
MODEL 2
REMARK VINA RESULT:     -11.5      4.562      9.847
REMARK SMILES CCOc1ccccc1NC(=O)N[C@@](C)(CC)C(=O)OCCOC(=O)c1ccc(-c2c3nc(c(-c4cc(S(=O)(=O)[O-])ccc4F)c4ccc([nH]4)c(-c4cc(S(=O)(=O)[O-])ccc4F)c4nc(c(-c5cc(S(=O)(=O)[O-])ccc5F)c5ccc2[nH]5)C=C4)C=C3)cc1
REMARK SMILES IDX 21 1 20 2 18 3 19 4 14 5 15 6 13 7 10 8 11 9 12 11 9 13 4 14
REMARK SMILES IDX 5 15 6 16 8 17 7 18 3 19 2 20 1 21 16 22 17 23 22 24 23 25
REMARK SMILES IDX 24 26 25 27 26 28 27 29 88 30 28 31 87 32 29 33 30 34 31 35
REMARK SMILES IDX 81 36 32 37 86 38 80 39 82 40 33 41 85 42 79 43 78 44 34 46
REMARK SMILES IDX 66 47 46 48 65 49 47 50 50 51 64 52 83 53 48 54 49 55 63 57
REMARK SMILES IDX 84 58 51 59 35 60 36 61 44 62 37 63 43 64 45 65 42 66 38 67
REMARK SMILES IDX 39 68 40 69 41 70 67 71 68 72 76 73 69 74 75 75 77 76 74 77
REMARK SMILES IDX 70 78 71 79 72 80 73 81 52 82 53 83 61 84 54 85 60 86 62 87
REMARK SMILES IDX 59 88 55 89 56 90 57 91 58 92
REMARK H PARENT 10 10 13 12 82 45 50 56
REMARK Flexibility Score: inf
ROOT
ATOM      1  C   UNL A   1      31.524  28.702  24.968  1.00  0.00     0.274 C 
ENDROOT
BRANCH   1   2
ATOM      2  O   UNL A   1      32.280  27.595  25.522  1.00  0.00    -0.460 OA
BRANCH   2   3
ATOM      3  C   UNL A   1      31.534  26.473  25.721  1.00  0.00     0.331 C 
ATOM      4  O   UNL A   1      30.526  26.484  26.394  1.00  0.00    -0.249 OA
BRANCH   3   5
ATOM      5  C   UNL A   1      32.027  25.212  24.980  1.00  0.00     0.136 C 
ATOM      6  C   UNL A   1      30.925  24.202  24.624  1.00  0.00     0.047 C 
BRANCH   5   7
ATOM      7  N   UNL A   1      32.729  25.600  23.718  1.00  0.00    -0.322 N 
ATOM      8  N   UNL A   1      33.270  23.609  22.541  1.00  0.00    -0.305 N 
ATOM      9  C   UNL A   1      33.415  24.935  22.750  1.00  0.00     0.320 C 
ATOM     10  H   UNL A   1      32.956  23.394  21.633  1.00  0.00     0.172 HD
ATOM     11  O   UNL A   1      33.946  25.632  21.882  1.00  0.00    -0.248 OA
ATOM     12  H   UNL A   1      32.684  26.569  23.546  1.00  0.00     0.166 HD
BRANCH   8  13
ATOM     13  C   UNL A   1      33.470  22.468  23.338  1.00  0.00     0.085 A 
ATOM     14  C   UNL A   1      34.700  22.340  24.012  1.00  0.00     0.142 A 
ATOM     15  C   UNL A   1      35.013  21.182  24.725  1.00  0.00     0.048 A 
ATOM     16  C   UNL A   1      34.076  20.153  24.802  1.00  0.00     0.004 A 
ATOM     17  C   UNL A   1      32.512  21.474  23.497  1.00  0.00     0.030 A 
ATOM     18  C   UNL A   1      32.824  20.307  24.202  1.00  0.00     0.002 A 
BRANCH  14  19
ATOM     19  O   UNL A   1      35.686  23.266  23.787  1.00  0.00    -0.492 OA
BRANCH  19  20
ATOM     20  C   UNL A   1      36.869  23.017  24.545  1.00  0.00     0.226 C 
ATOM     21  C   UNL A   1      36.745  23.802  25.839  1.00  0.00     0.049 C 
ENDBRANCH  19  20
ENDBRANCH  14  19
ENDBRANCH   8  13
ENDBRANCH   5   7
BRANCH   5  22
ATOM     22  C   UNL A   1      33.017  24.440  25.916  1.00  0.00     0.037 C 
ATOM     23  C   UNL A   1      32.455  23.331  26.795  1.00  0.00     0.007 C 
ENDBRANCH   5  22
ENDBRANCH   3   5
ENDBRANCH   2   3
ENDBRANCH   1   2
BRANCH   1  24
ATOM     24  C   UNL A   1      31.745  30.088  25.611  1.00  0.00     0.275 C 
BRANCH  24  25
ATOM     25  O   UNL A   1      32.463  30.029  26.866  1.00  0.00    -0.458 OA
BRANCH  25  26
ATOM     26  C   UNL A   1      33.105  31.168  27.230  1.00  0.00     0.338 C 
ATOM     27  O   UNL A   1      32.586  32.263  27.395  1.00  0.00    -0.246 OA
BRANCH  26  28
ATOM     28  C   UNL A   1      34.538  30.932  27.533  1.00  0.00     0.060 A 
ATOM     29  C   UNL A   1      34.957  29.615  27.752  1.00  0.00     0.016 A 
ATOM     30  C   UNL A   1      35.410  31.982  27.808  1.00  0.00     0.016 A 
ATOM     31  C   UNL A   1      36.215  29.326  28.266  1.00  0.00     0.010 A 
ATOM     32  C   UNL A   1      36.678  31.699  28.346  1.00  0.00     0.010 A 
ATOM     33  C   UNL A   1      37.068  30.372  28.615  1.00  0.00    -0.014 A 
BRANCH  33  34
ATOM     34  C   UNL A   1      38.243  30.072  29.470  1.00  0.00     0.031 A 
ATOM     35  C   UNL A   1      39.304  29.156  28.922  1.00  0.00     0.074 A 
ATOM     36  C   UNL A   1      38.422  30.675  30.659  1.00  0.00     0.049 A 
ATOM     37  N   UNL A   1      40.353  28.646  29.510  1.00  0.00    -0.248 NA
ATOM     38  C   UNL A   1      39.158  28.771  27.509  1.00  0.00     0.031 C 
ATOM     39  C   UNL A   1      37.548  31.702  31.224  1.00  0.00     0.029 A 
ATOM     40  N   UNL A   1      39.407  30.518  31.602  1.00  0.00    -0.354 N 
ATOM     41  C   UNL A   1      40.981  27.860  28.548  1.00  0.00     0.074 A 
ATOM     42  C   UNL A   1      40.186  27.955  27.341  1.00  0.00     0.031 C 
ATOM     43  C   UNL A   1      38.028  32.071  32.424  1.00  0.00     0.029 A 
ATOM     44  C   UNL A   1      39.209  31.269  32.738  1.00  0.00     0.049 A 
ATOM     45  H   UNL A   1      40.182  29.924  31.477  1.00  0.00     0.167 HD
ATOM     46  C   UNL A   1      42.110  27.120  28.667  1.00  0.00     0.034 A 
ATOM     47  C   UNL A   1      39.880  31.274  33.907  1.00  0.00     0.034 A 
ATOM     48  C   UNL A   1      42.880  27.034  29.883  1.00  0.00     0.049 A 
ATOM     49  C   UNL A   1      41.060  30.343  34.065  1.00  0.00     0.074 A 
ATOM     50  C   UNL A   1      44.001  26.267  30.149  1.00  0.00     0.029 A 
ATOM     51  N   UNL A   1      42.602  27.746  31.044  1.00  0.00    -0.354 N 
ATOM     52  N   UNL A   1      41.591  29.522  33.185  1.00  0.00    -0.248 NA
ATOM     53  C   UNL A   1      41.725  30.329  35.375  1.00  0.00     0.031 C 
ATOM     54  C   UNL A   1      44.364  26.472  31.486  1.00  0.00     0.029 A 
ATOM     55  C   UNL A   1      43.513  27.417  32.035  1.00  0.00     0.049 A 
ATOM     56  H   UNL A   1      41.866  28.390  31.148  1.00  0.00     0.167 HD
ATOM     57  C   UNL A   1      42.665  28.916  33.831  1.00  0.00     0.074 A 
ATOM     58  C   UNL A   1      42.714  29.473  35.166  1.00  0.00     0.031 C 
ATOM     59  C   UNL A   1      43.536  27.983  33.364  1.00  0.00     0.034 A 
BRANCH  46  60
ATOM     60  C   UNL A   1      42.502  26.277  27.478  1.00  0.00     0.023 A 
ATOM     61  C   UNL A   1      42.067  24.948  27.327  1.00  0.00     0.031 A 
ATOM     62  C   UNL A   1      43.393  26.792  26.519  1.00  0.00     0.131 A 
ATOM     63  C   UNL A   1      42.582  24.158  26.286  1.00  0.00     0.055 A 
ATOM     64  C   UNL A   1      43.844  26.024  25.445  1.00  0.00     0.041 A 
ATOM     65  F   UNL A   1      43.864  28.044  26.627  1.00  0.00    -0.206 F 
ATOM     66  C   UNL A   1      43.451  24.694  25.333  1.00  0.00     0.022 A 
BRANCH  63  67
ATOM     67  S   UNL A   1      42.219  22.380  26.279  1.00  0.00     0.124 S 
ATOM     68  O   UNL A   1      42.860  21.952  25.039  1.00  0.00    -0.237 OA
ATOM     69  O   UNL A   1      42.847  21.924  27.513  1.00  0.00    -0.237 OA
ATOM     70  O   UNL A   1      40.758  22.328  26.266  1.00  0.00    -0.744 OA
ENDBRANCH  63  67
ENDBRANCH  46  60
BRANCH  47  71
ATOM     71  C   UNL A   1      39.417  32.113  35.051  1.00  0.00     0.023 A 
ATOM     72  C   UNL A   1      39.933  33.401  35.272  1.00  0.00     0.031 A 
ATOM     73  C   UNL A   1      38.495  31.605  35.987  1.00  0.00     0.131 A 
ATOM     74  C   UNL A   1      39.556  34.119  36.420  1.00  0.00     0.055 A 
ATOM     75  C   UNL A   1      38.085  32.345  37.098  1.00  0.00     0.041 A 
ATOM     76  F   UNL A   1      37.978  30.375  35.834  1.00  0.00    -0.206 F 
ATOM     77  C   UNL A   1      38.627  33.604  37.326  1.00  0.00     0.022 A 
BRANCH  74  78
ATOM     78  S   UNL A   1      40.373  35.702  36.766  1.00  0.00     0.124 S 
ATOM     79  O   UNL A   1      40.106  35.872  38.189  1.00  0.00    -0.237 OA
ATOM     80  O   UNL A   1      41.756  35.419  36.401  1.00  0.00    -0.237 OA
ATOM     81  O   UNL A   1      39.680  36.642  35.886  1.00  0.00    -0.744 OA
ENDBRANCH  74  78
ENDBRANCH  47  71
BRANCH  59  82
ATOM     82  C   UNL A   1      44.637  27.550  34.298  1.00  0.00     0.023 A 
ATOM     83  C   UNL A   1      44.491  26.437  35.146  1.00  0.00     0.031 A 
ATOM     84  C   UNL A   1      45.845  28.267  34.342  1.00  0.00     0.131 A 
ATOM     85  C   UNL A   1      45.522  26.102  36.037  1.00  0.00     0.055 A 
ATOM     86  C   UNL A   1      46.886  27.898  35.195  1.00  0.00     0.041 A 
ATOM     87  F   UNL A   1      46.033  29.336  33.553  1.00  0.00    -0.206 F 
ATOM     88  C   UNL A   1      46.723  26.817  36.057  1.00  0.00     0.022 A 
BRANCH  85  89
ATOM     89  S   UNL A   1      45.245  24.760  37.226  1.00  0.00     0.124 S 
ATOM     90  O   UNL A   1      44.538  23.774  36.415  1.00  0.00    -0.237 OA
ATOM     91  O   UNL A   1      46.605  24.406  37.620  1.00  0.00    -0.237 OA
ATOM     92  O   UNL A   1      44.443  25.390  38.274  1.00  0.00    -0.744 OA
ENDBRANCH  85  89
ENDBRANCH  59  82
ENDBRANCH  33  34
ENDBRANCH  26  28
ENDBRANCH  25  26
ENDBRANCH  24  25
ENDBRANCH   1  24
TORSDOF 19
ENDMDL
MODEL 3
REMARK VINA RESULT:     -11.4      4.630      9.906
REMARK SMILES CCOc1ccccc1NC(=O)N[C@@](C)(CC)C(=O)OCCOC(=O)c1ccc(-c2c3nc(c(-c4cc(S(=O)(=O)[O-])ccc4F)c4ccc([nH]4)c(-c4cc(S(=O)(=O)[O-])ccc4F)c4nc(c(-c5cc(S(=O)(=O)[O-])ccc5F)c5ccc2[nH]5)C=C4)C=C3)cc1
REMARK SMILES IDX 21 1 20 2 18 3 19 4 14 5 15 6 13 7 10 8 11 9 12 11 9 13 4 14
REMARK SMILES IDX 5 15 6 16 8 17 7 18 3 19 2 20 1 21 16 22 17 23 22 24 23 25
REMARK SMILES IDX 24 26 25 27 26 28 27 29 88 30 28 31 87 32 29 33 30 34 31 35
REMARK SMILES IDX 81 36 32 37 86 38 80 39 82 40 33 41 85 42 79 43 78 44 34 46
REMARK SMILES IDX 66 47 46 48 65 49 47 50 50 51 64 52 83 53 48 54 49 55 63 57
REMARK SMILES IDX 84 58 51 59 35 60 36 61 44 62 37 63 43 64 45 65 42 66 38 67
REMARK SMILES IDX 39 68 40 69 41 70 67 71 68 72 76 73 69 74 75 75 77 76 74 77
REMARK SMILES IDX 70 78 71 79 72 80 73 81 52 82 53 83 61 84 54 85 60 86 62 87
REMARK SMILES IDX 59 88 55 89 56 90 57 91 58 92
REMARK H PARENT 10 10 13 12 82 45 50 56
REMARK Flexibility Score: inf
ROOT
ATOM      1  C   UNL A   1      32.793  28.817  25.094  1.00  0.00     0.274 C 
ENDROOT
BRANCH   1   2
ATOM      2  O   UNL A   1      32.459  27.423  25.317  1.00  0.00    -0.460 OA
BRANCH   2   3
ATOM      3  C   UNL A   1      32.707  26.627  24.241  1.00  0.00     0.331 C 
ATOM      4  O   UNL A   1      33.684  26.780  23.540  1.00  0.00    -0.249 OA
BRANCH   3   5
ATOM      5  C   UNL A   1      31.696  25.482  24.020  1.00  0.00     0.136 C 
ATOM      6  C   UNL A   1      32.236  24.291  23.211  1.00  0.00     0.047 C 
BRANCH   5   7
ATOM      7  N   UNL A   1      31.207  24.967  25.337  1.00  0.00    -0.322 N 
ATOM      8  N   UNL A   1      33.079  24.122  26.530  1.00  0.00    -0.305 N 
ATOM      9  C   UNL A   1      31.746  24.233  26.347  1.00  0.00     0.320 C 
ATOM     10  H   UNL A   1      33.377  24.451  27.409  1.00  0.00     0.172 HD
ATOM     11  O   UNL A   1      30.979  23.920  27.261  1.00  0.00    -0.248 OA
ATOM     12  H   UNL A   1      30.273  25.221  25.515  1.00  0.00     0.166 HD
BRANCH   8  13
ATOM     13  C   UNL A   1      34.135  23.636  25.739  1.00  0.00     0.085 A 
ATOM     14  C   UNL A   1      34.038  22.322  25.240  1.00  0.00     0.142 A 
ATOM     15  C   UNL A   1      35.096  21.735  24.546  1.00  0.00     0.048 A 
ATOM     16  C   UNL A   1      36.254  22.476  24.313  1.00  0.00     0.004 A 
ATOM     17  C   UNL A   1      35.256  24.392  25.421  1.00  0.00     0.030 A 
ATOM     18  C   UNL A   1      36.326  23.805  24.736  1.00  0.00     0.002 A 
BRANCH  14  19
ATOM     19  O   UNL A   1      32.982  21.537  25.625  1.00  0.00    -0.492 OA
BRANCH  19  20
ATOM     20  C   UNL A   1      33.284  20.143  25.598  1.00  0.00     0.226 C 
ATOM     21  C   UNL A   1      32.468  19.531  24.472  1.00  0.00     0.049 C 
ENDBRANCH  19  20
ENDBRANCH  14  19
ENDBRANCH   8  13
ENDBRANCH   5   7
BRANCH   5  22
ATOM     22  C   UNL A   1      30.489  26.037  23.192  1.00  0.00     0.037 C 
ATOM     23  C   UNL A   1      29.417  26.828  23.930  1.00  0.00     0.007 C 
ENDBRANCH   5  22
ENDBRANCH   3   5
ENDBRANCH   2   3
ENDBRANCH   1   2
BRANCH   1  24
ATOM     24  C   UNL A   1      31.915  29.867  25.811  1.00  0.00     0.275 C 
BRANCH  24  25
ATOM     25  O   UNL A   1      32.366  30.171  27.152  1.00  0.00    -0.458 OA
BRANCH  25  26
ATOM     26  C   UNL A   1      33.061  31.329  27.290  1.00  0.00     0.338 C 
ATOM     27  O   UNL A   1      32.587  32.456  27.270  1.00  0.00    -0.246 OA
BRANCH  26  28
ATOM     28  C   UNL A   1      34.493  31.092  27.592  1.00  0.00     0.060 A 
ATOM     29  C   UNL A   1      34.911  29.775  27.812  1.00  0.00     0.016 A 
ATOM     30  C   UNL A   1      35.367  32.142  27.865  1.00  0.00     0.016 A 
ATOM     31  C   UNL A   1      36.170  29.485  28.326  1.00  0.00     0.010 A 
ATOM     32  C   UNL A   1      36.635  31.858  28.402  1.00  0.00     0.010 A 
ATOM     33  C   UNL A   1      37.024  30.531  28.672  1.00  0.00    -0.014 A 
BRANCH  33  34
ATOM     34  C   UNL A   1      38.199  30.230  29.527  1.00  0.00     0.031 A 
ATOM     35  C   UNL A   1      39.278  29.345  28.963  1.00  0.00     0.074 A 
ATOM     36  C   UNL A   1      38.362  30.809  30.730  1.00  0.00     0.049 A 
ATOM     37  N   UNL A   1      40.333  28.839  29.545  1.00  0.00    -0.248 NA
ATOM     38  C   UNL A   1      39.146  28.991  27.541  1.00  0.00     0.031 C 
ATOM     39  C   UNL A   1      37.468  31.807  31.314  1.00  0.00     0.029 A 
ATOM     40  N   UNL A   1      39.345  30.646  31.674  1.00  0.00    -0.354 N 
ATOM     41  C   UNL A   1      40.979  28.086  28.568  1.00  0.00     0.074 A 
ATOM     42  C   UNL A   1      40.189  28.196  27.360  1.00  0.00     0.031 C 
ATOM     43  C   UNL A   1      37.935  32.157  32.525  1.00  0.00     0.029 A 
ATOM     44  C   UNL A   1      39.127  31.368  32.826  1.00  0.00     0.049 A 
ATOM     45  H   UNL A   1      40.130  30.069  31.540  1.00  0.00     0.167 HD
ATOM     46  C   UNL A   1      42.120  27.363  28.677  1.00  0.00     0.034 A 
ATOM     47  C   UNL A   1      39.793  31.356  34.000  1.00  0.00     0.034 A 
ATOM     48  C   UNL A   1      42.884  27.262  29.895  1.00  0.00     0.049 A 
ATOM     49  C   UNL A   1      40.987  30.441  34.142  1.00  0.00     0.074 A 
ATOM     50  C   UNL A   1      44.017  26.508  30.149  1.00  0.00     0.029 A 
ATOM     51  N   UNL A   1      42.588  27.942  31.071  1.00  0.00    -0.354 N 
ATOM     52  N   UNL A   1      41.537  29.650  33.247  1.00  0.00    -0.248 NA
ATOM     53  C   UNL A   1      41.645  30.409  35.455  1.00  0.00     0.031 C 
ATOM     54  C   UNL A   1      44.370  26.687  31.493  1.00  0.00     0.029 A 
ATOM     55  C   UNL A   1      43.500  27.605  32.059  1.00  0.00     0.049 A 
ATOM     56  H   UNL A   1      41.841  28.571  31.185  1.00  0.00     0.167 HD
ATOM     57  C   UNL A   1      42.617  29.047  33.884  1.00  0.00     0.074 A 
ATOM     58  C   UNL A   1      42.650  29.574  35.232  1.00  0.00     0.031 C 
ATOM     59  C   UNL A   1      43.506  28.140  33.400  1.00  0.00     0.034 A 
BRANCH  46  60
ATOM     60  C   UNL A   1      42.532  26.555  27.470  1.00  0.00     0.023 A 
ATOM     61  C   UNL A   1      42.126  25.220  27.291  1.00  0.00     0.031 A 
ATOM     62  C   UNL A   1      43.413  27.110  26.525  1.00  0.00     0.131 A 
ATOM     63  C   UNL A   1      42.660  24.465  26.234  1.00  0.00     0.055 A 
ATOM     64  C   UNL A   1      43.883  26.375  25.435  1.00  0.00     0.041 A 
ATOM     65  F   UNL A   1      43.856  28.369  26.661  1.00  0.00    -0.206 F 
ATOM     66  C   UNL A   1      43.519  25.040  25.294  1.00  0.00     0.022 A 
BRANCH  63  67
ATOM     67  S   UNL A   1      42.337  22.679  26.188  1.00  0.00     0.124 S 
ATOM     68  O   UNL A   1      43.068  22.215  27.364  1.00  0.00    -0.237 OA
ATOM     69  O   UNL A   1      40.882  22.619  26.275  1.00  0.00    -0.237 OA
ATOM     70  O   UNL A   1      42.902  22.261  24.906  1.00  0.00    -0.744 OA
ENDBRANCH  63  67
ENDBRANCH  46  60
BRANCH  47  71
ATOM     71  C   UNL A   1      39.309  32.160  35.160  1.00  0.00     0.023 A 
ATOM     72  C   UNL A   1      39.749  33.478  35.373  1.00  0.00     0.031 A 
ATOM     73  C   UNL A   1      38.448  31.593  36.118  1.00  0.00     0.131 A 
ATOM     74  C   UNL A   1      39.360  34.167  36.534  1.00  0.00     0.055 A 
ATOM     75  C   UNL A   1      38.023  32.301  37.243  1.00  0.00     0.041 A 
ATOM     76  F   UNL A   1      38.006  30.333  35.973  1.00  0.00    -0.206 F 
ATOM     77  C   UNL A   1      38.490  33.591  37.463  1.00  0.00     0.022 A 
BRANCH  74  78
ATOM     78  S   UNL A   1      40.085  35.797  36.866  1.00  0.00     0.124 S 
ATOM     79  O   UNL A   1      39.676  36.551  35.687  1.00  0.00    -0.237 OA
ATOM     80  O   UNL A   1      39.441  36.168  38.121  1.00  0.00    -0.237 OA
ATOM     81  O   UNL A   1      41.517  35.520  36.962  1.00  0.00    -0.744 OA
ENDBRANCH  74  78
ENDBRANCH  47  71
BRANCH  59  82
ATOM     82  C   UNL A   1      44.609  27.704  34.331  1.00  0.00     0.023 A 
ATOM     83  C   UNL A   1      44.477  26.571  35.153  1.00  0.00     0.031 A 
ATOM     84  C   UNL A   1      45.806  28.439  34.396  1.00  0.00     0.131 A 
ATOM     85  C   UNL A   1      45.509  26.233  36.042  1.00  0.00     0.055 A 
ATOM     86  C   UNL A   1      46.849  28.067  35.246  1.00  0.00     0.041 A 
ATOM     87  F   UNL A   1      45.982  29.527  33.631  1.00  0.00    -0.206 F 
ATOM     88  C   UNL A   1      46.699  26.966  36.083  1.00  0.00     0.022 A 
BRANCH  85  89
ATOM     89  S   UNL A   1      45.248  24.862  37.201  1.00  0.00     0.124 S 
ATOM     90  O   UNL A   1      46.347  25.046  38.143  1.00  0.00    -0.237 OA
ATOM     91  O   UNL A   1      43.911  25.139  37.717  1.00  0.00    -0.237 OA
ATOM     92  O   UNL A   1      45.350  23.673  36.355  1.00  0.00    -0.744 OA
ENDBRANCH  85  89
ENDBRANCH  59  82
ENDBRANCH  33  34
ENDBRANCH  26  28
ENDBRANCH  25  26
ENDBRANCH  24  25
ENDBRANCH   1  24
TORSDOF 19
ENDMDL
