MODEL 1
REMARK VINA RESULT:     -10.7      0.000      0.000
REMARK SMILES O=C(N[C@@H](Cc1ccc(O)cc1)C(=O)N[C@@H](Cc1c[nH]c2ccccc12)C(=O)N[C@@H](CO)C(=O)OCCOC(=O)c1ccc(-c2c3nc(c(-c4cc(S(=O)(=O)[O-])ccc4F)c4ccc([nH]4)c(-c4cc(S(=O)(=O)[O-])ccc4F)c4nc(c(-c5cc(S(=O)(=O)[O-])ccc5F)c5ccc2[nH]5)C=C4)C=C3)cc1)c1ccc(F)cc1
REMARK SMILES IDX 33 1 34 2 30 3 29 4 27 5 28 6 16 8 15 9 13 10 14 11 4 13
REMARK SMILES IDX 3 14 1 15 2 16 104 18 105 19 110 20 106 21 109 22 107 23
REMARK SMILES IDX 108 24 5 25 6 26 7 27 12 28 8 29 11 30 9 31 10 32 17 34
REMARK SMILES IDX 18 35 19 36 26 37 20 38 21 39 25 40 22 42 24 43 23 44 31 45
REMARK SMILES IDX 32 46 35 48 36 49 37 50 38 51 39 52 40 53 41 54 42 55 103 56
REMARK SMILES IDX 43 57 102 58 44 59 45 60 46 61 96 62 47 63 101 64 95 65
REMARK SMILES IDX 97 66 48 67 100 68 94 69 93 70 49 72 81 73 61 74 80 75 62 76
REMARK SMILES IDX 65 77 79 78 98 79 63 80 64 81 78 83 99 84 66 85 50 86 51 87
REMARK SMILES IDX 59 88 52 89 58 90 60 91 57 92 53 93 54 94 55 95 56 96 82 97
REMARK SMILES IDX 83 98 91 99 84 100 90 101 92 102 89 103 85 104 86 105 87 106
REMARK SMILES IDX 88 107 67 108 68 109 76 110 69 111 75 112 77 113 74 114
REMARK SMILES IDX 70 115 71 116 72 117 73 118
REMARK H PARENT 29 7 15 12 3 17 10 33 20 41 32 47 97 71 65 82
REMARK Flexibility Score: inf
ROOT
ATOM      1  C   UNL A   1      39.625  24.767  26.611  1.00  0.00     0.331 C 
ATOM      2  O   UNL A   1      39.285  25.698  27.334  1.00  0.00    -0.250 OA
ENDROOT
BRANCH   1   3
ATOM      3  C   UNL A   1      38.949  23.358  26.644  1.00  0.00     0.218 C 
BRANCH   3   4
ATOM      4  N   UNL A   1      38.064  23.089  25.488  1.00  0.00    -0.339 N 
ATOM      5  C   UNL A   1      36.702  23.151  25.651  1.00  0.00     0.243 C 
ATOM      6  O   UNL A   1      36.180  22.218  26.272  1.00  0.00    -0.273 OA
ATOM      7  H   UNL A   1      38.450  22.869  24.610  1.00  0.00     0.164 HD
BRANCH   5   8
ATOM      8  C   UNL A   1      35.837  24.213  24.855  1.00  0.00     0.175 C 
BRANCH   8   9
ATOM      9  N   UNL A   1      35.510  23.560  23.565  1.00  0.00    -0.342 N 
ATOM     10  C   UNL A   1      34.309  23.198  23.018  1.00  0.00     0.243 C 
ATOM     11  O   UNL A   1      34.198  23.399  21.798  1.00  0.00    -0.273 OA
ATOM     12  H   UNL A   1      36.292  23.349  23.005  1.00  0.00     0.164 HD
BRANCH  10  13
ATOM     13  C   UNL A   1      33.108  22.549  23.770  1.00  0.00     0.176 C 
BRANCH  13  14
ATOM     14  N   UNL A   1      33.311  22.417  25.208  1.00  0.00    -0.340 N 
ATOM     15  O   UNL A   1      33.589  21.352  27.167  1.00  0.00    -0.269 OA
ATOM     16  C   UNL A   1      33.496  21.266  25.947  1.00  0.00     0.251 C 
ATOM     17  H   UNL A   1      33.318  23.259  25.719  1.00  0.00     0.164 HD
BRANCH  16  18
ATOM     18  C   UNL A   1      33.544  19.931  25.289  1.00  0.00     0.040 A 
ATOM     19  C   UNL A   1      34.765  19.344  24.927  1.00  0.00     0.017 A 
ATOM     20  C   UNL A   1      32.344  19.245  25.049  1.00  0.00     0.017 A 
ATOM     21  C   UNL A   1      34.779  18.113  24.262  1.00  0.00     0.040 A 
ATOM     22  C   UNL A   1      32.365  18.008  24.393  1.00  0.00     0.040 A 
ATOM     23  C   UNL A   1      33.581  17.461  23.995  1.00  0.00     0.123 A 
ATOM     24  F   UNL A   1      33.600  16.289  23.344  1.00  0.00    -0.207 F 
ENDBRANCH  16  18
ENDBRANCH  13  14
BRANCH  13  25
ATOM     25  C   UNL A   1      31.667  22.904  23.353  1.00  0.00     0.070 C 
BRANCH  25  26
ATOM     26  C   UNL A   1      31.200  24.331  23.475  1.00  0.00    -0.045 A 
ATOM     27  C   UNL A   1      31.403  25.251  22.432  1.00  0.00     0.007 A 
ATOM     28  C   UNL A   1      30.615  24.777  24.665  1.00  0.00     0.007 A 
ATOM     29  C   UNL A   1      30.977  26.576  22.560  1.00  0.00     0.046 A 
ATOM     30  C   UNL A   1      30.166  26.093  24.784  1.00  0.00     0.046 A 
ATOM     31  C   UNL A   1      30.337  26.977  23.727  1.00  0.00     0.115 A 
BRANCH  31  32
ATOM     32  O   UNL A   1      29.855  28.244  23.876  1.00  0.00    -0.508 OA
ATOM     33  H   UNL A   1      30.285  28.960  23.453  1.00  0.00     0.293 HD
ENDBRANCH  31  32
ENDBRANCH  25  26
ENDBRANCH  13  25
ENDBRANCH  10  13
ENDBRANCH   8   9
BRANCH   8  34
ATOM     34  C   UNL A   1      34.609  24.943  25.498  1.00  0.00     0.072 C 
BRANCH  34  35
ATOM     35  C   UNL A   1      34.249  26.409  25.343  1.00  0.00    -0.020 A 
ATOM     36  C   UNL A   1      34.014  26.983  24.132  1.00  0.00     0.087 A 
ATOM     37  C   UNL A   1      33.385  27.293  26.094  1.00  0.00     0.003 A 
ATOM     38  N   UNL A   1      33.865  28.327  24.225  1.00  0.00    -0.361 N 
ATOM     39  C   UNL A   1      33.309  28.537  25.455  1.00  0.00     0.046 A 
ATOM     40  C   UNL A   1      32.450  27.108  27.113  1.00  0.00     0.010 A 
ATOM     41  H   UNL A   1      34.105  29.005  23.553  1.00  0.00     0.166 HD
ATOM     42  C   UNL A   1      32.590  29.639  25.930  1.00  0.00     0.026 A 
ATOM     43  C   UNL A   1      31.666  28.162  27.598  1.00  0.00     0.001 A 
ATOM     44  C   UNL A   1      31.775  29.428  27.040  1.00  0.00     0.002 A 
ENDBRANCH  34  35
ENDBRANCH   8  34
ENDBRANCH   5   8
ENDBRANCH   3   4
BRANCH   3  45
ATOM     45  C   UNL A   1      39.917  22.247  27.031  1.00  0.00     0.193 C 
BRANCH  45  46
ATOM     46  O   UNL A   1      41.229  22.750  27.214  1.00  0.00    -0.394 OA
ATOM     47  H   UNL A   1      41.320  23.095  28.116  1.00  0.00     0.210 HD
ENDBRANCH  45  46
ENDBRANCH   3  45
ENDBRANCH   1   3
BRANCH   1  48
ATOM     48  O   UNL A   1      40.444  24.916  25.508  1.00  0.00    -0.460 OA
BRANCH  48  49
ATOM     49  C   UNL A   1      41.629  25.737  25.703  1.00  0.00     0.274 C 
BRANCH  49  50
ATOM     50  C   UNL A   1      42.888  25.073  25.090  1.00  0.00     0.275 C 
BRANCH  50  51
ATOM     51  O   UNL A   1      43.550  24.122  25.974  1.00  0.00    -0.458 OA
BRANCH  51  52
ATOM     52  C   UNL A   1      44.622  24.622  26.667  1.00  0.00     0.338 C 
ATOM     53  O   UNL A   1      45.796  24.430  26.398  1.00  0.00    -0.246 OA
BRANCH  52  54
ATOM     54  C   UNL A   1      44.210  25.521  27.785  1.00  0.00     0.060 A 
ATOM     55  C   UNL A   1      43.206  25.091  28.656  1.00  0.00     0.016 A 
ATOM     56  C   UNL A   1      44.721  26.814  27.940  1.00  0.00     0.016 A 
ATOM     57  C   UNL A   1      42.852  25.851  29.783  1.00  0.00     0.010 A 
ATOM     58  C   UNL A   1      44.285  27.624  29.019  1.00  0.00     0.010 A 
ATOM     59  C   UNL A   1      43.382  27.132  29.984  1.00  0.00    -0.014 A 
BRANCH  59  60
ATOM     60  C   UNL A   1      42.852  27.990  31.094  1.00  0.00     0.031 A 
ATOM     61  C   UNL A   1      41.628  28.814  30.825  1.00  0.00     0.074 A 
ATOM     62  C   UNL A   1      43.343  27.983  32.354  1.00  0.00     0.049 A 
ATOM     63  N   UNL A   1      40.958  29.582  31.642  1.00  0.00    -0.248 NA
ATOM     64  C   UNL A   1      41.035  28.684  29.486  1.00  0.00     0.031 C 
ATOM     65  C   UNL A   1      44.263  26.998  32.885  1.00  0.00     0.029 A 
ATOM     66  N   UNL A   1      43.130  28.800  33.439  1.00  0.00    -0.354 N 
ATOM     67  C   UNL A   1      39.805  29.931  30.955  1.00  0.00     0.074 A 
ATOM     68  C   UNL A   1      39.903  29.350  29.634  1.00  0.00     0.031 C 
ATOM     69  C   UNL A   1      44.693  27.346  34.105  1.00  0.00     0.029 A 
ATOM     70  C   UNL A   1      43.978  28.543  34.502  1.00  0.00     0.049 A 
ATOM     71  H   UNL A   1      42.440  29.501  33.459  1.00  0.00     0.167 HD
ATOM     72  C   UNL A   1      38.753  30.665  31.394  1.00  0.00     0.034 A 
ATOM     73  C   UNL A   1      44.140  29.161  35.688  1.00  0.00     0.034 A 
ATOM     74  C   UNL A   1      38.751  31.358  32.658  1.00  0.00     0.049 A 
ATOM     75  C   UNL A   1      43.152  30.235  36.028  1.00  0.00     0.074 A 
ATOM     76  C   UNL A   1      37.849  32.289  33.137  1.00  0.00     0.029 A 
ATOM     77  N   UNL A   1      39.738  31.226  33.634  1.00  0.00    -0.354 N 
ATOM     78  N   UNL A   1      42.101  30.614  35.340  1.00  0.00    -0.248 NA
ATOM     79  C   UNL A   1      43.333  30.933  37.303  1.00  0.00     0.031 C 
ATOM     80  C   UNL A   1      38.334  32.783  34.355  1.00  0.00     0.029 A 
ATOM     81  C   UNL A   1      39.500  32.104  34.680  1.00  0.00     0.049 A 
ATOM     82  H   UNL A   1      40.496  30.599  33.586  1.00  0.00     0.167 HD
ATOM     83  C   UNL A   1      41.462  31.564  36.121  1.00  0.00     0.074 A 
ATOM     84  C   UNL A   1      42.252  31.700  37.332  1.00  0.00     0.031 C 
ATOM     85  C   UNL A   1      40.319  32.247  35.863  1.00  0.00     0.034 A 
BRANCH  72  86
ATOM     86  C   UNL A   1      37.630  30.844  30.404  1.00  0.00     0.023 A 
ATOM     87  C   UNL A   1      37.295  32.116  29.896  1.00  0.00     0.031 A 
ATOM     88  C   UNL A   1      36.778  29.767  30.110  1.00  0.00     0.131 A 
ATOM     89  C   UNL A   1      36.084  32.293  29.207  1.00  0.00     0.055 A 
ATOM     90  C   UNL A   1      35.618  29.935  29.355  1.00  0.00     0.041 A 
ATOM     91  F   UNL A   1      37.026  28.544  30.604  1.00  0.00    -0.206 F 
ATOM     92  C   UNL A   1      35.254  31.206  28.917  1.00  0.00     0.022 A 
BRANCH  89  93
ATOM     93  S   UNL A   1      35.512  33.982  28.855  1.00  0.00     0.124 S 
ATOM     94  O   UNL A   1      36.749  34.752  28.976  1.00  0.00    -0.237 OA
ATOM     95  O   UNL A   1      34.964  33.865  27.509  1.00  0.00    -0.237 OA
ATOM     96  O   UNL A   1      34.529  34.237  29.907  1.00  0.00    -0.744 OA
ENDBRANCH  89  93
ENDBRANCH  72  86
BRANCH  73  97
ATOM     97  C   UNL A   1      45.255  28.785  36.613  1.00  0.00     0.023 A 
ATOM     98  C   UNL A   1      45.087  27.855  37.653  1.00  0.00     0.031 A 
ATOM     99  C   UNL A   1      46.516  29.400  36.486  1.00  0.00     0.131 A 
ATOM    100  C   UNL A   1      46.146  27.597  38.544  1.00  0.00     0.055 A 
ATOM    101  C   UNL A   1      47.576  29.113  37.350  1.00  0.00     0.041 A 
ATOM    102  F   UNL A   1      46.740  30.298  35.514  1.00  0.00    -0.206 F 
ATOM    103  C   UNL A   1      47.391  28.214  38.395  1.00  0.00     0.022 A 
BRANCH 100 104
ATOM    104  S   UNL A   1      45.858  26.495  39.959  1.00  0.00     0.124 S 
ATOM    105  O   UNL A   1      47.186  25.937  40.182  1.00  0.00    -0.237 OA
ATOM    106  O   UNL A   1      45.372  27.426  40.973  1.00  0.00    -0.237 OA
ATOM    107  O   UNL A   1      44.861  25.550  39.458  1.00  0.00    -0.744 OA
ENDBRANCH 100 104
ENDBRANCH  73  97
BRANCH  85 108
ATOM    108  C   UNL A   1      39.862  33.199  36.934  1.00  0.00     0.023 A 
ATOM    109  C   UNL A   1      39.206  32.737  38.088  1.00  0.00     0.031 A 
ATOM    110  C   UNL A   1      40.065  34.581  36.787  1.00  0.00     0.131 A 
ATOM    111  C   UNL A   1      38.722  33.658  39.026  1.00  0.00     0.055 A 
ATOM    112  C   UNL A   1      39.635  35.488  37.755  1.00  0.00     0.041 A 
ATOM    113  F   UNL A   1      40.681  35.070  35.700  1.00  0.00    -0.206 F 
ATOM    114  C   UNL A   1      38.948  35.029  38.877  1.00  0.00     0.022 A 
BRANCH 111 115
ATOM    115  S   UNL A   1      37.715  33.043  40.402  1.00  0.00     0.124 S 
ATOM    116  O   UNL A   1      36.462  32.705  39.733  1.00  0.00    -0.237 OA
ATOM    117  O   UNL A   1      38.502  31.914  40.888  1.00  0.00    -0.237 OA
ATOM    118  O   UNL A   1      37.645  34.185  41.312  1.00  0.00    -0.744 OA
ENDBRANCH 111 115
ENDBRANCH  85 108
ENDBRANCH  59  60
ENDBRANCH  52  54
ENDBRANCH  51  52
ENDBRANCH  50  51
ENDBRANCH  49  50
ENDBRANCH  48  49
ENDBRANCH   1  48
TORSDOF 27
ENDMDL
MODEL 2
REMARK VINA RESULT:     -10.0      7.726     12.570
REMARK SMILES O=C(N[C@@H](Cc1ccc(O)cc1)C(=O)N[C@@H](Cc1c[nH]c2ccccc12)C(=O)N[C@@H](CO)C(=O)OCCOC(=O)c1ccc(-c2c3nc(c(-c4cc(S(=O)(=O)[O-])ccc4F)c4ccc([nH]4)c(-c4cc(S(=O)(=O)[O-])ccc4F)c4nc(c(-c5cc(S(=O)(=O)[O-])ccc5F)c5ccc2[nH]5)C=C4)C=C3)cc1)c1ccc(F)cc1
REMARK SMILES IDX 33 1 34 2 30 3 29 4 27 5 28 6 16 8 15 9 13 10 14 11 4 13
REMARK SMILES IDX 3 14 1 15 2 16 104 18 105 19 110 20 106 21 109 22 107 23
REMARK SMILES IDX 108 24 5 25 6 26 7 27 12 28 8 29 11 30 9 31 10 32 17 34
REMARK SMILES IDX 18 35 19 36 26 37 20 38 21 39 25 40 22 42 24 43 23 44 31 45
REMARK SMILES IDX 32 46 35 48 36 49 37 50 38 51 39 52 40 53 41 54 42 55 103 56
REMARK SMILES IDX 43 57 102 58 44 59 45 60 46 61 96 62 47 63 101 64 95 65
REMARK SMILES IDX 97 66 48 67 100 68 94 69 93 70 49 72 81 73 61 74 80 75 62 76
REMARK SMILES IDX 65 77 79 78 98 79 63 80 64 81 78 83 99 84 66 85 50 86 51 87
REMARK SMILES IDX 59 88 52 89 58 90 60 91 57 92 53 93 54 94 55 95 56 96 82 97
REMARK SMILES IDX 83 98 91 99 84 100 90 101 92 102 89 103 85 104 86 105 87 106
REMARK SMILES IDX 88 107 67 108 68 109 76 110 69 111 75 112 77 113 74 114
REMARK SMILES IDX 70 115 71 116 72 117 73 118
REMARK H PARENT 29 7 15 12 3 17 10 33 20 41 32 47 97 71 65 82
REMARK Flexibility Score: inf
ROOT
ATOM      1  C   UNL A   1      34.526  33.634  31.625  1.00  0.00     0.331 C 
ATOM      2  O   UNL A   1      34.022  32.666  32.184  1.00  0.00    -0.250 OA
ENDROOT
BRANCH   1   3
ATOM      3  C   UNL A   1      34.544  33.821  30.073  1.00  0.00     0.218 C 
BRANCH   3   4
ATOM      4  N   UNL A   1      34.343  32.568  29.313  1.00  0.00    -0.339 N 
ATOM      5  C   UNL A   1      35.381  32.047  28.580  1.00  0.00     0.243 C 
ATOM      6  O   UNL A   1      35.665  32.641  27.533  1.00  0.00    -0.273 OA
ATOM      7  H   UNL A   1      33.473  32.109  29.335  1.00  0.00     0.164 HD
BRANCH   5   8
ATOM      8  C   UNL A   1      35.987  30.625  28.927  1.00  0.00     0.175 C 
BRANCH   8   9
ATOM      9  N   UNL A   1      35.941  30.533  30.406  1.00  0.00    -0.342 N 
ATOM     10  C   UNL A   1      36.940  30.401  31.331  1.00  0.00     0.243 C 
ATOM     11  O   UNL A   1      36.795  31.067  32.369  1.00  0.00    -0.273 OA
ATOM     12  H   UNL A   1      35.034  30.572  30.788  1.00  0.00     0.164 HD
BRANCH  10  13
ATOM     13  C   UNL A   1      38.198  29.491  31.210  1.00  0.00     0.176 C 
BRANCH  13  14
ATOM     14  N   UNL A   1      39.021  29.452  32.414  1.00  0.00    -0.340 N 
ATOM     15  O   UNL A   1      40.914  29.395  33.623  1.00  0.00    -0.269 OA
ATOM     16  C   UNL A   1      40.397  29.503  32.517  1.00  0.00     0.251 C 
ATOM     17  H   UNL A   1      38.531  29.383  33.266  1.00  0.00     0.164 HD
BRANCH  16  18
ATOM     18  C   UNL A   1      41.251  29.646  31.306  1.00  0.00     0.040 A 
ATOM     19  C   UNL A   1      42.037  28.581  30.843  1.00  0.00     0.017 A 
ATOM     20  C   UNL A   1      41.250  30.864  30.610  1.00  0.00     0.017 A 
ATOM     21  C   UNL A   1      42.872  28.758  29.735  1.00  0.00     0.040 A 
ATOM     22  C   UNL A   1      42.080  31.032  29.494  1.00  0.00     0.040 A 
ATOM     23  C   UNL A   1      42.892  29.983  29.075  1.00  0.00     0.123 A 
ATOM     24  F   UNL A   1      43.705  30.150  28.023  1.00  0.00    -0.207 F 
ENDBRANCH  16  18
ENDBRANCH  13  14
BRANCH  13  25
ATOM     25  C   UNL A   1      38.098  28.150  30.457  1.00  0.00     0.070 C 
BRANCH  25  26
ATOM     26  C   UNL A   1      38.954  27.930  29.236  1.00  0.00    -0.045 A 
ATOM     27  C   UNL A   1      39.591  26.699  29.011  1.00  0.00     0.007 A 
ATOM     28  C   UNL A   1      39.181  28.983  28.341  1.00  0.00     0.007 A 
ATOM     29  C   UNL A   1      40.394  26.509  27.882  1.00  0.00     0.046 A 
ATOM     30  C   UNL A   1      39.961  28.787  27.201  1.00  0.00     0.046 A 
ATOM     31  C   UNL A   1      40.548  27.549  26.972  1.00  0.00     0.115 A 
BRANCH  31  32
ATOM     32  O   UNL A   1      41.275  27.394  25.830  1.00  0.00    -0.508 OA
ATOM     33  H   UNL A   1      41.553  26.540  25.564  1.00  0.00     0.293 HD
ENDBRANCH  31  32
ENDBRANCH  25  26
ENDBRANCH  13  25
ENDBRANCH  10  13
ENDBRANCH   8   9
BRANCH   8  34
ATOM     34  C   UNL A   1      35.504  29.314  28.218  1.00  0.00     0.072 C 
BRANCH  34  35
ATOM     35  C   UNL A   1      34.667  29.227  26.956  1.00  0.00    -0.020 A 
ATOM     36  C   UNL A   1      34.414  28.049  26.323  1.00  0.00     0.087 A 
ATOM     37  C   UNL A   1      33.446  29.882  26.540  1.00  0.00     0.003 A 
ATOM     38  N   UNL A   1      33.780  28.233  25.138  1.00  0.00    -0.361 N 
ATOM     39  C   UNL A   1      33.018  29.352  25.315  1.00  0.00     0.046 A 
ATOM     40  C   UNL A   1      32.506  30.689  27.181  1.00  0.00     0.010 A 
ATOM     41  H   UNL A   1      33.852  27.679  24.327  1.00  0.00     0.166 HD
ATOM     42  C   UNL A   1      31.892  29.783  24.607  1.00  0.00     0.026 A 
ATOM     43  C   UNL A   1      31.336  31.114  26.540  1.00  0.00     0.001 A 
ATOM     44  C   UNL A   1      31.060  30.701  25.244  1.00  0.00     0.002 A 
ENDBRANCH  34  35
ENDBRANCH   8  34
ENDBRANCH   5   8
ENDBRANCH   3   4
BRANCH   3  45
ATOM     45  C   UNL A   1      33.737  35.030  29.615  1.00  0.00     0.193 C 
BRANCH  45  46
ATOM     46  O   UNL A   1      34.485  35.841  28.726  1.00  0.00    -0.394 OA
ATOM     47  H   UNL A   1      33.912  36.535  28.361  1.00  0.00     0.210 HD
ENDBRANCH  45  46
ENDBRANCH   3  45
ENDBRANCH   1   3
BRANCH   1  48
ATOM     48  O   UNL A   1      34.890  34.792  32.284  1.00  0.00    -0.460 OA
BRANCH  48  49
ATOM     49  C   UNL A   1      36.040  34.684  33.169  1.00  0.00     0.274 C 
BRANCH  49  50
ATOM     50  C   UNL A   1      37.371  34.677  32.373  1.00  0.00     0.275 C 
BRANCH  50  51
ATOM     51  O   UNL A   1      38.392  33.799  32.930  1.00  0.00    -0.458 OA
BRANCH  51  52
ATOM     52  C   UNL A   1      39.341  34.425  33.696  1.00  0.00     0.338 C 
ATOM     53  O   UNL A   1      39.211  34.750  34.865  1.00  0.00    -0.246 OA
BRANCH  52  54
ATOM     54  C   UNL A   1      40.628  34.619  32.966  1.00  0.00     0.060 A 
ATOM     55  C   UNL A   1      40.677  34.318  31.602  1.00  0.00     0.016 A 
ATOM     56  C   UNL A   1      41.811  34.997  33.609  1.00  0.00     0.016 A 
ATOM     57  C   UNL A   1      41.832  34.578  30.846  1.00  0.00     0.010 A 
ATOM     58  C   UNL A   1      43.005  35.157  32.862  1.00  0.00     0.010 A 
ATOM     59  C   UNL A   1      43.017  34.999  31.461  1.00  0.00    -0.014 A 
BRANCH  59  60
ATOM     60  C   UNL A   1      44.280  35.094  30.657  1.00  0.00     0.031 A 
ATOM     61  C   UNL A   1      44.786  36.460  30.299  1.00  0.00     0.074 A 
ATOM     62  C   UNL A   1      45.049  34.031  30.329  1.00  0.00     0.049 A 
ATOM     63  N   UNL A   1      45.879  36.793  29.666  1.00  0.00    -0.248 NA
ATOM     64  C   UNL A   1      44.001  37.598  30.799  1.00  0.00     0.031 C 
ATOM     65  C   UNL A   1      44.920  32.703  30.894  1.00  0.00     0.029 A 
ATOM     66  N   UNL A   1      46.111  33.882  29.470  1.00  0.00    -0.354 N 
ATOM     67  C   UNL A   1      45.974  38.170  29.793  1.00  0.00     0.074 A 
ATOM     68  C   UNL A   1      44.793  38.614  30.501  1.00  0.00     0.031 C 
ATOM     69  C   UNL A   1      45.709  31.829  30.257  1.00  0.00     0.029 A 
ATOM     70  C   UNL A   1      46.503  32.567  29.295  1.00  0.00     0.049 A 
ATOM     71  H   UNL A   1      46.552  34.639  29.021  1.00  0.00     0.167 HD
ATOM     72  C   UNL A   1      46.964  38.989  29.365  1.00  0.00     0.034 A 
ATOM     73  C   UNL A   1      47.429  32.008  28.492  1.00  0.00     0.034 A 
ATOM     74  C   UNL A   1      48.051  38.539  28.531  1.00  0.00     0.049 A 
ATOM     75  C   UNL A   1      48.322  32.946  27.738  1.00  0.00     0.074 A 
ATOM     76  C   UNL A   1      49.003  39.288  27.865  1.00  0.00     0.029 A 
ATOM     77  N   UNL A   1      48.300  37.206  28.208  1.00  0.00    -0.354 N 
ATOM     78  N   UNL A   1      48.360  34.256  27.806  1.00  0.00    -0.248 NA
ATOM     79  C   UNL A   1      49.315  32.350  26.842  1.00  0.00     0.031 C 
ATOM     80  C   UNL A   1      49.767  38.421  27.074  1.00  0.00     0.029 A 
ATOM     81  C   UNL A   1      49.348  37.119  27.305  1.00  0.00     0.049 A 
ATOM     82  H   UNL A   1      47.803  36.437  28.571  1.00  0.00     0.167 HD
ATOM     83  C   UNL A   1      49.416  34.645  26.998  1.00  0.00     0.074 A 
ATOM     84  C   UNL A   1      49.985  33.425  26.450  1.00  0.00     0.031 C 
ATOM     85  C   UNL A   1      49.878  35.894  26.746  1.00  0.00     0.034 A 
BRANCH  72  86
ATOM     86  C   UNL A   1      46.781  40.451  29.688  1.00  0.00     0.023 A 
ATOM     87  C   UNL A   1      46.152  41.329  28.781  1.00  0.00     0.031 A 
ATOM     88  C   UNL A   1      47.400  41.000  30.821  1.00  0.00     0.131 A 
ATOM     89  C   UNL A   1      46.246  42.716  28.977  1.00  0.00     0.055 A 
ATOM     90  C   UNL A   1      47.420  42.376  31.052  1.00  0.00     0.041 A 
ATOM     91  F   UNL A   1      48.052  40.215  31.693  1.00  0.00    -0.206 F 
ATOM     92  C   UNL A   1      46.859  43.243  30.118  1.00  0.00     0.022 A 
BRANCH  89  93
ATOM     93  S   UNL A   1      45.725  43.831  27.639  1.00  0.00     0.124 S 
ATOM     94  O   UNL A   1      46.945  43.935  26.840  1.00  0.00    -0.237 OA
ATOM     95  O   UNL A   1      44.621  43.104  27.024  1.00  0.00    -0.237 OA
ATOM     96  O   UNL A   1      45.349  45.056  28.342  1.00  0.00    -0.744 OA
ENDBRANCH  89  93
ENDBRANCH  72  86
BRANCH  73  97
ATOM     97  C   UNL A   1      47.552  30.521  28.368  1.00  0.00     0.023 A 
ATOM     98  C   UNL A   1      46.772  29.775  27.468  1.00  0.00     0.031 A 
ATOM     99  C   UNL A   1      48.443  29.814  29.199  1.00  0.00     0.131 A 
ATOM    100  C   UNL A   1      46.871  28.371  27.448  1.00  0.00     0.055 A 
ATOM    101  C   UNL A   1      48.565  28.423  29.150  1.00  0.00     0.041 A 
ATOM    102  F   UNL A   1      49.215  30.469  30.081  1.00  0.00    -0.206 F 
ATOM    103  C   UNL A   1      47.767  27.691  28.277  1.00  0.00     0.022 A 
BRANCH 100 104
ATOM    104  S   UNL A   1      45.753  27.425  26.373  1.00  0.00     0.124 S 
ATOM    105  O   UNL A   1      44.802  26.880  27.334  1.00  0.00    -0.237 OA
ATOM    106  O   UNL A   1      45.245  28.461  25.480  1.00  0.00    -0.237 OA
ATOM    107  O   UNL A   1      46.635  26.443  25.744  1.00  0.00    -0.744 OA
ENDBRANCH 100 104
ENDBRANCH  73  97
BRANCH  85 108
ATOM    108  C   UNL A   1      51.073  35.986  25.837  1.00  0.00     0.023 A 
ATOM    109  C   UNL A   1      52.381  35.869  26.338  1.00  0.00     0.031 A 
ATOM    110  C   UNL A   1      50.901  36.216  24.463  1.00  0.00     0.131 A 
ATOM    111  C   UNL A   1      53.472  36.041  25.476  1.00  0.00     0.055 A 
ATOM    112  C   UNL A   1      51.991  36.324  23.599  1.00  0.00     0.041 A 
ATOM    113  F   UNL A   1      49.672  36.341  23.938  1.00  0.00    -0.206 F 
ATOM    114  C   UNL A   1      53.286  36.250  24.107  1.00  0.00     0.022 A 
BRANCH 111 115
ATOM    115  S   UNL A   1      55.139  36.075  26.187  1.00  0.00     0.124 S 
ATOM    116  O   UNL A   1      55.680  34.790  25.751  1.00  0.00    -0.237 OA
ATOM    117  O   UNL A   1      55.724  37.257  25.563  1.00  0.00    -0.237 OA
ATOM    118  O   UNL A   1      54.896  36.190  27.624  1.00  0.00    -0.744 OA
ENDBRANCH 111 115
ENDBRANCH  85 108
ENDBRANCH  59  60
ENDBRANCH  52  54
ENDBRANCH  51  52
ENDBRANCH  50  51
ENDBRANCH  49  50
ENDBRANCH  48  49
ENDBRANCH   1  48
TORSDOF 27
ENDMDL
MODEL 3
REMARK VINA RESULT:      -9.9      7.975     13.316
REMARK SMILES O=C(N[C@@H](Cc1ccc(O)cc1)C(=O)N[C@@H](Cc1c[nH]c2ccccc12)C(=O)N[C@@H](CO)C(=O)OCCOC(=O)c1ccc(-c2c3nc(c(-c4cc(S(=O)(=O)[O-])ccc4F)c4ccc([nH]4)c(-c4cc(S(=O)(=O)[O-])ccc4F)c4nc(c(-c5cc(S(=O)(=O)[O-])ccc5F)c5ccc2[nH]5)C=C4)C=C3)cc1)c1ccc(F)cc1
REMARK SMILES IDX 33 1 34 2 30 3 29 4 27 5 28 6 16 8 15 9 13 10 14 11 4 13
REMARK SMILES IDX 3 14 1 15 2 16 104 18 105 19 110 20 106 21 109 22 107 23
REMARK SMILES IDX 108 24 5 25 6 26 7 27 12 28 8 29 11 30 9 31 10 32 17 34
REMARK SMILES IDX 18 35 19 36 26 37 20 38 21 39 25 40 22 42 24 43 23 44 31 45
REMARK SMILES IDX 32 46 35 48 36 49 37 50 38 51 39 52 40 53 41 54 42 55 103 56
REMARK SMILES IDX 43 57 102 58 44 59 45 60 46 61 96 62 47 63 101 64 95 65
REMARK SMILES IDX 97 66 48 67 100 68 94 69 93 70 49 72 81 73 61 74 80 75 62 76
REMARK SMILES IDX 65 77 79 78 98 79 63 80 64 81 78 83 99 84 66 85 50 86 51 87
REMARK SMILES IDX 59 88 52 89 58 90 60 91 57 92 53 93 54 94 55 95 56 96 82 97
REMARK SMILES IDX 83 98 91 99 84 100 90 101 92 102 89 103 85 104 86 105 87 106
REMARK SMILES IDX 88 107 67 108 68 109 76 110 69 111 75 112 77 113 74 114
REMARK SMILES IDX 70 115 71 116 72 117 73 118
REMARK H PARENT 29 7 15 12 3 17 10 33 20 41 32 47 97 71 65 82
REMARK Flexibility Score: inf
ROOT
ATOM      1  C   UNL A   1      39.475  25.168  26.804  1.00  0.00     0.331 C 
ATOM      2  O   UNL A   1      39.112  26.035  27.593  1.00  0.00    -0.250 OA
ENDROOT
BRANCH   1   3
ATOM      3  C   UNL A   1      38.849  23.736  26.747  1.00  0.00     0.218 C 
BRANCH   3   4
ATOM      4  N   UNL A   1      38.125  23.446  25.490  1.00  0.00    -0.339 N 
ATOM      5  C   UNL A   1      36.760  23.298  25.514  1.00  0.00     0.243 C 
ATOM      6  O   UNL A   1      36.331  22.249  26.008  1.00  0.00    -0.273 OA
ATOM      7  H   UNL A   1      38.618  23.362  24.642  1.00  0.00     0.164 HD
BRANCH   5   8
ATOM      8  C   UNL A   1      35.821  24.291  24.714  1.00  0.00     0.175 C 
BRANCH   8   9
ATOM      9  N   UNL A   1      35.475  23.576  23.462  1.00  0.00    -0.342 N 
ATOM     10  C   UNL A   1      34.268  23.171  22.960  1.00  0.00     0.243 C 
ATOM     11  O   UNL A   1      34.126  23.314  21.736  1.00  0.00    -0.273 OA
ATOM     12  H   UNL A   1      36.248  23.352  22.894  1.00  0.00     0.164 HD
BRANCH  10  13
ATOM     13  C   UNL A   1      33.096  22.538  23.769  1.00  0.00     0.176 C 
BRANCH  13  14
ATOM     14  N   UNL A   1      33.362  22.410  25.197  1.00  0.00    -0.340 N 
ATOM     15  O   UNL A   1      33.722  21.351  27.146  1.00  0.00    -0.269 OA
ATOM     16  C   UNL A   1      33.574  21.261  25.932  1.00  0.00     0.251 C 
ATOM     17  H   UNL A   1      33.396  23.254  25.703  1.00  0.00     0.164 HD
BRANCH  16  18
ATOM     18  C   UNL A   1      33.585  19.923  25.278  1.00  0.00     0.040 A 
ATOM     19  C   UNL A   1      34.789  19.311  24.900  1.00  0.00     0.017 A 
ATOM     20  C   UNL A   1      32.369  19.261  25.058  1.00  0.00     0.017 A 
ATOM     21  C   UNL A   1      34.769  18.078  24.239  1.00  0.00     0.040 A 
ATOM     22  C   UNL A   1      32.356  18.021  24.406  1.00  0.00     0.040 A 
ATOM     23  C   UNL A   1      33.554  17.449  23.992  1.00  0.00     0.123 A 
ATOM     24  F   UNL A   1      33.541  16.275  23.345  1.00  0.00    -0.207 F 
ENDBRANCH  16  18
ENDBRANCH  13  14
BRANCH  13  25
ATOM     25  C   UNL A   1      31.642  22.905  23.415  1.00  0.00     0.070 C 
BRANCH  25  26
ATOM     26  C   UNL A   1      31.204  24.344  23.517  1.00  0.00    -0.045 A 
ATOM     27  C   UNL A   1      31.462  25.254  22.479  1.00  0.00     0.007 A 
ATOM     28  C   UNL A   1      30.592  24.808  24.687  1.00  0.00     0.007 A 
ATOM     29  C   UNL A   1      31.064  26.590  22.589  1.00  0.00     0.046 A 
ATOM     30  C   UNL A   1      30.171  26.134  24.787  1.00  0.00     0.046 A 
ATOM     31  C   UNL A   1      30.395  27.010  23.733  1.00  0.00     0.115 A 
BRANCH  31  32
ATOM     32  O   UNL A   1      29.939  28.288  23.863  1.00  0.00    -0.508 OA
ATOM     33  H   UNL A   1      29.124  28.535  23.472  1.00  0.00     0.293 HD
ENDBRANCH  31  32
ENDBRANCH  25  26
ENDBRANCH  13  25
ENDBRANCH  10  13
ENDBRANCH   8   9
BRANCH   8  34
ATOM     34  C   UNL A   1      34.587  24.994  25.376  1.00  0.00     0.072 C 
BRANCH  34  35
ATOM     35  C   UNL A   1      34.244  26.470  25.305  1.00  0.00    -0.020 A 
ATOM     36  C   UNL A   1      34.060  27.125  24.127  1.00  0.00     0.087 A 
ATOM     37  C   UNL A   1      33.359  27.311  26.080  1.00  0.00     0.003 A 
ATOM     38  N   UNL A   1      33.918  28.462  24.303  1.00  0.00    -0.361 N 
ATOM     39  C   UNL A   1      33.317  28.595  25.522  1.00  0.00     0.046 A 
ATOM     40  C   UNL A   1      32.384  27.069  27.048  1.00  0.00     0.010 A 
ATOM     41  H   UNL A   1      34.189  29.181  23.687  1.00  0.00     0.166 HD
ATOM     42  C   UNL A   1      32.588  29.670  26.043  1.00  0.00     0.026 A 
ATOM     43  C   UNL A   1      31.590  28.096  27.572  1.00  0.00     0.001 A 
ATOM     44  C   UNL A   1      31.730  29.395  27.104  1.00  0.00     0.002 A 
ENDBRANCH  34  35
ENDBRANCH   8  34
ENDBRANCH   5   8
ENDBRANCH   3   4
BRANCH   3  45
ATOM     45  C   UNL A   1      39.800  22.657  27.248  1.00  0.00     0.193 C 
BRANCH  45  46
ATOM     46  O   UNL A   1      39.855  21.562  26.350  1.00  0.00    -0.394 OA
ATOM     47  H   UNL A   1      40.327  21.829  25.545  1.00  0.00     0.210 HD
ENDBRANCH  45  46
ENDBRANCH   3  45
ENDBRANCH   1   3
BRANCH   1  48
ATOM     48  O   UNL A   1      40.273  25.422  25.705  1.00  0.00    -0.460 OA
BRANCH  48  49
ATOM     49  C   UNL A   1      41.428  26.274  25.942  1.00  0.00     0.274 C 
BRANCH  49  50
ATOM     50  C   UNL A   1      42.756  25.503  25.733  1.00  0.00     0.275 C 
BRANCH  50  51
ATOM     51  O   UNL A   1      43.025  24.495  26.750  1.00  0.00    -0.458 OA
BRANCH  51  52
ATOM     52  C   UNL A   1      43.562  24.975  27.916  1.00  0.00     0.338 C 
ATOM     53  O   UNL A   1      42.962  25.123  28.968  1.00  0.00    -0.246 OA
BRANCH  52  54
ATOM     54  C   UNL A   1      45.026  25.244  27.803  1.00  0.00     0.060 A 
ATOM     55  C   UNL A   1      45.470  26.568  27.862  1.00  0.00     0.016 A 
ATOM     56  C   UNL A   1      45.961  24.236  27.546  1.00  0.00     0.016 A 
ATOM     57  C   UNL A   1      46.842  26.870  27.864  1.00  0.00     0.010 A 
ATOM     58  C   UNL A   1      47.338  24.556  27.442  1.00  0.00     0.010 A 
ATOM     59  C   UNL A   1      47.801  25.872  27.651  1.00  0.00    -0.014 A 
BRANCH  59  60
ATOM     60  C   UNL A   1      49.242  26.249  27.479  1.00  0.00     0.031 A 
ATOM     61  C   UNL A   1      50.123  26.243  28.693  1.00  0.00     0.074 A 
ATOM     62  C   UNL A   1      49.822  26.486  26.281  1.00  0.00     0.049 A 
ATOM     63  N   UNL A   1      51.405  26.474  28.780  1.00  0.00    -0.248 NA
ATOM     64  C   UNL A   1      49.489  25.837  29.956  1.00  0.00     0.031 C 
ATOM     65  C   UNL A   1      49.233  26.180  24.993  1.00  0.00     0.029 A 
ATOM     66  N   UNL A   1      51.043  27.009  25.927  1.00  0.00    -0.354 N 
ATOM     67  C   UNL A   1      51.754  26.128  30.077  1.00  0.00     0.074 A 
ATOM     68  C   UNL A   1      50.536  25.741  30.756  1.00  0.00     0.031 C 
ATOM     69  C   UNL A   1      49.972  26.677  23.993  1.00  0.00     0.029 A 
ATOM     70  C   UNL A   1      51.172  27.248  24.570  1.00  0.00     0.049 A 
ATOM     71  H   UNL A   1      51.759  27.195  26.576  1.00  0.00     0.167 HD
ATOM     72  C   UNL A   1      52.983  26.126  30.646  1.00  0.00     0.034 A 
ATOM     73  C   UNL A   1      52.159  27.816  23.850  1.00  0.00     0.034 A 
ATOM     74  C   UNL A   1      54.153  26.661  29.994  1.00  0.00     0.049 A 
ATOM     75  C   UNL A   1      53.429  28.133  24.581  1.00  0.00     0.074 A 
ATOM     76  C   UNL A   1      55.407  26.904  30.521  1.00  0.00     0.029 A 
ATOM     77  N   UNL A   1      54.193  27.084  28.666  1.00  0.00    -0.354 N 
ATOM     78  N   UNL A   1      53.729  27.870  25.831  1.00  0.00    -0.248 NA
ATOM     79  C   UNL A   1      54.500  28.775  23.816  1.00  0.00     0.031 C 
ATOM     80  C   UNL A   1      56.174  27.553  29.545  1.00  0.00     0.029 A 
ATOM     81  C   UNL A   1      55.428  27.644  28.378  1.00  0.00     0.049 A 
ATOM     82  H   UNL A   1      53.450  26.997  28.026  1.00  0.00     0.167 HD
ATOM     83  C   UNL A   1      55.046  28.269  25.994  1.00  0.00     0.074 A 
ATOM     84  C   UNL A   1      55.478  28.795  24.711  1.00  0.00     0.031 C 
ATOM     85  C   UNL A   1      55.827  28.193  27.100  1.00  0.00     0.034 A 
BRANCH  72  86
ATOM     86  C   UNL A   1      53.032  25.665  32.081  1.00  0.00     0.023 A 
ATOM     87  C   UNL A   1      53.332  24.327  32.412  1.00  0.00     0.031 A 
ATOM     88  C   UNL A   1      52.598  26.520  33.106  1.00  0.00     0.131 A 
ATOM     89  C   UNL A   1      53.095  23.863  33.716  1.00  0.00     0.055 A 
ATOM     90  C   UNL A   1      52.442  26.073  34.418  1.00  0.00     0.041 A 
ATOM     91  F   UNL A   1      52.257  27.790  32.838  1.00  0.00    -0.206 F 
ATOM     92  C   UNL A   1      52.671  24.734  34.725  1.00  0.00     0.022 A 
BRANCH  89  93
ATOM     93  S   UNL A   1      53.167  22.076  34.041  1.00  0.00     0.124 S 
ATOM     94  O   UNL A   1      53.630  22.039  35.427  1.00  0.00    -0.237 OA
ATOM     95  O   UNL A   1      51.791  21.651  33.819  1.00  0.00    -0.237 OA
ATOM     96  O   UNL A   1      54.135  21.589  33.061  1.00  0.00    -0.744 OA
ENDBRANCH  89  93
ENDBRANCH  72  86
BRANCH  73  97
ATOM     97  C   UNL A   1      51.987  28.111  22.393  1.00  0.00     0.023 A 
ATOM     98  C   UNL A   1      52.127  27.123  21.405  1.00  0.00     0.031 A 
ATOM     99  C   UNL A   1      51.716  29.426  21.966  1.00  0.00     0.131 A 
ATOM    100  C   UNL A   1      52.032  27.471  20.043  1.00  0.00     0.055 A 
ATOM    101  C   UNL A   1      51.586  29.761  20.616  1.00  0.00     0.041 A 
ATOM    102  F   UNL A   1      51.573  30.416  22.862  1.00  0.00    -0.206 F 
ATOM    103  C   UNL A   1      51.756  28.781  19.644  1.00  0.00     0.022 A 
BRANCH 100 104
ATOM    104  S   UNL A   1      52.353  26.200  18.785  1.00  0.00     0.124 S 
ATOM    105  O   UNL A   1      51.590  25.069  19.300  1.00  0.00    -0.237 OA
ATOM    106  O   UNL A   1      51.832  26.832  17.578  1.00  0.00    -0.237 OA
ATOM    107  O   UNL A   1      53.806  26.041  18.825  1.00  0.00    -0.744 OA
ENDBRANCH 100 104
ENDBRANCH  73  97
BRANCH  85 108
ATOM    108  C   UNL A   1      57.238  28.689  26.949  1.00  0.00     0.023 A 
ATOM    109  C   UNL A   1      57.573  30.029  27.210  1.00  0.00     0.031 A 
ATOM    110  C   UNL A   1      58.252  27.818  26.516  1.00  0.00     0.131 A 
ATOM    111  C   UNL A   1      58.880  30.475  26.979  1.00  0.00     0.055 A 
ATOM    112  C   UNL A   1      59.566  28.255  26.348  1.00  0.00     0.041 A 
ATOM    113  F   UNL A   1      57.981  26.531  26.248  1.00  0.00    -0.206 F 
ATOM    114  C   UNL A   1      59.884  29.593  26.568  1.00  0.00     0.022 A 
BRANCH 111 115
ATOM    115  S   UNL A   1      59.231  32.246  27.141  1.00  0.00     0.124 S 
ATOM    116  O   UNL A   1      60.172  32.470  26.048  1.00  0.00    -0.237 OA
ATOM    117  O   UNL A   1      57.911  32.845  26.977  1.00  0.00    -0.237 OA
ATOM    118  O   UNL A   1      59.800  32.360  28.483  1.00  0.00    -0.744 OA
ENDBRANCH 111 115
ENDBRANCH  85 108
ENDBRANCH  59  60
ENDBRANCH  52  54
ENDBRANCH  51  52
ENDBRANCH  50  51
ENDBRANCH  49  50
ENDBRANCH  48  49
ENDBRANCH   1  48
TORSDOF 27
ENDMDL
