MODEL 1
REMARK VINA RESULT:     -11.9      0.000      0.000
REMARK SMILES O=C(CC[NH+]1CCC(n2nccc2NC(=O)c2ccccc2Cl)CC1)OCCOC(=O)c1ccc(-c2c3nc(c(-c4cc(S(=O)(=O)[O-])ccc4F)c4ccc([nH]4)c(-c4cc(S(=O)(=O)[O-])ccc4F)c4nc(c(-c5cc(S(=O)(=O)[O-])ccc5F)c5ccc2[nH]5)C=C4)C=C3)cc1
REMARK SMILES IDX 27 1 26 2 2 3 1 4 3 5 4 6 5 7 6 8 25 9 7 11 24 12 8 13 9 14
REMARK SMILES IDX 10 15 13 16 11 17 12 18 14 19 15 20 16 22 17 23 18 24 22 25
REMARK SMILES IDX 19 26 21 27 23 28 20 29 28 30 29 31 30 32 31 33 32 34 33 35
REMARK SMILES IDX 94 36 34 37 93 38 35 39 36 40 37 41 87 42 38 43 92 44 86 45
REMARK SMILES IDX 88 46 39 47 91 48 85 49 84 50 40 52 72 53 52 54 71 55 53 56
REMARK SMILES IDX 56 57 70 58 89 59 54 60 55 61 69 63 90 64 57 65 41 66 42 67
REMARK SMILES IDX 50 68 43 69 49 70 51 71 48 72 44 73 45 74 46 75 47 76 73 77
REMARK SMILES IDX 74 78 82 79 75 80 81 81 83 82 80 83 76 84 77 85 78 86 79 87
REMARK SMILES IDX 58 88 59 89 67 90 60 91 66 92 68 93 65 94 61 95 62 96 63 97
REMARK SMILES IDX 64 98
REMARK H PARENT 5 10 14 21 88 51 56 62
REMARK Flexibility Score: inf
ROOT
ATOM      1  C   UNL A   1      35.338  34.231  30.966  1.00  0.00     0.274 C 
ENDROOT
BRANCH   1   2
ATOM      2  O   UNL A   1      35.484  34.075  29.531  1.00  0.00    -0.462 OA
BRANCH   2   3
ATOM      3  C   UNL A   1      34.554  34.330  28.569  1.00  0.00     0.311 C 
ATOM      4  O   UNL A   1      34.438  35.464  28.105  1.00  0.00    -0.252 OA
BRANCH   3   5
ATOM      5  C   UNL A   1      33.732  33.199  27.999  1.00  0.00     0.184 C 
BRANCH   5   6
ATOM      6  C   UNL A   1      34.579  31.995  27.559  1.00  0.00     0.274 C 
BRANCH   6   7
ATOM      7  N   UNL A   1      33.749  30.940  26.963  1.00  0.00    -0.334 N 
ATOM      8  C   UNL A   1      34.130  29.577  27.347  1.00  0.00     0.264 C 
ATOM      9  C   UNL A   1      32.320  31.104  27.240  1.00  0.00     0.264 C 
ATOM     10  H   UNL A   1      33.925  31.056  25.965  1.00  0.00     0.348 HD
ATOM     11  C   UNL A   1      33.370  28.558  26.469  1.00  0.00     0.089 C 
ATOM     12  C   UNL A   1      31.655  30.377  26.093  1.00  0.00     0.089 C 
ATOM     13  C   UNL A   1      31.872  28.892  26.263  1.00  0.00     0.121 C 
BRANCH  13  14
ATOM     14  N   UNL A   1      31.273  28.076  25.211  1.00  0.00    -0.246 N 
ATOM     15  N   UNL A   1      31.239  28.651  23.986  1.00  0.00    -0.179 NA
ATOM     16  C   UNL A   1      30.740  26.788  25.207  1.00  0.00     0.131 A 
ATOM     17  C   UNL A   1      30.527  27.809  23.247  1.00  0.00     0.137 A 
ATOM     18  C   UNL A   1      30.124  26.682  23.976  1.00  0.00     0.069 A 
BRANCH  16  19
ATOM     19  N   UNL A   1      30.774  25.820  26.209  1.00  0.00    -0.307 N 
ATOM     20  C   UNL A   1      31.662  24.705  26.379  1.00  0.00     0.258 C 
ATOM     21  H   UNL A   1      30.085  25.914  26.905  1.00  0.00     0.171 HD
ATOM     22  O   UNL A   1      31.399  23.968  27.314  1.00  0.00    -0.269 OA
BRANCH  20  23
ATOM     23  C   UNL A   1      32.784  24.443  25.480  1.00  0.00     0.058 A 
ATOM     24  C   UNL A   1      34.052  24.889  25.881  1.00  0.00     0.015 A 
ATOM     25  C   UNL A   1      32.627  23.690  24.314  1.00  0.00     0.053 A 
ATOM     26  C   UNL A   1      35.177  24.477  25.169  1.00  0.00     0.001 A 
ATOM     27  C   UNL A   1      33.759  23.269  23.618  1.00  0.00     0.021 A 
ATOM     28  Cl  UNL A   1      31.075  23.212  23.729  1.00  0.00    -0.083 Cl
ATOM     29  C   UNL A   1      35.032  23.643  24.059  1.00  0.00     0.002 A 
ENDBRANCH  20  23
ENDBRANCH  16  19
ENDBRANCH  13  14
ENDBRANCH   6   7
ENDBRANCH   5   6
ENDBRANCH   3   5
ENDBRANCH   2   3
ENDBRANCH   1   2
BRANCH   1  30
ATOM     30  C   UNL A   1      34.765  33.017  31.670  1.00  0.00     0.275 C 
BRANCH  30  31
ATOM     31  O   UNL A   1      35.170  31.893  30.915  1.00  0.00    -0.458 OA
BRANCH  31  32
ATOM     32  C   UNL A   1      36.415  31.444  31.203  1.00  0.00     0.338 C 
ATOM     33  O   UNL A   1      36.952  31.407  32.302  1.00  0.00    -0.246 OA
BRANCH  32  34
ATOM     34  C   UNL A   1      37.064  31.080  29.930  1.00  0.00     0.060 A 
ATOM     35  C   UNL A   1      36.819  29.738  29.685  1.00  0.00     0.016 A 
ATOM     36  C   UNL A   1      38.324  31.667  29.709  1.00  0.00     0.016 A 
ATOM     37  C   UNL A   1      37.905  28.917  29.801  1.00  0.00     0.010 A 
ATOM     38  C   UNL A   1      39.414  30.849  29.838  1.00  0.00     0.010 A 
ATOM     39  C   UNL A   1      39.178  29.488  29.984  1.00  0.00    -0.014 A 
BRANCH  39  40
ATOM     40  C   UNL A   1      40.290  28.577  29.991  1.00  0.00     0.031 A 
ATOM     41  C   UNL A   1      40.695  28.346  31.388  1.00  0.00     0.074 A 
ATOM     42  C   UNL A   1      40.850  27.995  28.923  1.00  0.00     0.049 A 
ATOM     43  N   UNL A   1      41.603  29.004  32.024  1.00  0.00    -0.248 NA
ATOM     44  C   UNL A   1      39.761  27.605  32.254  1.00  0.00     0.031 C 
ATOM     45  C   UNL A   1      40.397  27.942  27.537  1.00  0.00     0.029 A 
ATOM     46  N   UNL A   1      41.972  27.236  28.913  1.00  0.00    -0.354 N 
ATOM     47  C   UNL A   1      41.530  28.537  33.324  1.00  0.00     0.074 A 
ATOM     48  C   UNL A   1      40.223  27.959  33.452  1.00  0.00     0.031 C 
ATOM     49  C   UNL A   1      41.117  26.999  26.879  1.00  0.00     0.029 A 
ATOM     50  C   UNL A   1      42.156  26.486  27.763  1.00  0.00     0.049 A 
ATOM     51  H   UNL A   1      42.607  27.219  29.665  1.00  0.00     0.167 HD
ATOM     52  C   UNL A   1      42.669  28.351  34.039  1.00  0.00     0.034 A 
ATOM     53  C   UNL A   1      43.046  25.466  27.621  1.00  0.00     0.034 A 
ATOM     54  C   UNL A   1      43.770  29.086  33.437  1.00  0.00     0.049 A 
ATOM     55  C   UNL A   1      44.109  25.684  28.647  1.00  0.00     0.074 A 
ATOM     56  C   UNL A   1      43.981  30.418  33.125  1.00  0.00     0.029 A 
ATOM     57  N   UNL A   1      44.683  28.383  32.673  1.00  0.00    -0.354 N 
ATOM     58  N   UNL A   1      44.918  26.711  28.620  1.00  0.00    -0.248 NA
ATOM     59  C   UNL A   1      43.936  25.081  29.964  1.00  0.00     0.031 C 
ATOM     60  C   UNL A   1      44.648  30.407  31.862  1.00  0.00     0.029 A 
ATOM     61  C   UNL A   1      44.890  29.079  31.506  1.00  0.00     0.049 A 
ATOM     62  H   UNL A   1      45.110  27.532  32.922  1.00  0.00     0.167 HD
ATOM     63  C   UNL A   1      45.008  27.144  29.935  1.00  0.00     0.074 A 
ATOM     64  C   UNL A   1      44.456  26.046  30.731  1.00  0.00     0.031 C 
ATOM     65  C   UNL A   1      45.239  28.458  30.238  1.00  0.00     0.034 A 
BRANCH  52  66
ATOM     66  C   UNL A   1      42.881  27.152  34.943  1.00  0.00     0.023 A 
ATOM     67  C   UNL A   1      43.770  26.184  34.457  1.00  0.00     0.031 A 
ATOM     68  C   UNL A   1      42.074  26.745  36.033  1.00  0.00     0.131 A 
ATOM     69  C   UNL A   1      43.691  24.855  34.892  1.00  0.00     0.055 A 
ATOM     70  C   UNL A   1      42.042  25.433  36.506  1.00  0.00     0.041 A 
ATOM     71  F   UNL A   1      41.225  27.553  36.674  1.00  0.00    -0.206 F 
ATOM     72  C   UNL A   1      42.820  24.465  35.902  1.00  0.00     0.022 A 
BRANCH  69  73
ATOM     73  S   UNL A   1      44.601  23.617  33.945  1.00  0.00     0.124 S 
ATOM     74  O   UNL A   1      43.532  23.047  33.131  1.00  0.00    -0.237 OA
ATOM     75  O   UNL A   1      45.578  24.443  33.245  1.00  0.00    -0.237 OA
ATOM     76  O   UNL A   1      45.144  22.739  34.977  1.00  0.00    -0.744 OA
ENDBRANCH  69  73
ENDBRANCH  52  66
BRANCH  53  77
ATOM     77  C   UNL A   1      42.796  24.160  26.943  1.00  0.00     0.023 A 
ATOM     78  C   UNL A   1      43.723  23.555  26.068  1.00  0.00     0.031 A 
ATOM     79  C   UNL A   1      41.698  23.363  27.345  1.00  0.00     0.131 A 
ATOM     80  C   UNL A   1      43.530  22.220  25.634  1.00  0.00     0.055 A 
ATOM     81  C   UNL A   1      41.513  22.048  26.913  1.00  0.00     0.041 A 
ATOM     82  F   UNL A   1      40.804  23.805  28.243  1.00  0.00    -0.206 F 
ATOM     83  C   UNL A   1      42.434  21.467  26.061  1.00  0.00     0.022 A 
BRANCH  80  84
ATOM     84  S   UNL A   1      44.751  21.401  24.553  1.00  0.00     0.124 S 
ATOM     85  O   UNL A   1      45.990  21.571  25.301  1.00  0.00    -0.237 OA
ATOM     86  O   UNL A   1      44.226  20.044  24.459  1.00  0.00    -0.237 OA
ATOM     87  O   UNL A   1      44.676  22.171  23.310  1.00  0.00    -0.744 OA
ENDBRANCH  80  84
ENDBRANCH  53  77
BRANCH  65  88
ATOM     88  C   UNL A   1      45.714  29.380  29.130  1.00  0.00     0.023 A 
ATOM     89  C   UNL A   1      47.064  29.572  28.750  1.00  0.00     0.031 A 
ATOM     90  C   UNL A   1      44.724  30.007  28.354  1.00  0.00     0.131 A 
ATOM     91  C   UNL A   1      47.373  30.376  27.633  1.00  0.00     0.055 A 
ATOM     92  C   UNL A   1      45.033  30.785  27.239  1.00  0.00     0.041 A 
ATOM     93  F   UNL A   1      43.424  29.843  28.647  1.00  0.00    -0.206 F 
ATOM     94  C   UNL A   1      46.361  30.978  26.878  1.00  0.00     0.022 A 
BRANCH  91  95
ATOM     95  S   UNL A   1      49.106  30.675  27.150  1.00  0.00     0.124 S 
ATOM     96  O   UNL A   1      49.066  31.987  26.516  1.00  0.00    -0.237 OA
ATOM     97  O   UNL A   1      49.808  30.608  28.430  1.00  0.00    -0.237 OA
ATOM     98  O   UNL A   1      49.402  29.567  26.239  1.00  0.00    -0.744 OA
ENDBRANCH  91  95
ENDBRANCH  65  88
ENDBRANCH  39  40
ENDBRANCH  32  34
ENDBRANCH  31  32
ENDBRANCH  30  31
ENDBRANCH   1  30
TORSDOF 19
ENDMDL
MODEL 2
REMARK VINA RESULT:     -11.8      1.739      2.175
REMARK SMILES O=C(CC[NH+]1CCC(n2nccc2NC(=O)c2ccccc2Cl)CC1)OCCOC(=O)c1ccc(-c2c3nc(c(-c4cc(S(=O)(=O)[O-])ccc4F)c4ccc([nH]4)c(-c4cc(S(=O)(=O)[O-])ccc4F)c4nc(c(-c5cc(S(=O)(=O)[O-])ccc5F)c5ccc2[nH]5)C=C4)C=C3)cc1
REMARK SMILES IDX 27 1 26 2 2 3 1 4 3 5 4 6 5 7 6 8 25 9 7 11 24 12 8 13 9 14
REMARK SMILES IDX 10 15 13 16 11 17 12 18 14 19 15 20 16 22 17 23 18 24 22 25
REMARK SMILES IDX 19 26 21 27 23 28 20 29 28 30 29 31 30 32 31 33 32 34 33 35
REMARK SMILES IDX 94 36 34 37 93 38 35 39 36 40 37 41 87 42 38 43 92 44 86 45
REMARK SMILES IDX 88 46 39 47 91 48 85 49 84 50 40 52 72 53 52 54 71 55 53 56
REMARK SMILES IDX 56 57 70 58 89 59 54 60 55 61 69 63 90 64 57 65 41 66 42 67
REMARK SMILES IDX 50 68 43 69 49 70 51 71 48 72 44 73 45 74 46 75 47 76 73 77
REMARK SMILES IDX 74 78 82 79 75 80 81 81 83 82 80 83 76 84 77 85 78 86 79 87
REMARK SMILES IDX 58 88 59 89 67 90 60 91 66 92 68 93 65 94 61 95 62 96 63 97
REMARK SMILES IDX 64 98
REMARK H PARENT 5 10 14 21 88 51 56 62
REMARK Flexibility Score: inf
ROOT
ATOM      1  C   UNL A   1      34.310  34.175  29.523  1.00  0.00     0.274 C 
ENDROOT
BRANCH   1   2
ATOM      2  O   UNL A   1      34.241  33.332  28.344  1.00  0.00    -0.462 OA
BRANCH   2   3
ATOM      3  C   UNL A   1      33.125  32.829  27.748  1.00  0.00     0.311 C 
ATOM      4  O   UNL A   1      32.184  33.570  27.468  1.00  0.00    -0.252 OA
BRANCH   3   5
ATOM      5  C   UNL A   1      33.081  31.375  27.338  1.00  0.00     0.184 C 
BRANCH   5   6
ATOM      6  C   UNL A   1      31.792  30.992  26.597  1.00  0.00     0.274 C 
BRANCH   6   7
ATOM      7  N   UNL A   1      31.834  29.604  26.120  1.00  0.00    -0.334 N 
ATOM      8  C   UNL A   1      32.950  29.305  25.217  1.00  0.00     0.264 C 
ATOM      9  C   UNL A   1      31.856  28.622  27.207  1.00  0.00     0.264 C 
ATOM     10  H   UNL A   1      30.963  29.522  25.596  1.00  0.00     0.348 HD
ATOM     11  C   UNL A   1      32.746  27.911  24.584  1.00  0.00     0.089 C 
ATOM     12  C   UNL A   1      31.273  27.381  26.569  1.00  0.00     0.089 C 
ATOM     13  C   UNL A   1      32.270  26.825  25.579  1.00  0.00     0.121 C 
BRANCH  13  14
ATOM     14  N   UNL A   1      31.821  25.616  24.893  1.00  0.00    -0.246 N 
ATOM     15  N   UNL A   1      31.701  25.730  23.550  1.00  0.00    -0.179 NA
ATOM     16  C   UNL A   1      31.509  24.337  25.347  1.00  0.00     0.131 A 
ATOM     17  C   UNL A   1      31.143  24.586  23.172  1.00  0.00     0.137 A 
ATOM     18  C   UNL A   1      30.928  23.724  24.256  1.00  0.00     0.069 A 
BRANCH  16  19
ATOM     19  N   UNL A   1      31.697  23.783  26.613  1.00  0.00    -0.307 N 
ATOM     20  C   UNL A   1      32.734  22.914  27.091  1.00  0.00     0.258 C 
ATOM     21  H   UNL A   1      31.014  24.025  27.280  1.00  0.00     0.171 HD
ATOM     22  O   UNL A   1      32.594  22.516  28.235  1.00  0.00    -0.269 OA
BRANCH  20  23
ATOM     23  C   UNL A   1      33.864  22.502  26.262  1.00  0.00     0.058 A 
ATOM     24  C   UNL A   1      35.047  23.247  26.363  1.00  0.00     0.015 A 
ATOM     25  C   UNL A   1      33.810  21.350  25.473  1.00  0.00     0.053 A 
ATOM     26  C   UNL A   1      36.210  22.768  25.762  1.00  0.00     0.001 A 
ATOM     27  C   UNL A   1      34.982  20.869  24.889  1.00  0.00     0.021 A 
ATOM     28  Cl  UNL A   1      32.349  20.463  25.237  1.00  0.00    -0.083 Cl
ATOM     29  C   UNL A   1      36.183  21.566  25.054  1.00  0.00     0.002 A 
ENDBRANCH  20  23
ENDBRANCH  16  19
ENDBRANCH  13  14
ENDBRANCH   6   7
ENDBRANCH   5   6
ENDBRANCH   3   5
ENDBRANCH   2   3
ENDBRANCH   1   2
BRANCH   1  30
ATOM     30  C   UNL A   1      34.790  33.462  30.771  1.00  0.00     0.275 C 
BRANCH  30  31
ATOM     31  O   UNL A   1      34.716  32.079  30.492  1.00  0.00    -0.458 OA
BRANCH  31  32
ATOM     32  C   UNL A   1      35.837  31.385  30.801  1.00  0.00     0.338 C 
ATOM     33  O   UNL A   1      36.268  31.134  31.918  1.00  0.00    -0.246 OA
BRANCH  32  34
ATOM     34  C   UNL A   1      36.517  31.049  29.536  1.00  0.00     0.060 A 
ATOM     35  C   UNL A   1      36.450  29.675  29.358  1.00  0.00     0.016 A 
ATOM     36  C   UNL A   1      37.685  31.786  29.267  1.00  0.00     0.016 A 
ATOM     37  C   UNL A   1      37.638  29.013  29.496  1.00  0.00     0.010 A 
ATOM     38  C   UNL A   1      38.876  31.127  29.416  1.00  0.00     0.010 A 
ATOM     39  C   UNL A   1      38.824  29.756  29.630  1.00  0.00    -0.014 A 
BRANCH  39  40
ATOM     40  C   UNL A   1      40.049  29.002  29.663  1.00  0.00     0.031 A 
ATOM     41  C   UNL A   1      40.468  28.853  31.066  1.00  0.00     0.074 A 
ATOM     42  C   UNL A   1      40.690  28.480  28.609  1.00  0.00     0.049 A 
ATOM     43  N   UNL A   1      41.274  29.639  31.695  1.00  0.00    -0.248 NA
ATOM     44  C   UNL A   1      39.635  28.010  31.941  1.00  0.00     0.031 C 
ATOM     45  C   UNL A   1      40.261  28.341  27.222  1.00  0.00     0.029 A 
ATOM     46  N   UNL A   1      41.903  27.878  28.621  1.00  0.00    -0.354 N 
ATOM     47  C   UNL A   1      41.253  29.190  33.003  1.00  0.00     0.074 A 
ATOM     48  C   UNL A   1      40.034  28.446  33.135  1.00  0.00     0.031 C 
ATOM     49  C   UNL A   1      41.106  27.490  26.588  1.00  0.00     0.029 A 
ATOM     50  C   UNL A   1      42.196  27.137  27.487  1.00  0.00     0.049 A 
ATOM     51  H   UNL A   1      42.528  27.960  29.377  1.00  0.00     0.167 HD
ATOM     52  C   UNL A   1      42.401  29.173  33.729  1.00  0.00     0.034 A 
ATOM     53  C   UNL A   1      43.216  26.243  27.372  1.00  0.00     0.034 A 
ATOM     54  C   UNL A   1      43.399  30.037  33.118  1.00  0.00     0.049 A 
ATOM     55  C   UNL A   1      44.231  26.620  28.399  1.00  0.00     0.074 A 
ATOM     56  C   UNL A   1      43.433  31.379  32.782  1.00  0.00     0.029 A 
ATOM     57  N   UNL A   1      44.404  29.448  32.374  1.00  0.00    -0.354 N 
ATOM     58  N   UNL A   1      44.896  27.745  28.357  1.00  0.00    -0.248 NA
ATOM     59  C   UNL A   1      44.128  26.025  29.727  1.00  0.00     0.031 C 
ATOM     60  C   UNL A   1      44.107  31.433  31.524  1.00  0.00     0.029 A 
ATOM     61  C   UNL A   1      44.527  30.143  31.195  1.00  0.00     0.049 A 
ATOM     62  H   UNL A   1      44.939  28.667  32.643  1.00  0.00     0.167 HD
ATOM     63  C   UNL A   1      44.915  28.211  29.664  1.00  0.00     0.074 A 
ATOM     64  C   UNL A   1      44.508  27.065  30.478  1.00  0.00     0.031 C 
ATOM     65  C   UNL A   1      44.967  29.550  29.942  1.00  0.00     0.034 A 
BRANCH  52  66
ATOM     66  C   UNL A   1      42.763  28.030  34.657  1.00  0.00     0.023 A 
ATOM     67  C   UNL A   1      43.759  27.165  34.184  1.00  0.00     0.031 A 
ATOM     68  C   UNL A   1      42.020  27.554  35.764  1.00  0.00     0.131 A 
ATOM     69  C   UNL A   1      43.844  25.846  34.650  1.00  0.00     0.055 A 
ATOM     70  C   UNL A   1      42.150  26.260  36.268  1.00  0.00     0.041 A 
ATOM     71  F   UNL A   1      41.084  28.270  36.397  1.00  0.00    -0.206 F 
ATOM     72  C   UNL A   1      43.035  25.379  35.679  1.00  0.00     0.022 A 
BRANCH  69  73
ATOM     73  S   UNL A   1      44.890  24.705  33.723  1.00  0.00     0.124 S 
ATOM     74  O   UNL A   1      45.943  25.604  33.261  1.00  0.00    -0.237 OA
ATOM     75  O   UNL A   1      45.266  23.746  34.756  1.00  0.00    -0.237 OA
ATOM     76  O   UNL A   1      43.995  24.197  32.688  1.00  0.00    -0.744 OA
ENDBRANCH  69  73
ENDBRANCH  52  66
BRANCH  53  77
ATOM     77  C   UNL A   1      43.148  24.903  26.718  1.00  0.00     0.023 A 
ATOM     78  C   UNL A   1      42.201  23.918  27.075  1.00  0.00     0.031 A 
ATOM     79  C   UNL A   1      43.895  24.659  25.542  1.00  0.00     0.131 A 
ATOM     80  C   UNL A   1      42.039  22.760  26.275  1.00  0.00     0.055 A 
ATOM     81  C   UNL A   1      43.731  23.515  24.758  1.00  0.00     0.041 A 
ATOM     82  F   UNL A   1      44.758  25.568  25.061  1.00  0.00    -0.206 F 
ATOM     83  C   UNL A   1      42.795  22.563  25.117  1.00  0.00     0.022 A 
BRANCH  80  84
ATOM     84  S   UNL A   1      40.776  21.508  26.686  1.00  0.00     0.124 S 
ATOM     85  O   UNL A   1      40.757  21.555  28.142  1.00  0.00    -0.237 OA
ATOM     86  O   UNL A   1      39.595  22.018  26.000  1.00  0.00    -0.237 OA
ATOM     87  O   UNL A   1      41.325  20.274  26.120  1.00  0.00    -0.744 OA
ENDBRANCH  80  84
ENDBRANCH  53  77
BRANCH  65  88
ATOM     88  C   UNL A   1      45.324  30.507  28.819  1.00  0.00     0.023 A 
ATOM     89  C   UNL A   1      46.636  30.918  28.483  1.00  0.00     0.031 A 
ATOM     90  C   UNL A   1      44.276  30.928  27.982  1.00  0.00     0.131 A 
ATOM     91  C   UNL A   1      46.851  31.730  27.350  1.00  0.00     0.055 A 
ATOM     92  C   UNL A   1      44.495  31.713  26.851  1.00  0.00     0.041 A 
ATOM     93  F   UNL A   1      43.012  30.549  28.232  1.00  0.00    -0.206 F 
ATOM     94  C   UNL A   1      45.784  32.123  26.534  1.00  0.00     0.022 A 
BRANCH  91  95
ATOM     95  S   UNL A   1      48.526  32.311  26.922  1.00  0.00     0.124 S 
ATOM     96  O   UNL A   1      49.208  31.100  26.483  1.00  0.00    -0.237 OA
ATOM     97  O   UNL A   1      48.261  33.304  25.884  1.00  0.00    -0.237 OA
ATOM     98  O   UNL A   1      49.025  32.869  28.181  1.00  0.00    -0.744 OA
ENDBRANCH  91  95
ENDBRANCH  65  88
ENDBRANCH  39  40
ENDBRANCH  32  34
ENDBRANCH  31  32
ENDBRANCH  30  31
ENDBRANCH   1  30
TORSDOF 19
ENDMDL
MODEL 3
REMARK VINA RESULT:     -11.8      1.910      2.249
REMARK SMILES O=C(CC[NH+]1CCC(n2nccc2NC(=O)c2ccccc2Cl)CC1)OCCOC(=O)c1ccc(-c2c3nc(c(-c4cc(S(=O)(=O)[O-])ccc4F)c4ccc([nH]4)c(-c4cc(S(=O)(=O)[O-])ccc4F)c4nc(c(-c5cc(S(=O)(=O)[O-])ccc5F)c5ccc2[nH]5)C=C4)C=C3)cc1
REMARK SMILES IDX 27 1 26 2 2 3 1 4 3 5 4 6 5 7 6 8 25 9 7 11 24 12 8 13 9 14
REMARK SMILES IDX 10 15 13 16 11 17 12 18 14 19 15 20 16 22 17 23 18 24 22 25
REMARK SMILES IDX 19 26 21 27 23 28 20 29 28 30 29 31 30 32 31 33 32 34 33 35
REMARK SMILES IDX 94 36 34 37 93 38 35 39 36 40 37 41 87 42 38 43 92 44 86 45
REMARK SMILES IDX 88 46 39 47 91 48 85 49 84 50 40 52 72 53 52 54 71 55 53 56
REMARK SMILES IDX 56 57 70 58 89 59 54 60 55 61 69 63 90 64 57 65 41 66 42 67
REMARK SMILES IDX 50 68 43 69 49 70 51 71 48 72 44 73 45 74 46 75 47 76 73 77
REMARK SMILES IDX 74 78 82 79 75 80 81 81 83 82 80 83 76 84 77 85 78 86 79 87
REMARK SMILES IDX 58 88 59 89 67 90 60 91 66 92 68 93 65 94 61 95 62 96 63 97
REMARK SMILES IDX 64 98
REMARK H PARENT 5 10 14 21 88 51 56 62
REMARK Flexibility Score: inf
ROOT
ATOM      1  C   UNL A   1      34.804  32.663  31.867  1.00  0.00     0.274 C 
ENDROOT
BRANCH   1   2
ATOM      2  O   UNL A   1      34.691  32.461  30.435  1.00  0.00    -0.462 OA
BRANCH   2   3
ATOM      3  C   UNL A   1      34.558  33.413  29.470  1.00  0.00     0.311 C 
ATOM      4  O   UNL A   1      34.305  34.577  29.780  1.00  0.00    -0.252 OA
BRANCH   3   5
ATOM      5  C   UNL A   1      34.819  33.061  28.025  1.00  0.00     0.184 C 
BRANCH   5   6
ATOM      6  C   UNL A   1      35.424  31.662  27.841  1.00  0.00     0.274 C 
BRANCH   6   7
ATOM      7  N   UNL A   1      34.468  30.738  27.217  1.00  0.00    -0.334 N 
ATOM      8  C   UNL A   1      34.693  29.324  27.536  1.00  0.00     0.264 C 
ATOM      9  C   UNL A   1      33.072  31.055  27.529  1.00  0.00     0.264 C 
ATOM     10  H   UNL A   1      34.641  30.876  26.222  1.00  0.00     0.348 HD
ATOM     11  C   UNL A   1      33.806  28.440  26.632  1.00  0.00     0.089 C 
ATOM     12  C   UNL A   1      32.310  30.461  26.366  1.00  0.00     0.089 C 
ATOM     13  C   UNL A   1      32.355  28.954  26.469  1.00  0.00     0.121 C 
BRANCH  13  14
ATOM     14  N   UNL A   1      31.649  28.260  25.395  1.00  0.00    -0.246 N 
ATOM     15  N   UNL A   1      31.655  28.895  24.200  1.00  0.00    -0.179 NA
ATOM     16  C   UNL A   1      30.977  27.040  25.345  1.00  0.00     0.131 A 
ATOM     17  C   UNL A   1      30.840  28.172  23.441  1.00  0.00     0.137 A 
ATOM     18  C   UNL A   1      30.330  27.062  24.126  1.00  0.00     0.069 A 
BRANCH  16  19
ATOM     19  N   UNL A   1      30.925  26.026  26.300  1.00  0.00    -0.307 N 
ATOM     20  C   UNL A   1      31.695  24.819  26.402  1.00  0.00     0.258 C 
ATOM     21  H   UNL A   1      30.258  26.158  27.012  1.00  0.00     0.171 HD
ATOM     22  O   UNL A   1      31.369  24.069  27.307  1.00  0.00    -0.269 OA
BRANCH  20  23
ATOM     23  C   UNL A   1      32.772  24.488  25.473  1.00  0.00     0.058 A 
ATOM     24  C   UNL A   1      34.083  24.793  25.866  1.00  0.00     0.015 A 
ATOM     25  C   UNL A   1      32.524  23.801  24.281  1.00  0.00     0.053 A 
ATOM     26  C   UNL A   1      35.152  24.303  25.116  1.00  0.00     0.001 A 
ATOM     27  C   UNL A   1      33.600  23.301  23.547  1.00  0.00     0.021 A 
ATOM     28  Cl  UNL A   1      30.925  23.498  23.708  1.00  0.00    -0.083 Cl
ATOM     29  C   UNL A   1      34.910  23.533  23.978  1.00  0.00     0.002 A 
ENDBRANCH  20  23
ENDBRANCH  16  19
ENDBRANCH  13  14
ENDBRANCH   6   7
ENDBRANCH   5   6
ENDBRANCH   3   5
ENDBRANCH   2   3
ENDBRANCH   1   2
BRANCH   1  30
ATOM     30  C   UNL A   1      35.890  31.840  32.529  1.00  0.00     0.275 C 
BRANCH  30  31
ATOM     31  O   UNL A   1      36.747  31.405  31.492  1.00  0.00    -0.458 OA
BRANCH  31  32
ATOM     32  C   UNL A   1      37.968  31.989  31.494  1.00  0.00     0.338 C 
ATOM     33  O   UNL A   1      38.416  32.767  32.325  1.00  0.00    -0.246 OA
BRANCH  32  34
ATOM     34  C   UNL A   1      38.655  31.590  30.251  1.00  0.00     0.060 A 
ATOM     35  C   UNL A   1      38.240  30.311  29.916  1.00  0.00     0.016 A 
ATOM     36  C   UNL A   1      40.000  31.994  30.152  1.00  0.00     0.016 A 
ATOM     37  C   UNL A   1      39.186  29.335  30.063  1.00  0.00     0.010 A 
ATOM     38  C   UNL A   1      40.948  31.020  30.311  1.00  0.00     0.010 A 
ATOM     39  C   UNL A   1      40.509  29.704  30.365  1.00  0.00    -0.014 A 
BRANCH  39  40
ATOM     40  C   UNL A   1      41.475  28.639  30.400  1.00  0.00     0.031 A 
ATOM     41  C   UNL A   1      41.795  28.346  31.806  1.00  0.00     0.074 A 
ATOM     42  C   UNL A   1      41.978  27.987  29.344  1.00  0.00     0.049 A 
ATOM     43  N   UNL A   1      42.768  28.862  32.478  1.00  0.00    -0.248 NA
ATOM     44  C   UNL A   1      40.736  27.746  32.636  1.00  0.00     0.031 C 
ATOM     45  C   UNL A   1      41.569  28.006  27.945  1.00  0.00     0.029 A 
ATOM     46  N   UNL A   1      42.977  27.071  29.364  1.00  0.00    -0.354 N 
ATOM     47  C   UNL A   1      42.585  28.404  33.770  1.00  0.00     0.074 A 
ATOM     48  C   UNL A   1      41.204  28.024  33.851  1.00  0.00     0.031 C 
ATOM     49  C   UNL A   1      42.165  26.970  27.302  1.00  0.00     0.029 A 
ATOM     50  C   UNL A   1      43.087  26.307  28.213  1.00  0.00     0.049 A 
ATOM     51  H   UNL A   1      43.577  26.958  30.136  1.00  0.00     0.167 HD
ATOM     52  C   UNL A   1      43.660  28.051  34.520  1.00  0.00     0.034 A 
ATOM     53  C   UNL A   1      43.823  25.169  28.092  1.00  0.00     0.034 A 
ATOM     54  C   UNL A   1      44.877  28.620  33.959  1.00  0.00     0.049 A 
ATOM     55  C   UNL A   1      44.872  25.224  29.153  1.00  0.00     0.074 A 
ATOM     56  C   UNL A   1      45.290  29.908  33.666  1.00  0.00     0.029 A 
ATOM     57  N   UNL A   1      45.701  27.794  33.219  1.00  0.00    -0.354 N 
ATOM     58  N   UNL A   1      45.823  26.121  29.161  1.00  0.00    -0.248 NA
ATOM     59  C   UNL A   1      44.569  24.648  30.458  1.00  0.00     0.031 C 
ATOM     60  C   UNL A   1      45.990  29.804  32.426  1.00  0.00     0.029 A 
ATOM     61  C   UNL A   1      46.047  28.457  32.065  1.00  0.00     0.049 A 
ATOM     62  H   UNL A   1      45.991  26.889  33.474  1.00  0.00     0.167 HD
ATOM     63  C   UNL A   1      45.931  26.531  30.482  1.00  0.00     0.074 A 
ATOM     64  C   UNL A   1      45.199  25.523  31.250  1.00  0.00     0.031 C 
ATOM     65  C   UNL A   1      46.343  27.796  30.804  1.00  0.00     0.034 A 
BRANCH  52  66
ATOM     66  C   UNL A   1      43.665  26.830  35.419  1.00  0.00     0.023 A 
ATOM     67  C   UNL A   1      44.044  27.065  36.748  1.00  0.00     0.031 A 
ATOM     68  C   UNL A   1      43.647  25.472  35.021  1.00  0.00     0.131 A 
ATOM     69  C   UNL A   1      44.571  26.033  37.535  1.00  0.00     0.055 A 
ATOM     70  C   UNL A   1      44.115  24.437  35.832  1.00  0.00     0.041 A 
ATOM     71  F   UNL A   1      43.240  25.052  33.820  1.00  0.00    -0.206 F 
ATOM     72  C   UNL A   1      44.627  24.720  37.082  1.00  0.00     0.022 A 
BRANCH  69  73
ATOM     73  S   UNL A   1      45.380  26.499  39.079  1.00  0.00     0.124 S 
ATOM     74  O   UNL A   1      44.838  27.839  39.285  1.00  0.00    -0.237 OA
ATOM     75  O   UNL A   1      44.903  25.461  39.986  1.00  0.00    -0.237 OA
ATOM     76  O   UNL A   1      46.800  26.438  38.745  1.00  0.00    -0.744 OA
ENDBRANCH  69  73
ENDBRANCH  52  66
BRANCH  53  77
ATOM     77  C   UNL A   1      43.407  23.916  27.394  1.00  0.00     0.023 A 
ATOM     78  C   UNL A   1      44.240  23.225  26.488  1.00  0.00     0.031 A 
ATOM     79  C   UNL A   1      42.230  23.246  27.804  1.00  0.00     0.131 A 
ATOM     80  C   UNL A   1      43.882  21.931  26.033  1.00  0.00     0.055 A 
ATOM     81  C   UNL A   1      41.882  21.972  27.351  1.00  0.00     0.041 A 
ATOM     82  F   UNL A   1      41.412  23.772  28.729  1.00  0.00    -0.206 F 
ATOM     83  C   UNL A   1      42.712  21.304  26.469  1.00  0.00     0.022 A 
BRANCH  80  84
ATOM     84  S   UNL A   1      44.977  20.997  24.912  1.00  0.00     0.124 S 
ATOM     85  O   UNL A   1      44.452  21.353  23.600  1.00  0.00    -0.237 OA
ATOM     86  O   UNL A   1      46.294  21.521  25.253  1.00  0.00    -0.237 OA
ATOM     87  O   UNL A   1      44.754  19.603  25.302  1.00  0.00    -0.744 OA
ENDBRANCH  80  84
ENDBRANCH  53  77
BRANCH  65  88
ATOM     88  C   UNL A   1      46.984  28.644  29.720  1.00  0.00     0.023 A 
ATOM     89  C   UNL A   1      46.284  29.330  28.700  1.00  0.00     0.031 A 
ATOM     90  C   UNL A   1      48.372  28.848  29.807  1.00  0.00     0.131 A 
ATOM     91  C   UNL A   1      46.983  30.173  27.811  1.00  0.00     0.055 A 
ATOM     92  C   UNL A   1      49.056  29.698  28.939  1.00  0.00     0.041 A 
ATOM     93  F   UNL A   1      49.089  28.247  30.770  1.00  0.00    -0.206 F 
ATOM     94  C   UNL A   1      48.363  30.359  27.932  1.00  0.00     0.022 A 
BRANCH  91  95
ATOM     95  S   UNL A   1      46.110  31.032  26.459  1.00  0.00     0.124 S 
ATOM     96  O   UNL A   1      44.748  31.166  26.959  1.00  0.00    -0.237 OA
ATOM     97  O   UNL A   1      46.867  32.275  26.333  1.00  0.00    -0.237 OA
ATOM     98  O   UNL A   1      46.255  30.117  25.324  1.00  0.00    -0.744 OA
ENDBRANCH  91  95
ENDBRANCH  65  88
ENDBRANCH  39  40
ENDBRANCH  32  34
ENDBRANCH  31  32
ENDBRANCH  30  31
ENDBRANCH   1  30
TORSDOF 19
ENDMDL
