MODEL 1
REMARK VINA RESULT:     -12.8      0.000      0.000
REMARK SMILES CS(=O)(=O)c1ccc(C2=NN(c3ccc(C(=O)OCCOC(=O)c4ccc(-c5c6nc(c(-c7cc(S(=O)(=O)[O-])ccc7F)c7ccc([nH]7)c(-c7cc(S(=O)(=O)[O-])ccc7F)c7nc(c(-c8cc(S(=O)(=O)[O-])ccc8F)c8ccc5[nH]8)C=C7)C=C6)cc4)cc3)[C@H](c3ccc(F)cc3)C2)cc1
REMARK SMILES IDX 19 1 18 2 16 3 17 4 15 5 12 6 13 7 88 8 14 9 87 10 11 11
REMARK SMILES IDX 9 12 10 13 97 14 89 15 8 16 5 17 6 18 99 19 7 20 98 21 2 22
REMARK SMILES IDX 1 23 3 24 4 25 90 26 91 27 96 28 92 29 95 30 93 31 94 32
REMARK SMILES IDX 20 33 21 34 22 35 23 36 24 37 25 38 86 39 26 40 85 41 27 42
REMARK SMILES IDX 28 43 29 44 79 45 30 46 84 47 78 48 80 49 31 50 83 51 77 52
REMARK SMILES IDX 76 53 32 55 64 56 44 57 63 58 45 59 48 60 62 61 81 62 46 63
REMARK SMILES IDX 47 64 61 66 82 67 49 68 33 69 34 70 42 71 35 72 41 73 43 74
REMARK SMILES IDX 40 75 36 76 37 77 38 78 39 79 65 80 66 81 74 82 67 83 73 84
REMARK SMILES IDX 75 85 72 86 68 87 69 88 70 89 71 90 50 91 51 92 59 93 52 94
REMARK SMILES IDX 58 95 60 96 57 97 53 98 54 99 55 100 56 101
REMARK H PARENT 80 54 48 65
REMARK Flexibility Score: inf
ROOT
ATOM      1  C   UNL A   1      32.802  31.609  27.545  1.00  0.00     0.275 C 
ENDROOT
BRANCH   1   2
ATOM      2  O   UNL A   1      34.224  31.400  27.451  1.00  0.00    -0.458 OA
BRANCH   2   3
ATOM      3  C   UNL A   1      34.642  30.122  27.624  1.00  0.00     0.338 C 
ATOM      4  O   UNL A   1      35.537  29.749  28.365  1.00  0.00    -0.246 OA
BRANCH   3   5
ATOM      5  C   UNL A   1      33.831  29.176  26.816  1.00  0.00     0.060 A 
ATOM      6  C   UNL A   1      32.385  27.209  25.427  1.00  0.00     0.060 A 
ATOM      7  C   UNL A   1      32.089  27.485  26.763  1.00  0.00     0.029 A 
ATOM      8  C   UNL A   1      33.359  27.980  24.774  1.00  0.00     0.029 A 
ATOM      9  C   UNL A   1      32.832  28.433  27.462  1.00  0.00     0.018 A 
ATOM     10  C   UNL A   1      34.078  28.965  25.458  1.00  0.00     0.018 A 
BRANCH   6  11
ATOM     11  N   UNL A   1      31.855  26.084  24.794  1.00  0.00    -0.257 N 
ATOM     12  C   UNL A   1      32.168  24.081  24.131  1.00  0.00     0.071 C 
ATOM     13  N   UNL A   1      32.271  24.851  25.170  1.00  0.00    -0.176 NA
ATOM     14  C   UNL A   1      31.742  24.759  22.856  1.00  0.00     0.091 C 
ATOM     15  C   UNL A   1      31.506  26.186  23.370  1.00  0.00     0.144 C 
BRANCH  12  16
ATOM     16  C   UNL A   1      32.424  22.628  24.198  1.00  0.00    -0.002 A 
ATOM     17  C   UNL A   1      32.904  19.880  24.197  1.00  0.00     0.067 A 
ATOM     18  C   UNL A   1      32.603  20.529  22.998  1.00  0.00     0.021 A 
ATOM     19  C   UNL A   1      32.949  20.593  25.401  1.00  0.00     0.021 A 
ATOM     20  C   UNL A   1      32.352  21.901  23.004  1.00  0.00     0.011 A 
ATOM     21  C   UNL A   1      32.722  21.976  25.400  1.00  0.00     0.011 A 
BRANCH  17  22
ATOM     22  S   UNL A   1      33.229  18.132  24.171  1.00  0.00     0.175 S 
ATOM     23  C   UNL A   1      32.617  17.527  25.719  1.00  0.00     0.163 C 
ATOM     24  O   UNL A   1      34.671  17.955  24.208  1.00  0.00    -0.224 OA
ATOM     25  O   UNL A   1      32.420  17.557  23.118  1.00  0.00    -0.224 OA
ENDBRANCH  17  22
ENDBRANCH  12  16
BRANCH  15  26
ATOM     26  C   UNL A   1      30.107  26.785  23.269  1.00  0.00    -0.023 A 
ATOM     27  C   UNL A   1      28.978  26.210  23.869  1.00  0.00     0.009 A 
ATOM     28  C   UNL A   1      29.974  28.067  22.686  1.00  0.00     0.009 A 
ATOM     29  C   UNL A   1      27.761  26.898  23.899  1.00  0.00     0.039 A 
ATOM     30  C   UNL A   1      28.769  28.766  22.745  1.00  0.00     0.039 A 
ATOM     31  C   UNL A   1      27.673  28.175  23.355  1.00  0.00     0.123 A 
ATOM     32  F   UNL A   1      26.520  28.852  23.439  1.00  0.00    -0.207 F 
ENDBRANCH  15  26
ENDBRANCH   6  11
ENDBRANCH   3   5
ENDBRANCH   2   3
ENDBRANCH   1   2
BRANCH   1  33
ATOM     33  C   UNL A   1      32.437  33.065  27.261  1.00  0.00     0.275 C 
BRANCH  33  34
ATOM     34  O   UNL A   1      33.524  33.936  27.621  1.00  0.00    -0.458 OA
BRANCH  34  35
ATOM     35  C   UNL A   1      33.408  34.529  28.833  1.00  0.00     0.338 C 
ATOM     36  O   UNL A   1      32.476  35.201  29.240  1.00  0.00    -0.246 OA
BRANCH  35  37
ATOM     37  C   UNL A   1      34.571  34.190  29.666  1.00  0.00     0.060 A 
ATOM     38  C   UNL A   1      35.838  34.387  29.132  1.00  0.00     0.016 A 
ATOM     39  C   UNL A   1      34.421  33.532  30.884  1.00  0.00     0.016 A 
ATOM     40  C   UNL A   1      36.959  33.846  29.753  1.00  0.00     0.010 A 
ATOM     41  C   UNL A   1      35.562  33.080  31.563  1.00  0.00     0.010 A 
ATOM     42  C   UNL A   1      36.842  33.194  30.988  1.00  0.00    -0.014 A 
BRANCH  42  43
ATOM     43  C   UNL A   1      38.048  32.596  31.635  1.00  0.00     0.031 A 
ATOM     44  C   UNL A   1      38.796  31.474  30.958  1.00  0.00     0.074 A 
ATOM     45  C   UNL A   1      38.494  33.065  32.818  1.00  0.00     0.049 A 
ATOM     46  N   UNL A   1      39.749  30.708  31.424  1.00  0.00    -0.248 NA
ATOM     47  C   UNL A   1      38.396  31.162  29.579  1.00  0.00     0.031 C 
ATOM     48  C   UNL A   1      37.898  34.175  33.567  1.00  0.00     0.029 A 
ATOM     49  N   UNL A   1      39.553  32.674  33.602  1.00  0.00    -0.354 N 
ATOM     50  C   UNL A   1      40.027  29.787  30.416  1.00  0.00     0.074 A 
ATOM     51  C   UNL A   1      39.116  30.079  29.329  1.00  0.00     0.031 C 
ATOM     52  C   UNL A   1      38.614  34.394  34.678  1.00  0.00     0.029 A 
ATOM     53  C   UNL A   1      39.656  33.378  34.779  1.00  0.00     0.049 A 
ATOM     54  H   UNL A   1      40.179  31.958  33.345  1.00  0.00     0.167 HD
ATOM     55  C   UNL A   1      40.956  28.796  30.402  1.00  0.00     0.034 A 
ATOM     56  C   UNL A   1      40.452  33.199  35.852  1.00  0.00     0.034 A 
ATOM     57  C   UNL A   1      41.880  28.546  31.486  1.00  0.00     0.049 A 
ATOM     58  C   UNL A   1      41.441  32.065  35.842  1.00  0.00     0.074 A 
ATOM     59  C   UNL A   1      42.874  27.585  31.571  1.00  0.00     0.029 A 
ATOM     60  N   UNL A   1      41.925  29.263  32.678  1.00  0.00    -0.354 N 
ATOM     61  N   UNL A   1      41.660  31.170  34.906  1.00  0.00    -0.248 NA
ATOM     62  C   UNL A   1      42.285  31.914  37.033  1.00  0.00     0.031 C 
ATOM     63  C   UNL A   1      43.468  27.675  32.836  1.00  0.00     0.029 A 
ATOM     64  C   UNL A   1      42.906  28.746  33.513  1.00  0.00     0.049 A 
ATOM     65  H   UNL A   1      41.344  30.028  32.897  1.00  0.00     0.167 HD
ATOM     66  C   UNL A   1      42.674  30.352  35.394  1.00  0.00     0.074 A 
ATOM     67  C   UNL A   1      43.041  30.880  36.692  1.00  0.00     0.031 C 
ATOM     68  C   UNL A   1      43.247  29.263  34.820  1.00  0.00     0.034 A 
BRANCH  55  69
ATOM     69  C   UNL A   1      40.966  27.871  29.201  1.00  0.00     0.023 A 
ATOM     70  C   UNL A   1      41.901  28.004  28.159  1.00  0.00     0.031 A 
ATOM     71  C   UNL A   1      39.981  26.874  29.071  1.00  0.00     0.131 A 
ATOM     72  C   UNL A   1      41.770  27.228  26.996  1.00  0.00     0.055 A 
ATOM     73  C   UNL A   1      39.916  26.039  27.953  1.00  0.00     0.041 A 
ATOM     74  F   UNL A   1      39.046  26.706  30.020  1.00  0.00    -0.206 F 
ATOM     75  C   UNL A   1      40.800  26.228  26.896  1.00  0.00     0.022 A 
BRANCH  72  76
ATOM     76  S   UNL A   1      42.763  27.670  25.542  1.00  0.00     0.124 S 
ATOM     77  O   UNL A   1      44.053  27.985  26.153  1.00  0.00    -0.237 OA
ATOM     78  O   UNL A   1      42.712  26.451  24.745  1.00  0.00    -0.237 OA
ATOM     79  O   UNL A   1      42.054  28.816  24.979  1.00  0.00    -0.744 OA
ENDBRANCH  72  76
ENDBRANCH  55  69
BRANCH  56  80
ATOM     80  C   UNL A   1      40.279  34.062  37.057  1.00  0.00     0.023 A 
ATOM     81  C   UNL A   1      41.161  35.118  37.337  1.00  0.00     0.031 A 
ATOM     82  C   UNL A   1      39.216  33.837  37.951  1.00  0.00     0.131 A 
ATOM     83  C   UNL A   1      40.974  35.895  38.492  1.00  0.00     0.055 A 
ATOM     84  C   UNL A   1      39.002  34.646  39.067  1.00  0.00     0.041 A 
ATOM     85  F   UNL A   1      38.345  32.838  37.731  1.00  0.00    -0.206 F 
ATOM     86  C   UNL A   1      39.890  35.678  39.347  1.00  0.00     0.022 A 
BRANCH  83  87
ATOM     87  S   UNL A   1      42.202  37.167  38.897  1.00  0.00     0.124 S 
ATOM     88  O   UNL A   1      42.901  37.320  37.626  1.00  0.00    -0.237 OA
ATOM     89  O   UNL A   1      41.359  38.285  39.305  1.00  0.00    -0.237 OA
ATOM     90  O   UNL A   1      42.985  36.556  39.970  1.00  0.00    -0.744 OA
ENDBRANCH  83  87
ENDBRANCH  56  80
BRANCH  68  91
ATOM     91  C   UNL A   1      44.360  28.594  35.592  1.00  0.00     0.023 A 
ATOM     92  C   UNL A   1      44.114  27.514  36.457  1.00  0.00     0.031 A 
ATOM     93  C   UNL A   1      45.680  29.066  35.484  1.00  0.00     0.131 A 
ATOM     94  C   UNL A   1      45.160  26.983  37.228  1.00  0.00     0.055 A 
ATOM     95  C   UNL A   1      46.728  28.491  36.203  1.00  0.00     0.041 A 
ATOM     96  F   UNL A   1      45.972  30.100  34.678  1.00  0.00    -0.206 F 
ATOM     97  C   UNL A   1      46.469  27.453  37.092  1.00  0.00     0.022 A 
BRANCH  94  98
ATOM     98  S   UNL A   1      44.769  25.742  38.493  1.00  0.00     0.124 S 
ATOM     99  O   UNL A   1      46.089  25.206  38.809  1.00  0.00    -0.237 OA
ATOM    100  O   UNL A   1      44.140  26.547  39.536  1.00  0.00    -0.237 OA
ATOM    101  O   UNL A   1      43.873  24.817  37.802  1.00  0.00    -0.744 OA
ENDBRANCH  94  98
ENDBRANCH  68  91
ENDBRANCH  42  43
ENDBRANCH  35  37
ENDBRANCH  34  35
ENDBRANCH  33  34
ENDBRANCH   1  33
TORSDOF 18
ENDMDL
MODEL 2
REMARK VINA RESULT:     -12.5      2.324      7.536
REMARK SMILES CS(=O)(=O)c1ccc(C2=NN(c3ccc(C(=O)OCCOC(=O)c4ccc(-c5c6nc(c(-c7cc(S(=O)(=O)[O-])ccc7F)c7ccc([nH]7)c(-c7cc(S(=O)(=O)[O-])ccc7F)c7nc(c(-c8cc(S(=O)(=O)[O-])ccc8F)c8ccc5[nH]8)C=C7)C=C6)cc4)cc3)[C@H](c3ccc(F)cc3)C2)cc1
REMARK SMILES IDX 19 1 18 2 16 3 17 4 15 5 12 6 13 7 88 8 14 9 87 10 11 11
REMARK SMILES IDX 9 12 10 13 97 14 89 15 8 16 5 17 6 18 99 19 7 20 98 21 2 22
REMARK SMILES IDX 1 23 3 24 4 25 90 26 91 27 96 28 92 29 95 30 93 31 94 32
REMARK SMILES IDX 20 33 21 34 22 35 23 36 24 37 25 38 86 39 26 40 85 41 27 42
REMARK SMILES IDX 28 43 29 44 79 45 30 46 84 47 78 48 80 49 31 50 83 51 77 52
REMARK SMILES IDX 76 53 32 55 64 56 44 57 63 58 45 59 48 60 62 61 81 62 46 63
REMARK SMILES IDX 47 64 61 66 82 67 49 68 33 69 34 70 42 71 35 72 41 73 43 74
REMARK SMILES IDX 40 75 36 76 37 77 38 78 39 79 65 80 66 81 74 82 67 83 73 84
REMARK SMILES IDX 75 85 72 86 68 87 69 88 70 89 71 90 50 91 51 92 59 93 52 94
REMARK SMILES IDX 58 95 60 96 57 97 53 98 54 99 55 100 56 101
REMARK H PARENT 80 54 48 65
REMARK Flexibility Score: inf
ROOT
ATOM      1  C   UNL A   1      33.976  33.684  27.957  1.00  0.00     0.275 C 
ENDROOT
BRANCH   1   2
ATOM      2  O   UNL A   1      33.276  32.451  27.705  1.00  0.00    -0.458 OA
BRANCH   2   3
ATOM      3  C   UNL A   1      34.010  31.320  27.844  1.00  0.00     0.338 C 
ATOM      4  O   UNL A   1      34.888  31.126  28.670  1.00  0.00    -0.246 OA
BRANCH   3   5
ATOM      5  C   UNL A   1      33.586  30.279  26.874  1.00  0.00     0.060 A 
ATOM      6  C   UNL A   1      32.613  28.247  25.197  1.00  0.00     0.060 A 
ATOM      7  C   UNL A   1      31.818  29.357  25.487  1.00  0.00     0.029 A 
ATOM      8  C   UNL A   1      33.924  28.202  25.693  1.00  0.00     0.029 A 
ATOM      9  C   UNL A   1      32.287  30.346  26.349  1.00  0.00     0.018 A 
ATOM     10  C   UNL A   1      34.417  29.214  26.523  1.00  0.00     0.018 A 
BRANCH   6  11
ATOM     11  N   UNL A   1      32.070  27.122  24.574  1.00  0.00    -0.257 N 
ATOM     12  C   UNL A   1      32.318  25.075  24.028  1.00  0.00     0.071 C 
ATOM     13  N   UNL A   1      32.383  25.888  25.036  1.00  0.00    -0.176 NA
ATOM     14  C   UNL A   1      32.033  25.713  22.693  1.00  0.00     0.091 C 
ATOM     15  C   UNL A   1      31.840  27.174  23.123  1.00  0.00     0.144 C 
BRANCH  12  16
ATOM     16  C   UNL A   1      32.484  23.616  24.180  1.00  0.00    -0.002 A 
ATOM     17  C   UNL A   1      32.769  20.845  24.343  1.00  0.00     0.067 A 
ATOM     18  C   UNL A   1      32.301  21.423  23.162  1.00  0.00     0.021 A 
ATOM     19  C   UNL A   1      33.079  21.643  25.452  1.00  0.00     0.021 A 
ATOM     20  C   UNL A   1      32.148  22.807  23.087  1.00  0.00     0.011 A 
ATOM     21  C   UNL A   1      32.949  23.036  25.365  1.00  0.00     0.011 A 
BRANCH  17  22
ATOM     22  S   UNL A   1      32.966  19.080  24.419  1.00  0.00     0.175 S 
ATOM     23  C   UNL A   1      32.396  18.485  22.851  1.00  0.00     0.163 C 
ATOM     24  O   UNL A   1      32.028  18.577  25.408  1.00  0.00    -0.224 OA
ATOM     25  O   UNL A   1      34.384  18.806  24.509  1.00  0.00    -0.224 OA
ENDBRANCH  17  22
ENDBRANCH  12  16
BRANCH  15  26
ATOM     26  C   UNL A   1      30.490  27.841  22.882  1.00  0.00    -0.023 A 
ATOM     27  C   UNL A   1      29.282  27.339  23.385  1.00  0.00     0.009 A 
ATOM     28  C   UNL A   1      30.480  29.114  22.267  1.00  0.00     0.009 A 
ATOM     29  C   UNL A   1      28.106  28.090  23.290  1.00  0.00     0.039 A 
ATOM     30  C   UNL A   1      29.313  29.876  22.202  1.00  0.00     0.039 A 
ATOM     31  C   UNL A   1      28.137  29.356  22.717  1.00  0.00     0.123 A 
ATOM     32  F   UNL A   1      27.018  30.094  22.683  1.00  0.00    -0.207 F 
ENDBRANCH  15  26
ENDBRANCH   6  11
ENDBRANCH   3   5
ENDBRANCH   2   3
ENDBRANCH   1   2
BRANCH   1  33
ATOM     33  C   UNL A   1      33.092  34.678  28.709  1.00  0.00     0.275 C 
BRANCH  33  34
ATOM     34  O   UNL A   1      33.853  35.366  29.718  1.00  0.00    -0.458 OA
BRANCH  34  35
ATOM     35  C   UNL A   1      33.510  35.073  30.995  1.00  0.00     0.338 C 
ATOM     36  O   UNL A   1      32.443  35.290  31.542  1.00  0.00    -0.246 OA
BRANCH  35  37
ATOM     37  C   UNL A   1      34.615  34.362  31.656  1.00  0.00     0.060 A 
ATOM     38  C   UNL A   1      35.897  34.882  31.527  1.00  0.00     0.016 A 
ATOM     39  C   UNL A   1      34.423  33.117  32.248  1.00  0.00     0.016 A 
ATOM     40  C   UNL A   1      37.006  34.128  31.896  1.00  0.00     0.010 A 
ATOM     41  C   UNL A   1      35.534  32.402  32.716  1.00  0.00     0.010 A 
ATOM     42  C   UNL A   1      36.844  32.879  32.510  1.00  0.00    -0.014 A 
BRANCH  42  43
ATOM     43  C   UNL A   1      38.041  32.066  32.880  1.00  0.00     0.031 A 
ATOM     44  C   UNL A   1      38.729  32.285  34.204  1.00  0.00     0.074 A 
ATOM     45  C   UNL A   1      38.505  31.113  32.045  1.00  0.00     0.049 A 
ATOM     46  N   UNL A   1      39.871  31.814  34.637  1.00  0.00    -0.248 NA
ATOM     47  C   UNL A   1      38.047  33.173  35.155  1.00  0.00     0.031 C 
ATOM     48  C   UNL A   1      37.915  30.760  30.752  1.00  0.00     0.029 A 
ATOM     49  N   UNL A   1      39.578  30.262  32.157  1.00  0.00    -0.354 N 
ATOM     50  C   UNL A   1      40.072  32.391  35.889  1.00  0.00     0.074 A 
ATOM     51  C   UNL A   1      38.943  33.268  36.125  1.00  0.00     0.031 C 
ATOM     52  C   UNL A   1      38.609  29.752  30.208  1.00  0.00     0.029 A 
ATOM     53  C   UNL A   1      39.756  29.454  31.058  1.00  0.00     0.049 A 
ATOM     54  H   UNL A   1      40.165  30.233  32.948  1.00  0.00     0.167 HD
ATOM     55  C   UNL A   1      41.099  32.202  36.758  1.00  0.00     0.034 A 
ATOM     56  C   UNL A   1      40.756  28.610  30.731  1.00  0.00     0.034 A 
ATOM     57  C   UNL A   1      42.198  31.293  36.517  1.00  0.00     0.049 A 
ATOM     58  C   UNL A   1      41.912  28.451  31.681  1.00  0.00     0.074 A 
ATOM     59  C   UNL A   1      43.279  31.008  37.333  1.00  0.00     0.029 A 
ATOM     60  N   UNL A   1      42.357  30.519  35.372  1.00  0.00    -0.354 N 
ATOM     61  N   UNL A   1      42.117  29.039  32.837  1.00  0.00    -0.248 NA
ATOM     62  C   UNL A   1      42.973  27.519  31.280  1.00  0.00     0.031 C 
ATOM     63  C   UNL A   1      44.124  30.120  36.654  1.00  0.00     0.029 A 
ATOM     64  C   UNL A   1      43.531  29.783  35.448  1.00  0.00     0.049 A 
ATOM     65  H   UNL A   1      41.725  30.496  34.616  1.00  0.00     0.167 HD
ATOM     66  C   UNL A   1      43.329  28.542  33.305  1.00  0.00     0.074 A 
ATOM     67  C   UNL A   1      43.792  27.586  32.320  1.00  0.00     0.031 C 
ATOM     68  C   UNL A   1      43.998  28.850  34.446  1.00  0.00     0.034 A 
BRANCH  55  69
ATOM     69  C   UNL A   1      41.109  33.048  38.015  1.00  0.00     0.023 A 
ATOM     70  C   UNL A   1      40.477  32.637  39.202  1.00  0.00     0.031 A 
ATOM     71  C   UNL A   1      41.715  34.319  38.006  1.00  0.00     0.131 A 
ATOM     72  C   UNL A   1      40.377  33.524  40.287  1.00  0.00     0.055 A 
ATOM     73  C   UNL A   1      41.697  35.157  39.123  1.00  0.00     0.041 A 
ATOM     74  F   UNL A   1      42.320  34.780  36.899  1.00  0.00    -0.206 F 
ATOM     75  C   UNL A   1      41.005  34.771  40.265  1.00  0.00     0.022 A 
BRANCH  72  76
ATOM     76  S   UNL A   1      39.258  33.101  41.652  1.00  0.00     0.124 S 
ATOM     77  O   UNL A   1      39.086  31.663  41.455  1.00  0.00    -0.237 OA
ATOM     78  O   UNL A   1      40.027  33.501  42.823  1.00  0.00    -0.237 OA
ATOM     79  O   UNL A   1      38.068  33.905  41.381  1.00  0.00    -0.744 OA
ENDBRANCH  72  76
ENDBRANCH  55  69
BRANCH  56  80
ATOM     80  C   UNL A   1      40.744  27.924  29.406  1.00  0.00     0.023 A 
ATOM     81  C   UNL A   1      41.659  28.260  28.395  1.00  0.00     0.031 A 
ATOM     82  C   UNL A   1      39.805  26.911  29.135  1.00  0.00     0.131 A 
ATOM     83  C   UNL A   1      41.601  27.602  27.156  1.00  0.00     0.055 A 
ATOM     84  C   UNL A   1      39.787  26.222  27.922  1.00  0.00     0.041 A 
ATOM     85  F   UNL A   1      38.906  26.552  30.066  1.00  0.00    -0.206 F 
ATOM     86  C   UNL A   1      40.685  26.573  26.920  1.00  0.00     0.022 A 
BRANCH  83  87
ATOM     87  S   UNL A   1      42.709  28.147  25.827  1.00  0.00     0.124 S 
ATOM     88  O   UNL A   1      43.992  27.616  26.273  1.00  0.00    -0.237 OA
ATOM     89  O   UNL A   1      42.119  27.503  24.657  1.00  0.00    -0.237 OA
ATOM     90  O   UNL A   1      42.590  29.603  25.859  1.00  0.00    -0.744 OA
ENDBRANCH  83  87
ENDBRANCH  56  80
BRANCH  68  91
ATOM     91  C   UNL A   1      45.292  28.112  34.696  1.00  0.00     0.023 A 
ATOM     92  C   UNL A   1      46.518  28.574  34.186  1.00  0.00     0.031 A 
ATOM     93  C   UNL A   1      45.292  26.911  35.428  1.00  0.00     0.131 A 
ATOM     94  C   UNL A   1      47.681  27.808  34.360  1.00  0.00     0.055 A 
ATOM     95  C   UNL A   1      46.463  26.188  35.656  1.00  0.00     0.041 A 
ATOM     96  F   UNL A   1      44.149  26.419  35.933  1.00  0.00    -0.206 F 
ATOM     97  C   UNL A   1      47.664  26.627  35.107  1.00  0.00     0.022 A 
BRANCH  94  98
ATOM     98  S   UNL A   1      49.197  28.317  33.504  1.00  0.00     0.124 S 
ATOM     99  O   UNL A   1      48.935  29.727  33.236  1.00  0.00    -0.237 OA
ATOM    100  O   UNL A   1      50.228  28.037  34.499  1.00  0.00    -0.237 OA
ATOM    101  O   UNL A   1      49.230  27.457  32.322  1.00  0.00    -0.744 OA
ENDBRANCH  94  98
ENDBRANCH  68  91
ENDBRANCH  42  43
ENDBRANCH  35  37
ENDBRANCH  34  35
ENDBRANCH  33  34
ENDBRANCH   1  33
TORSDOF 18
ENDMDL
MODEL 3
REMARK VINA RESULT:     -12.5      1.576      7.300
REMARK SMILES CS(=O)(=O)c1ccc(C2=NN(c3ccc(C(=O)OCCOC(=O)c4ccc(-c5c6nc(c(-c7cc(S(=O)(=O)[O-])ccc7F)c7ccc([nH]7)c(-c7cc(S(=O)(=O)[O-])ccc7F)c7nc(c(-c8cc(S(=O)(=O)[O-])ccc8F)c8ccc5[nH]8)C=C7)C=C6)cc4)cc3)[C@H](c3ccc(F)cc3)C2)cc1
REMARK SMILES IDX 19 1 18 2 16 3 17 4 15 5 12 6 13 7 88 8 14 9 87 10 11 11
REMARK SMILES IDX 9 12 10 13 97 14 89 15 8 16 5 17 6 18 99 19 7 20 98 21 2 22
REMARK SMILES IDX 1 23 3 24 4 25 90 26 91 27 96 28 92 29 95 30 93 31 94 32
REMARK SMILES IDX 20 33 21 34 22 35 23 36 24 37 25 38 86 39 26 40 85 41 27 42
REMARK SMILES IDX 28 43 29 44 79 45 30 46 84 47 78 48 80 49 31 50 83 51 77 52
REMARK SMILES IDX 76 53 32 55 64 56 44 57 63 58 45 59 48 60 62 61 81 62 46 63
REMARK SMILES IDX 47 64 61 66 82 67 49 68 33 69 34 70 42 71 35 72 41 73 43 74
REMARK SMILES IDX 40 75 36 76 37 77 38 78 39 79 65 80 66 81 74 82 67 83 73 84
REMARK SMILES IDX 75 85 72 86 68 87 69 88 70 89 71 90 50 91 51 92 59 93 52 94
REMARK SMILES IDX 58 95 60 96 57 97 53 98 54 99 55 100 56 101
REMARK H PARENT 80 54 48 65
REMARK Flexibility Score: inf
ROOT
ATOM      1  C   UNL A   1      33.320  31.974  28.015  1.00  0.00     0.275 C 
ENDROOT
BRANCH   1   2
ATOM      2  O   UNL A   1      34.359  31.299  27.281  1.00  0.00    -0.458 OA
BRANCH   2   3
ATOM      3  C   UNL A   1      34.546  29.993  27.594  1.00  0.00     0.338 C 
ATOM      4  O   UNL A   1      35.207  29.563  28.526  1.00  0.00    -0.246 OA
BRANCH   3   5
ATOM      5  C   UNL A   1      33.794  29.105  26.674  1.00  0.00     0.060 A 
ATOM      6  C   UNL A   1      32.362  27.262  25.111  1.00  0.00     0.060 A 
ATOM      7  C   UNL A   1      31.764  27.847  26.228  1.00  0.00     0.029 A 
ATOM      8  C   UNL A   1      33.654  27.666  24.742  1.00  0.00     0.029 A 
ATOM      9  C   UNL A   1      32.488  28.732  27.024  1.00  0.00     0.018 A 
ATOM     10  C   UNL A   1      34.370  28.587  25.512  1.00  0.00     0.018 A 
BRANCH   6  11
ATOM     11  N   UNL A   1      31.767  26.175  24.468  1.00  0.00    -0.257 N 
ATOM     12  C   UNL A   1      31.982  24.184  23.733  1.00  0.00     0.071 C 
ATOM     13  N   UNL A   1      32.155  24.918  24.789  1.00  0.00    -0.176 NA
ATOM     14  C   UNL A   1      31.527  24.916  22.498  1.00  0.00     0.091 C 
ATOM     15  C   UNL A   1      31.362  26.334  23.064  1.00  0.00     0.144 C 
BRANCH  12  16
ATOM     16  C   UNL A   1      32.190  22.723  23.746  1.00  0.00    -0.002 A 
ATOM     17  C   UNL A   1      32.613  19.969  23.897  1.00  0.00     0.067 A 
ATOM     18  C   UNL A   1      32.912  20.775  24.997  1.00  0.00     0.021 A 
ATOM     19  C   UNL A   1      32.121  20.533  22.713  1.00  0.00     0.021 A 
ATOM     20  C   UNL A   1      32.711  22.152  24.915  1.00  0.00     0.011 A 
ATOM     21  C   UNL A   1      31.895  21.915  22.643  1.00  0.00     0.011 A 
BRANCH  17  22
ATOM     22  S   UNL A   1      32.867  18.213  24.021  1.00  0.00     0.175 S 
ATOM     23  C   UNL A   1      34.579  18.024  24.435  1.00  0.00     0.163 C 
ATOM     24  O   UNL A   1      32.708  17.653  22.690  1.00  0.00    -0.224 OA
ATOM     25  O   UNL A   1      32.084  17.741  25.142  1.00  0.00    -0.224 OA
ENDBRANCH  17  22
ENDBRANCH  12  16
BRANCH  15  26
ATOM     26  C   UNL A   1      29.982  26.982  23.041  1.00  0.00    -0.023 A 
ATOM     27  C   UNL A   1      28.856  26.418  23.659  1.00  0.00     0.009 A 
ATOM     28  C   UNL A   1      29.872  28.291  22.519  1.00  0.00     0.009 A 
ATOM     29  C   UNL A   1      27.666  27.145  23.765  1.00  0.00     0.039 A 
ATOM     30  C   UNL A   1      28.694  29.026  22.652  1.00  0.00     0.039 A 
ATOM     31  C   UNL A   1      27.602  28.445  23.278  1.00  0.00     0.123 A 
ATOM     32  F   UNL A   1      26.476  29.156  23.434  1.00  0.00    -0.207 F 
ENDBRANCH  15  26
ENDBRANCH   6  11
ENDBRANCH   3   5
ENDBRANCH   2   3
ENDBRANCH   1   2
BRANCH   1  33
ATOM     33  C   UNL A   1      33.031  33.352  27.423  1.00  0.00     0.275 C 
BRANCH  33  34
ATOM     34  O   UNL A   1      33.841  34.355  28.062  1.00  0.00    -0.458 OA
BRANCH  34  35
ATOM     35  C   UNL A   1      33.595  34.537  29.381  1.00  0.00     0.338 C 
ATOM     36  O   UNL A   1      32.607  35.042  29.885  1.00  0.00    -0.246 OA
BRANCH  35  37
ATOM     37  C   UNL A   1      34.690  33.961  30.176  1.00  0.00     0.060 A 
ATOM     38  C   UNL A   1      35.995  34.252  29.799  1.00  0.00     0.016 A 
ATOM     39  C   UNL A   1      34.444  33.017  31.169  1.00  0.00     0.016 A 
ATOM     40  C   UNL A   1      37.061  33.537  30.334  1.00  0.00     0.010 A 
ATOM     41  C   UNL A   1      35.527  32.372  31.784  1.00  0.00     0.010 A 
ATOM     42  C   UNL A   1      36.848  32.593  31.346  1.00  0.00    -0.014 A 
BRANCH  42  43
ATOM     43  C   UNL A   1      37.996  31.813  31.897  1.00  0.00     0.031 A 
ATOM     44  C   UNL A   1      38.526  32.112  33.278  1.00  0.00     0.074 A 
ATOM     45  C   UNL A   1      38.557  30.820  31.177  1.00  0.00     0.049 A 
ATOM     46  N   UNL A   1      39.611  31.677  33.866  1.00  0.00    -0.248 NA
ATOM     47  C   UNL A   1      37.735  33.046  34.092  1.00  0.00     0.031 C 
ATOM     48  C   UNL A   1      38.122  30.390  29.846  1.00  0.00     0.029 A 
ATOM     49  N   UNL A   1      39.613  29.987  31.460  1.00  0.00    -0.354 N 
ATOM     50  C   UNL A   1      39.663  32.324  35.099  1.00  0.00     0.074 A 
ATOM     51  C   UNL A   1      38.512  33.202  35.152  1.00  0.00     0.031 C 
ATOM     52  C   UNL A   1      38.878  29.360  29.444  1.00  0.00     0.029 A 
ATOM     53  C   UNL A   1      39.920  29.121  30.436  1.00  0.00     0.049 A 
ATOM     54  H   UNL A   1      40.103  30.008  32.314  1.00  0.00     0.167 HD
ATOM     55  C   UNL A   1      40.583  32.194  36.090  1.00  0.00     0.034 A 
ATOM     56  C   UNL A   1      40.953  28.270  30.275  1.00  0.00     0.034 A 
ATOM     57  C   UNL A   1      41.705  31.284  36.029  1.00  0.00     0.049 A 
ATOM     58  C   UNL A   1      41.991  28.175  31.359  1.00  0.00     0.074 A 
ATOM     59  C   UNL A   1      42.685  31.054  36.979  1.00  0.00     0.029 A 
ATOM     60  N   UNL A   1      41.998  30.448  34.955  1.00  0.00    -0.354 N 
ATOM     61  N   UNL A   1      42.059  28.828  32.497  1.00  0.00    -0.248 NA
ATOM     62  C   UNL A   1      43.094  27.232  31.137  1.00  0.00     0.031 C 
ATOM     63  C   UNL A   1      43.606  30.138  36.454  1.00  0.00     0.029 A 
ATOM     64  C   UNL A   1      43.158  29.729  35.208  1.00  0.00     0.049 A 
ATOM     65  H   UNL A   1      41.459  30.378  34.134  1.00  0.00     0.167 HD
ATOM     66  C   UNL A   1      43.210  28.369  33.129  1.00  0.00     0.074 A 
ATOM     67  C   UNL A   1      43.787  27.364  32.259  1.00  0.00     0.031 C 
ATOM     68  C   UNL A   1      43.741  28.747  34.321  1.00  0.00     0.034 A 
BRANCH  55  69
ATOM     69  C   UNL A   1      40.445  33.108  37.290  1.00  0.00     0.023 A 
ATOM     70  C   UNL A   1      39.640  32.780  38.396  1.00  0.00     0.031 A 
ATOM     71  C   UNL A   1      41.086  34.361  37.300  1.00  0.00     0.131 A 
ATOM     72  C   UNL A   1      39.418  33.728  39.408  1.00  0.00     0.055 A 
ATOM     73  C   UNL A   1      40.938  35.261  38.358  1.00  0.00     0.041 A 
ATOM     74  F   UNL A   1      41.854  34.746  36.267  1.00  0.00    -0.206 F 
ATOM     75  C   UNL A   1      40.083  34.956  39.410  1.00  0.00     0.022 A 
BRANCH  72  76
ATOM     76  S   UNL A   1      38.107  33.410  40.622  1.00  0.00     0.124 S 
ATOM     77  O   UNL A   1      38.025  34.697  41.309  1.00  0.00    -0.237 OA
ATOM     78  O   UNL A   1      36.974  33.061  39.775  1.00  0.00    -0.237 OA
ATOM     79  O   UNL A   1      38.645  32.316  41.429  1.00  0.00    -0.744 OA
ENDBRANCH  72  76
ENDBRANCH  55  69
BRANCH  56  80
ATOM     80  C   UNL A   1      41.097  27.511  28.998  1.00  0.00     0.023 A 
ATOM     81  C   UNL A   1      42.088  27.835  28.058  1.00  0.00     0.031 A 
ATOM     82  C   UNL A   1      40.233  26.439  28.703  1.00  0.00     0.131 A 
ATOM     83  C   UNL A   1      42.177  27.107  26.860  1.00  0.00     0.055 A 
ATOM     84  C   UNL A   1      40.361  25.684  27.537  1.00  0.00     0.041 A 
ATOM     85  F   UNL A   1      39.266  26.089  29.567  1.00  0.00    -0.206 F 
ATOM     86  C   UNL A   1      41.334  26.023  26.603  1.00  0.00     0.022 A 
BRANCH  83  87
ATOM     87  S   UNL A   1      43.381  27.630  25.609  1.00  0.00     0.124 S 
ATOM     88  O   UNL A   1      44.225  26.447  25.494  1.00  0.00    -0.237 OA
ATOM     89  O   UNL A   1      42.523  27.920  24.464  1.00  0.00    -0.237 OA
ATOM     90  O   UNL A   1      44.019  28.797  26.216  1.00  0.00    -0.744 OA
ENDBRANCH  83  87
ENDBRANCH  56  80
BRANCH  68  91
ATOM     91  C   UNL A   1      44.999  28.035  34.760  1.00  0.00     0.023 A 
ATOM     92  C   UNL A   1      44.953  26.834  35.489  1.00  0.00     0.031 A 
ATOM     93  C   UNL A   1      46.261  28.584  34.470  1.00  0.00     0.131 A 
ATOM     94  C   UNL A   1      46.142  26.256  35.959  1.00  0.00     0.055 A 
ATOM     95  C   UNL A   1      47.443  27.969  34.883  1.00  0.00     0.041 A 
ATOM     96  F   UNL A   1      46.365  29.733  33.783  1.00  0.00    -0.206 F 
ATOM     97  C   UNL A   1      47.388  26.806  35.645  1.00  0.00     0.022 A 
BRANCH  94  98
ATOM     98  S   UNL A   1      46.037  24.834  37.081  1.00  0.00     0.124 S 
ATOM     99  O   UNL A   1      45.965  23.715  36.147  1.00  0.00    -0.237 OA
ATOM    100  O   UNL A   1      47.274  24.947  37.847  1.00  0.00    -0.237 OA
ATOM    101  O   UNL A   1      44.814  25.086  37.842  1.00  0.00    -0.744 OA
ENDBRANCH  94  98
ENDBRANCH  68  91
ENDBRANCH  42  43
ENDBRANCH  35  37
ENDBRANCH  34  35
ENDBRANCH  33  34
ENDBRANCH   1  33
TORSDOF 18
ENDMDL
