MODEL 1
REMARK VINA RESULT:     -12.2      0.000      0.000
REMARK SMILES CS(=O)(=O)c1ccc(C2=NN(c3ccc(C(=O)OCCOC(=O)c4ccc(-c5c6nc(c(-c7cc(S(=O)(=O)[O-])ccc7F)c7ccc([nH]7)c(-c7cc(S(=O)(=O)[O-])ccc7F)c7nc(c(-c8cc(S(=O)(=O)[O-])ccc8F)c8ccc5[nH]8)C=C7)C=C6)cc4)cc3)[C@H](c3cccs3)C2)cc1
REMARK SMILES IDX 19 1 18 2 16 3 17 4 15 5 12 6 13 7 88 8 14 9 87 10 11 11
REMARK SMILES IDX 9 12 10 13 95 14 89 15 8 16 5 17 6 18 97 19 7 20 96 21 2 22
REMARK SMILES IDX 1 23 3 24 4 25 90 26 91 27 94 28 92 29 93 30 20 31 21 32
REMARK SMILES IDX 22 33 23 34 24 35 25 36 86 37 26 38 85 39 27 40 28 41 29 42
REMARK SMILES IDX 79 43 30 44 84 45 78 46 80 47 31 48 83 49 77 50 76 51 32 53
REMARK SMILES IDX 64 54 44 55 63 56 45 57 48 58 62 59 81 60 46 61 47 62 61 64
REMARK SMILES IDX 82 65 49 66 33 67 34 68 42 69 35 70 41 71 43 72 40 73 36 74
REMARK SMILES IDX 37 75 38 76 39 77 65 78 66 79 74 80 67 81 73 82 75 83 72 84
REMARK SMILES IDX 68 85 69 86 70 87 71 88 50 89 51 90 59 91 52 92 58 93 60 94
REMARK SMILES IDX 57 95 53 96 54 97 55 98 56 99
REMARK H PARENT 80 52 48 63
REMARK Flexibility Score: inf
ROOT
ATOM      1  C   UNL A   1      32.883  31.650  27.510  1.00  0.00     0.275 C 
ENDROOT
BRANCH   1   2
ATOM      2  O   UNL A   1      34.290  31.365  27.390  1.00  0.00    -0.458 OA
BRANCH   2   3
ATOM      3  C   UNL A   1      34.653  30.082  27.631  1.00  0.00     0.338 C 
ATOM      4  O   UNL A   1      35.505  29.708  28.421  1.00  0.00    -0.246 OA
BRANCH   3   5
ATOM      5  C   UNL A   1      33.834  29.139  26.830  1.00  0.00     0.060 A 
ATOM      6  C   UNL A   1      32.334  27.218  25.433  1.00  0.00     0.060 A 
ATOM      7  C   UNL A   1      32.072  27.469  26.782  1.00  0.00     0.029 A 
ATOM      8  C   UNL A   1      33.315  27.976  24.780  1.00  0.00     0.029 A 
ATOM      9  C   UNL A   1      32.840  28.395  27.484  1.00  0.00     0.018 A 
ATOM     10  C   UNL A   1      34.057  28.941  25.467  1.00  0.00     0.018 A 
BRANCH   6  11
ATOM     11  N   UNL A   1      31.749  26.134  24.776  1.00  0.00    -0.257 N 
ATOM     12  C   UNL A   1      31.911  24.144  24.035  1.00  0.00     0.071 C 
ATOM     13  N   UNL A   1      32.109  24.868  25.094  1.00  0.00    -0.176 NA
ATOM     14  C   UNL A   1      31.488  24.893  22.799  1.00  0.00     0.091 C 
ATOM     15  C   UNL A   1      31.395  26.312  23.362  1.00  0.00     0.154 C 
BRANCH  12  16
ATOM     16  C   UNL A   1      32.046  22.675  24.038  1.00  0.00    -0.002 A 
ATOM     17  C   UNL A   1      32.396  19.914  23.938  1.00  0.00     0.067 A 
ATOM     18  C   UNL A   1      32.276  20.636  22.747  1.00  0.00     0.021 A 
ATOM     19  C   UNL A   1      32.310  20.558  25.176  1.00  0.00     0.021 A 
ATOM     20  C   UNL A   1      32.099  22.018  22.801  1.00  0.00     0.011 A 
ATOM     21  C   UNL A   1      32.142  21.946  25.227  1.00  0.00     0.011 A 
BRANCH  17  22
ATOM     22  S   UNL A   1      32.673  18.159  23.863  1.00  0.00     0.175 S 
ATOM     23  C   UNL A   1      34.387  17.978  24.282  1.00  0.00     0.163 C 
ATOM     24  O   UNL A   1      32.502  17.749  22.486  1.00  0.00    -0.224 OA
ATOM     25  O   UNL A   1      31.912  17.546  24.937  1.00  0.00    -0.224 OA
ENDBRANCH  17  22
ENDBRANCH  12  16
BRANCH  15  26
ATOM     26  C   UNL A   1      30.082  27.049  23.182  1.00  0.00     0.030 A 
ATOM     27  C   UNL A   1      29.924  28.287  22.577  1.00  0.00     0.017 A 
ATOM     28  S   UNL A   1      28.611  26.519  23.882  1.00  0.00    -0.147 S 
ATOM     29  C   UNL A   1      28.611  28.812  22.730  1.00  0.00     0.012 A 
ATOM     30  C   UNL A   1      27.790  27.942  23.410  1.00  0.00     0.065 A 
ENDBRANCH  15  26
ENDBRANCH   6  11
ENDBRANCH   3   5
ENDBRANCH   2   3
ENDBRANCH   1   2
BRANCH   1  31
ATOM     31  C   UNL A   1      32.621  33.153  27.434  1.00  0.00     0.275 C 
BRANCH  31  32
ATOM     32  O   UNL A   1      33.742  33.882  27.964  1.00  0.00    -0.458 OA
BRANCH  32  33
ATOM     33  C   UNL A   1      33.630  34.255  29.262  1.00  0.00     0.338 C 
ATOM     34  O   UNL A   1      32.702  34.846  29.785  1.00  0.00    -0.246 OA
BRANCH  33  35
ATOM     35  C   UNL A   1      34.821  33.809  30.001  1.00  0.00     0.060 A 
ATOM     36  C   UNL A   1      36.067  34.307  29.632  1.00  0.00     0.016 A 
ATOM     37  C   UNL A   1      34.724  32.809  30.965  1.00  0.00     0.016 A 
ATOM     38  C   UNL A   1      37.232  33.758  30.163  1.00  0.00     0.010 A 
ATOM     39  C   UNL A   1      35.891  32.318  31.563  1.00  0.00     0.010 A 
ATOM     40  C   UNL A   1      37.162  32.763  31.146  1.00  0.00    -0.014 A 
BRANCH  40  41
ATOM     41  C   UNL A   1      38.404  32.148  31.698  1.00  0.00     0.031 A 
ATOM     42  C   UNL A   1      39.098  31.049  30.934  1.00  0.00     0.074 A 
ATOM     43  C   UNL A   1      38.917  32.565  32.874  1.00  0.00     0.049 A 
ATOM     44  N   UNL A   1      40.043  30.232  31.325  1.00  0.00    -0.248 NA
ATOM     45  C   UNL A   1      38.651  30.832  29.550  1.00  0.00     0.031 C 
ATOM     46  C   UNL A   1      38.389  33.661  33.690  1.00  0.00     0.029 A 
ATOM     47  N   UNL A   1      39.997  32.111  33.595  1.00  0.00    -0.354 N 
ATOM     48  C   UNL A   1      40.262  29.365  30.258  1.00  0.00     0.074 A 
ATOM     49  C   UNL A   1      39.342  29.753  29.209  1.00  0.00     0.031 C 
ATOM     50  C   UNL A   1      39.156  33.810  34.779  1.00  0.00     0.029 A 
ATOM     51  C   UNL A   1      40.168  32.760  34.797  1.00  0.00     0.049 A 
ATOM     52  H   UNL A   1      40.591  31.392  33.281  1.00  0.00     0.167 HD
ATOM     53  C   UNL A   1      41.143  28.337  30.170  1.00  0.00     0.034 A 
ATOM     54  C   UNL A   1      41.004  32.508  35.824  1.00  0.00     0.034 A 
ATOM     55  C   UNL A   1      42.086  27.997  31.211  1.00  0.00     0.049 A 
ATOM     56  C   UNL A   1      41.941  31.332  35.728  1.00  0.00     0.074 A 
ATOM     57  C   UNL A   1      43.038  26.992  31.220  1.00  0.00     0.029 A 
ATOM     58  N   UNL A   1      42.203  28.662  32.426  1.00  0.00    -0.354 N 
ATOM     59  N   UNL A   1      42.088  30.473  34.746  1.00  0.00    -0.248 NA
ATOM     60  C   UNL A   1      42.814  31.082  36.883  1.00  0.00     0.031 C 
ATOM     61  C   UNL A   1      43.685  27.008  32.459  1.00  0.00     0.029 A 
ATOM     62  C   UNL A   1      43.191  28.071  33.199  1.00  0.00     0.049 A 
ATOM     63  H   UNL A   1      41.663  29.438  32.698  1.00  0.00     0.167 HD
ATOM     64  C   UNL A   1      43.083  29.592  35.158  1.00  0.00     0.074 A 
ATOM     65  C   UNL A   1      43.511  30.033  36.470  1.00  0.00     0.031 C 
ATOM     66  C   UNL A   1      43.600  28.516  34.511  1.00  0.00     0.034 A 
BRANCH  53  67
ATOM     67  C   UNL A   1      41.080  27.464  28.937  1.00  0.00     0.023 A 
ATOM     68  C   UNL A   1      42.033  27.546  27.905  1.00  0.00     0.031 A 
ATOM     69  C   UNL A   1      40.024  26.548  28.783  1.00  0.00     0.131 A 
ATOM     70  C   UNL A   1      41.870  26.778  26.741  1.00  0.00     0.055 A 
ATOM     71  C   UNL A   1      39.912  25.730  27.657  1.00  0.00     0.041 A 
ATOM     72  F   UNL A   1      39.071  26.439  29.724  1.00  0.00    -0.206 F 
ATOM     73  C   UNL A   1      40.830  25.853  26.620  1.00  0.00     0.022 A 
BRANCH  70  74
ATOM     74  S   UNL A   1      42.954  27.106  25.324  1.00  0.00     0.124 S 
ATOM     75  O   UNL A   1      44.220  27.412  25.985  1.00  0.00    -0.237 OA
ATOM     76  O   UNL A   1      42.900  25.847  24.590  1.00  0.00    -0.237 OA
ATOM     77  O   UNL A   1      42.317  28.242  24.660  1.00  0.00    -0.744 OA
ENDBRANCH  70  74
ENDBRANCH  53  67
BRANCH  54  78
ATOM     78  C   UNL A   1      40.938  33.331  37.067  1.00  0.00     0.023 A 
ATOM     79  C   UNL A   1      40.111  32.965  38.141  1.00  0.00     0.031 A 
ATOM     80  C   UNL A   1      41.684  34.519  37.187  1.00  0.00     0.131 A 
ATOM     81  C   UNL A   1      40.026  33.791  39.272  1.00  0.00     0.055 A 
ATOM     82  C   UNL A   1      41.639  35.309  38.336  1.00  0.00     0.041 A 
ATOM     83  F   UNL A   1      42.487  34.920  36.189  1.00  0.00    -0.206 F 
ATOM     84  C   UNL A   1      40.797  34.951  39.385  1.00  0.00     0.022 A 
BRANCH  81  85
ATOM     85  S   UNL A   1      38.833  33.370  40.571  1.00  0.00     0.124 S 
ATOM     86  O   UNL A   1      37.563  33.528  39.873  1.00  0.00    -0.237 OA
ATOM     87  O   UNL A   1      39.216  32.003  40.904  1.00  0.00    -0.237 OA
ATOM     88  O   UNL A   1      39.100  34.360  41.613  1.00  0.00    -0.744 OA
ENDBRANCH  81  85
ENDBRANCH  54  78
BRANCH  66  89
ATOM     89  C   UNL A   1      44.720  27.779  35.197  1.00  0.00     0.023 A 
ATOM     90  C   UNL A   1      46.068  28.128  34.999  1.00  0.00     0.031 A 
ATOM     91  C   UNL A   1      44.433  26.703  36.056  1.00  0.00     0.131 A 
ATOM     92  C   UNL A   1      47.081  27.377  35.616  1.00  0.00     0.055 A 
ATOM     93  C   UNL A   1      45.442  25.995  36.710  1.00  0.00     0.041 A 
ATOM     94  F   UNL A   1      43.163  26.328  36.277  1.00  0.00    -0.206 F 
ATOM     95  C   UNL A   1      46.775  26.323  36.483  1.00  0.00     0.022 A 
BRANCH  92  96
ATOM     96  S   UNL A   1      48.811  27.747  35.214  1.00  0.00     0.124 S 
ATOM     97  O   UNL A   1      48.744  27.981  33.775  1.00  0.00    -0.237 OA
ATOM     98  O   UNL A   1      49.082  28.918  36.039  1.00  0.00    -0.237 OA
ATOM     99  O   UNL A   1      49.522  26.532  35.612  1.00  0.00    -0.744 OA
ENDBRANCH  92  96
ENDBRANCH  66  89
ENDBRANCH  40  41
ENDBRANCH  33  35
ENDBRANCH  32  33
ENDBRANCH  31  32
ENDBRANCH   1  31
TORSDOF 18
ENDMDL
MODEL 2
REMARK VINA RESULT:     -11.9      1.303      7.558
REMARK SMILES CS(=O)(=O)c1ccc(C2=NN(c3ccc(C(=O)OCCOC(=O)c4ccc(-c5c6nc(c(-c7cc(S(=O)(=O)[O-])ccc7F)c7ccc([nH]7)c(-c7cc(S(=O)(=O)[O-])ccc7F)c7nc(c(-c8cc(S(=O)(=O)[O-])ccc8F)c8ccc5[nH]8)C=C7)C=C6)cc4)cc3)[C@H](c3cccs3)C2)cc1
REMARK SMILES IDX 19 1 18 2 16 3 17 4 15 5 12 6 13 7 88 8 14 9 87 10 11 11
REMARK SMILES IDX 9 12 10 13 95 14 89 15 8 16 5 17 6 18 97 19 7 20 96 21 2 22
REMARK SMILES IDX 1 23 3 24 4 25 90 26 91 27 94 28 92 29 93 30 20 31 21 32
REMARK SMILES IDX 22 33 23 34 24 35 25 36 86 37 26 38 85 39 27 40 28 41 29 42
REMARK SMILES IDX 79 43 30 44 84 45 78 46 80 47 31 48 83 49 77 50 76 51 32 53
REMARK SMILES IDX 64 54 44 55 63 56 45 57 48 58 62 59 81 60 46 61 47 62 61 64
REMARK SMILES IDX 82 65 49 66 33 67 34 68 42 69 35 70 41 71 43 72 40 73 36 74
REMARK SMILES IDX 37 75 38 76 39 77 65 78 66 79 74 80 67 81 73 82 75 83 72 84
REMARK SMILES IDX 68 85 69 86 70 87 71 88 50 89 51 90 59 91 52 92 58 93 60 94
REMARK SMILES IDX 57 95 53 96 54 97 55 98 56 99
REMARK H PARENT 80 52 48 63
REMARK Flexibility Score: inf
ROOT
ATOM      1  C   UNL A   1      32.597  31.740  27.264  1.00  0.00     0.275 C 
ENDROOT
BRANCH   1   2
ATOM      2  O   UNL A   1      34.018  31.517  27.331  1.00  0.00    -0.458 OA
BRANCH   2   3
ATOM      3  C   UNL A   1      34.401  30.243  27.591  1.00  0.00     0.338 C 
ATOM      4  O   UNL A   1      35.237  29.892  28.409  1.00  0.00    -0.246 OA
BRANCH   3   5
ATOM      5  C   UNL A   1      33.625  29.278  26.774  1.00  0.00     0.060 A 
ATOM      6  C   UNL A   1      32.209  27.316  25.347  1.00  0.00     0.060 A 
ATOM      7  C   UNL A   1      31.910  27.562  26.688  1.00  0.00     0.029 A 
ATOM      8  C   UNL A   1      33.186  28.099  24.714  1.00  0.00     0.029 A 
ATOM      9  C   UNL A   1      32.637  28.509  27.406  1.00  0.00     0.018 A 
ATOM     10  C   UNL A   1      33.886  29.083  25.417  1.00  0.00     0.018 A 
BRANCH   6  11
ATOM     11  N   UNL A   1      31.669  26.215  24.678  1.00  0.00    -0.257 N 
ATOM     12  C   UNL A   1      31.926  24.262  23.870  1.00  0.00     0.071 C 
ATOM     13  N   UNL A   1      32.120  24.967  24.943  1.00  0.00    -0.176 NA
ATOM     14  C   UNL A   1      31.409  25.018  22.675  1.00  0.00     0.091 C 
ATOM     15  C   UNL A   1      31.250  26.412  23.285  1.00  0.00     0.154 C 
BRANCH  12  16
ATOM     16  C   UNL A   1      32.153  22.806  23.823  1.00  0.00    -0.002 A 
ATOM     17  C   UNL A   1      32.511  20.044  23.859  1.00  0.00     0.067 A 
ATOM     18  C   UNL A   1      32.743  20.783  25.022  1.00  0.00     0.021 A 
ATOM     19  C   UNL A   1      32.134  20.679  22.672  1.00  0.00     0.021 A 
ATOM     20  C   UNL A   1      32.564  22.166  25.000  1.00  0.00     0.011 A 
ATOM     21  C   UNL A   1      31.946  22.066  22.655  1.00  0.00     0.011 A 
BRANCH  17  22
ATOM     22  S   UNL A   1      32.692  18.276  23.907  1.00  0.00     0.175 S 
ATOM     23  C   UNL A   1      34.401  18.031  24.310  1.00  0.00     0.163 C 
ATOM     24  O   UNL A   1      32.471  17.779  22.565  1.00  0.00    -0.224 OA
ATOM     25  O   UNL A   1      31.920  17.783  25.034  1.00  0.00    -0.224 OA
ENDBRANCH  17  22
ENDBRANCH  12  16
BRANCH  15  26
ATOM     26  C   UNL A   1      29.887  27.067  23.176  1.00  0.00     0.030 A 
ATOM     27  C   UNL A   1      29.631  28.321  22.642  1.00  0.00     0.017 A 
ATOM     28  S   UNL A   1      28.473  26.406  23.885  1.00  0.00    -0.147 S 
ATOM     29  C   UNL A   1      28.291  28.749  22.855  1.00  0.00     0.012 A 
ATOM     30  C   UNL A   1      27.549  27.793  23.508  1.00  0.00     0.065 A 
ENDBRANCH  15  26
ENDBRANCH   6  11
ENDBRANCH   3   5
ENDBRANCH   2   3
ENDBRANCH   1   2
BRANCH   1  31
ATOM     31  C   UNL A   1      32.277  33.234  27.297  1.00  0.00     0.275 C 
BRANCH  31  32
ATOM     32  O   UNL A   1      33.460  33.991  27.605  1.00  0.00    -0.458 OA
BRANCH  32  33
ATOM     33  C   UNL A   1      33.475  34.573  28.828  1.00  0.00     0.338 C 
ATOM     34  O   UNL A   1      32.737  35.450  29.240  1.00  0.00    -0.246 OA
BRANCH  33  35
ATOM     35  C   UNL A   1      34.532  33.960  29.647  1.00  0.00     0.060 A 
ATOM     36  C   UNL A   1      35.860  34.277  29.377  1.00  0.00     0.016 A 
ATOM     37  C   UNL A   1      34.222  32.981  30.587  1.00  0.00     0.016 A 
ATOM     38  C   UNL A   1      36.892  33.566  29.985  1.00  0.00     0.010 A 
ATOM     39  C   UNL A   1      35.260  32.327  31.263  1.00  0.00     0.010 A 
ATOM     40  C   UNL A   1      36.609  32.588  30.946  1.00  0.00    -0.014 A 
BRANCH  40  41
ATOM     41  C   UNL A   1      37.707  31.801  31.580  1.00  0.00     0.031 A 
ATOM     42  C   UNL A   1      38.145  32.126  32.985  1.00  0.00     0.074 A 
ATOM     43  C   UNL A   1      38.312  30.798  30.911  1.00  0.00     0.049 A 
ATOM     44  N   UNL A   1      39.208  31.731  33.638  1.00  0.00    -0.248 NA
ATOM     45  C   UNL A   1      37.276  33.035  33.748  1.00  0.00     0.031 C 
ATOM     46  C   UNL A   1      37.949  30.330  29.571  1.00  0.00     0.029 A 
ATOM     47  N   UNL A   1      39.368  29.991  31.265  1.00  0.00    -0.354 N 
ATOM     48  C   UNL A   1      39.169  32.389  34.864  1.00  0.00     0.074 A 
ATOM     49  C   UNL A   1      37.980  33.215  34.856  1.00  0.00     0.031 C 
ATOM     50  C   UNL A   1      38.748  29.309  29.229  1.00  0.00     0.029 A 
ATOM     51  C   UNL A   1      39.745  29.111  30.275  1.00  0.00     0.049 A 
ATOM     52  H   UNL A   1      39.811  30.037  32.142  1.00  0.00     0.167 HD
ATOM     53  C   UNL A   1      40.050  32.314  35.894  1.00  0.00     0.034 A 
ATOM     54  C   UNL A   1      40.803  28.281  30.189  1.00  0.00     0.034 A 
ATOM     55  C   UNL A   1      41.204  31.446  35.900  1.00  0.00     0.049 A 
ATOM     56  C   UNL A   1      41.797  28.248  31.321  1.00  0.00     0.074 A 
ATOM     57  C   UNL A   1      42.150  31.273  36.896  1.00  0.00     0.029 A 
ATOM     58  N   UNL A   1      41.566  30.596  34.861  1.00  0.00    -0.354 N 
ATOM     59  N   UNL A   1      41.791  28.929  32.443  1.00  0.00    -0.248 NA
ATOM     60  C   UNL A   1      42.947  27.347  31.169  1.00  0.00     0.031 C 
ATOM     61  C   UNL A   1      43.114  30.369  36.438  1.00  0.00     0.029 A 
ATOM     62  C   UNL A   1      42.732  29.918  35.184  1.00  0.00     0.049 A 
ATOM     63  H   UNL A   1      41.067  30.490  34.020  1.00  0.00     0.167 HD
ATOM     64  C   UNL A   1      42.926  28.524  33.139  1.00  0.00     0.074 A 
ATOM     65  C   UNL A   1      43.584  27.529  32.317  1.00  0.00     0.031 C 
ATOM     66  C   UNL A   1      43.383  28.936  34.349  1.00  0.00     0.034 A 
BRANCH  53  67
ATOM     67  C   UNL A   1      39.837  33.244  37.066  1.00  0.00     0.023 A 
ATOM     68  C   UNL A   1      39.157  32.847  38.232  1.00  0.00     0.031 A 
ATOM     69  C   UNL A   1      40.305  34.570  37.000  1.00  0.00     0.131 A 
ATOM     70  C   UNL A   1      38.906  33.782  39.248  1.00  0.00     0.055 A 
ATOM     71  C   UNL A   1      40.121  35.473  38.049  1.00  0.00     0.041 A 
ATOM     72  F   UNL A   1      40.942  35.015  35.905  1.00  0.00    -0.206 F 
ATOM     73  C   UNL A   1      39.405  35.085  39.176  1.00  0.00     0.022 A 
BRANCH  70  74
ATOM     74  S   UNL A   1      37.797  33.315  40.606  1.00  0.00     0.124 S 
ATOM     75  O   UNL A   1      36.614  32.862  39.878  1.00  0.00    -0.237 OA
ATOM     76  O   UNL A   1      38.562  32.283  41.295  1.00  0.00    -0.237 OA
ATOM     77  O   UNL A   1      37.621  34.562  41.349  1.00  0.00    -0.744 OA
ENDBRANCH  70  74
ENDBRANCH  53  67
BRANCH  54  78
ATOM     78  C   UNL A   1      41.027  27.473  28.953  1.00  0.00     0.023 A 
ATOM     79  C   UNL A   1      41.999  27.841  28.009  1.00  0.00     0.031 A 
ATOM     80  C   UNL A   1      40.247  26.333  28.685  1.00  0.00     0.131 A 
ATOM     81  C   UNL A   1      42.145  27.094  26.829  1.00  0.00     0.055 A 
ATOM     82  C   UNL A   1      40.433  25.562  27.538  1.00  0.00     0.041 A 
ATOM     83  F   UNL A   1      39.300  25.940  29.551  1.00  0.00    -0.206 F 
ATOM     84  C   UNL A   1      41.381  25.948  26.595  1.00  0.00     0.022 A 
BRANCH  81  85
ATOM     85  S   UNL A   1      43.299  27.685  25.561  1.00  0.00     0.124 S 
ATOM     86  O   UNL A   1      44.029  26.467  25.231  1.00  0.00    -0.237 OA
ATOM     87  O   UNL A   1      42.392  28.188  24.536  1.00  0.00    -0.237 OA
ATOM     88  O   UNL A   1      44.076  28.708  26.259  1.00  0.00    -0.744 OA
ENDBRANCH  81  85
ENDBRANCH  54  78
BRANCH  66  89
ATOM     89  C   UNL A   1      44.627  28.266  34.873  1.00  0.00     0.023 A 
ATOM     90  C   UNL A   1      44.566  27.142  35.715  1.00  0.00     0.031 A 
ATOM     91  C   UNL A   1      45.894  28.770  34.530  1.00  0.00     0.131 A 
ATOM     92  C   UNL A   1      45.750  26.586  36.223  1.00  0.00     0.055 A 
ATOM     93  C   UNL A   1      47.070  28.179  34.994  1.00  0.00     0.041 A 
ATOM     94  F   UNL A   1      46.009  29.843  33.731  1.00  0.00    -0.206 F 
ATOM     95  C   UNL A   1      47.002  27.087  35.855  1.00  0.00     0.022 A 
BRANCH  92  96
ATOM     96  S   UNL A   1      45.634  25.240  37.434  1.00  0.00     0.124 S 
ATOM     97  O   UNL A   1      44.382  25.554  38.117  1.00  0.00    -0.237 OA
ATOM     98  O   UNL A   1      45.618  24.054  36.586  1.00  0.00    -0.237 OA
ATOM     99  O   UNL A   1      46.839  25.404  38.246  1.00  0.00    -0.744 OA
ENDBRANCH  92  96
ENDBRANCH  66  89
ENDBRANCH  40  41
ENDBRANCH  33  35
ENDBRANCH  32  33
ENDBRANCH  31  32
ENDBRANCH   1  31
TORSDOF 18
ENDMDL
MODEL 3
REMARK VINA RESULT:     -11.7      4.912      8.664
REMARK SMILES CS(=O)(=O)c1ccc(C2=NN(c3ccc(C(=O)OCCOC(=O)c4ccc(-c5c6nc(c(-c7cc(S(=O)(=O)[O-])ccc7F)c7ccc([nH]7)c(-c7cc(S(=O)(=O)[O-])ccc7F)c7nc(c(-c8cc(S(=O)(=O)[O-])ccc8F)c8ccc5[nH]8)C=C7)C=C6)cc4)cc3)[C@H](c3cccs3)C2)cc1
REMARK SMILES IDX 19 1 18 2 16 3 17 4 15 5 12 6 13 7 88 8 14 9 87 10 11 11
REMARK SMILES IDX 9 12 10 13 95 14 89 15 8 16 5 17 6 18 97 19 7 20 96 21 2 22
REMARK SMILES IDX 1 23 3 24 4 25 90 26 91 27 94 28 92 29 93 30 20 31 21 32
REMARK SMILES IDX 22 33 23 34 24 35 25 36 86 37 26 38 85 39 27 40 28 41 29 42
REMARK SMILES IDX 79 43 30 44 84 45 78 46 80 47 31 48 83 49 77 50 76 51 32 53
REMARK SMILES IDX 64 54 44 55 63 56 45 57 48 58 62 59 81 60 46 61 47 62 61 64
REMARK SMILES IDX 82 65 49 66 33 67 34 68 42 69 35 70 41 71 43 72 40 73 36 74
REMARK SMILES IDX 37 75 38 76 39 77 65 78 66 79 74 80 67 81 73 82 75 83 72 84
REMARK SMILES IDX 68 85 69 86 70 87 71 88 50 89 51 90 59 91 52 92 58 93 60 94
REMARK SMILES IDX 57 95 53 96 54 97 55 98 56 99
REMARK H PARENT 80 52 48 63
REMARK Flexibility Score: inf
ROOT
ATOM      1  C   UNL A   1      36.020  20.720  25.362  1.00  0.00     0.275 C 
ENDROOT
BRANCH   1   2
ATOM      2  O   UNL A   1      35.121  20.997  24.272  1.00  0.00    -0.458 OA
BRANCH   2   3
ATOM      3  C   UNL A   1      33.862  21.353  24.623  1.00  0.00     0.338 C 
ATOM      4  O   UNL A   1      32.893  20.614  24.688  1.00  0.00    -0.246 OA
BRANCH   3   5
ATOM      5  C   UNL A   1      33.798  22.791  24.982  1.00  0.00     0.060 A 
ATOM      6  C   UNL A   1      33.489  25.502  25.654  1.00  0.00     0.060 A 
ATOM      7  C   UNL A   1      32.920  24.511  26.456  1.00  0.00     0.029 A 
ATOM      8  C   UNL A   1      34.259  25.120  24.546  1.00  0.00     0.029 A 
ATOM      9  C   UNL A   1      33.042  23.168  26.102  1.00  0.00     0.018 A 
ATOM     10  C   UNL A   1      34.424  23.773  24.213  1.00  0.00     0.018 A 
BRANCH   6  11
ATOM     11  N   UNL A   1      33.181  26.850  25.848  1.00  0.00    -0.257 N 
ATOM     12  C   UNL A   1      33.477  28.652  26.941  1.00  0.00     0.071 C 
ATOM     13  N   UNL A   1      34.116  27.702  26.330  1.00  0.00    -0.176 NA
ATOM     14  C   UNL A   1      31.985  28.480  27.042  1.00  0.00     0.091 C 
ATOM     15  C   UNL A   1      31.811  27.176  26.262  1.00  0.00     0.154 C 
BRANCH  12  16
ATOM     16  C   UNL A   1      34.152  29.853  27.469  1.00  0.00    -0.002 A 
ATOM     17  C   UNL A   1      35.304  32.155  28.534  1.00  0.00     0.067 A 
ATOM     18  C   UNL A   1      34.015  32.215  27.997  1.00  0.00     0.021 A 
ATOM     19  C   UNL A   1      36.033  30.961  28.511  1.00  0.00     0.021 A 
ATOM     20  C   UNL A   1      33.442  31.061  27.463  1.00  0.00     0.011 A 
ATOM     21  C   UNL A   1      35.451  29.802  27.984  1.00  0.00     0.011 A 
BRANCH  17  22
ATOM     22  S   UNL A   1      36.011  33.616  29.259  1.00  0.00     0.175 S 
ATOM     23  C   UNL A   1      34.996  34.933  28.641  1.00  0.00     0.163 C 
ATOM     24  O   UNL A   1      37.340  33.777  28.709  1.00  0.00    -0.224 OA
ATOM     25  O   UNL A   1      35.786  33.551  30.692  1.00  0.00    -0.224 OA
ENDBRANCH  17  22
ENDBRANCH  12  16
BRANCH  15  26
ATOM     26  C   UNL A   1      30.839  27.185  25.098  1.00  0.00     0.030 A 
ATOM     27  C   UNL A   1      30.692  28.209  24.174  1.00  0.00     0.017 A 
ATOM     28  S   UNL A   1      29.638  25.983  24.875  1.00  0.00    -0.147 S 
ATOM     29  C   UNL A   1      29.570  28.023  23.319  1.00  0.00     0.012 A 
ATOM     30  C   UNL A   1      28.917  26.842  23.584  1.00  0.00     0.065 A 
ENDBRANCH  15  26
ENDBRANCH   6  11
ENDBRANCH   3   5
ENDBRANCH   2   3
ENDBRANCH   1   2
BRANCH   1  31
ATOM     31  C   UNL A   1      37.462  21.048  24.979  1.00  0.00     0.275 C 
BRANCH  31  32
ATOM     32  O   UNL A   1      37.999  22.044  25.866  1.00  0.00    -0.458 OA
BRANCH  32  33
ATOM     33  C   UNL A   1      39.218  21.762  26.385  1.00  0.00     0.338 C 
ATOM     34  O   UNL A   1      39.774  20.679  26.424  1.00  0.00    -0.246 OA
BRANCH  33  35
ATOM     35  C   UNL A   1      39.828  22.999  26.897  1.00  0.00     0.060 A 
ATOM     36  C   UNL A   1      39.356  24.223  26.432  1.00  0.00     0.016 A 
ATOM     37  C   UNL A   1      40.943  22.949  27.730  1.00  0.00     0.016 A 
ATOM     38  C   UNL A   1      40.038  25.401  26.728  1.00  0.00     0.010 A 
ATOM     39  C   UNL A   1      41.576  24.142  28.100  1.00  0.00     0.010 A 
ATOM     40  C   UNL A   1      41.152  25.381  27.577  1.00  0.00    -0.014 A 
BRANCH  40  41
ATOM     41  C   UNL A   1      41.906  26.633  27.876  1.00  0.00     0.031 A 
ATOM     42  C   UNL A   1      43.226  26.891  27.196  1.00  0.00     0.074 A 
ATOM     43  C   UNL A   1      41.420  27.540  28.748  1.00  0.00     0.049 A 
ATOM     44  N   UNL A   1      44.142  27.784  27.469  1.00  0.00    -0.248 NA
ATOM     45  C   UNL A   1      43.566  26.009  26.070  1.00  0.00     0.031 C 
ATOM     46  C   UNL A   1      40.126  27.453  29.430  1.00  0.00     0.029 A 
ATOM     47  N   UNL A   1      41.959  28.715  29.216  1.00  0.00    -0.354 N 
ATOM     48  C   UNL A   1      45.192  27.535  26.590  1.00  0.00     0.074 A 
ATOM     49  C   UNL A   1      44.799  26.398  25.783  1.00  0.00     0.031 C 
ATOM     50  C   UNL A   1      39.963  28.535  30.205  1.00  0.00     0.029 A 
ATOM     51  C   UNL A   1      41.176  29.343  30.158  1.00  0.00     0.049 A 
ATOM     52  H   UNL A   1      42.821  29.074  28.907  1.00  0.00     0.167 HD
ATOM     53  C   UNL A   1      46.376  28.189  26.477  1.00  0.00     0.034 A 
ATOM     54  C   UNL A   1      41.424  30.413  30.940  1.00  0.00     0.034 A 
ATOM     55  C   UNL A   1      46.727  29.352  27.259  1.00  0.00     0.049 A 
ATOM     56  C   UNL A   1      42.763  31.097  30.835  1.00  0.00     0.074 A 
ATOM     57  C   UNL A   1      47.887  30.107  27.212  1.00  0.00     0.029 A 
ATOM     58  N   UNL A   1      45.917  29.935  28.227  1.00  0.00    -0.354 N 
ATOM     59  N   UNL A   1      43.777  30.807  30.053  1.00  0.00    -0.248 NA
ATOM     60  C   UNL A   1      42.996  32.242  31.725  1.00  0.00     0.031 C 
ATOM     61  C   UNL A   1      47.805  31.104  28.190  1.00  0.00     0.029 A 
ATOM     62  C   UNL A   1      46.562  31.021  28.798  1.00  0.00     0.049 A 
ATOM     63  H   UNL A   1      45.016  29.622  28.470  1.00  0.00     0.167 HD
ATOM     64  C   UNL A   1      44.762  31.746  30.346  1.00  0.00     0.074 A 
ATOM     65  C   UNL A   1      44.214  32.619  31.364  1.00  0.00     0.031 C 
ATOM     66  C   UNL A   1      46.007  31.877  29.820  1.00  0.00     0.034 A 
BRANCH  53  67
ATOM     67  C   UNL A   1      47.401  27.623  25.521  1.00  0.00     0.023 A 
ATOM     68  C   UNL A   1      47.512  28.057  24.188  1.00  0.00     0.031 A 
ATOM     69  C   UNL A   1      48.270  26.604  25.954  1.00  0.00     0.131 A 
ATOM     70  C   UNL A   1      48.419  27.426  23.321  1.00  0.00     0.055 A 
ATOM     71  C   UNL A   1      49.224  26.036  25.107  1.00  0.00     0.041 A 
ATOM     72  F   UNL A   1      48.198  26.132  27.209  1.00  0.00    -0.206 F 
ATOM     73  C   UNL A   1      49.293  26.437  23.778  1.00  0.00     0.022 A 
BRANCH  70  74
ATOM     74  S   UNL A   1      48.345  27.818  21.551  1.00  0.00     0.124 S 
ATOM     75  O   UNL A   1      48.793  26.563  20.952  1.00  0.00    -0.237 OA
ATOM     76  O   UNL A   1      46.940  28.154  21.362  1.00  0.00    -0.237 OA
ATOM     77  O   UNL A   1      49.278  28.934  21.408  1.00  0.00    -0.744 OA
ENDBRANCH  70  74
ENDBRANCH  53  67
BRANCH  54  78
ATOM     78  C   UNL A   1      40.420  30.855  31.951  1.00  0.00     0.023 A 
ATOM     79  C   UNL A   1      40.575  30.553  33.313  1.00  0.00     0.031 A 
ATOM     80  C   UNL A   1      39.269  31.565  31.562  1.00  0.00     0.131 A 
ATOM     81  C   UNL A   1      39.583  30.932  34.232  1.00  0.00     0.055 A 
ATOM     82  C   UNL A   1      38.312  31.989  32.485  1.00  0.00     0.041 A 
ATOM     83  F   UNL A   1      39.066  31.876  30.272  1.00  0.00    -0.206 F 
ATOM     84  C   UNL A   1      38.461  31.662  33.830  1.00  0.00     0.022 A 
BRANCH  81  85
ATOM     85  S   UNL A   1      39.738  30.390  35.955  1.00  0.00     0.124 S 
ATOM     86  O   UNL A   1      40.532  29.175  35.816  1.00  0.00    -0.237 OA
ATOM     87  O   UNL A   1      40.410  31.529  36.572  1.00  0.00    -0.237 OA
ATOM     88  O   UNL A   1      38.353  30.186  36.374  1.00  0.00    -0.744 OA
ENDBRANCH  81  85
ENDBRANCH  54  78
BRANCH  66  89
ATOM     89  C   UNL A   1      46.834  33.039  30.304  1.00  0.00     0.023 A 
ATOM     90  C   UNL A   1      46.755  34.307  29.702  1.00  0.00     0.031 A 
ATOM     91  C   UNL A   1      47.723  32.870  31.381  1.00  0.00     0.131 A 
ATOM     92  C   UNL A   1      47.586  35.346  30.152  1.00  0.00     0.055 A 
ATOM     93  C   UNL A   1      48.507  33.921  31.858  1.00  0.00     0.041 A 
ATOM     94  F   UNL A   1      47.840  31.679  31.989  1.00  0.00    -0.206 F 
ATOM     95  C   UNL A   1      48.449  35.165  31.236  1.00  0.00     0.022 A 
BRANCH  92  96
ATOM     96  S   UNL A   1      47.579  36.921  29.252  1.00  0.00     0.124 S 
ATOM     97  O   UNL A   1      46.205  37.374  29.444  1.00  0.00    -0.237 OA
ATOM     98  O   UNL A   1      48.606  37.686  29.950  1.00  0.00    -0.237 OA
ATOM     99  O   UNL A   1      47.918  36.536  27.883  1.00  0.00    -0.744 OA
ENDBRANCH  92  96
ENDBRANCH  66  89
ENDBRANCH  40  41
ENDBRANCH  33  35
ENDBRANCH  32  33
ENDBRANCH  31  32
ENDBRANCH   1  31
TORSDOF 18
ENDMDL
