MODEL 1
REMARK VINA RESULT:     -11.1      0.000      0.000
REMARK SMILES COCCNC(=O)NC(=O)C[N@H+]1CC[C@H](C(=O)OCCOC(=O)c2ccc(-c3c4nc(c(-c5cc(S(=O)(=O)[O-])ccc5F)c5ccc([nH]5)c(-c5cc(S(=O)(=O)[O-])ccc5F)c5nc(c(-c6cc(S(=O)(=O)[O-])ccc6F)c6ccc3[nH]6)C=C5)C=C4)cc2)[C@@H]1C
REMARK SMILES IDX 19 1 18 2 16 3 17 4 15 5 12 6 13 7 87 8 14 10 88 11 11 12
REMARK SMILES IDX 9 13 5 14 6 15 7 17 8 18 10 20 4 21 3 22 2 23 1 24 20 25
REMARK SMILES IDX 21 26 22 27 23 28 24 29 25 30 86 31 26 32 85 33 27 34 28 35
REMARK SMILES IDX 29 36 79 37 30 38 84 39 78 40 80 41 31 42 83 43 77 44 76 45
REMARK SMILES IDX 32 47 64 48 44 49 63 50 45 51 48 52 62 53 81 54 46 55 47 56
REMARK SMILES IDX 61 58 82 59 49 60 33 61 34 62 42 63 35 64 41 65 43 66 40 67
REMARK SMILES IDX 36 68 37 69 38 70 39 71 65 72 66 73 74 74 67 75 73 76 75 77
REMARK SMILES IDX 72 78 68 79 69 80 70 81 71 82 50 83 51 84 59 85 52 86 58 87
REMARK SMILES IDX 60 88 57 89 53 90 54 91 55 92 56 93
REMARK H PARENT 12 9 5 16 8 19 80 46 48 57
REMARK Flexibility Score: inf
ROOT
ATOM      1  C   UNL A   1      34.369  20.979  25.416  1.00  0.00     0.274 C 
ENDROOT
BRANCH   1   2
ATOM      2  O   UNL A   1      34.265  22.416  25.485  1.00  0.00    -0.462 OA
BRANCH   2   3
ATOM      3  C   UNL A   1      33.149  22.911  26.063  1.00  0.00     0.315 C 
ATOM      4  O   UNL A   1      32.281  22.225  26.596  1.00  0.00    -0.252 OA
BRANCH   3   5
ATOM      5  C   UNL A   1      33.126  24.421  26.160  1.00  0.00     0.162 C 
ATOM      6  N   UNL A   1      32.764  26.601  25.267  1.00  0.00    -0.324 N 
ATOM      7  C   UNL A   1      34.096  26.188  24.804  1.00  0.00     0.264 C 
ATOM      8  C   UNL A   1      32.056  25.307  25.514  1.00  0.00     0.195 C 
ATOM      9  H   UNL A   1      32.283  27.191  24.589  1.00  0.00     0.348 HD
ATOM     10  C   UNL A   1      34.449  24.986  25.656  1.00  0.00     0.083 C 
ATOM     11  C   UNL A   1      31.450  24.816  24.198  1.00  0.00     0.076 C 
BRANCH   6  12
ATOM     12  C   UNL A   1      32.842  27.422  26.503  1.00  0.00     0.364 C 
BRANCH  12  13
ATOM     13  C   UNL A   1      33.830  28.588  26.400  1.00  0.00     0.283 C 
ATOM     14  N   UNL A   1      31.315  29.926  24.794  1.00  0.00    -0.335 N 
ATOM     15  C   UNL A   1      32.187  30.301  25.756  1.00  0.00     0.321 C 
ATOM     16  H   UNL A   1      30.406  30.289  24.904  1.00  0.00     0.165 HD
ATOM     17  O   UNL A   1      31.853  31.181  26.545  1.00  0.00    -0.248 OA
ATOM     18  N   UNL A   1      33.435  29.758  25.780  1.00  0.00    -0.273 N 
ATOM     19  H   UNL A   1      34.136  30.256  25.301  1.00  0.00     0.175 HD
ATOM     20  O   UNL A   1      34.968  28.513  26.868  1.00  0.00    -0.268 OA
BRANCH  14  21
ATOM     21  C   UNL A   1      31.485  29.078  23.624  1.00  0.00     0.146 C 
BRANCH  21  22
ATOM     22  C   UNL A   1      30.477  29.389  22.509  1.00  0.00     0.181 C 
BRANCH  22  23
ATOM     23  O   UNL A   1      29.624  28.291  22.187  1.00  0.00    -0.383 OA
ATOM     24  C   UNL A   1      29.048  27.644  23.315  1.00  0.00     0.194 C 
ENDBRANCH  22  23
ENDBRANCH  21  22
ENDBRANCH  14  21
ENDBRANCH  12  13
ENDBRANCH   6  12
ENDBRANCH   3   5
ENDBRANCH   2   3
ENDBRANCH   1   2
BRANCH   1  25
ATOM     25  C   UNL A   1      35.787  20.610  24.990  1.00  0.00     0.275 C 
BRANCH  25  26
ATOM     26  O   UNL A   1      36.671  21.712  25.277  1.00  0.00    -0.458 OA
BRANCH  26  27
ATOM     27  C   UNL A   1      37.951  21.379  25.572  1.00  0.00     0.338 C 
ATOM     28  O   UNL A   1      38.483  20.303  25.324  1.00  0.00    -0.246 OA
BRANCH  27  29
ATOM     29  C   UNL A   1      38.670  22.514  26.214  1.00  0.00     0.060 A 
ATOM     30  C   UNL A   1      38.218  23.833  26.108  1.00  0.00     0.016 A 
ATOM     31  C   UNL A   1      39.892  22.267  26.845  1.00  0.00     0.016 A 
ATOM     32  C   UNL A   1      39.041  24.890  26.510  1.00  0.00     0.010 A 
ATOM     33  C   UNL A   1      40.648  23.327  27.369  1.00  0.00     0.010 A 
ATOM     34  C   UNL A   1      40.251  24.663  27.185  1.00  0.00    -0.014 A 
BRANCH  34  35
ATOM     35  C   UNL A   1      41.099  25.794  27.693  1.00  0.00     0.031 A 
ATOM     36  C   UNL A   1      40.504  26.868  28.581  1.00  0.00     0.074 A 
ATOM     37  C   UNL A   1      42.403  25.898  27.354  1.00  0.00     0.049 A 
ATOM     38  N   UNL A   1      40.956  28.068  28.848  1.00  0.00    -0.248 NA
ATOM     39  C   UNL A   1      39.218  26.558  29.224  1.00  0.00     0.031 C 
ATOM     40  C   UNL A   1      43.156  24.938  26.544  1.00  0.00     0.029 A 
ATOM     41  N   UNL A   1      43.335  26.868  27.650  1.00  0.00    -0.354 N 
ATOM     42  C   UNL A   1      39.975  28.685  29.623  1.00  0.00     0.074 A 
ATOM     43  C   UNL A   1      38.906  27.720  29.781  1.00  0.00     0.031 C 
ATOM     44  C   UNL A   1      44.435  25.331  26.461  1.00  0.00     0.029 A 
ATOM     45  C   UNL A   1      44.572  26.638  27.088  1.00  0.00     0.049 A 
ATOM     46  H   UNL A   1      43.137  27.654  28.209  1.00  0.00     0.167 HD
ATOM     47  C   UNL A   1      39.968  29.939  30.146  1.00  0.00     0.034 A 
ATOM     48  C   UNL A   1      45.676  27.408  27.014  1.00  0.00     0.034 A 
ATOM     49  C   UNL A   1      41.076  30.864  30.056  1.00  0.00     0.049 A 
ATOM     50  C   UNL A   1      45.642  28.798  27.591  1.00  0.00     0.074 A 
ATOM     51  C   UNL A   1      41.167  32.154  30.554  1.00  0.00     0.029 A 
ATOM     52  N   UNL A   1      42.299  30.587  29.461  1.00  0.00    -0.354 N 
ATOM     53  N   UNL A   1      44.658  29.416  28.201  1.00  0.00    -0.248 NA
ATOM     54  C   UNL A   1      46.862  29.603  27.445  1.00  0.00     0.031 C 
ATOM     55  C   UNL A   1      42.426  32.671  30.224  1.00  0.00     0.029 A 
ATOM     56  C   UNL A   1      43.144  31.683  29.575  1.00  0.00     0.049 A 
ATOM     57  H   UNL A   1      42.533  29.738  29.021  1.00  0.00     0.167 HD
ATOM     58  C   UNL A   1      45.143  30.683  28.510  1.00  0.00     0.074 A 
ATOM     59  C   UNL A   1      46.518  30.725  28.057  1.00  0.00     0.031 C 
ATOM     60  C   UNL A   1      44.506  31.723  29.103  1.00  0.00     0.034 A 
BRANCH  47  61
ATOM     61  C   UNL A   1      38.701  30.416  30.819  1.00  0.00     0.023 A 
ATOM     62  C   UNL A   1      37.666  31.050  30.113  1.00  0.00     0.031 A 
ATOM     63  C   UNL A   1      38.524  30.205  32.199  1.00  0.00     0.131 A 
ATOM     64  C   UNL A   1      36.522  31.494  30.799  1.00  0.00     0.055 A 
ATOM     65  C   UNL A   1      37.356  30.587  32.863  1.00  0.00     0.041 A 
ATOM     66  F   UNL A   1      39.485  29.617  32.929  1.00  0.00    -0.206 F 
ATOM     67  C   UNL A   1      36.349  31.244  32.163  1.00  0.00     0.022 A 
BRANCH  64  68
ATOM     68  S   UNL A   1      35.297  32.488  29.903  1.00  0.00     0.124 S 
ATOM     69  O   UNL A   1      36.121  33.584  29.398  1.00  0.00    -0.237 OA
ATOM     70  O   UNL A   1      34.798  31.550  28.903  1.00  0.00    -0.237 OA
ATOM     71  O   UNL A   1      34.337  32.864  30.938  1.00  0.00    -0.744 OA
ENDBRANCH  64  68
ENDBRANCH  47  61
BRANCH  48  72
ATOM     72  C   UNL A   1      46.885  26.930  26.280  1.00  0.00     0.023 A 
ATOM     73  C   UNL A   1      47.945  26.309  26.959  1.00  0.00     0.031 A 
ATOM     74  C   UNL A   1      47.023  27.141  24.896  1.00  0.00     0.131 A 
ATOM     75  C   UNL A   1      49.112  25.960  26.261  1.00  0.00     0.055 A 
ATOM     76  C   UNL A   1      48.157  26.730  24.195  1.00  0.00     0.041 A 
ATOM     77  F   UNL A   1      46.043  27.737  24.197  1.00  0.00    -0.206 F 
ATOM     78  C   UNL A   1      49.218  26.150  24.882  1.00  0.00     0.022 A 
BRANCH  75  79
ATOM     79  S   UNL A   1      50.536  25.353  27.205  1.00  0.00     0.124 S 
ATOM     80  O   UNL A   1      50.911  26.535  27.973  1.00  0.00    -0.237 OA
ATOM     81  O   UNL A   1      49.949  24.254  27.964  1.00  0.00    -0.237 OA
ATOM     82  O   UNL A   1      51.486  24.954  26.167  1.00  0.00    -0.744 OA
ENDBRANCH  75  79
ENDBRANCH  48  72
BRANCH  60  83
ATOM     83  C   UNL A   1      45.318  32.975  29.318  1.00  0.00     0.023 A 
ATOM     84  C   UNL A   1      45.400  33.976  28.333  1.00  0.00     0.031 A 
ATOM     85  C   UNL A   1      46.068  33.142  30.495  1.00  0.00     0.131 A 
ATOM     86  C   UNL A   1      46.267  35.065  28.512  1.00  0.00     0.055 A 
ATOM     87  C   UNL A   1      46.885  34.256  30.694  1.00  0.00     0.041 A 
ATOM     88  F   UNL A   1      46.028  32.216  31.467  1.00  0.00    -0.206 F 
ATOM     89  C   UNL A   1      47.001  35.217  29.692  1.00  0.00     0.022 A 
BRANCH  86  90
ATOM     90  S   UNL A   1      46.508  36.223  27.137  1.00  0.00     0.124 S 
ATOM     91  O   UNL A   1      45.957  35.478  26.010  1.00  0.00    -0.237 OA
ATOM     92  O   UNL A   1      45.738  37.385  27.570  1.00  0.00    -0.237 OA
ATOM     93  O   UNL A   1      47.956  36.419  27.102  1.00  0.00    -0.744 OA
ENDBRANCH  86  90
ENDBRANCH  60  83
ENDBRANCH  34  35
ENDBRANCH  27  29
ENDBRANCH  26  27
ENDBRANCH  25  26
ENDBRANCH   1  25
TORSDOF 19
ENDMDL
MODEL 2
REMARK VINA RESULT:     -11.0      4.705      9.949
REMARK SMILES COCCNC(=O)NC(=O)C[N@H+]1CC[C@H](C(=O)OCCOC(=O)c2ccc(-c3c4nc(c(-c5cc(S(=O)(=O)[O-])ccc5F)c5ccc([nH]5)c(-c5cc(S(=O)(=O)[O-])ccc5F)c5nc(c(-c6cc(S(=O)(=O)[O-])ccc6F)c6ccc3[nH]6)C=C5)C=C4)cc2)[C@@H]1C
REMARK SMILES IDX 19 1 18 2 16 3 17 4 15 5 12 6 13 7 87 8 14 10 88 11 11 12
REMARK SMILES IDX 9 13 5 14 6 15 7 17 8 18 10 20 4 21 3 22 2 23 1 24 20 25
REMARK SMILES IDX 21 26 22 27 23 28 24 29 25 30 86 31 26 32 85 33 27 34 28 35
REMARK SMILES IDX 29 36 79 37 30 38 84 39 78 40 80 41 31 42 83 43 77 44 76 45
REMARK SMILES IDX 32 47 64 48 44 49 63 50 45 51 48 52 62 53 81 54 46 55 47 56
REMARK SMILES IDX 61 58 82 59 49 60 33 61 34 62 42 63 35 64 41 65 43 66 40 67
REMARK SMILES IDX 36 68 37 69 38 70 39 71 65 72 66 73 74 74 67 75 73 76 75 77
REMARK SMILES IDX 72 78 68 79 69 80 70 81 71 82 50 83 51 84 59 85 52 86 58 87
REMARK SMILES IDX 60 88 57 89 53 90 54 91 55 92 56 93
REMARK H PARENT 12 9 5 16 8 19 80 46 48 57
REMARK Flexibility Score: inf
ROOT
ATOM      1  C   UNL A   1      31.089  29.217  24.353  1.00  0.00     0.274 C 
ENDROOT
BRANCH   1   2
ATOM      2  O   UNL A   1      30.578  27.909  24.029  1.00  0.00    -0.462 OA
BRANCH   2   3
ATOM      3  C   UNL A   1      31.388  27.110  23.300  1.00  0.00     0.315 C 
ATOM      4  O   UNL A   1      32.093  27.499  22.372  1.00  0.00    -0.252 OA
BRANCH   3   5
ATOM      5  C   UNL A   1      31.498  25.697  23.831  1.00  0.00     0.162 C 
ATOM      6  N   UNL A   1      32.729  23.817  24.624  1.00  0.00    -0.324 N 
ATOM      7  C   UNL A   1      32.812  23.768  23.158  1.00  0.00     0.264 C 
ATOM      8  C   UNL A   1      32.485  25.263  24.919  1.00  0.00     0.195 C 
ATOM      9  H   UNL A   1      33.571  23.459  25.074  1.00  0.00     0.348 HD
ATOM     10  C   UNL A   1      31.751  24.736  22.676  1.00  0.00     0.083 C 
ATOM     11  C   UNL A   1      33.830  25.990  24.967  1.00  0.00     0.076 C 
BRANCH   6  12
ATOM     12  C   UNL A   1      31.627  22.964  25.142  1.00  0.00     0.364 C 
BRANCH  12  13
ATOM     13  C   UNL A   1      31.544  22.937  26.671  1.00  0.00     0.283 C 
ATOM     14  N   UNL A   1      33.774  20.582  26.252  1.00  0.00    -0.335 N 
ATOM     15  C   UNL A   1      33.614  21.663  27.048  1.00  0.00     0.321 C 
ATOM     16  H   UNL A   1      34.705  20.410  25.982  1.00  0.00     0.165 HD
ATOM     17  O   UNL A   1      34.612  22.207  27.513  1.00  0.00    -0.248 OA
ATOM     18  N   UNL A   1      32.359  22.073  27.378  1.00  0.00    -0.273 N 
ATOM     19  H   UNL A   1      31.990  21.714  28.216  1.00  0.00     0.175 HD
ATOM     20  O   UNL A   1      30.776  23.677  27.289  1.00  0.00    -0.268 OA
BRANCH  14  21
ATOM     21  C   UNL A   1      32.810  19.628  25.726  1.00  0.00     0.146 C 
BRANCH  21  22
ATOM     22  C   UNL A   1      32.979  19.376  24.221  1.00  0.00     0.181 C 
BRANCH  22  23
ATOM     23  O   UNL A   1      32.516  18.093  23.800  1.00  0.00    -0.383 OA
ATOM     24  C   UNL A   1      33.501  17.294  23.157  1.00  0.00     0.194 C 
ENDBRANCH  22  23
ENDBRANCH  21  22
ENDBRANCH  14  21
ENDBRANCH  12  13
ENDBRANCH   6  12
ENDBRANCH   3   5
ENDBRANCH   2   3
ENDBRANCH   1   2
BRANCH   1  25
ATOM     25  C   UNL A   1      31.723  29.165  25.740  1.00  0.00     0.275 C 
BRANCH  25  26
ATOM     26  O   UNL A   1      32.924  29.962  25.744  1.00  0.00    -0.458 OA
BRANCH  26  27
ATOM     27  C   UNL A   1      32.967  30.958  26.662  1.00  0.00     0.338 C 
ATOM     28  O   UNL A   1      32.120  31.832  26.806  1.00  0.00    -0.246 OA
BRANCH  27  29
ATOM     29  C   UNL A   1      34.174  30.844  27.527  1.00  0.00     0.060 A 
ATOM     30  C   UNL A   1      34.957  31.954  27.857  1.00  0.00     0.016 A 
ATOM     31  C   UNL A   1      34.600  29.574  27.925  1.00  0.00     0.016 A 
ATOM     32  C   UNL A   1      36.206  31.777  28.460  1.00  0.00     0.010 A 
ATOM     33  C   UNL A   1      35.790  29.420  28.652  1.00  0.00     0.010 A 
ATOM     34  C   UNL A   1      36.633  30.516  28.908  1.00  0.00    -0.014 A 
BRANCH  34  35
ATOM     35  C   UNL A   1      37.936  30.331  29.631  1.00  0.00     0.031 A 
ATOM     36  C   UNL A   1      39.040  29.485  29.032  1.00  0.00     0.074 A 
ATOM     37  C   UNL A   1      38.150  30.892  30.842  1.00  0.00     0.049 A 
ATOM     38  N   UNL A   1      40.078  28.939  29.616  1.00  0.00    -0.248 NA
ATOM     39  C   UNL A   1      38.942  29.189  27.595  1.00  0.00     0.031 C 
ATOM     40  C   UNL A   1      37.219  31.771  31.554  1.00  0.00     0.029 A 
ATOM     41  N   UNL A   1      39.226  30.805  31.697  1.00  0.00    -0.354 N 
ATOM     42  C   UNL A   1      40.712  28.173  28.639  1.00  0.00     0.074 A 
ATOM     43  C   UNL A   1      39.937  28.329  27.425  1.00  0.00     0.031 C 
ATOM     44  C   UNL A   1      37.785  32.188  32.696  1.00  0.00     0.029 A 
ATOM     45  C   UNL A   1      39.058  31.502  32.873  1.00  0.00     0.049 A 
ATOM     46  H   UNL A   1      40.040  30.292  31.488  1.00  0.00     0.167 HD
ATOM     47  C   UNL A   1      41.830  27.409  28.749  1.00  0.00     0.034 A 
ATOM     48  C   UNL A   1      39.794  31.540  34.002  1.00  0.00     0.034 A 
ATOM     49  C   UNL A   1      42.646  27.328  29.941  1.00  0.00     0.049 A 
ATOM     50  C   UNL A   1      41.023  30.677  34.106  1.00  0.00     0.074 A 
ATOM     51  C   UNL A   1      43.796  26.586  30.151  1.00  0.00     0.029 A 
ATOM     52  N   UNL A   1      42.420  28.041  31.111  1.00  0.00    -0.354 N 
ATOM     53  N   UNL A   1      41.532  29.853  33.220  1.00  0.00    -0.248 NA
ATOM     54  C   UNL A   1      41.762  30.731  35.375  1.00  0.00     0.031 C 
ATOM     55  C   UNL A   1      44.242  26.816  31.458  1.00  0.00     0.029 A 
ATOM     56  C   UNL A   1      43.406  27.750  32.045  1.00  0.00     0.049 A 
ATOM     57  H   UNL A   1      41.671  28.662  31.257  1.00  0.00     0.167 HD
ATOM     58  C   UNL A   1      42.652  29.292  33.828  1.00  0.00     0.074 A 
ATOM     59  C   UNL A   1      42.766  29.901  35.136  1.00  0.00     0.031 C 
ATOM     60  C   UNL A   1      43.501  28.347  33.354  1.00  0.00     0.034 A 
BRANCH  47  61
ATOM     61  C   UNL A   1      42.216  26.548  27.569  1.00  0.00     0.023 A 
ATOM     62  C   UNL A   1      41.844  25.198  27.467  1.00  0.00     0.031 A 
ATOM     63  C   UNL A   1      42.956  27.109  26.510  1.00  0.00     0.131 A 
ATOM     64  C   UNL A   1      42.254  24.441  26.355  1.00  0.00     0.055 A 
ATOM     65  C   UNL A   1      43.302  26.370  25.376  1.00  0.00     0.041 A 
ATOM     66  F   UNL A   1      43.352  28.391  26.557  1.00  0.00    -0.206 F 
ATOM     67  C   UNL A   1      42.958  25.025  25.299  1.00  0.00     0.022 A 
BRANCH  64  68
ATOM     68  S   UNL A   1      41.936  22.656  26.348  1.00  0.00     0.124 S 
ATOM     69  O   UNL A   1      42.640  22.236  25.139  1.00  0.00    -0.237 OA
ATOM     70  O   UNL A   1      42.522  22.224  27.612  1.00  0.00    -0.237 OA
ATOM     71  O   UNL A   1      40.479  22.567  26.275  1.00  0.00    -0.744 OA
ENDBRANCH  64  68
ENDBRANCH  47  61
BRANCH  48  72
ATOM     72  C   UNL A   1      39.343  32.348  35.174  1.00  0.00     0.023 A 
ATOM     73  C   UNL A   1      39.758  33.679  35.337  1.00  0.00     0.031 A 
ATOM     74  C   UNL A   1      38.538  31.780  36.178  1.00  0.00     0.131 A 
ATOM     75  C   UNL A   1      39.402  34.383  36.497  1.00  0.00     0.055 A 
ATOM     76  C   UNL A   1      38.131  32.508  37.297  1.00  0.00     0.041 A 
ATOM     77  F   UNL A   1      38.119  30.509  36.078  1.00  0.00    -0.206 F 
ATOM     78  C   UNL A   1      38.577  33.813  37.469  1.00  0.00     0.022 A 
BRANCH  75  79
ATOM     79  S   UNL A   1      40.125  36.024  36.771  1.00  0.00     0.124 S 
ATOM     80  O   UNL A   1      39.434  36.457  37.980  1.00  0.00    -0.237 OA
ATOM     81  O   UNL A   1      41.542  35.708  36.919  1.00  0.00    -0.237 OA
ATOM     82  O   UNL A   1      39.775  36.756  35.555  1.00  0.00    -0.744 OA
ENDBRANCH  75  79
ENDBRANCH  48  72
BRANCH  60  83
ATOM     83  C   UNL A   1      44.643  27.954  34.256  1.00  0.00     0.023 A 
ATOM     84  C   UNL A   1      44.523  26.893  35.172  1.00  0.00     0.031 A 
ATOM     85  C   UNL A   1      45.842  28.686  34.244  1.00  0.00     0.131 A 
ATOM     86  C   UNL A   1      45.557  26.638  36.086  1.00  0.00     0.055 A 
ATOM     87  C   UNL A   1      46.891  28.392  35.117  1.00  0.00     0.041 A 
ATOM     88  F   UNL A   1      46.008  29.711  33.392  1.00  0.00    -0.206 F 
ATOM     89  C   UNL A   1      46.745  27.374  36.055  1.00  0.00     0.022 A 
BRANCH  86  90
ATOM     90  S   UNL A   1      45.285  25.405  37.388  1.00  0.00     0.124 S 
ATOM     91  O   UNL A   1      46.632  25.222  37.921  1.00  0.00    -0.237 OA
ATOM     92  O   UNL A   1      44.337  26.082  38.267  1.00  0.00    -0.237 OA
ATOM     93  O   UNL A   1      44.745  24.255  36.664  1.00  0.00    -0.744 OA
ENDBRANCH  86  90
ENDBRANCH  60  83
ENDBRANCH  34  35
ENDBRANCH  27  29
ENDBRANCH  26  27
ENDBRANCH  25  26
ENDBRANCH   1  25
TORSDOF 19
ENDMDL
MODEL 3
REMARK VINA RESULT:     -10.7      1.713      2.514
REMARK SMILES COCCNC(=O)NC(=O)C[N@H+]1CC[C@H](C(=O)OCCOC(=O)c2ccc(-c3c4nc(c(-c5cc(S(=O)(=O)[O-])ccc5F)c5ccc([nH]5)c(-c5cc(S(=O)(=O)[O-])ccc5F)c5nc(c(-c6cc(S(=O)(=O)[O-])ccc6F)c6ccc3[nH]6)C=C5)C=C4)cc2)[C@@H]1C
REMARK SMILES IDX 19 1 18 2 16 3 17 4 15 5 12 6 13 7 87 8 14 10 88 11 11 12
REMARK SMILES IDX 9 13 5 14 6 15 7 17 8 18 10 20 4 21 3 22 2 23 1 24 20 25
REMARK SMILES IDX 21 26 22 27 23 28 24 29 25 30 86 31 26 32 85 33 27 34 28 35
REMARK SMILES IDX 29 36 79 37 30 38 84 39 78 40 80 41 31 42 83 43 77 44 76 45
REMARK SMILES IDX 32 47 64 48 44 49 63 50 45 51 48 52 62 53 81 54 46 55 47 56
REMARK SMILES IDX 61 58 82 59 49 60 33 61 34 62 42 63 35 64 41 65 43 66 40 67
REMARK SMILES IDX 36 68 37 69 38 70 39 71 65 72 66 73 74 74 67 75 73 76 75 77
REMARK SMILES IDX 72 78 68 79 69 80 70 81 71 82 50 83 51 84 59 85 52 86 58 87
REMARK SMILES IDX 60 88 57 89 53 90 54 91 55 92 56 93
REMARK H PARENT 12 9 5 16 8 19 80 46 48 57
REMARK Flexibility Score: inf
ROOT
ATOM      1  C   UNL A   1      35.882  23.127  23.884  1.00  0.00     0.274 C 
ENDROOT
BRANCH   1   2
ATOM      2  O   UNL A   1      34.820  23.142  24.859  1.00  0.00    -0.462 OA
BRANCH   2   3
ATOM      3  C   UNL A   1      33.629  22.645  24.459  1.00  0.00     0.315 C 
ATOM      4  O   UNL A   1      33.331  21.454  24.486  1.00  0.00    -0.252 OA
BRANCH   3   5
ATOM      5  C   UNL A   1      32.601  23.704  24.128  1.00  0.00     0.162 C 
ATOM      6  N   UNL A   1      30.402  24.622  24.190  1.00  0.00    -0.324 N 
ATOM      7  C   UNL A   1      30.393  23.618  23.118  1.00  0.00     0.264 C 
ATOM      8  C   UNL A   1      31.506  24.169  25.093  1.00  0.00     0.195 C 
ATOM      9  H   UNL A   1      29.504  24.690  24.668  1.00  0.00     0.348 HD
ATOM     10  C   UNL A   1      31.854  23.312  22.859  1.00  0.00     0.083 C 
ATOM     11  C   UNL A   1      30.951  23.129  26.067  1.00  0.00     0.076 C 
BRANCH   6  12
ATOM     12  C   UNL A   1      30.658  25.988  23.662  1.00  0.00     0.364 C 
BRANCH  12  13
ATOM     13  C   UNL A   1      29.467  26.937  23.824  1.00  0.00     0.283 C 
ATOM     14  N   UNL A   1      31.751  29.138  23.024  1.00  0.00    -0.335 N 
ATOM     15  C   UNL A   1      30.476  28.862  22.671  1.00  0.00     0.321 C 
ATOM     16  H   UNL A   1      32.317  29.461  22.287  1.00  0.00     0.165 HD
ATOM     17  O   UNL A   1      30.084  29.206  21.559  1.00  0.00    -0.248 OA
ATOM     18  N   UNL A   1      29.638  28.286  23.576  1.00  0.00    -0.273 N 
ATOM     19  H   UNL A   1      29.091  28.901  24.115  1.00  0.00     0.175 HD
ATOM     20  O   UNL A   1      28.354  26.526  24.158  1.00  0.00    -0.268 OA
BRANCH  14  21
ATOM     21  C   UNL A   1      32.433  29.039  24.305  1.00  0.00     0.146 C 
BRANCH  21  22
ATOM     22  C   UNL A   1      33.833  28.418  24.192  1.00  0.00     0.181 C 
BRANCH  22  23
ATOM     23  O   UNL A   1      33.926  27.111  24.756  1.00  0.00    -0.383 OA
ATOM     24  C   UNL A   1      33.533  27.029  26.120  1.00  0.00     0.194 C 
ENDBRANCH  22  23
ENDBRANCH  21  22
ENDBRANCH  14  21
ENDBRANCH  12  13
ENDBRANCH   6  12
ENDBRANCH   3   5
ENDBRANCH   2   3
ENDBRANCH   1   2
BRANCH   1  25
ATOM     25  C   UNL A   1      36.696  21.849  24.066  1.00  0.00     0.275 C 
BRANCH  25  26
ATOM     26  O   UNL A   1      36.995  21.672  25.465  1.00  0.00    -0.458 OA
BRANCH  26  27
ATOM     27  C   UNL A   1      38.290  21.399  25.761  1.00  0.00     0.338 C 
ATOM     28  O   UNL A   1      38.865  20.342  25.532  1.00  0.00    -0.246 OA
BRANCH  27  29
ATOM     29  C   UNL A   1      38.964  22.576  26.375  1.00  0.00     0.060 A 
ATOM     30  C   UNL A   1      38.521  23.883  26.152  1.00  0.00     0.016 A 
ATOM     31  C   UNL A   1      40.140  22.377  27.102  1.00  0.00     0.016 A 
ATOM     32  C   UNL A   1      39.313  24.969  26.539  1.00  0.00     0.010 A 
ATOM     33  C   UNL A   1      40.858  23.471  27.606  1.00  0.00     0.010 A 
ATOM     34  C   UNL A   1      40.475  24.791  27.308  1.00  0.00    -0.014 A 
BRANCH  34  35
ATOM     35  C   UNL A   1      41.286  25.956  27.798  1.00  0.00     0.031 A 
ATOM     36  C   UNL A   1      40.663  27.013  28.688  1.00  0.00     0.074 A 
ATOM     37  C   UNL A   1      42.581  26.108  27.441  1.00  0.00     0.049 A 
ATOM     38  N   UNL A   1      41.073  28.231  28.941  1.00  0.00    -0.248 NA
ATOM     39  C   UNL A   1      39.399  26.659  29.350  1.00  0.00     0.031 C 
ATOM     40  C   UNL A   1      43.358  25.171  26.626  1.00  0.00     0.029 A 
ATOM     41  N   UNL A   1      43.480  27.114  27.717  1.00  0.00    -0.354 N 
ATOM     42  C   UNL A   1      40.080  28.816  29.726  1.00  0.00     0.074 A 
ATOM     43  C   UNL A   1      39.050  27.812  29.905  1.00  0.00     0.031 C 
ATOM     44  C   UNL A   1      44.621  25.612  26.522  1.00  0.00     0.029 A 
ATOM     45  C   UNL A   1      44.716  26.927  27.140  1.00  0.00     0.049 A 
ATOM     46  H   UNL A   1      43.259  27.895  28.275  1.00  0.00     0.167 HD
ATOM     47  C   UNL A   1      40.032  30.072  30.241  1.00  0.00     0.034 A 
ATOM     48  C   UNL A   1      45.789  27.738  27.046  1.00  0.00     0.034 A 
ATOM     49  C   UNL A   1      41.103  31.037  30.131  1.00  0.00     0.049 A 
ATOM     50  C   UNL A   1      45.710  29.129  27.615  1.00  0.00     0.074 A 
ATOM     51  C   UNL A   1      41.152  32.333  30.620  1.00  0.00     0.029 A 
ATOM     52  N   UNL A   1      42.328  30.803  29.520  1.00  0.00    -0.354 N 
ATOM     53  N   UNL A   1      44.712  29.713  28.235  1.00  0.00    -0.248 NA
ATOM     54  C   UNL A   1      46.897  29.979  27.447  1.00  0.00     0.031 C 
ATOM     55  C   UNL A   1      42.386  32.895  30.270  1.00  0.00     0.029 A 
ATOM     56  C   UNL A   1      43.133  31.931  29.616  1.00  0.00     0.049 A 
ATOM     57  H   UNL A   1      42.588  29.961  29.083  1.00  0.00     0.167 HD
ATOM     58  C   UNL A   1      45.153  31.000  28.530  1.00  0.00     0.074 A 
ATOM     59  C   UNL A   1      46.519  31.091  28.058  1.00  0.00     0.031 C 
ATOM     60  C   UNL A   1      44.486  32.020  29.125  1.00  0.00     0.034 A 
BRANCH  47  61
ATOM     61  C   UNL A   1      38.758  30.505  30.929  1.00  0.00     0.023 A 
ATOM     62  C   UNL A   1      37.705  31.129  30.240  1.00  0.00     0.031 A 
ATOM     63  C   UNL A   1      38.592  30.262  32.306  1.00  0.00     0.131 A 
ATOM     64  C   UNL A   1      36.554  31.531  30.940  1.00  0.00     0.055 A 
ATOM     65  C   UNL A   1      37.418  30.603  32.981  1.00  0.00     0.041 A 
ATOM     66  F   UNL A   1      39.570  29.681  33.020  1.00  0.00    -0.206 F 
ATOM     67  C   UNL A   1      36.393  31.250  32.299  1.00  0.00     0.022 A 
BRANCH  64  68
ATOM     68  S   UNL A   1      35.302  32.514  30.069  1.00  0.00     0.124 S 
ATOM     69  O   UNL A   1      34.912  31.605  28.993  1.00  0.00    -0.237 OA
ATOM     70  O   UNL A   1      34.302  32.743  31.106  1.00  0.00    -0.237 OA
ATOM     71  O   UNL A   1      36.036  33.701  29.638  1.00  0.00    -0.744 OA
ENDBRANCH  64  68
ENDBRANCH  47  61
BRANCH  48  72
ATOM     72  C   UNL A   1      47.005  27.301  26.298  1.00  0.00     0.023 A 
ATOM     73  C   UNL A   1      47.229  27.716  24.975  1.00  0.00     0.031 A 
ATOM     74  C   UNL A   1      47.932  26.415  26.876  1.00  0.00     0.131 A 
ATOM     75  C   UNL A   1      48.327  27.210  24.262  1.00  0.00     0.055 A 
ATOM     76  C   UNL A   1      49.059  25.970  26.185  1.00  0.00     0.041 A 
ATOM     77  F   UNL A   1      47.764  25.981  28.136  1.00  0.00    -0.206 F 
ATOM     78  C   UNL A   1      49.252  26.355  24.863  1.00  0.00     0.022 A 
BRANCH  75  79
ATOM     79  S   UNL A   1      48.468  27.603  22.497  1.00  0.00     0.124 S 
ATOM     80  O   UNL A   1      48.639  26.279  21.910  1.00  0.00    -0.237 OA
ATOM     81  O   UNL A   1      47.194  28.263  22.232  1.00  0.00    -0.237 OA
ATOM     82  O   UNL A   1      49.643  28.470  22.435  1.00  0.00    -0.744 OA
ENDBRANCH  75  79
ENDBRANCH  48  72
BRANCH  60  83
ATOM     83  C   UNL A   1      45.252  33.303  29.322  1.00  0.00     0.023 A 
ATOM     84  C   UNL A   1      45.292  34.295  28.325  1.00  0.00     0.031 A 
ATOM     85  C   UNL A   1      46.002  33.509  30.492  1.00  0.00     0.131 A 
ATOM     86  C   UNL A   1      46.119  35.416  28.488  1.00  0.00     0.055 A 
ATOM     87  C   UNL A   1      46.780  34.655  30.673  1.00  0.00     0.041 A 
ATOM     88  F   UNL A   1      46.003  32.593  31.474  1.00  0.00    -0.206 F 
ATOM     89  C   UNL A   1      46.854  35.608  29.661  1.00  0.00     0.022 A 
BRANCH  86  90
ATOM     90  S   UNL A   1      46.308  36.568  27.099  1.00  0.00     0.124 S 
ATOM     91  O   UNL A   1      46.164  35.684  25.947  1.00  0.00    -0.237 OA
ATOM     92  O   UNL A   1      45.214  37.508  27.322  1.00  0.00    -0.237 OA
ATOM     93  O   UNL A   1      47.648  37.121  27.291  1.00  0.00    -0.744 OA
ENDBRANCH  86  90
ENDBRANCH  60  83
ENDBRANCH  34  35
ENDBRANCH  27  29
ENDBRANCH  26  27
ENDBRANCH  25  26
ENDBRANCH   1  25
TORSDOF 19
ENDMDL
