MODEL 1
REMARK VINA RESULT:     -10.0      0.000      0.000
REMARK SMILES CC[C@H](CCC1CC1)C(=O)OCCOC(=O)c1ccc(-c2c3nc(c(-c4cc(S(=O)(=O)[O-])ccc4F)c4ccc([nH]4)c(-c4cc(S(=O)(=O)[O-])ccc4F)c4nc(c(-c5cc(S(=O)(=O)[O-])ccc5F)c5ccc2[nH]5)C=C4)C=C3)cc1
REMARK SMILES IDX 12 1 11 2 9 3 10 4 3 5 2 6 1 7 4 8 5 9 6 10 7 11 8 12 13 13
REMARK SMILES IDX 14 14 15 15 16 16 17 17 18 18 79 19 19 20 78 21 20 22 21 23
REMARK SMILES IDX 22 24 72 25 23 26 77 27 71 28 73 29 24 30 76 31 70 32 69 33
REMARK SMILES IDX 25 35 57 36 37 37 56 38 38 39 41 40 55 41 74 42 39 43 40 44
REMARK SMILES IDX 54 46 75 47 42 48 26 49 27 50 35 51 28 52 34 53 36 54 33 55
REMARK SMILES IDX 29 56 30 57 31 58 32 59 58 60 59 61 67 62 60 63 66 64 68 65
REMARK SMILES IDX 65 66 61 67 62 68 63 69 64 70 43 71 44 72 52 73 45 74 51 75
REMARK SMILES IDX 53 76 50 77 46 78 47 79 48 80 49 81
REMARK H PARENT 73 34 41 45
REMARK Flexibility Score: inf
ROOT
ATOM      1  C   UNL A   1      36.276  22.485  23.800  1.00  0.00     0.274 C 
ENDROOT
BRANCH   1   2
ATOM      2  O   UNL A   1      35.010  22.848  24.388  1.00  0.00    -0.462 OA
BRANCH   2   3
ATOM      3  C   UNL A   1      34.040  23.184  23.501  1.00  0.00     0.309 C 
ATOM      4  O   UNL A   1      34.210  23.934  22.544  1.00  0.00    -0.252 OA
BRANCH   3   5
ATOM      5  C   UNL A   1      32.663  22.621  23.835  1.00  0.00     0.099 C 
BRANCH   5   6
ATOM      6  C   UNL A   1      32.428  22.844  25.343  1.00  0.00     0.012 C 
ATOM      7  C   UNL A   1      30.998  22.569  25.802  1.00  0.00     0.005 C 
ENDBRANCH   5   6
BRANCH   5   8
ATOM      8  C   UNL A   1      32.318  21.177  23.429  1.00  0.00     0.015 C 
BRANCH   8   9
ATOM      9  C   UNL A   1      33.118  20.080  24.139  1.00  0.00     0.004 C 
BRANCH   9  10
ATOM     10  C   UNL A   1      32.525  18.704  23.960  1.00  0.00    -0.011 C 
ATOM     11  C   UNL A   1      33.453  17.531  23.764  1.00  0.00     0.004 C 
ATOM     12  C   UNL A   1      32.623  17.613  25.007  1.00  0.00     0.004 C 
ENDBRANCH   9  10
ENDBRANCH   8   9
ENDBRANCH   5   8
ENDBRANCH   3   5
ENDBRANCH   2   3
ENDBRANCH   1   2
BRANCH   1  13
ATOM     13  C   UNL A   1      36.924  21.296  24.509  1.00  0.00     0.275 C 
BRANCH  13  14
ATOM     14  O   UNL A   1      37.479  21.712  25.765  1.00  0.00    -0.458 OA
BRANCH  14  15
ATOM     15  C   UNL A   1      38.770  21.375  25.988  1.00  0.00     0.338 C 
ATOM     16  O   UNL A   1      39.290  20.286  25.829  1.00  0.00    -0.246 OA
BRANCH  15  17
ATOM     17  C   UNL A   1      39.469  22.544  26.547  1.00  0.00     0.060 A 
ATOM     18  C   UNL A   1      40.499  22.393  27.480  1.00  0.00     0.016 A 
ATOM     19  C   UNL A   1      39.065  23.812  26.134  1.00  0.00     0.016 A 
ATOM     20  C   UNL A   1      41.136  23.517  28.002  1.00  0.00     0.010 A 
ATOM     21  C   UNL A   1      39.735  24.933  26.617  1.00  0.00     0.010 A 
ATOM     22  C   UNL A   1      40.775  24.794  27.553  1.00  0.00    -0.014 A 
BRANCH  22  23
ATOM     23  C   UNL A   1      41.488  26.005  28.021  1.00  0.00     0.031 A 
ATOM     24  C   UNL A   1      40.733  27.071  28.757  1.00  0.00     0.074 A 
ATOM     25  C   UNL A   1      42.785  26.169  27.698  1.00  0.00     0.049 A 
ATOM     26  N   UNL A   1      41.092  28.294  29.044  1.00  0.00    -0.248 NA
ATOM     27  C   UNL A   1      39.381  26.712  29.211  1.00  0.00     0.031 C 
ATOM     28  C   UNL A   1      43.612  25.178  27.006  1.00  0.00     0.029 A 
ATOM     29  N   UNL A   1      43.625  27.237  27.878  1.00  0.00    -0.354 N 
ATOM     30  C   UNL A   1      40.000  28.866  29.690  1.00  0.00     0.074 A 
ATOM     31  C   UNL A   1      38.961  27.856  29.730  1.00  0.00     0.031 C 
ATOM     32  C   UNL A   1      44.835  25.692  26.804  1.00  0.00     0.029 A 
ATOM     33  C   UNL A   1      44.857  27.067  27.291  1.00  0.00     0.049 A 
ATOM     34  H   UNL A   1      43.371  28.046  28.378  1.00  0.00     0.167 HD
ATOM     35  C   UNL A   1      39.884  30.120  30.196  1.00  0.00     0.034 A 
ATOM     36  C   UNL A   1      45.870  27.938  27.117  1.00  0.00     0.034 A 
ATOM     37  C   UNL A   1      40.939  31.104  30.122  1.00  0.00     0.049 A 
ATOM     38  C   UNL A   1      45.701  29.340  27.639  1.00  0.00     0.074 A 
ATOM     39  C   UNL A   1      40.945  32.406  30.589  1.00  0.00     0.029 A 
ATOM     40  N   UNL A   1      42.181  30.890  29.531  1.00  0.00    -0.354 N 
ATOM     41  N   UNL A   1      44.659  29.881  28.228  1.00  0.00    -0.248 NA
ATOM     42  C   UNL A   1      46.844  30.246  27.476  1.00  0.00     0.031 C 
ATOM     43  C   UNL A   1      42.165  32.995  30.232  1.00  0.00     0.029 A 
ATOM     44  C   UNL A   1      42.951  32.041  29.604  1.00  0.00     0.049 A 
ATOM     45  H   UNL A   1      42.471  30.043  29.122  1.00  0.00     0.167 HD
ATOM     46  C   UNL A   1      45.027  31.189  28.523  1.00  0.00     0.074 A 
ATOM     47  C   UNL A   1      46.394  31.346  28.063  1.00  0.00     0.031 C 
ATOM     48  C   UNL A   1      44.307  32.173  29.121  1.00  0.00     0.034 A 
BRANCH  35  49
ATOM     49  C   UNL A   1      38.555  30.500  30.806  1.00  0.00     0.023 A 
ATOM     50  C   UNL A   1      37.530  31.090  30.044  1.00  0.00     0.031 A 
ATOM     51  C   UNL A   1      38.324  30.317  32.181  1.00  0.00     0.131 A 
ATOM     52  C   UNL A   1      36.360  31.547  30.673  1.00  0.00     0.055 A 
ATOM     53  C   UNL A   1      37.125  30.700  32.788  1.00  0.00     0.041 A 
ATOM     54  F   UNL A   1      39.270  29.779  32.968  1.00  0.00    -0.206 F 
ATOM     55  C   UNL A   1      36.141  31.334  32.035  1.00  0.00     0.022 A 
BRANCH  52  56
ATOM     56  S   UNL A   1      35.194  32.553  29.713  1.00  0.00     0.124 S 
ATOM     57  O   UNL A   1      36.070  33.596  29.185  1.00  0.00    -0.237 OA
ATOM     58  O   UNL A   1      34.679  31.598  28.740  1.00  0.00    -0.237 OA
ATOM     59  O   UNL A   1      34.229  33.007  30.712  1.00  0.00    -0.744 OA
ENDBRANCH  52  56
ENDBRANCH  35  49
BRANCH  36  60
ATOM     60  C   UNL A   1      47.096  27.525  26.379  1.00  0.00     0.023 A 
ATOM     61  C   UNL A   1      47.243  27.788  25.010  1.00  0.00     0.031 A 
ATOM     62  C   UNL A   1      48.144  26.855  27.039  1.00  0.00     0.131 A 
ATOM     63  C   UNL A   1      48.396  27.360  24.335  1.00  0.00     0.055 A 
ATOM     64  C   UNL A   1      49.311  26.474  26.373  1.00  0.00     0.041 A 
ATOM     65  F   UNL A   1      48.058  26.581  28.350  1.00  0.00    -0.206 F 
ATOM     66  C   UNL A   1      49.437  26.718  25.010  1.00  0.00     0.022 A 
BRANCH  63  67
ATOM     67  S   UNL A   1      48.493  27.602  22.540  1.00  0.00     0.124 S 
ATOM     68  O   UNL A   1      47.223  28.265  22.259  1.00  0.00    -0.237 OA
ATOM     69  O   UNL A   1      49.688  28.427  22.409  1.00  0.00    -0.237 OA
ATOM     70  O   UNL A   1      48.617  26.243  22.019  1.00  0.00    -0.744 OA
ENDBRANCH  63  67
ENDBRANCH  36  60
BRANCH  48  71
ATOM     71  C   UNL A   1      45.015  33.485  29.339  1.00  0.00     0.023 A 
ATOM     72  C   UNL A   1      45.033  34.486  28.352  1.00  0.00     0.031 A 
ATOM     73  C   UNL A   1      45.704  33.724  30.541  1.00  0.00     0.131 A 
ATOM     74  C   UNL A   1      45.778  35.655  28.560  1.00  0.00     0.055 A 
ATOM     75  C   UNL A   1      46.395  34.913  30.765  1.00  0.00     0.041 A 
ATOM     76  F   UNL A   1      45.719  32.798  31.514  1.00  0.00    -0.206 F 
ATOM     77  C   UNL A   1      46.447  35.882  29.766  1.00  0.00     0.022 A 
BRANCH  74  78
ATOM     78  S   UNL A   1      45.940  36.839  27.195  1.00  0.00     0.124 S 
ATOM     79  O   UNL A   1      44.648  37.517  27.228  1.00  0.00    -0.237 OA
ATOM     80  O   UNL A   1      47.090  37.637  27.607  1.00  0.00    -0.237 OA
ATOM     81  O   UNL A   1      46.163  35.988  26.028  1.00  0.00    -0.744 OA
ENDBRANCH  74  78
ENDBRANCH  48  71
ENDBRANCH  22  23
ENDBRANCH  15  17
ENDBRANCH  14  15
ENDBRANCH  13  14
ENDBRANCH   1  13
TORSDOF 18
ENDMDL
MODEL 2
REMARK VINA RESULT:      -9.9      5.721     10.550
REMARK SMILES CC[C@H](CCC1CC1)C(=O)OCCOC(=O)c1ccc(-c2c3nc(c(-c4cc(S(=O)(=O)[O-])ccc4F)c4ccc([nH]4)c(-c4cc(S(=O)(=O)[O-])ccc4F)c4nc(c(-c5cc(S(=O)(=O)[O-])ccc5F)c5ccc2[nH]5)C=C4)C=C3)cc1
REMARK SMILES IDX 12 1 11 2 9 3 10 4 3 5 2 6 1 7 4 8 5 9 6 10 7 11 8 12 13 13
REMARK SMILES IDX 14 14 15 15 16 16 17 17 18 18 79 19 19 20 78 21 20 22 21 23
REMARK SMILES IDX 22 24 72 25 23 26 77 27 71 28 73 29 24 30 76 31 70 32 69 33
REMARK SMILES IDX 25 35 57 36 37 37 56 38 38 39 41 40 55 41 74 42 39 43 40 44
REMARK SMILES IDX 54 46 75 47 42 48 26 49 27 50 35 51 28 52 34 53 36 54 33 55
REMARK SMILES IDX 29 56 30 57 31 58 32 59 58 60 59 61 67 62 60 63 66 64 68 65
REMARK SMILES IDX 65 66 61 67 62 68 63 69 64 70 43 71 44 72 52 73 45 74 51 75
REMARK SMILES IDX 53 76 50 77 46 78 47 79 48 80 49 81
REMARK H PARENT 73 34 41 45
REMARK Flexibility Score: inf
ROOT
ATOM      1  C   UNL A   1      31.702  28.640  26.784  1.00  0.00     0.274 C 
ENDROOT
BRANCH   1   2
ATOM      2  O   UNL A   1      32.703  27.759  26.233  1.00  0.00    -0.462 OA
BRANCH   2   3
ATOM      3  C   UNL A   1      32.348  27.135  25.082  1.00  0.00     0.309 C 
ATOM      4  O   UNL A   1      33.125  26.882  24.166  1.00  0.00    -0.252 OA
BRANCH   3   5
ATOM      5  C   UNL A   1      30.857  26.841  24.963  1.00  0.00     0.099 C 
BRANCH   5   6
ATOM      6  C   UNL A   1      30.605  25.464  25.614  1.00  0.00     0.012 C 
ATOM      7  C   UNL A   1      30.836  24.279  24.681  1.00  0.00     0.005 C 
ENDBRANCH   5   6
BRANCH   5   8
ATOM      8  C   UNL A   1      30.176  26.934  23.586  1.00  0.00     0.015 C 
BRANCH   8   9
ATOM      9  C   UNL A   1      30.090  28.341  22.983  1.00  0.00     0.004 C 
BRANCH   9  10
ATOM     10  C   UNL A   1      28.695  28.914  23.015  1.00  0.00    -0.011 C 
ATOM     11  C   UNL A   1      28.519  30.388  23.286  1.00  0.00     0.004 C 
ATOM     12  C   UNL A   1      28.149  29.838  21.945  1.00  0.00     0.004 C 
ENDBRANCH   9  10
ENDBRANCH   8   9
ENDBRANCH   5   8
ENDBRANCH   3   5
ENDBRANCH   2   3
ENDBRANCH   1   2
BRANCH   1  13
ATOM     13  C   UNL A   1      31.748  30.033  26.156  1.00  0.00     0.275 C 
BRANCH  13  14
ATOM     14  O   UNL A   1      33.086  30.548  26.192  1.00  0.00    -0.458 OA
BRANCH  14  15
ATOM     15  C   UNL A   1      33.317  31.549  27.074  1.00  0.00     0.338 C 
ATOM     16  O   UNL A   1      32.625  32.528  27.281  1.00  0.00    -0.246 OA
BRANCH  15  17
ATOM     17  C   UNL A   1      34.618  31.312  27.720  1.00  0.00     0.060 A 
ATOM     18  C   UNL A   1      35.543  32.348  27.886  1.00  0.00     0.016 A 
ATOM     19  C   UNL A   1      34.915  30.020  28.151  1.00  0.00     0.016 A 
ATOM     20  C   UNL A   1      36.771  32.094  28.491  1.00  0.00     0.010 A 
ATOM     21  C   UNL A   1      36.122  29.777  28.800  1.00  0.00     0.010 A 
ATOM     22  C   UNL A   1      37.058  30.811  28.976  1.00  0.00    -0.014 A 
BRANCH  22  23
ATOM     23  C   UNL A   1      38.318  30.525  29.701  1.00  0.00     0.031 A 
ATOM     24  C   UNL A   1      39.314  29.575  29.107  1.00  0.00     0.074 A 
ATOM     25  C   UNL A   1      38.507  31.056  30.924  1.00  0.00     0.049 A 
ATOM     26  N   UNL A   1      40.351  29.006  29.662  1.00  0.00    -0.248 NA
ATOM     27  C   UNL A   1      39.095  29.200  27.702  1.00  0.00     0.031 C 
ATOM     28  C   UNL A   1      37.607  32.010  31.575  1.00  0.00     0.029 A 
ATOM     29  N   UNL A   1      39.495  30.844  31.849  1.00  0.00    -0.354 N 
ATOM     30  C   UNL A   1      40.898  28.181  28.684  1.00  0.00     0.074 A 
ATOM     31  C   UNL A   1      40.060  28.312  27.510  1.00  0.00     0.031 C 
ATOM     32  C   UNL A   1      38.076  32.288  32.801  1.00  0.00     0.029 A 
ATOM     33  C   UNL A   1      39.267  31.483  33.046  1.00  0.00     0.049 A 
ATOM     34  H   UNL A   1      40.290  30.290  31.674  1.00  0.00     0.167 HD
ATOM     35  C   UNL A   1      41.996  27.389  28.769  1.00  0.00     0.034 A 
ATOM     36  C   UNL A   1      39.915  31.388  34.223  1.00  0.00     0.034 A 
ATOM     37  C   UNL A   1      42.798  27.273  29.967  1.00  0.00     0.049 A 
ATOM     38  C   UNL A   1      41.099  30.463  34.313  1.00  0.00     0.074 A 
ATOM     39  C   UNL A   1      43.927  26.505  30.184  1.00  0.00     0.029 A 
ATOM     40  N   UNL A   1      42.544  27.948  31.157  1.00  0.00    -0.354 N 
ATOM     41  N   UNL A   1      41.598  29.669  33.393  1.00  0.00    -0.248 NA
ATOM     42  C   UNL A   1      41.809  30.423  35.597  1.00  0.00     0.031 C 
ATOM     43  C   UNL A   1      44.321  26.670  31.518  1.00  0.00     0.029 A 
ATOM     44  C   UNL A   1      43.482  27.596  32.116  1.00  0.00     0.049 A 
ATOM     45  H   UNL A   1      41.806  28.584  31.298  1.00  0.00     0.167 HD
ATOM     46  C   UNL A   1      42.693  29.048  33.981  1.00  0.00     0.074 A 
ATOM     47  C   UNL A   1      42.791  29.575  35.329  1.00  0.00     0.031 C 
ATOM     48  C   UNL A   1      43.544  28.127  33.459  1.00  0.00     0.034 A 
BRANCH  35  49
ATOM     49  C   UNL A   1      42.340  26.550  27.561  1.00  0.00     0.023 A 
ATOM     50  C   UNL A   1      41.912  25.216  27.437  1.00  0.00     0.031 A 
ATOM     51  C   UNL A   1      43.152  27.073  26.539  1.00  0.00     0.131 A 
ATOM     52  C   UNL A   1      42.360  24.430  26.362  1.00  0.00     0.055 A 
ATOM     53  C   UNL A   1      43.530  26.311  25.431  1.00  0.00     0.041 A 
ATOM     54  F   UNL A   1      43.613  28.332  26.608  1.00  0.00    -0.206 F 
ATOM     55  C   UNL A   1      43.146  24.975  25.346  1.00  0.00     0.022 A 
BRANCH  52  56
ATOM     56  S   UNL A   1      42.021  22.648  26.390  1.00  0.00     0.124 S 
ATOM     57  O   UNL A   1      42.567  22.223  25.103  1.00  0.00    -0.237 OA
ATOM     58  O   UNL A   1      42.750  22.205  27.571  1.00  0.00    -0.237 OA
ATOM     59  O   UNL A   1      40.564  22.577  26.492  1.00  0.00    -0.744 OA
ENDBRANCH  52  56
ENDBRANCH  35  49
BRANCH  36  60
ATOM     60  C   UNL A   1      39.427  32.144  35.411  1.00  0.00     0.023 A 
ATOM     61  C   UNL A   1      39.853  33.456  35.661  1.00  0.00     0.031 A 
ATOM     62  C   UNL A   1      38.525  31.559  36.319  1.00  0.00     0.131 A 
ATOM     63  C   UNL A   1      39.401  34.133  36.804  1.00  0.00     0.055 A 
ATOM     64  C   UNL A   1      38.040  32.254  37.429  1.00  0.00     0.041 A 
ATOM     65  F   UNL A   1      38.082  30.306  36.126  1.00  0.00    -0.206 F 
ATOM     66  C   UNL A   1      38.486  33.546  37.681  1.00  0.00     0.022 A 
BRANCH  63  67
ATOM     67  S   UNL A   1      40.074  35.779  37.163  1.00  0.00     0.124 S 
ATOM     68  O   UNL A   1      39.395  36.113  38.410  1.00  0.00    -0.237 OA
ATOM     69  O   UNL A   1      41.503  35.506  37.264  1.00  0.00    -0.237 OA
ATOM     70  O   UNL A   1      39.673  36.571  36.002  1.00  0.00    -0.744 OA
ENDBRANCH  63  67
ENDBRANCH  36  60
BRANCH  48  71
ATOM     71  C   UNL A   1      44.673  27.675  34.350  1.00  0.00     0.023 A 
ATOM     72  C   UNL A   1      44.545  26.555  35.190  1.00  0.00     0.031 A 
ATOM     73  C   UNL A   1      45.880  28.394  34.379  1.00  0.00     0.131 A 
ATOM     74  C   UNL A   1      45.585  26.222  36.069  1.00  0.00     0.055 A 
ATOM     75  C   UNL A   1      46.934  28.022  35.213  1.00  0.00     0.041 A 
ATOM     76  F   UNL A   1      46.051  29.472  33.597  1.00  0.00    -0.206 F 
ATOM     77  C   UNL A   1      46.785  26.939  36.075  1.00  0.00     0.022 A 
BRANCH  74  78
ATOM     78  S   UNL A   1      45.316  24.893  37.273  1.00  0.00     0.124 S 
ATOM     79  O   UNL A   1      44.123  25.356  37.975  1.00  0.00    -0.237 OA
ATOM     80  O   UNL A   1      45.138  23.725  36.416  1.00  0.00    -0.237 OA
ATOM     81  O   UNL A   1      46.543  24.895  38.067  1.00  0.00    -0.744 OA
ENDBRANCH  74  78
ENDBRANCH  48  71
ENDBRANCH  22  23
ENDBRANCH  15  17
ENDBRANCH  14  15
ENDBRANCH  13  14
ENDBRANCH   1  13
TORSDOF 18
ENDMDL
MODEL 3
REMARK VINA RESULT:      -9.8      5.511      9.354
REMARK SMILES CC[C@H](CCC1CC1)C(=O)OCCOC(=O)c1ccc(-c2c3nc(c(-c4cc(S(=O)(=O)[O-])ccc4F)c4ccc([nH]4)c(-c4cc(S(=O)(=O)[O-])ccc4F)c4nc(c(-c5cc(S(=O)(=O)[O-])ccc5F)c5ccc2[nH]5)C=C4)C=C3)cc1
REMARK SMILES IDX 12 1 11 2 9 3 10 4 3 5 2 6 1 7 4 8 5 9 6 10 7 11 8 12 13 13
REMARK SMILES IDX 14 14 15 15 16 16 17 17 18 18 79 19 19 20 78 21 20 22 21 23
REMARK SMILES IDX 22 24 72 25 23 26 77 27 71 28 73 29 24 30 76 31 70 32 69 33
REMARK SMILES IDX 25 35 57 36 37 37 56 38 38 39 41 40 55 41 74 42 39 43 40 44
REMARK SMILES IDX 54 46 75 47 42 48 26 49 27 50 35 51 28 52 34 53 36 54 33 55
REMARK SMILES IDX 29 56 30 57 31 58 32 59 58 60 59 61 67 62 60 63 66 64 68 65
REMARK SMILES IDX 65 66 61 67 62 68 63 69 64 70 43 71 44 72 52 73 45 74 51 75
REMARK SMILES IDX 53 76 50 77 46 78 47 79 48 80 49 81
REMARK H PARENT 73 34 41 45
REMARK Flexibility Score: inf
ROOT
ATOM      1  C   UNL A   1      33.657  33.804  28.971  1.00  0.00     0.274 C 
ENDROOT
BRANCH   1   2
ATOM      2  O   UNL A   1      34.258  33.226  30.149  1.00  0.00    -0.462 OA
BRANCH   2   3
ATOM      3  C   UNL A   1      34.906  34.106  30.954  1.00  0.00     0.309 C 
ATOM      4  O   UNL A   1      34.387  35.106  31.440  1.00  0.00    -0.252 OA
BRANCH   3   5
ATOM      5  C   UNL A   1      36.388  33.807  31.143  1.00  0.00     0.099 C 
BRANCH   5   6
ATOM      6  C   UNL A   1      37.068  33.954  29.765  1.00  0.00     0.012 C 
ATOM      7  C   UNL A   1      38.247  33.011  29.545  1.00  0.00     0.005 C 
ENDBRANCH   5   6
BRANCH   5   8
ATOM      8  C   UNL A   1      36.814  32.499  31.833  1.00  0.00     0.015 C 
BRANCH   8   9
ATOM      9  C   UNL A   1      37.593  32.664  33.143  1.00  0.00     0.004 C 
BRANCH   9  10
ATOM     10  C   UNL A   1      38.243  34.019  33.278  1.00  0.00    -0.011 C 
ATOM     11  C   UNL A   1      39.290  34.221  34.346  1.00  0.00     0.004 C 
ATOM     12  C   UNL A   1      39.685  34.293  32.904  1.00  0.00     0.004 C 
ENDBRANCH   9  10
ENDBRANCH   8   9
ENDBRANCH   5   8
ENDBRANCH   3   5
ENDBRANCH   2   3
ENDBRANCH   1   2
BRANCH   1  13
ATOM     13  C   UNL A   1      33.720  32.862  27.769  1.00  0.00     0.275 C 
BRANCH  13  14
ATOM     14  O   UNL A   1      34.949  32.121  27.786  1.00  0.00    -0.458 OA
BRANCH  14  15
ATOM     15  C   UNL A   1      34.833  30.773  27.782  1.00  0.00     0.338 C 
ATOM     16  O   UNL A   1      33.836  30.115  27.547  1.00  0.00    -0.246 OA
BRANCH  15  17
ATOM     17  C   UNL A   1      36.120  30.191  28.196  1.00  0.00     0.060 A 
ATOM     18  C   UNL A   1      37.241  30.247  27.363  1.00  0.00     0.016 A 
ATOM     19  C   UNL A   1      36.190  29.565  29.440  1.00  0.00     0.016 A 
ATOM     20  C   UNL A   1      38.444  29.678  27.776  1.00  0.00     0.010 A 
ATOM     21  C   UNL A   1      37.405  29.040  29.873  1.00  0.00     0.010 A 
ATOM     22  C   UNL A   1      38.541  29.094  29.046  1.00  0.00    -0.014 A 
BRANCH  22  23
ATOM     23  C   UNL A   1      39.825  28.556  29.551  1.00  0.00     0.031 A 
ATOM     24  C   UNL A   1      40.559  29.288  30.634  1.00  0.00     0.074 A 
ATOM     25  C   UNL A   1      40.356  27.466  28.965  1.00  0.00     0.049 A 
ATOM     26  N   UNL A   1      41.786  29.135  31.054  1.00  0.00    -0.248 NA
ATOM     27  C   UNL A   1      39.810  30.351  31.320  1.00  0.00     0.031 C 
ATOM     28  C   UNL A   1      39.707  26.671  27.921  1.00  0.00     0.029 A 
ATOM     29  N   UNL A   1      41.572  26.859  29.139  1.00  0.00    -0.354 N 
ATOM     30  C   UNL A   1      41.972  30.101  32.038  1.00  0.00     0.074 A 
ATOM     31  C   UNL A   1      40.733  30.847  32.132  1.00  0.00     0.031 C 
ATOM     32  C   UNL A   1      40.538  25.692  27.535  1.00  0.00     0.029 A 
ATOM     33  C   UNL A   1      41.799  25.831  28.254  1.00  0.00     0.049 A 
ATOM     34  H   UNL A   1      42.219  27.132  29.829  1.00  0.00     0.167 HD
ATOM     35  C   UNL A   1      43.079  30.339  32.785  1.00  0.00     0.034 A 
ATOM     36  C   UNL A   1      42.917  25.118  28.012  1.00  0.00     0.034 A 
ATOM     37  C   UNL A   1      44.303  29.582  32.650  1.00  0.00     0.049 A 
ATOM     38  C   UNL A   1      44.150  25.432  28.815  1.00  0.00     0.074 A 
ATOM     39  C   UNL A   1      45.493  29.726  33.340  1.00  0.00     0.029 A 
ATOM     40  N   UNL A   1      44.492  28.537  31.751  1.00  0.00    -0.354 N 
ATOM     41  N   UNL A   1      44.327  26.361  29.727  1.00  0.00    -0.248 NA
ATOM     42  C   UNL A   1      45.333  24.602  28.559  1.00  0.00     0.031 C 
ATOM     43  C   UNL A   1      46.416  28.809  32.821  1.00  0.00     0.029 A 
ATOM     44  C   UNL A   1      45.783  28.043  31.855  1.00  0.00     0.049 A 
ATOM     45  H   UNL A   1      43.807  28.197  31.131  1.00  0.00     0.167 HD
ATOM     46  C   UNL A   1      45.637  26.215  30.169  1.00  0.00     0.074 A 
ATOM     47  C   UNL A   1      46.197  25.096  29.434  1.00  0.00     0.031 C 
ATOM     48  C   UNL A   1      46.319  26.935  31.096  1.00  0.00     0.034 A 
BRANCH  35  49
ATOM     49  C   UNL A   1      43.025  31.496  33.755  1.00  0.00     0.023 A 
ATOM     50  C   UNL A   1      42.505  31.352  35.055  1.00  0.00     0.031 A 
ATOM     51  C   UNL A   1      43.451  32.777  33.361  1.00  0.00     0.131 A 
ATOM     52  C   UNL A   1      42.352  32.478  35.880  1.00  0.00     0.055 A 
ATOM     53  C   UNL A   1      43.371  33.879  34.215  1.00  0.00     0.041 A 
ATOM     54  F   UNL A   1      43.936  32.986  32.127  1.00  0.00    -0.206 F 
ATOM     55  C   UNL A   1      42.803  33.736  35.479  1.00  0.00     0.022 A 
BRANCH  52  56
ATOM     56  S   UNL A   1      41.421  32.299  37.427  1.00  0.00     0.124 S 
ATOM     57  O   UNL A   1      41.317  33.687  37.872  1.00  0.00    -0.237 OA
ATOM     58  O   UNL A   1      40.182  31.677  36.981  1.00  0.00    -0.237 OA
ATOM     59  O   UNL A   1      42.283  31.454  38.251  1.00  0.00    -0.744 OA
ENDBRANCH  52  56
ENDBRANCH  35  49
BRANCH  36  60
ATOM     60  C   UNL A   1      42.930  24.085  26.939  1.00  0.00     0.023 A 
ATOM     61  C   UNL A   1      42.306  22.843  27.119  1.00  0.00     0.031 A 
ATOM     62  C   UNL A   1      43.574  24.328  25.711  1.00  0.00     0.131 A 
ATOM     63  C   UNL A   1      42.360  21.877  26.102  1.00  0.00     0.055 A 
ATOM     64  C   UNL A   1      43.585  23.382  24.683  1.00  0.00     0.041 A 
ATOM     65  F   UNL A   1      44.184  25.501  25.483  1.00  0.00    -0.206 F 
ATOM     66  C   UNL A   1      42.983  22.144  24.880  1.00  0.00     0.022 A 
BRANCH  63  67
ATOM     67  S   UNL A   1      41.655  20.237  26.421  1.00  0.00     0.124 S 
ATOM     68  O   UNL A   1      42.154  19.954  27.763  1.00  0.00    -0.237 OA
ATOM     69  O   UNL A   1      40.224  20.496  26.311  1.00  0.00    -0.237 OA
ATOM     70  O   UNL A   1      42.220  19.410  25.357  1.00  0.00    -0.744 OA
ENDBRANCH  63  67
ENDBRANCH  36  60
BRANCH  48  71
ATOM     71  C   UNL A   1      47.731  26.493  31.384  1.00  0.00     0.023 A 
ATOM     72  C   UNL A   1      48.811  26.909  30.586  1.00  0.00     0.031 A 
ATOM     73  C   UNL A   1      47.992  25.621  32.455  1.00  0.00     0.131 A 
ATOM     74  C   UNL A   1      50.095  26.403  30.834  1.00  0.00     0.055 A 
ATOM     75  C   UNL A   1      49.281  25.167  32.733  1.00  0.00     0.041 A 
ATOM     76  F   UNL A   1      46.994  25.193  33.245  1.00  0.00    -0.206 F 
ATOM     77  C   UNL A   1      50.339  25.547  31.911  1.00  0.00     0.022 A 
BRANCH  74  78
ATOM     78  S   UNL A   1      51.428  26.806  29.673  1.00  0.00     0.124 S 
ATOM     79  O   UNL A   1      51.248  28.243  29.492  1.00  0.00    -0.237 OA
ATOM     80  O   UNL A   1      52.620  26.399  30.411  1.00  0.00    -0.237 OA
ATOM     81  O   UNL A   1      51.119  25.990  28.500  1.00  0.00    -0.744 OA
ENDBRANCH  74  78
ENDBRANCH  48  71
ENDBRANCH  22  23
ENDBRANCH  15  17
ENDBRANCH  14  15
ENDBRANCH  13  14
ENDBRANCH   1  13
TORSDOF 18
ENDMDL
