MODEL 1
REMARK VINA RESULT:     -11.5      0.000      0.000
REMARK SMILES O=C(OCCOC(=O)[C@H]1CC[C@@H](CNc2ncccn2)O1)c1ccc(-c2c3nc(c(-c4cc(S(=O)(=O)[O-])ccc4F)c4ccc([nH]4)c(-c4cc(S(=O)(=O)[O-])ccc4F)c4nc(c(-c5cc(S(=O)(=O)[O-])ccc5F)c5ccc2[nH]5)C=C4)C=C3)cc1
REMARK SMILES IDX 4 1 3 2 2 3 1 4 22 5 23 6 84 7 24 8 83 9 25 10 26 11 27 12
REMARK SMILES IDX 77 13 28 14 82 15 76 16 78 17 29 18 81 19 75 20 74 21 30 23
REMARK SMILES IDX 62 24 42 25 61 26 43 27 46 28 60 29 79 30 44 31 45 32 59 34
REMARK SMILES IDX 80 35 47 36 31 37 32 38 40 39 33 40 39 41 41 42 38 43 34 44
REMARK SMILES IDX 35 45 36 46 37 47 63 48 64 49 72 50 65 51 71 52 73 53 70 54
REMARK SMILES IDX 66 55 67 56 68 57 69 58 48 59 49 60 57 61 50 62 56 63 58 64
REMARK SMILES IDX 55 65 51 66 52 67 53 68 54 69 5 70 6 71 7 72 8 73 9 74 10 75
REMARK SMILES IDX 21 76 11 77 12 78 13 79 14 80 15 82 16 83 20 84 17 85 19 86
REMARK SMILES IDX 18 87
REMARK H PARENT 78 22 46 33 14 81
REMARK Flexibility Score: inf
ROOT
ATOM      1  C   UNL A   1      31.491  31.901  26.842  1.00  0.00     0.275 C 
ENDROOT
BRANCH   1   2
ATOM      2  O   UNL A   1      32.312  33.085  26.866  1.00  0.00    -0.458 OA
BRANCH   2   3
ATOM      3  C   UNL A   1      33.056  33.590  27.883  1.00  0.00     0.338 C 
ATOM      4  O   UNL A   1      32.803  34.720  28.297  1.00  0.00    -0.246 OA
BRANCH   3   5
ATOM      5  C   UNL A   1      34.292  32.915  28.395  1.00  0.00     0.060 A 
ATOM      6  C   UNL A   1      34.343  31.658  28.998  1.00  0.00     0.016 A 
ATOM      7  C   UNL A   1      35.504  33.621  28.241  1.00  0.00     0.016 A 
ATOM      8  C   UNL A   1      35.561  31.078  29.358  1.00  0.00     0.010 A 
ATOM      9  C   UNL A   1      36.731  33.052  28.616  1.00  0.00     0.010 A 
ATOM     10  C   UNL A   1      36.760  31.771  29.175  1.00  0.00    -0.014 A 
BRANCH  10  11
ATOM     11  C   UNL A   1      37.984  31.205  29.783  1.00  0.00     0.031 A 
ATOM     12  C   UNL A   1      38.286  31.590  31.200  1.00  0.00     0.074 A 
ATOM     13  C   UNL A   1      38.720  30.279  29.140  1.00  0.00     0.049 A 
ATOM     14  N   UNL A   1      39.183  31.114  32.018  1.00  0.00    -0.248 NA
ATOM     15  C   UNL A   1      37.433  32.642  31.777  1.00  0.00     0.031 C 
ATOM     16  C   UNL A   1      38.460  29.787  27.787  1.00  0.00     0.029 A 
ATOM     17  N   UNL A   1      39.819  29.566  29.546  1.00  0.00    -0.354 N 
ATOM     18  C   UNL A   1      38.984  31.786  33.217  1.00  0.00     0.074 A 
ATOM     19  C   UNL A   1      37.921  32.741  33.001  1.00  0.00     0.031 C 
ATOM     20  C   UNL A   1      39.372  28.848  27.477  1.00  0.00     0.029 A 
ATOM     21  C   UNL A   1      40.288  28.680  28.602  1.00  0.00     0.049 A 
ATOM     22  H   UNL A   1      40.235  29.678  30.431  1.00  0.00     0.167 HD
ATOM     23  C   UNL A   1      39.623  31.609  34.399  1.00  0.00     0.034 A 
ATOM     24  C   UNL A   1      41.334  27.829  28.653  1.00  0.00     0.034 A 
ATOM     25  C   UNL A   1      40.724  30.696  34.567  1.00  0.00     0.049 A 
ATOM     26  C   UNL A   1      42.121  27.748  29.941  1.00  0.00     0.074 A 
ATOM     27  C   UNL A   1      41.492  30.464  35.692  1.00  0.00     0.029 A 
ATOM     28  N   UNL A   1      41.232  29.881  33.560  1.00  0.00    -0.354 N 
ATOM     29  N   UNL A   1      41.914  28.375  31.079  1.00  0.00    -0.248 NA
ATOM     30  C   UNL A   1      43.265  26.830  29.961  1.00  0.00     0.031 C 
ATOM     31  C   UNL A   1      42.512  29.570  35.344  1.00  0.00     0.029 A 
ATOM     32  C   UNL A   1      42.326  29.171  34.028  1.00  0.00     0.049 A 
ATOM     33  H   UNL A   1      40.868  29.817  32.648  1.00  0.00     0.167 HD
ATOM     34  C   UNL A   1      42.873  27.887  31.963  1.00  0.00     0.074 A 
ATOM     35  C   UNL A   1      43.653  26.913  31.225  1.00  0.00     0.031 C 
ATOM     36  C   UNL A   1      43.085  28.204  33.268  1.00  0.00     0.034 A 
BRANCH  23  37
ATOM     37  C   UNL A   1      39.184  32.494  35.539  1.00  0.00     0.023 A 
ATOM     38  C   UNL A   1      39.596  33.837  35.630  1.00  0.00     0.031 A 
ATOM     39  C   UNL A   1      38.451  31.957  36.610  1.00  0.00     0.131 A 
ATOM     40  C   UNL A   1      39.363  34.563  36.807  1.00  0.00     0.055 A 
ATOM     41  C   UNL A   1      38.144  32.713  37.742  1.00  0.00     0.041 A 
ATOM     42  F   UNL A   1      38.059  30.673  36.595  1.00  0.00    -0.206 F 
ATOM     43  C   UNL A   1      38.618  34.016  37.856  1.00  0.00     0.022 A 
BRANCH  40  44
ATOM     44  S   UNL A   1      40.212  36.152  37.030  1.00  0.00     0.124 S 
ATOM     45  O   UNL A   1      39.951  36.808  35.750  1.00  0.00    -0.237 OA
ATOM     46  O   UNL A   1      39.525  36.716  38.186  1.00  0.00    -0.237 OA
ATOM     47  O   UNL A   1      41.604  35.770  37.254  1.00  0.00    -0.744 OA
ENDBRANCH  40  44
ENDBRANCH  23  37
BRANCH  24  48
ATOM     48  C   UNL A   1      41.711  26.996  27.471  1.00  0.00     0.023 A 
ATOM     49  C   UNL A   1      41.445  25.617  27.429  1.00  0.00     0.031 A 
ATOM     50  C   UNL A   1      42.413  27.559  26.389  1.00  0.00     0.131 A 
ATOM     51  C   UNL A   1      41.919  24.842  26.356  1.00  0.00     0.055 A 
ATOM     52  C   UNL A   1      42.838  26.793  25.300  1.00  0.00     0.041 A 
ATOM     53  F   UNL A   1      42.697  28.871  26.373  1.00  0.00    -0.206 F 
ATOM     54  C   UNL A   1      42.604  25.423  25.287  1.00  0.00     0.022 A 
BRANCH  51  55
ATOM     55  S   UNL A   1      41.701  23.040  26.416  1.00  0.00     0.124 S 
ATOM     56  O   UNL A   1      40.249  22.914  26.363  1.00  0.00    -0.237 OA
ATOM     57  O   UNL A   1      42.429  22.609  25.226  1.00  0.00    -0.237 OA
ATOM     58  O   UNL A   1      42.316  22.665  27.687  1.00  0.00    -0.744 OA
ENDBRANCH  51  55
ENDBRANCH  24  48
BRANCH  36  59
ATOM     59  C   UNL A   1      44.163  27.435  33.993  1.00  0.00     0.023 A 
ATOM     60  C   UNL A   1      43.914  26.196  34.606  1.00  0.00     0.031 A 
ATOM     61  C   UNL A   1      45.466  27.961  34.070  1.00  0.00     0.131 A 
ATOM     62  C   UNL A   1      44.935  25.555  35.323  1.00  0.00     0.055 A 
ATOM     63  C   UNL A   1      46.496  27.284  34.722  1.00  0.00     0.041 A 
ATOM     64  F   UNL A   1      45.760  29.143  33.504  1.00  0.00    -0.206 F 
ATOM     65  C   UNL A   1      46.229  26.081  35.367  1.00  0.00     0.022 A 
BRANCH  62  66
ATOM     66  S   UNL A   1      44.521  24.080  36.292  1.00  0.00     0.124 S 
ATOM     67  O   UNL A   1      44.228  24.649  37.603  1.00  0.00    -0.237 OA
ATOM     68  O   UNL A   1      43.379  23.538  35.563  1.00  0.00    -0.237 OA
ATOM     69  O   UNL A   1      45.738  23.272  36.225  1.00  0.00    -0.744 OA
ENDBRANCH  62  66
ENDBRANCH  36  59
ENDBRANCH  10  11
ENDBRANCH   3   5
ENDBRANCH   2   3
ENDBRANCH   1   2
BRANCH   1  70
ATOM     70  C   UNL A   1      32.222  30.669  26.301  1.00  0.00     0.274 C 
BRANCH  70  71
ATOM     71  O   UNL A   1      31.323  29.574  26.081  1.00  0.00    -0.460 OA
BRANCH  71  72
ATOM     72  C   UNL A   1      31.624  28.410  26.729  1.00  0.00     0.335 C 
ATOM     73  O   UNL A   1      31.347  28.166  27.899  1.00  0.00    -0.249 OA
BRANCH  72  74
ATOM     74  C   UNL A   1      32.308  27.429  25.771  1.00  0.00     0.228 C 
ATOM     75  C   UNL A   1      31.946  25.985  26.029  1.00  0.00     0.047 C 
ATOM     76  O   UNL A   1      31.922  27.707  24.419  1.00  0.00    -0.361 OA
ATOM     77  C   UNL A   1      30.712  25.801  25.185  1.00  0.00     0.037 C 
ATOM     78  C   UNL A   1      30.971  26.712  23.992  1.00  0.00     0.138 C 
BRANCH  78  79
ATOM     79  C   UNL A   1      29.693  27.392  23.474  1.00  0.00     0.148 C 
BRANCH  79  80
ATOM     80  N   UNL A   1      30.044  28.383  22.481  1.00  0.00    -0.352 N 
ATOM     81  H   UNL A   1      30.755  28.179  21.831  1.00  0.00     0.163 HD
BRANCH  80  82
ATOM     82  C   UNL A   1      29.416  29.591  22.420  1.00  0.00     0.222 A 
ATOM     83  N   UNL A   1      29.185  30.196  23.592  1.00  0.00    -0.222 NA
ATOM     84  N   UNL A   1      29.089  30.123  21.233  1.00  0.00    -0.222 NA
ATOM     85  C   UNL A   1      28.620  31.416  23.553  1.00  0.00     0.117 A 
ATOM     86  C   UNL A   1      28.497  31.330  21.244  1.00  0.00     0.117 A 
ATOM     87  C   UNL A   1      28.246  32.040  22.390  1.00  0.00     0.040 A 
ENDBRANCH  80  82
ENDBRANCH  79  80
ENDBRANCH  78  79
ENDBRANCH  72  74
ENDBRANCH  71  72
ENDBRANCH  70  71
ENDBRANCH   1  70
TORSDOF 17
ENDMDL
MODEL 2
REMARK VINA RESULT:     -11.2      5.747     11.016
REMARK SMILES O=C(OCCOC(=O)[C@H]1CC[C@@H](CNc2ncccn2)O1)c1ccc(-c2c3nc(c(-c4cc(S(=O)(=O)[O-])ccc4F)c4ccc([nH]4)c(-c4cc(S(=O)(=O)[O-])ccc4F)c4nc(c(-c5cc(S(=O)(=O)[O-])ccc5F)c5ccc2[nH]5)C=C4)C=C3)cc1
REMARK SMILES IDX 4 1 3 2 2 3 1 4 22 5 23 6 84 7 24 8 83 9 25 10 26 11 27 12
REMARK SMILES IDX 77 13 28 14 82 15 76 16 78 17 29 18 81 19 75 20 74 21 30 23
REMARK SMILES IDX 62 24 42 25 61 26 43 27 46 28 60 29 79 30 44 31 45 32 59 34
REMARK SMILES IDX 80 35 47 36 31 37 32 38 40 39 33 40 39 41 41 42 38 43 34 44
REMARK SMILES IDX 35 45 36 46 37 47 63 48 64 49 72 50 65 51 71 52 73 53 70 54
REMARK SMILES IDX 66 55 67 56 68 57 69 58 48 59 49 60 57 61 50 62 56 63 58 64
REMARK SMILES IDX 55 65 51 66 52 67 53 68 54 69 5 70 6 71 7 72 8 73 9 74 10 75
REMARK SMILES IDX 21 76 11 77 12 78 13 79 14 80 15 82 16 83 20 84 17 85 19 86
REMARK SMILES IDX 18 87
REMARK H PARENT 78 22 46 33 14 81
REMARK Flexibility Score: inf
ROOT
ATOM      1  C   UNL A   1      37.675  20.574  25.361  1.00  0.00     0.275 C 
ENDROOT
BRANCH   1   2
ATOM      2  O   UNL A   1      38.464  21.772  25.486  1.00  0.00    -0.458 OA
BRANCH   2   3
ATOM      3  C   UNL A   1      39.494  22.035  26.332  1.00  0.00     0.338 C 
ATOM      4  O   UNL A   1      40.103  21.091  26.833  1.00  0.00    -0.246 OA
BRANCH   3   5
ATOM      5  C   UNL A   1      39.798  23.413  26.833  1.00  0.00     0.060 A 
ATOM      6  C   UNL A   1      39.353  24.605  26.260  1.00  0.00     0.016 A 
ATOM      7  C   UNL A   1      40.602  23.499  27.990  1.00  0.00     0.016 A 
ATOM      8  C   UNL A   1      39.618  25.838  26.861  1.00  0.00     0.010 A 
ATOM      9  C   UNL A   1      40.887  24.734  28.589  1.00  0.00     0.010 A 
ATOM     10  C   UNL A   1      40.389  25.912  28.023  1.00  0.00    -0.014 A 
BRANCH  10  11
ATOM     11  C   UNL A   1      40.825  27.251  28.478  1.00  0.00     0.031 A 
ATOM     12  C   UNL A   1      42.251  27.631  28.215  1.00  0.00     0.074 A 
ATOM     13  C   UNL A   1      39.947  28.138  28.980  1.00  0.00     0.049 A 
ATOM     14  N   UNL A   1      42.842  28.786  28.351  1.00  0.00    -0.248 NA
ATOM     15  C   UNL A   1      43.120  26.559  27.701  1.00  0.00     0.031 C 
ATOM     16  C   UNL A   1      38.524  27.884  29.202  1.00  0.00     0.029 A 
ATOM     17  N   UNL A   1      40.114  29.443  29.370  1.00  0.00    -0.354 N 
ATOM     18  C   UNL A   1      44.145  28.589  27.911  1.00  0.00     0.074 A 
ATOM     19  C   UNL A   1      44.271  27.193  27.560  1.00  0.00     0.031 C 
ATOM     20  C   UNL A   1      37.946  28.998  29.684  1.00  0.00     0.029 A 
ATOM     21  C   UNL A   1      38.958  30.043  29.818  1.00  0.00     0.049 A 
ATOM     22  H   UNL A   1      40.981  29.908  29.334  1.00  0.00     0.167 HD
ATOM     23  C   UNL A   1      45.142  29.499  27.796  1.00  0.00     0.034 A 
ATOM     24  C   UNL A   1      38.750  31.295  30.274  1.00  0.00     0.034 A 
ATOM     25  C   UNL A   1      45.007  30.869  28.216  1.00  0.00     0.049 A 
ATOM     26  C   UNL A   1      39.916  32.257  30.266  1.00  0.00     0.074 A 
ATOM     27  C   UNL A   1      45.955  31.875  28.207  1.00  0.00     0.029 A 
ATOM     28  N   UNL A   1      43.847  31.418  28.753  1.00  0.00    -0.354 N 
ATOM     29  N   UNL A   1      41.143  32.067  29.829  1.00  0.00    -0.248 NA
ATOM     30  C   UNL A   1      39.666  33.605  30.787  1.00  0.00     0.031 C 
ATOM     31  C   UNL A   1      45.393  33.006  28.811  1.00  0.00     0.029 A 
ATOM     32  C   UNL A   1      44.065  32.738  29.112  1.00  0.00     0.049 A 
ATOM     33  H   UNL A   1      42.994  30.938  28.862  1.00  0.00     0.167 HD
ATOM     34  C   UNL A   1      41.794  33.290  29.979  1.00  0.00     0.074 A 
ATOM     35  C   UNL A   1      40.822  34.206  30.540  1.00  0.00     0.031 C 
ATOM     36  C   UNL A   1      43.073  33.630  29.670  1.00  0.00     0.034 A 
BRANCH  23  37
ATOM     37  C   UNL A   1      46.464  28.985  27.281  1.00  0.00     0.023 A 
ATOM     38  C   UNL A   1      46.680  28.752  25.909  1.00  0.00     0.031 A 
ATOM     39  C   UNL A   1      47.475  28.606  28.179  1.00  0.00     0.131 A 
ATOM     40  C   UNL A   1      47.828  28.066  25.488  1.00  0.00     0.055 A 
ATOM     41  C   UNL A   1      48.656  28.004  27.744  1.00  0.00     0.041 A 
ATOM     42  F   UNL A   1      47.312  28.773  29.501  1.00  0.00    -0.206 F 
ATOM     43  C   UNL A   1      48.830  27.710  26.395  1.00  0.00     0.022 A 
BRANCH  40  44
ATOM     44  S   UNL A   1      47.903  27.469  23.774  1.00  0.00     0.124 S 
ATOM     45  O   UNL A   1      49.259  27.854  23.387  1.00  0.00    -0.237 OA
ATOM     46  O   UNL A   1      47.666  26.039  23.929  1.00  0.00    -0.237 OA
ATOM     47  O   UNL A   1      46.837  28.211  23.105  1.00  0.00    -0.744 OA
ENDBRANCH  40  44
ENDBRANCH  23  37
BRANCH  24  48
ATOM     48  C   UNL A   1      37.411  31.720  30.782  1.00  0.00     0.023 A 
ATOM     49  C   UNL A   1      36.495  32.400  29.960  1.00  0.00     0.031 A 
ATOM     50  C   UNL A   1      37.052  31.515  32.127  1.00  0.00     0.131 A 
ATOM     51  C   UNL A   1      35.294  32.890  30.501  1.00  0.00     0.055 A 
ATOM     52  C   UNL A   1      35.835  31.960  32.647  1.00  0.00     0.041 A 
ATOM     53  F   UNL A   1      37.886  30.873  32.961  1.00  0.00    -0.206 F 
ATOM     54  C   UNL A   1      34.953  32.665  31.836  1.00  0.00     0.022 A 
BRANCH  51  55
ATOM     55  S   UNL A   1      34.213  33.906  29.452  1.00  0.00     0.124 S 
ATOM     56  O   UNL A   1      33.646  32.906  28.554  1.00  0.00    -0.237 OA
ATOM     57  O   UNL A   1      33.299  34.483  30.433  1.00  0.00    -0.237 OA
ATOM     58  O   UNL A   1      35.135  34.854  28.831  1.00  0.00    -0.744 OA
ENDBRANCH  51  55
ENDBRANCH  24  48
BRANCH  36  59
ATOM     59  C   UNL A   1      43.466  35.073  29.873  1.00  0.00     0.023 A 
ATOM     60  C   UNL A   1      43.236  36.055  28.895  1.00  0.00     0.031 A 
ATOM     61  C   UNL A   1      44.086  35.467  31.073  1.00  0.00     0.131 A 
ATOM     62  C   UNL A   1      43.680  37.368  29.108  1.00  0.00     0.055 A 
ATOM     63  C   UNL A   1      44.460  36.790  31.309  1.00  0.00     0.041 A 
ATOM     64  F   UNL A   1      44.333  34.569  32.042  1.00  0.00    -0.206 F 
ATOM     65  C   UNL A   1      44.272  37.746  30.316  1.00  0.00     0.022 A 
BRANCH  62  66
ATOM     66  S   UNL A   1      43.577  38.552  27.739  1.00  0.00     0.124 S 
ATOM     67  O   UNL A   1      42.840  39.655  28.345  1.00  0.00    -0.237 OA
ATOM     68  O   UNL A   1      44.983  38.810  27.443  1.00  0.00    -0.237 OA
ATOM     69  O   UNL A   1      42.852  37.817  26.704  1.00  0.00    -0.744 OA
ENDBRANCH  62  66
ENDBRANCH  36  59
ENDBRANCH  10  11
ENDBRANCH   3   5
ENDBRANCH   2   3
ENDBRANCH   1   2
BRANCH   1  70
ATOM     70  C   UNL A   1      36.318  20.810  24.692  1.00  0.00     0.274 C 
BRANCH  70  71
ATOM     71  O   UNL A   1      35.856  22.152  24.892  1.00  0.00    -0.460 OA
BRANCH  71  72
ATOM     72  C   UNL A   1      35.638  22.888  23.762  1.00  0.00     0.335 C 
ATOM     73  O   UNL A   1      36.396  22.937  22.800  1.00  0.00    -0.249 OA
BRANCH  72  74
ATOM     74  C   UNL A   1      34.284  23.600  23.844  1.00  0.00     0.228 C 
ATOM     75  C   UNL A   1      33.439  23.433  22.603  1.00  0.00     0.047 C 
ATOM     76  O   UNL A   1      33.512  23.075  24.932  1.00  0.00    -0.361 OA
ATOM     77  C   UNL A   1      32.682  22.163  22.892  1.00  0.00     0.037 C 
ATOM     78  C   UNL A   1      32.485  22.214  24.401  1.00  0.00     0.138 C 
BRANCH  78  79
ATOM     79  C   UNL A   1      32.566  20.828  25.059  1.00  0.00     0.148 C 
BRANCH  79  80
ATOM     80  N   UNL A   1      32.256  19.811  24.080  1.00  0.00    -0.352 N 
ATOM     81  H   UNL A   1      31.794  20.070  23.250  1.00  0.00     0.163 HD
BRANCH  80  82
ATOM     82  C   UNL A   1      32.586  18.502  24.274  1.00  0.00     0.222 A 
ATOM     83  N   UNL A   1      33.370  17.946  23.342  1.00  0.00    -0.222 NA
ATOM     84  N   UNL A   1      32.155  17.852  25.366  1.00  0.00    -0.222 NA
ATOM     85  C   UNL A   1      33.757  16.675  23.543  1.00  0.00     0.117 A 
ATOM     86  C   UNL A   1      32.541  16.572  25.509  1.00  0.00     0.117 A 
ATOM     87  C   UNL A   1      33.365  15.926  24.624  1.00  0.00     0.040 A 
ENDBRANCH  80  82
ENDBRANCH  79  80
ENDBRANCH  78  79
ENDBRANCH  72  74
ENDBRANCH  71  72
ENDBRANCH  70  71
ENDBRANCH   1  70
TORSDOF 17
ENDMDL
MODEL 3
REMARK VINA RESULT:     -11.1      1.344      1.530
REMARK SMILES O=C(OCCOC(=O)[C@H]1CC[C@@H](CNc2ncccn2)O1)c1ccc(-c2c3nc(c(-c4cc(S(=O)(=O)[O-])ccc4F)c4ccc([nH]4)c(-c4cc(S(=O)(=O)[O-])ccc4F)c4nc(c(-c5cc(S(=O)(=O)[O-])ccc5F)c5ccc2[nH]5)C=C4)C=C3)cc1
REMARK SMILES IDX 4 1 3 2 2 3 1 4 22 5 23 6 84 7 24 8 83 9 25 10 26 11 27 12
REMARK SMILES IDX 77 13 28 14 82 15 76 16 78 17 29 18 81 19 75 20 74 21 30 23
REMARK SMILES IDX 62 24 42 25 61 26 43 27 46 28 60 29 79 30 44 31 45 32 59 34
REMARK SMILES IDX 80 35 47 36 31 37 32 38 40 39 33 40 39 41 41 42 38 43 34 44
REMARK SMILES IDX 35 45 36 46 37 47 63 48 64 49 72 50 65 51 71 52 73 53 70 54
REMARK SMILES IDX 66 55 67 56 68 57 69 58 48 59 49 60 57 61 50 62 56 63 58 64
REMARK SMILES IDX 55 65 51 66 52 67 53 68 54 69 5 70 6 71 7 72 8 73 9 74 10 75
REMARK SMILES IDX 21 76 11 77 12 78 13 79 14 80 15 82 16 83 20 84 17 85 19 86
REMARK SMILES IDX 18 87
REMARK H PARENT 78 22 46 33 14 81
REMARK Flexibility Score: inf
ROOT
ATOM      1  C   UNL A   1      31.493  31.829  26.823  1.00  0.00     0.275 C 
ENDROOT
BRANCH   1   2
ATOM      2  O   UNL A   1      32.278  33.038  26.840  1.00  0.00    -0.458 OA
BRANCH   2   3
ATOM      3  C   UNL A   1      33.027  33.558  27.845  1.00  0.00     0.338 C 
ATOM      4  O   UNL A   1      32.780  34.697  28.239  1.00  0.00    -0.246 OA
BRANCH   3   5
ATOM      5  C   UNL A   1      34.261  32.887  28.366  1.00  0.00     0.060 A 
ATOM      6  C   UNL A   1      34.303  31.661  29.031  1.00  0.00     0.016 A 
ATOM      7  C   UNL A   1      35.482  33.562  28.153  1.00  0.00     0.016 A 
ATOM      8  C   UNL A   1      35.518  31.078  29.396  1.00  0.00     0.010 A 
ATOM      9  C   UNL A   1      36.706  32.990  28.531  1.00  0.00     0.010 A 
ATOM     10  C   UNL A   1      36.725  31.738  29.154  1.00  0.00    -0.014 A 
BRANCH  10  11
ATOM     11  C   UNL A   1      37.951  31.181  29.765  1.00  0.00     0.031 A 
ATOM     12  C   UNL A   1      38.243  31.564  31.185  1.00  0.00     0.074 A 
ATOM     13  C   UNL A   1      38.698  30.264  29.122  1.00  0.00     0.049 A 
ATOM     14  N   UNL A   1      39.141  31.093  32.005  1.00  0.00    -0.248 NA
ATOM     15  C   UNL A   1      37.379  32.607  31.762  1.00  0.00     0.031 C 
ATOM     16  C   UNL A   1      38.448  29.773  27.767  1.00  0.00     0.029 A 
ATOM     17  N   UNL A   1      39.801  29.559  29.531  1.00  0.00    -0.354 N 
ATOM     18  C   UNL A   1      38.931  31.759  33.206  1.00  0.00     0.074 A 
ATOM     19  C   UNL A   1      37.861  32.706  32.988  1.00  0.00     0.031 C 
ATOM     20  C   UNL A   1      39.369  28.844  27.458  1.00  0.00     0.029 A 
ATOM     21  C   UNL A   1      40.282  28.680  28.586  1.00  0.00     0.049 A 
ATOM     22  H   UNL A   1      40.213  29.672  30.418  1.00  0.00     0.167 HD
ATOM     23  C   UNL A   1      39.567  31.584  34.389  1.00  0.00     0.034 A 
ATOM     24  C   UNL A   1      41.335  27.838  28.639  1.00  0.00     0.034 A 
ATOM     25  C   UNL A   1      40.675  30.680  34.560  1.00  0.00     0.049 A 
ATOM     26  C   UNL A   1      42.117  27.759  29.930  1.00  0.00     0.074 A 
ATOM     27  C   UNL A   1      41.440  30.451  35.687  1.00  0.00     0.029 A 
ATOM     28  N   UNL A   1      41.195  29.873  33.552  1.00  0.00    -0.354 N 
ATOM     29  N   UNL A   1      41.900  28.381  31.069  1.00  0.00    -0.248 NA
ATOM     30  C   UNL A   1      43.269  26.852  29.952  1.00  0.00     0.031 C 
ATOM     31  C   UNL A   1      42.470  29.568  35.340  1.00  0.00     0.029 A 
ATOM     32  C   UNL A   1      42.292  29.171  34.022  1.00  0.00     0.049 A 
ATOM     33  H   UNL A   1      40.834  29.809  32.638  1.00  0.00     0.167 HD
ATOM     34  C   UNL A   1      42.860  27.899  31.956  1.00  0.00     0.074 A 
ATOM     35  C   UNL A   1      43.651  26.934  31.218  1.00  0.00     0.031 C 
ATOM     36  C   UNL A   1      43.063  28.213  33.262  1.00  0.00     0.034 A 
BRANCH  23  37
ATOM     37  C   UNL A   1      39.116  32.461  35.531  1.00  0.00     0.023 A 
ATOM     38  C   UNL A   1      39.529  33.803  35.637  1.00  0.00     0.031 A 
ATOM     39  C   UNL A   1      38.368  31.918  36.589  1.00  0.00     0.131 A 
ATOM     40  C   UNL A   1      39.282  34.520  36.816  1.00  0.00     0.055 A 
ATOM     41  C   UNL A   1      38.048  32.666  37.722  1.00  0.00     0.041 A 
ATOM     42  F   UNL A   1      37.973  30.636  36.558  1.00  0.00    -0.206 F 
ATOM     43  C   UNL A   1      38.523  33.968  37.852  1.00  0.00     0.022 A 
BRANCH  40  44
ATOM     44  S   UNL A   1      40.131  36.107  37.062  1.00  0.00     0.124 S 
ATOM     45  O   UNL A   1      39.915  36.760  35.772  1.00  0.00    -0.237 OA
ATOM     46  O   UNL A   1      39.412  36.677  38.194  1.00  0.00    -0.237 OA
ATOM     47  O   UNL A   1      41.514  35.718  37.330  1.00  0.00    -0.744 OA
ENDBRANCH  40  44
ENDBRANCH  23  37
BRANCH  24  48
ATOM     48  C   UNL A   1      41.725  27.013  27.456  1.00  0.00     0.023 A 
ATOM     49  C   UNL A   1      41.498  25.626  27.420  1.00  0.00     0.031 A 
ATOM     50  C   UNL A   1      42.400  27.591  26.365  1.00  0.00     0.131 A 
ATOM     51  C   UNL A   1      41.983  24.861  26.345  1.00  0.00     0.055 A 
ATOM     52  C   UNL A   1      42.836  26.834  25.275  1.00  0.00     0.041 A 
ATOM     53  F   UNL A   1      42.647  28.911  26.342  1.00  0.00    -0.206 F 
ATOM     54  C   UNL A   1      42.641  25.458  25.268  1.00  0.00     0.022 A 
BRANCH  51  55
ATOM     55  S   UNL A   1      41.817  23.054  26.413  1.00  0.00     0.124 S 
ATOM     56  O   UNL A   1      40.369  22.890  26.452  1.00  0.00    -0.237 OA
ATOM     57  O   UNL A   1      42.478  22.645  25.177  1.00  0.00    -0.237 OA
ATOM     58  O   UNL A   1      42.522  22.693  27.641  1.00  0.00    -0.744 OA
ENDBRANCH  51  55
ENDBRANCH  24  48
BRANCH  36  59
ATOM     59  C   UNL A   1      44.145  27.451  33.989  1.00  0.00     0.023 A 
ATOM     60  C   UNL A   1      45.471  27.911  34.051  1.00  0.00     0.031 A 
ATOM     61  C   UNL A   1      43.836  26.237  34.630  1.00  0.00     0.131 A 
ATOM     62  C   UNL A   1      46.451  27.132  34.682  1.00  0.00     0.055 A 
ATOM     63  C   UNL A   1      44.800  25.502  35.319  1.00  0.00     0.041 A 
ATOM     64  F   UNL A   1      42.585  25.748  34.601  1.00  0.00    -0.206 F 
ATOM     65  C   UNL A   1      46.120  25.941  35.334  1.00  0.00     0.022 A 
BRANCH  62  66
ATOM     66  S   UNL A   1      48.186  27.639  34.543  1.00  0.00     0.124 S 
ATOM     67  O   UNL A   1      48.889  26.451  35.014  1.00  0.00    -0.237 OA
ATOM     68  O   UNL A   1      48.311  27.932  33.119  1.00  0.00    -0.237 OA
ATOM     69  O   UNL A   1      48.275  28.802  35.425  1.00  0.00    -0.744 OA
ENDBRANCH  62  66
ENDBRANCH  36  59
ENDBRANCH  10  11
ENDBRANCH   3   5
ENDBRANCH   2   3
ENDBRANCH   1   2
BRANCH   1  70
ATOM     70  C   UNL A   1      32.279  30.605  26.344  1.00  0.00     0.274 C 
BRANCH  70  71
ATOM     71  O   UNL A   1      31.408  29.529  25.973  1.00  0.00    -0.460 OA
BRANCH  71  72
ATOM     72  C   UNL A   1      31.565  28.362  26.665  1.00  0.00     0.335 C 
ATOM     73  O   UNL A   1      31.296  28.208  27.852  1.00  0.00    -0.249 OA
BRANCH  72  74
ATOM     74  C   UNL A   1      32.075  27.257  25.734  1.00  0.00     0.228 C 
ATOM     75  C   UNL A   1      31.592  25.877  26.118  1.00  0.00     0.047 C 
ATOM     76  O   UNL A   1      31.618  27.486  24.395  1.00  0.00    -0.361 OA
ATOM     77  C   UNL A   1      30.286  25.770  25.375  1.00  0.00     0.037 C 
ATOM     78  C   UNL A   1      30.544  26.571  24.106  1.00  0.00     0.138 C 
BRANCH  78  79
ATOM     79  C   UNL A   1      29.305  27.345  23.629  1.00  0.00     0.148 C 
BRANCH  79  80
ATOM     80  N   UNL A   1      29.679  28.238  22.555  1.00  0.00    -0.352 N 
ATOM     81  H   UNL A   1      30.358  27.947  21.904  1.00  0.00     0.163 HD
BRANCH  80  82
ATOM     82  C   UNL A   1      29.116  29.473  22.419  1.00  0.00     0.222 A 
ATOM     83  N   UNL A   1      28.537  29.981  23.514  1.00  0.00    -0.222 NA
ATOM     84  N   UNL A   1      29.185  30.121  21.247  1.00  0.00    -0.222 NA
ATOM     85  C   UNL A   1      28.027  31.222  23.419  1.00  0.00     0.117 A 
ATOM     86  C   UNL A   1      28.634  31.346  21.190  1.00  0.00     0.117 A 
ATOM     87  C   UNL A   1      28.045  31.961  22.264  1.00  0.00     0.040 A 
ENDBRANCH  80  82
ENDBRANCH  79  80
ENDBRANCH  78  79
ENDBRANCH  72  74
ENDBRANCH  71  72
ENDBRANCH  70  71
ENDBRANCH   1  70
TORSDOF 17
ENDMDL
