MODEL 1
REMARK VINA RESULT:     -11.9      0.000      0.000
REMARK SMILES O=C(OCCOC(=O)[C@@H]1[C@@H](C(=O)NCCCn2ccnc2)[C@@H]2C=C[C@H]1C2)c1ccc(-c2c3nc(c(-c4cc(S(=O)(=O)[O-])ccc4F)c4ccc([nH]4)c(-c4cc(S(=O)(=O)[O-])ccc4F)c4nc(c(-c5cc(S(=O)(=O)[O-])ccc5F)c5ccc2[nH]5)C=C4)C=C3)cc1
REMARK SMILES IDX 5 1 4 2 3 3 2 4 1 5 27 6 28 7 89 8 29 9 88 10 30 11 31 12
REMARK SMILES IDX 32 13 82 14 33 15 87 16 81 17 83 18 34 19 86 20 80 21 79 22
REMARK SMILES IDX 35 24 67 25 47 26 66 27 48 28 51 29 65 30 84 31 49 32 50 33
REMARK SMILES IDX 64 35 85 36 52 37 36 38 37 39 45 40 38 41 44 42 46 43 43 44
REMARK SMILES IDX 39 45 40 46 41 47 42 48 68 49 69 50 77 51 70 52 76 53 78 54
REMARK SMILES IDX 75 55 71 56 72 57 73 58 74 59 53 60 54 61 62 62 55 63 61 64
REMARK SMILES IDX 63 65 60 66 56 67 57 68 58 69 59 70 6 71 7 72 8 73 9 74
REMARK SMILES IDX 10 75 25 76 22 77 24 78 26 79 23 80 11 81 12 82 13 83 14 85
REMARK SMILES IDX 15 86 16 87 17 88 18 89 21 90 19 91 20 92
REMARK H PARENT 83 23 51 34 13 84
REMARK Flexibility Score: inf
ROOT
ATOM      1  C   UNL A   1      33.198  29.054  26.606  1.00  0.00     0.274 C 
ENDROOT
BRANCH   1   2
ATOM      2  C   UNL A   1      34.292  29.835  27.339  1.00  0.00     0.275 C 
BRANCH   2   3
ATOM      3  O   UNL A   1      35.526  29.154  27.612  1.00  0.00    -0.458 OA
BRANCH   3   4
ATOM      4  C   UNL A   1      36.337  29.695  28.547  1.00  0.00     0.338 C 
ATOM      5  O   UNL A   1      35.965  30.419  29.446  1.00  0.00    -0.246 OA
BRANCH   4   6
ATOM      6  C   UNL A   1      37.725  29.204  28.392  1.00  0.00     0.060 A 
ATOM      7  C   UNL A   1      38.561  29.583  27.332  1.00  0.00     0.016 A 
ATOM      8  C   UNL A   1      38.209  28.385  29.410  1.00  0.00     0.016 A 
ATOM      9  C   UNL A   1      39.874  29.123  27.282  1.00  0.00     0.010 A 
ATOM     10  C   UNL A   1      39.521  27.949  29.369  1.00  0.00     0.010 A 
ATOM     11  C   UNL A   1      40.348  28.286  28.294  1.00  0.00    -0.014 A 
BRANCH  11  12
ATOM     12  C   UNL A   1      41.730  27.811  28.266  1.00  0.00     0.031 A 
ATOM     13  C   UNL A   1      42.001  26.589  27.455  1.00  0.00     0.074 A 
ATOM     14  C   UNL A   1      42.751  28.536  28.768  1.00  0.00     0.049 A 
ATOM     15  N   UNL A   1      42.322  25.406  27.871  1.00  0.00    -0.248 NA
ATOM     16  C   UNL A   1      41.793  26.657  26.003  1.00  0.00     0.031 C 
ATOM     17  C   UNL A   1      42.713  29.883  29.346  1.00  0.00     0.029 A 
ATOM     18  N   UNL A   1      44.082  28.255  28.753  1.00  0.00    -0.354 N 
ATOM     19  C   UNL A   1      42.582  24.639  26.732  1.00  0.00     0.074 A 
ATOM     20  C   UNL A   1      42.053  25.401  25.631  1.00  0.00     0.031 C 
ATOM     21  C   UNL A   1      43.965  30.391  29.390  1.00  0.00     0.029 A 
ATOM     22  C   UNL A   1      44.902  29.346  29.021  1.00  0.00     0.049 A 
ATOM     23  H   UNL A   1      44.434  27.355  28.568  1.00  0.00     0.167 HD
ATOM     24  C   UNL A   1      43.402  23.547  26.776  1.00  0.00     0.034 A 
ATOM     25  C   UNL A   1      46.257  29.399  28.930  1.00  0.00     0.034 A 
ATOM     26  C   UNL A   1      43.675  23.166  28.145  1.00  0.00     0.049 A 
ATOM     27  C   UNL A   1      46.742  28.001  29.052  1.00  0.00     0.074 A 
ATOM     28  C   UNL A   1      42.900  22.784  29.223  1.00  0.00     0.029 A 
ATOM     29  N   UNL A   1      44.892  23.524  28.682  1.00  0.00    -0.354 N 
ATOM     30  N   UNL A   1      46.583  27.291  30.137  1.00  0.00    -0.248 NA
ATOM     31  C   UNL A   1      46.938  27.230  27.834  1.00  0.00     0.031 C 
ATOM     32  C   UNL A   1      43.485  23.456  30.337  1.00  0.00     0.029 A 
ATOM     33  C   UNL A   1      44.631  24.120  29.891  1.00  0.00     0.049 A 
ATOM     34  H   UNL A   1      45.778  23.381  28.277  1.00  0.00     0.167 HD
ATOM     35  C   UNL A   1      46.209  26.033  29.689  1.00  0.00     0.074 A 
ATOM     36  C   UNL A   1      46.550  26.024  28.266  1.00  0.00     0.031 C 
ATOM     37  C   UNL A   1      45.401  25.222  30.436  1.00  0.00     0.034 A 
BRANCH  24  38
ATOM     38  C   UNL A   1      44.262  23.007  25.646  1.00  0.00     0.023 A 
ATOM     39  C   UNL A   1      44.209  21.616  25.404  1.00  0.00     0.031 A 
ATOM     40  C   UNL A   1      45.318  23.693  25.010  1.00  0.00     0.131 A 
ATOM     41  C   UNL A   1      45.227  20.959  24.691  1.00  0.00     0.055 A 
ATOM     42  C   UNL A   1      46.290  23.044  24.240  1.00  0.00     0.041 A 
ATOM     43  F   UNL A   1      45.527  25.004  25.167  1.00  0.00    -0.206 F 
ATOM     44  C   UNL A   1      46.273  21.665  24.108  1.00  0.00     0.022 A 
BRANCH  41  45
ATOM     45  S   UNL A   1      45.263  19.145  24.712  1.00  0.00     0.124 S 
ATOM     46  O   UNL A   1      44.120  18.840  25.567  1.00  0.00    -0.237 OA
ATOM     47  O   UNL A   1      45.114  18.823  23.298  1.00  0.00    -0.237 OA
ATOM     48  O   UNL A   1      46.571  18.838  25.287  1.00  0.00    -0.744 OA
ENDBRANCH  41  45
ENDBRANCH  24  38
BRANCH  25  49
ATOM     49  C   UNL A   1      47.073  30.535  28.424  1.00  0.00     0.023 A 
ATOM     50  C   UNL A   1      46.574  31.516  27.543  1.00  0.00     0.031 A 
ATOM     51  C   UNL A   1      48.334  30.793  29.011  1.00  0.00     0.131 A 
ATOM     52  C   UNL A   1      47.327  32.687  27.280  1.00  0.00     0.055 A 
ATOM     53  C   UNL A   1      49.072  31.949  28.749  1.00  0.00     0.041 A 
ATOM     54  F   UNL A   1      48.856  29.961  29.926  1.00  0.00    -0.206 F 
ATOM     55  C   UNL A   1      48.566  32.908  27.887  1.00  0.00     0.022 A 
BRANCH  52  56
ATOM     56  S   UNL A   1      46.661  33.996  26.200  1.00  0.00     0.124 S 
ATOM     57  O   UNL A   1      45.533  33.329  25.562  1.00  0.00    -0.237 OA
ATOM     58  O   UNL A   1      46.336  35.054  27.150  1.00  0.00    -0.237 OA
ATOM     59  O   UNL A   1      47.778  34.303  25.305  1.00  0.00    -0.744 OA
ENDBRANCH  52  56
ENDBRANCH  25  49
BRANCH  37  60
ATOM     60  C   UNL A   1      45.103  25.607  31.873  1.00  0.00     0.023 A 
ATOM     61  C   UNL A   1      45.939  25.318  32.977  1.00  0.00     0.031 A 
ATOM     62  C   UNL A   1      43.992  26.437  32.099  1.00  0.00     0.131 A 
ATOM     63  C   UNL A   1      45.642  25.854  34.246  1.00  0.00     0.055 A 
ATOM     64  C   UNL A   1      43.713  26.983  33.351  1.00  0.00     0.041 A 
ATOM     65  F   UNL A   1      43.176  26.774  31.086  1.00  0.00    -0.206 F 
ATOM     66  C   UNL A   1      44.535  26.689  34.431  1.00  0.00     0.022 A 
BRANCH  63  67
ATOM     67  S   UNL A   1      46.685  25.468  35.692  1.00  0.00     0.124 S 
ATOM     68  O   UNL A   1      46.535  26.640  36.547  1.00  0.00    -0.237 OA
ATOM     69  O   UNL A   1      46.089  24.231  36.191  1.00  0.00    -0.237 OA
ATOM     70  O   UNL A   1      48.020  25.305  35.113  1.00  0.00    -0.744 OA
ENDBRANCH  63  67
ENDBRANCH  37  60
ENDBRANCH  11  12
ENDBRANCH   4   6
ENDBRANCH   3   4
ENDBRANCH   2   3
ENDBRANCH   1   2
BRANCH   1  71
ATOM     71  O   UNL A   1      32.917  27.782  27.232  1.00  0.00    -0.462 OA
BRANCH  71  72
ATOM     72  C   UNL A   1      32.144  26.931  26.497  1.00  0.00     0.310 C 
ATOM     73  O   UNL A   1      31.110  26.414  26.908  1.00  0.00    -0.252 OA
BRANCH  72  74
ATOM     74  C   UNL A   1      32.786  26.488  25.191  1.00  0.00     0.119 C 
ATOM     75  C   UNL A   1      31.976  25.609  24.191  1.00  0.00     0.100 C 
ATOM     76  C   UNL A   1      34.060  25.650  25.451  1.00  0.00     0.027 C 
ATOM     77  C   UNL A   1      32.959  24.409  23.958  1.00  0.00     0.025 C 
ATOM     78  C   UNL A   1      33.701  24.352  26.129  1.00  0.00    -0.027 C 
ATOM     79  C   UNL A   1      34.321  25.108  24.042  1.00  0.00     0.017 C 
ATOM     80  C   UNL A   1      33.071  23.598  25.221  1.00  0.00    -0.027 C 
BRANCH  75  81
ATOM     81  C   UNL A   1      31.677  26.233  22.822  1.00  0.00     0.224 C 
ATOM     82  O   UNL A   1      32.328  25.931  21.818  1.00  0.00    -0.275 OA
ATOM     83  N   UNL A   1      30.647  27.087  22.604  1.00  0.00    -0.356 N 
ATOM     84  H   UNL A   1      30.421  27.208  21.653  1.00  0.00     0.163 HD
BRANCH  83  85
ATOM     85  C   UNL A   1      29.820  27.854  23.506  1.00  0.00     0.117 C 
BRANCH  85  86
ATOM     86  C   UNL A   1      28.993  28.893  22.742  1.00  0.00     0.043 C 
BRANCH  86  87
ATOM     87  C   UNL A   1      29.222  30.325  23.227  1.00  0.00     0.125 C 
BRANCH  87  88
ATOM     88  N   UNL A   1      28.634  31.300  22.333  1.00  0.00    -0.337 N 
ATOM     89  C   UNL A   1      28.233  31.072  21.047  1.00  0.00     0.107 A 
ATOM     90  C   UNL A   1      28.457  32.628  22.595  1.00  0.00     0.199 A 
ATOM     91  C   UNL A   1      27.870  32.307  20.568  1.00  0.00     0.130 A 
ATOM     92  N   UNL A   1      28.012  33.266  21.537  1.00  0.00    -0.245 NA
ENDBRANCH  87  88
ENDBRANCH  86  87
ENDBRANCH  85  86
ENDBRANCH  83  85
ENDBRANCH  75  81
ENDBRANCH  72  74
ENDBRANCH  71  72
ENDBRANCH   1  71
TORSDOF 19
ENDMDL
MODEL 2
REMARK VINA RESULT:     -11.9      2.297      7.135
REMARK SMILES O=C(OCCOC(=O)[C@@H]1[C@@H](C(=O)NCCCn2ccnc2)[C@@H]2C=C[C@H]1C2)c1ccc(-c2c3nc(c(-c4cc(S(=O)(=O)[O-])ccc4F)c4ccc([nH]4)c(-c4cc(S(=O)(=O)[O-])ccc4F)c4nc(c(-c5cc(S(=O)(=O)[O-])ccc5F)c5ccc2[nH]5)C=C4)C=C3)cc1
REMARK SMILES IDX 5 1 4 2 3 3 2 4 1 5 27 6 28 7 89 8 29 9 88 10 30 11 31 12
REMARK SMILES IDX 32 13 82 14 33 15 87 16 81 17 83 18 34 19 86 20 80 21 79 22
REMARK SMILES IDX 35 24 67 25 47 26 66 27 48 28 51 29 65 30 84 31 49 32 50 33
REMARK SMILES IDX 64 35 85 36 52 37 36 38 37 39 45 40 38 41 44 42 46 43 43 44
REMARK SMILES IDX 39 45 40 46 41 47 42 48 68 49 69 50 77 51 70 52 76 53 78 54
REMARK SMILES IDX 75 55 71 56 72 57 73 58 74 59 53 60 54 61 62 62 55 63 61 64
REMARK SMILES IDX 63 65 60 66 56 67 57 68 58 69 59 70 6 71 7 72 8 73 9 74
REMARK SMILES IDX 10 75 25 76 22 77 24 78 26 79 23 80 11 81 12 82 13 83 14 85
REMARK SMILES IDX 15 86 16 87 17 88 18 89 21 90 19 91 20 92
REMARK H PARENT 83 23 51 34 13 84
REMARK Flexibility Score: inf
ROOT
ATOM      1  C   UNL A   1      32.759  29.427  27.251  1.00  0.00     0.274 C 
ENDROOT
BRANCH   1   2
ATOM      2  C   UNL A   1      32.997  30.940  27.255  1.00  0.00     0.275 C 
BRANCH   2   3
ATOM      3  O   UNL A   1      34.357  31.399  27.205  1.00  0.00    -0.458 OA
BRANCH   3   4
ATOM      4  C   UNL A   1      34.915  31.807  28.365  1.00  0.00     0.338 C 
ATOM      5  O   UNL A   1      34.447  32.658  29.093  1.00  0.00    -0.246 OA
BRANCH   4   6
ATOM      6  C   UNL A   1      36.118  31.007  28.685  1.00  0.00     0.060 A 
ATOM      7  C   UNL A   1      36.234  29.641  28.390  1.00  0.00     0.016 A 
ATOM      8  C   UNL A   1      37.192  31.699  29.239  1.00  0.00     0.016 A 
ATOM      9  C   UNL A   1      37.418  28.966  28.672  1.00  0.00     0.010 A 
ATOM     10  C   UNL A   1      38.376  31.030  29.497  1.00  0.00     0.010 A 
ATOM     11  C   UNL A   1      38.485  29.660  29.246  1.00  0.00    -0.014 A 
BRANCH  11  12
ATOM     12  C   UNL A   1      39.742  28.969  29.529  1.00  0.00     0.031 A 
ATOM     13  C   UNL A   1      40.065  28.730  30.966  1.00  0.00     0.074 A 
ATOM     14  C   UNL A   1      40.480  28.391  28.559  1.00  0.00     0.049 A 
ATOM     15  N   UNL A   1      40.995  29.278  31.679  1.00  0.00    -0.248 NA
ATOM     16  C   UNL A   1      39.184  27.847  31.739  1.00  0.00     0.031 C 
ATOM     17  C   UNL A   1      40.177  28.279  27.129  1.00  0.00     0.029 A 
ATOM     18  N   UNL A   1      41.624  27.666  28.680  1.00  0.00    -0.354 N 
ATOM     19  C   UNL A   1      40.968  28.644  32.925  1.00  0.00     0.074 A 
ATOM     20  C   UNL A   1      39.721  27.926  32.959  1.00  0.00     0.031 C 
ATOM     21  C   UNL A   1      40.966  27.333  26.573  1.00  0.00     0.029 A 
ATOM     22  C   UNL A   1      41.946  26.911  27.557  1.00  0.00     0.049 A 
ATOM     23  H   UNL A   1      42.178  27.675  29.493  1.00  0.00     0.167 HD
ATOM     24  C   UNL A   1      42.073  28.593  33.726  1.00  0.00     0.034 A 
ATOM     25  C   UNL A   1      42.936  25.987  27.443  1.00  0.00     0.034 A 
ATOM     26  C   UNL A   1      43.093  29.503  33.251  1.00  0.00     0.049 A 
ATOM     27  C   UNL A   1      43.942  26.318  28.483  1.00  0.00     0.074 A 
ATOM     28  C   UNL A   1      43.159  30.866  33.034  1.00  0.00     0.029 A 
ATOM     29  N   UNL A   1      44.152  28.971  32.546  1.00  0.00    -0.354 N 
ATOM     30  N   UNL A   1      44.625  27.431  28.477  1.00  0.00    -0.248 NA
ATOM     31  C   UNL A   1      43.830  25.672  29.782  1.00  0.00     0.031 C 
ATOM     32  C   UNL A   1      43.871  30.995  31.804  1.00  0.00     0.029 A 
ATOM     33  C   UNL A   1      44.281  29.720  31.403  1.00  0.00     0.049 A 
ATOM     34  H   UNL A   1      44.707  28.203  32.811  1.00  0.00     0.167 HD
ATOM     35  C   UNL A   1      44.634  27.853  29.797  1.00  0.00     0.074 A 
ATOM     36  C   UNL A   1      44.225  26.679  30.569  1.00  0.00     0.031 C 
ATOM     37  C   UNL A   1      44.690  29.180  30.121  1.00  0.00     0.034 A 
BRANCH  24  38
ATOM     38  C   UNL A   1      42.425  27.504  34.726  1.00  0.00     0.023 A 
ATOM     39  C   UNL A   1      43.285  26.475  34.282  1.00  0.00     0.031 A 
ATOM     40  C   UNL A   1      41.759  27.254  35.944  1.00  0.00     0.131 A 
ATOM     41  C   UNL A   1      43.351  25.239  34.949  1.00  0.00     0.055 A 
ATOM     42  C   UNL A   1      41.884  26.048  36.644  1.00  0.00     0.041 A 
ATOM     43  F   UNL A   1      40.884  28.113  36.479  1.00  0.00    -0.206 F 
ATOM     44  C   UNL A   1      42.652  25.017  36.130  1.00  0.00     0.022 A 
BRANCH  41  45
ATOM     45  S   UNL A   1      44.212  23.864  34.136  1.00  0.00     0.124 S 
ATOM     46  O   UNL A   1      44.021  22.788  35.103  1.00  0.00    -0.237 OA
ATOM     47  O   UNL A   1      43.474  23.744  32.884  1.00  0.00    -0.237 OA
ATOM     48  O   UNL A   1      45.583  24.351  34.008  1.00  0.00    -0.744 OA
ENDBRANCH  41  45
ENDBRANCH  24  38
BRANCH  25  49
ATOM     49  C   UNL A   1      42.868  24.691  26.715  1.00  0.00     0.023 A 
ATOM     50  C   UNL A   1      43.924  24.191  25.925  1.00  0.00     0.031 A 
ATOM     51  C   UNL A   1      41.805  23.801  26.990  1.00  0.00     0.131 A 
ATOM     52  C   UNL A   1      43.885  22.857  25.446  1.00  0.00     0.055 A 
ATOM     53  C   UNL A   1      41.772  22.487  26.516  1.00  0.00     0.041 A 
ATOM     54  F   UNL A   1      40.797  24.155  27.802  1.00  0.00    -0.206 F 
ATOM     55  C   UNL A   1      42.818  22.007  25.748  1.00  0.00     0.022 A 
BRANCH  52  56
ATOM     56  S   UNL A   1      45.275  22.175  24.484  1.00  0.00     0.124 S 
ATOM     57  O   UNL A   1      45.623  23.287  23.608  1.00  0.00    -0.237 OA
ATOM     58  O   UNL A   1      46.242  21.841  25.523  1.00  0.00    -0.237 OA
ATOM     59  O   UNL A   1      44.687  21.020  23.804  1.00  0.00    -0.744 OA
ENDBRANCH  52  56
ENDBRANCH  25  49
BRANCH  37  60
ATOM     60  C   UNL A   1      44.986  30.189  29.028  1.00  0.00     0.023 A 
ATOM     61  C   UNL A   1      46.281  30.611  28.646  1.00  0.00     0.031 A 
ATOM     62  C   UNL A   1      43.904  30.621  28.242  1.00  0.00     0.131 A 
ATOM     63  C   UNL A   1      46.450  31.437  27.516  1.00  0.00     0.055 A 
ATOM     64  C   UNL A   1      44.076  31.421  27.113  1.00  0.00     0.041 A 
ATOM     65  F   UNL A   1      42.652  30.230  28.534  1.00  0.00    -0.206 F 
ATOM     66  C   UNL A   1      45.351  31.837  26.749  1.00  0.00     0.022 A 
BRANCH  63  67
ATOM     67  S   UNL A   1      48.105  32.023  27.024  1.00  0.00     0.124 S 
ATOM     68  O   UNL A   1      48.806  30.800  26.650  1.00  0.00    -0.237 OA
ATOM     69  O   UNL A   1      47.802  32.947  25.933  1.00  0.00    -0.237 OA
ATOM     70  O   UNL A   1      48.613  32.667  28.238  1.00  0.00    -0.744 OA
ENDBRANCH  63  67
ENDBRANCH  37  60
ENDBRANCH  11  12
ENDBRANCH   4   6
ENDBRANCH   3   4
ENDBRANCH   2   3
ENDBRANCH   1   2
BRANCH   1  71
ATOM     71  O   UNL A   1      31.905  29.008  26.163  1.00  0.00    -0.462 OA
BRANCH  71  72
ATOM     72  C   UNL A   1      31.504  27.704  26.210  1.00  0.00     0.310 C 
ATOM     73  O   UNL A   1      31.070  27.155  27.218  1.00  0.00    -0.252 OA
BRANCH  72  74
ATOM     74  C   UNL A   1      31.848  26.909  24.960  1.00  0.00     0.119 C 
ATOM     75  C   UNL A   1      31.476  25.397  24.879  1.00  0.00     0.100 C 
ATOM     76  C   UNL A   1      33.372  26.914  24.696  1.00  0.00     0.027 C 
ATOM     77  C   UNL A   1      32.853  24.753  24.495  1.00  0.00     0.025 C 
ATOM     78  C   UNL A   1      34.095  26.179  25.796  1.00  0.00    -0.027 C 
ATOM     79  C   UNL A   1      33.464  25.842  23.605  1.00  0.00     0.017 C 
ATOM     80  C   UNL A   1      33.808  24.880  25.652  1.00  0.00    -0.027 C 
BRANCH  75  81
ATOM     81  C   UNL A   1      30.464  25.001  23.797  1.00  0.00     0.224 C 
ATOM     82  O   UNL A   1      30.679  24.065  23.022  1.00  0.00    -0.275 OA
ATOM     83  N   UNL A   1      29.248  25.589  23.665  1.00  0.00    -0.356 N 
ATOM     84  H   UNL A   1      28.616  25.080  23.109  1.00  0.00     0.163 HD
BRANCH  83  85
ATOM     85  C   UNL A   1      28.711  26.824  24.186  1.00  0.00     0.117 C 
BRANCH  85  86
ATOM     86  C   UNL A   1      28.679  27.907  23.104  1.00  0.00     0.043 C 
BRANCH  86  87
ATOM     87  C   UNL A   1      27.424  28.779  23.156  1.00  0.00     0.125 C 
BRANCH  87  88
ATOM     88  N   UNL A   1      27.676  30.120  22.673  1.00  0.00    -0.337 N 
ATOM     89  C   UNL A   1      28.123  30.453  21.425  1.00  0.00     0.107 A 
ATOM     90  C   UNL A   1      27.588  31.270  23.404  1.00  0.00     0.199 A 
ATOM     91  C   UNL A   1      28.333  31.810  21.479  1.00  0.00     0.130 A 
ATOM     92  N   UNL A   1      27.997  32.307  22.711  1.00  0.00    -0.245 NA
ENDBRANCH  87  88
ENDBRANCH  86  87
ENDBRANCH  85  86
ENDBRANCH  83  85
ENDBRANCH  75  81
ENDBRANCH  72  74
ENDBRANCH  71  72
ENDBRANCH   1  71
TORSDOF 19
ENDMDL
MODEL 3
REMARK VINA RESULT:     -11.8      4.288      6.191
REMARK SMILES O=C(OCCOC(=O)[C@@H]1[C@@H](C(=O)NCCCn2ccnc2)[C@@H]2C=C[C@H]1C2)c1ccc(-c2c3nc(c(-c4cc(S(=O)(=O)[O-])ccc4F)c4ccc([nH]4)c(-c4cc(S(=O)(=O)[O-])ccc4F)c4nc(c(-c5cc(S(=O)(=O)[O-])ccc5F)c5ccc2[nH]5)C=C4)C=C3)cc1
REMARK SMILES IDX 5 1 4 2 3 3 2 4 1 5 27 6 28 7 89 8 29 9 88 10 30 11 31 12
REMARK SMILES IDX 32 13 82 14 33 15 87 16 81 17 83 18 34 19 86 20 80 21 79 22
REMARK SMILES IDX 35 24 67 25 47 26 66 27 48 28 51 29 65 30 84 31 49 32 50 33
REMARK SMILES IDX 64 35 85 36 52 37 36 38 37 39 45 40 38 41 44 42 46 43 43 44
REMARK SMILES IDX 39 45 40 46 41 47 42 48 68 49 69 50 77 51 70 52 76 53 78 54
REMARK SMILES IDX 75 55 71 56 72 57 73 58 74 59 53 60 54 61 62 62 55 63 61 64
REMARK SMILES IDX 63 65 60 66 56 67 57 68 58 69 59 70 6 71 7 72 8 73 9 74
REMARK SMILES IDX 10 75 25 76 22 77 24 78 26 79 23 80 11 81 12 82 13 83 14 85
REMARK SMILES IDX 15 86 16 87 17 88 18 89 21 90 19 91 20 92
REMARK H PARENT 83 23 51 34 13 84
REMARK Flexibility Score: inf
ROOT
ATOM      1  C   UNL A   1      36.937  32.959  28.852  1.00  0.00     0.274 C 
ENDROOT
BRANCH   1   2
ATOM      2  C   UNL A   1      35.845  31.896  28.710  1.00  0.00     0.275 C 
BRANCH   2   3
ATOM      3  O   UNL A   1      36.097  30.603  29.282  1.00  0.00    -0.458 OA
BRANCH   3   4
ATOM      4  C   UNL A   1      36.314  29.580  28.428  1.00  0.00     0.338 C 
ATOM      5  O   UNL A   1      35.487  29.138  27.659  1.00  0.00    -0.246 OA
BRANCH   4   6
ATOM      6  C   UNL A   1      37.725  29.137  28.479  1.00  0.00     0.060 A 
ATOM      7  C   UNL A   1      38.207  28.212  29.417  1.00  0.00     0.016 A 
ATOM      8  C   UNL A   1      38.566  29.632  27.485  1.00  0.00     0.016 A 
ATOM      9  C   UNL A   1      39.537  27.802  29.370  1.00  0.00     0.010 A 
ATOM     10  C   UNL A   1      39.880  29.204  27.426  1.00  0.00     0.010 A 
ATOM     11  C   UNL A   1      40.380  28.316  28.383  1.00  0.00    -0.014 A 
BRANCH  11  12
ATOM     12  C   UNL A   1      41.773  27.879  28.307  1.00  0.00     0.031 A 
ATOM     13  C   UNL A   1      42.041  26.629  27.538  1.00  0.00     0.074 A 
ATOM     14  C   UNL A   1      42.795  28.655  28.725  1.00  0.00     0.049 A 
ATOM     15  N   UNL A   1      42.416  25.476  27.990  1.00  0.00    -0.248 NA
ATOM     16  C   UNL A   1      41.761  26.626  26.097  1.00  0.00     0.031 C 
ATOM     17  C   UNL A   1      42.745  30.024  29.245  1.00  0.00     0.029 A 
ATOM     18  N   UNL A   1      44.131  28.410  28.656  1.00  0.00    -0.354 N 
ATOM     19  C   UNL A   1      42.643  24.666  26.874  1.00  0.00     0.074 A 
ATOM     20  C   UNL A   1      42.040  25.362  25.769  1.00  0.00     0.031 C 
ATOM     21  C   UNL A   1      43.981  30.568  29.205  1.00  0.00     0.029 A 
ATOM     22  C   UNL A   1      44.930  29.534  28.835  1.00  0.00     0.049 A 
ATOM     23  H   UNL A   1      44.501  27.512  28.495  1.00  0.00     0.167 HD
ATOM     24  C   UNL A   1      43.497  23.600  26.926  1.00  0.00     0.034 A 
ATOM     25  C   UNL A   1      46.277  29.619  28.675  1.00  0.00     0.034 A 
ATOM     26  C   UNL A   1      43.847  23.289  28.295  1.00  0.00     0.049 A 
ATOM     27  C   UNL A   1      46.809  28.243  28.835  1.00  0.00     0.074 A 
ATOM     28  C   UNL A   1      43.137  22.935  29.425  1.00  0.00     0.029 A 
ATOM     29  N   UNL A   1      45.078  23.705  28.755  1.00  0.00    -0.354 N 
ATOM     30  N   UNL A   1      46.724  27.579  29.956  1.00  0.00    -0.248 NA
ATOM     31  C   UNL A   1      46.969  27.423  27.644  1.00  0.00     0.031 C 
ATOM     32  C   UNL A   1      43.754  23.673  30.479  1.00  0.00     0.029 A 
ATOM     33  C   UNL A   1      44.858  24.347  29.948  1.00  0.00     0.049 A 
ATOM     34  H   UNL A   1      45.947  23.567  28.313  1.00  0.00     0.167 HD
ATOM     35  C   UNL A   1      46.366  26.292  29.584  1.00  0.00     0.074 A 
ATOM     36  C   UNL A   1      46.638  26.228  28.147  1.00  0.00     0.031 C 
ATOM     37  C   UNL A   1      45.619  25.494  30.405  1.00  0.00     0.034 A 
BRANCH  24  38
ATOM     38  C   UNL A   1      44.317  23.033  25.779  1.00  0.00     0.023 A 
ATOM     39  C   UNL A   1      44.266  21.635  25.579  1.00  0.00     0.031 A 
ATOM     40  C   UNL A   1      45.343  23.706  25.084  1.00  0.00     0.131 A 
ATOM     41  C   UNL A   1      45.261  20.963  24.847  1.00  0.00     0.055 A 
ATOM     42  C   UNL A   1      46.290  23.041  24.296  1.00  0.00     0.041 A 
ATOM     43  F   UNL A   1      45.548  25.023  25.196  1.00  0.00    -0.206 F 
ATOM     44  C   UNL A   1      46.278  21.659  24.204  1.00  0.00     0.022 A 
BRANCH  41  45
ATOM     45  S   UNL A   1      45.311  19.151  24.919  1.00  0.00     0.124 S 
ATOM     46  O   UNL A   1      44.143  18.859  25.744  1.00  0.00    -0.237 OA
ATOM     47  O   UNL A   1      45.210  18.790  23.509  1.00  0.00    -0.237 OA
ATOM     48  O   UNL A   1      46.602  18.872  25.544  1.00  0.00    -0.744 OA
ENDBRANCH  41  45
ENDBRANCH  24  38
BRANCH  25  49
ATOM     49  C   UNL A   1      47.034  30.754  28.081  1.00  0.00     0.023 A 
ATOM     50  C   UNL A   1      46.441  31.736  27.261  1.00  0.00     0.031 A 
ATOM     51  C   UNL A   1      48.354  31.008  28.520  1.00  0.00     0.131 A 
ATOM     52  C   UNL A   1      47.162  32.906  26.915  1.00  0.00     0.055 A 
ATOM     53  C   UNL A   1      49.061  32.163  28.176  1.00  0.00     0.041 A 
ATOM     54  F   UNL A   1      48.974  30.175  29.371  1.00  0.00    -0.206 F 
ATOM     55  C   UNL A   1      48.463  33.122  27.378  1.00  0.00     0.022 A 
BRANCH  52  56
ATOM     56  S   UNL A   1      46.382  34.216  25.916  1.00  0.00     0.124 S 
ATOM     57  O   UNL A   1      45.360  33.481  25.182  1.00  0.00    -0.237 OA
ATOM     58  O   UNL A   1      45.907  35.146  26.934  1.00  0.00    -0.237 OA
ATOM     59  O   UNL A   1      47.483  34.722  25.095  1.00  0.00    -0.744 OA
ENDBRANCH  52  56
ENDBRANCH  25  49
BRANCH  37  60
ATOM     60  C   UNL A   1      45.380  25.935  31.836  1.00  0.00     0.023 A 
ATOM     61  C   UNL A   1      44.240  26.642  32.284  1.00  0.00     0.031 A 
ATOM     62  C   UNL A   1      46.285  25.478  32.809  1.00  0.00     0.131 A 
ATOM     63  C   UNL A   1      44.047  26.870  33.662  1.00  0.00     0.055 A 
ATOM     64  C   UNL A   1      46.080  25.686  34.172  1.00  0.00     0.041 A 
ATOM     65  F   UNL A   1      47.371  24.773  32.451  1.00  0.00    -0.206 F 
ATOM     66  C   UNL A   1      44.962  26.388  34.604  1.00  0.00     0.022 A 
BRANCH  63  67
ATOM     67  S   UNL A   1      42.603  27.809  34.262  1.00  0.00     0.124 S 
ATOM     68  O   UNL A   1      42.117  27.014  35.383  1.00  0.00    -0.237 OA
ATOM     69  O   UNL A   1      43.188  29.105  34.601  1.00  0.00    -0.237 OA
ATOM     70  O   UNL A   1      41.709  27.835  33.102  1.00  0.00    -0.744 OA
ENDBRANCH  63  67
ENDBRANCH  37  60
ENDBRANCH  11  12
ENDBRANCH   4   6
ENDBRANCH   3   4
ENDBRANCH   2   3
ENDBRANCH   1   2
BRANCH   1  71
ATOM     71  O   UNL A   1      38.009  32.533  29.723  1.00  0.00    -0.462 OA
BRANCH  71  72
ATOM     72  C   UNL A   1      37.978  33.059  30.982  1.00  0.00     0.310 C 
ATOM     73  O   UNL A   1      38.133  34.251  31.232  1.00  0.00    -0.252 OA
BRANCH  72  74
ATOM     74  C   UNL A   1      37.960  32.015  32.087  1.00  0.00     0.119 C 
ATOM     75  C   UNL A   1      38.557  32.357  33.485  1.00  0.00     0.100 C 
ATOM     76  C   UNL A   1      38.739  30.745  31.669  1.00  0.00     0.027 C 
ATOM     77  C   UNL A   1      39.555  31.166  33.702  1.00  0.00     0.025 C 
ATOM     78  C   UNL A   1      40.203  31.063  31.504  1.00  0.00    -0.027 C 
ATOM     79  C   UNL A   1      38.813  30.015  33.014  1.00  0.00     0.017 C 
ATOM     80  C   UNL A   1      40.696  31.281  32.728  1.00  0.00    -0.027 C 
BRANCH  75  81
ATOM     81  C   UNL A   1      37.577  32.359  34.665  1.00  0.00     0.224 C 
ATOM     82  O   UNL A   1      37.644  31.515  35.563  1.00  0.00    -0.275 OA
ATOM     83  N   UNL A   1      36.631  33.314  34.843  1.00  0.00    -0.356 N 
ATOM     84  H   UNL A   1      36.249  33.335  35.750  1.00  0.00     0.163 HD
BRANCH  83  85
ATOM     85  C   UNL A   1      36.078  34.305  33.950  1.00  0.00     0.117 C 
BRANCH  85  86
ATOM     86  C   UNL A   1      34.703  33.871  33.434  1.00  0.00     0.043 C 
BRANCH  86  87
ATOM     87  C   UNL A   1      34.490  34.170  31.950  1.00  0.00     0.125 C 
BRANCH  87  88
ATOM     88  N   UNL A   1      33.986  35.510  31.734  1.00  0.00    -0.337 N 
ATOM     89  C   UNL A   1      34.098  36.559  32.601  1.00  0.00     0.107 A 
ATOM     90  C   UNL A   1      33.242  35.927  30.668  1.00  0.00     0.199 A 
ATOM     91  C   UNL A   1      33.362  37.568  32.027  1.00  0.00     0.130 A 
ATOM     92  N   UNL A   1      32.836  37.166  30.828  1.00  0.00    -0.245 NA
ENDBRANCH  87  88
ENDBRANCH  86  87
ENDBRANCH  85  86
ENDBRANCH  83  85
ENDBRANCH  75  81
ENDBRANCH  72  74
ENDBRANCH  71  72
ENDBRANCH   1  71
TORSDOF 19
ENDMDL
