MODEL 1
REMARK VINA RESULT:     -11.2      0.000      0.000
REMARK SMILES C[C@H]([C@@H](C)C(=O)OCCOC(=O)c1ccc(-c2c3nc(c(-c4cc(S(=O)(=O)[O-])ccc4F)c4ccc([nH]4)c(-c4cc(S(=O)(=O)[O-])ccc4F)c4nc(c(-c5cc(S(=O)(=O)[O-])ccc5F)c5ccc2[nH]5)C=C4)C=C3)cc1)n1c(CC#N)nc2ccccc21
REMARK SMILES IDX 8 1 7 2 5 3 6 4 3 5 4 6 2 7 1 8 76 9 77 10 87 11 81 12 82 13
REMARK SMILES IDX 86 14 83 15 85 16 84 17 78 18 79 19 80 20 9 21 10 22 11 23
REMARK SMILES IDX 12 24 13 25 14 26 75 27 15 28 74 29 16 30 17 31 18 32 68 33
REMARK SMILES IDX 19 34 73 35 67 36 69 37 20 38 72 39 66 40 65 41 21 43 53 44
REMARK SMILES IDX 33 45 52 46 34 47 37 48 51 49 70 50 35 51 36 52 50 54 71 55
REMARK SMILES IDX 38 56 22 57 23 58 31 59 24 60 30 61 32 62 29 63 25 64 26 65
REMARK SMILES IDX 27 66 28 67 54 68 55 69 63 70 56 71 62 72 64 73 61 74 57 75
REMARK SMILES IDX 58 76 59 77 60 78 39 79 40 80 48 81 41 82 47 83 49 84 46 85
REMARK SMILES IDX 42 86 43 87 44 88 45 89
REMARK H PARENT 69 42 37 53
REMARK Flexibility Score: inf
ROOT
ATOM      1  C   UNL A   1      35.096  20.535  25.356  1.00  0.00     0.274 C 
ENDROOT
BRANCH   1   2
ATOM      2  O   UNL A   1      34.317  21.493  24.606  1.00  0.00    -0.462 OA
BRANCH   2   3
ATOM      3  C   UNL A   1      33.165  21.923  25.186  1.00  0.00     0.310 C 
ATOM      4  O   UNL A   1      32.048  21.570  24.826  1.00  0.00    -0.252 OA
BRANCH   3   5
ATOM      5  C   UNL A   1      33.371  23.029  26.222  1.00  0.00     0.119 C 
ATOM      6  C   UNL A   1      32.177  22.921  27.168  1.00  0.00     0.022 C 
BRANCH   5   7
ATOM      7  C   UNL A   1      33.687  24.453  25.684  1.00  0.00     0.100 C 
ATOM      8  C   UNL A   1      35.175  24.691  25.366  1.00  0.00     0.032 C 
BRANCH   7   9
ATOM      9  N   UNL A   1      32.840  24.800  24.508  1.00  0.00    -0.323 N 
ATOM     10  C   UNL A   1      33.352  25.120  23.252  1.00  0.00     0.124 A 
ATOM     11  C   UNL A   1      31.673  25.554  24.515  1.00  0.00     0.068 A 
ATOM     12  N   UNL A   1      33.240  26.435  23.127  1.00  0.00    -0.232 NA
ATOM     13  C   UNL A   1      32.021  26.651  23.716  1.00  0.00     0.089 A 
ATOM     14  C   UNL A   1      30.366  25.335  24.956  1.00  0.00     0.028 A 
ATOM     15  C   UNL A   1      31.096  27.672  23.471  1.00  0.00     0.030 A 
ATOM     16  C   UNL A   1      29.411  26.281  24.542  1.00  0.00     0.002 A 
ATOM     17  C   UNL A   1      29.771  27.443  23.849  1.00  0.00     0.002 A 
BRANCH  10  18
ATOM     18  C   UNL A   1      33.267  24.180  22.079  1.00  0.00     0.195 C 
BRANCH  18  19
ATOM     19  C   UNL A   1      33.016  24.891  20.805  1.00  0.00     0.070 C 
ATOM     20  N   UNL A   1      32.871  25.436  19.799  1.00  0.00    -0.198 NA
ENDBRANCH  18  19
ENDBRANCH  10  18
ENDBRANCH   7   9
ENDBRANCH   5   7
ENDBRANCH   3   5
ENDBRANCH   2   3
ENDBRANCH   1   2
BRANCH   1  21
ATOM     21  C   UNL A   1      36.578  20.490  24.960  1.00  0.00     0.275 C 
BRANCH  21  22
ATOM     22  O   UNL A   1      37.330  21.570  25.532  1.00  0.00    -0.458 OA
BRANCH  22  23
ATOM     23  C   UNL A   1      38.589  21.233  25.899  1.00  0.00     0.338 C 
ATOM     24  O   UNL A   1      39.160  20.179  25.671  1.00  0.00    -0.246 OA
BRANCH  23  25
ATOM     25  C   UNL A   1      39.281  22.410  26.443  1.00  0.00     0.060 A 
ATOM     26  C   UNL A   1      38.788  23.663  26.071  1.00  0.00     0.016 A 
ATOM     27  C   UNL A   1      40.423  22.304  27.234  1.00  0.00     0.016 A 
ATOM     28  C   UNL A   1      39.428  24.820  26.473  1.00  0.00     0.010 A 
ATOM     29  C   UNL A   1      41.075  23.474  27.640  1.00  0.00     0.010 A 
ATOM     30  C   UNL A   1      40.585  24.734  27.249  1.00  0.00    -0.014 A 
BRANCH  30  31
ATOM     31  C   UNL A   1      41.317  25.981  27.557  1.00  0.00     0.031 A 
ATOM     32  C   UNL A   1      40.660  27.013  28.424  1.00  0.00     0.074 A 
ATOM     33  C   UNL A   1      42.581  26.137  27.127  1.00  0.00     0.049 A 
ATOM     34  N   UNL A   1      41.085  28.200  28.764  1.00  0.00    -0.248 NA
ATOM     35  C   UNL A   1      39.346  26.657  28.981  1.00  0.00     0.031 C 
ATOM     36  C   UNL A   1      43.337  25.144  26.360  1.00  0.00     0.029 A 
ATOM     37  N   UNL A   1      43.456  27.179  27.281  1.00  0.00    -0.354 N 
ATOM     38  C   UNL A   1      40.081  28.748  29.553  1.00  0.00     0.074 A 
ATOM     39  C   UNL A   1      39.017  27.769  29.624  1.00  0.00     0.031 C 
ATOM     40  C   UNL A   1      44.566  25.627  26.115  1.00  0.00     0.029 A 
ATOM     41  C   UNL A   1      44.661  26.981  26.648  1.00  0.00     0.049 A 
ATOM     42  H   UNL A   1      43.243  27.991  27.795  1.00  0.00     0.167 HD
ATOM     43  C   UNL A   1      40.056  29.961  30.158  1.00  0.00     0.034 A 
ATOM     44  C   UNL A   1      45.704  27.819  26.487  1.00  0.00     0.034 A 
ATOM     45  C   UNL A   1      41.139  30.912  30.071  1.00  0.00     0.049 A 
ATOM     46  C   UNL A   1      45.611  29.201  27.086  1.00  0.00     0.074 A 
ATOM     47  C   UNL A   1      41.231  32.170  30.638  1.00  0.00     0.029 A 
ATOM     48  N   UNL A   1      42.319  30.711  29.361  1.00  0.00    -0.354 N 
ATOM     49  N   UNL A   1      44.642  29.729  27.799  1.00  0.00    -0.248 NA
ATOM     50  C   UNL A   1      46.750  30.097  26.859  1.00  0.00     0.031 C 
ATOM     51  C   UNL A   1      42.427  32.757  30.211  1.00  0.00     0.029 A 
ATOM     52  C   UNL A   1      43.125  31.835  29.447  1.00  0.00     0.049 A 
ATOM     53  H   UNL A   1      42.547  29.889  28.869  1.00  0.00     0.167 HD
ATOM     54  C   UNL A   1      45.070  31.011  28.130  1.00  0.00     0.074 A 
ATOM     55  C   UNL A   1      46.389  31.168  27.551  1.00  0.00     0.031 C 
ATOM     56  C   UNL A   1      44.435  31.972  28.850  1.00  0.00     0.034 A 
BRANCH  43  57
ATOM     57  C   UNL A   1      38.794  30.347  30.891  1.00  0.00     0.023 A 
ATOM     58  C   UNL A   1      37.729  31.009  30.254  1.00  0.00     0.031 A 
ATOM     59  C   UNL A   1      38.675  30.084  32.268  1.00  0.00     0.131 A 
ATOM     60  C   UNL A   1      36.628  31.447  31.008  1.00  0.00     0.055 A 
ATOM     61  C   UNL A   1      37.541  30.451  32.995  1.00  0.00     0.041 A 
ATOM     62  F   UNL A   1      39.670  29.481  32.936  1.00  0.00    -0.206 F 
ATOM     63  C   UNL A   1      36.515  31.151  32.367  1.00  0.00     0.022 A 
BRANCH  60  64
ATOM     64  S   UNL A   1      35.415  32.542  30.218  1.00  0.00     0.124 S 
ATOM     65  O   UNL A   1      35.119  31.815  28.986  1.00  0.00    -0.237 OA
ATOM     66  O   UNL A   1      34.344  32.591  31.205  1.00  0.00    -0.237 OA
ATOM     67  O   UNL A   1      36.151  33.792  30.033  1.00  0.00    -0.744 OA
ENDBRANCH  60  64
ENDBRANCH  43  57
BRANCH  44  68
ATOM     68  C   UNL A   1      46.890  27.408  25.681  1.00  0.00     0.023 A 
ATOM     69  C   UNL A   1      47.051  27.835  24.354  1.00  0.00     0.031 A 
ATOM     70  C   UNL A   1      47.858  26.538  26.215  1.00  0.00     0.131 A 
ATOM     71  C   UNL A   1      48.129  27.358  23.592  1.00  0.00     0.055 A 
ATOM     72  C   UNL A   1      48.961  26.113  25.471  1.00  0.00     0.041 A 
ATOM     73  F   UNL A   1      47.751  26.092  27.476  1.00  0.00    -0.206 F 
ATOM     74  C   UNL A   1      49.094  26.513  24.147  1.00  0.00     0.022 A 
BRANCH  71  75
ATOM     75  S   UNL A   1      48.202  27.782  21.831  1.00  0.00     0.124 S 
ATOM     76  O   UNL A   1      49.332  28.703  21.794  1.00  0.00    -0.237 OA
ATOM     77  O   UNL A   1      48.416  26.479  21.212  1.00  0.00    -0.237 OA
ATOM     78  O   UNL A   1      46.896  28.386  21.571  1.00  0.00    -0.744 OA
ENDBRANCH  71  75
ENDBRANCH  44  68
BRANCH  56  79
ATOM     79  C   UNL A   1      45.191  33.257  29.087  1.00  0.00     0.023 A 
ATOM     80  C   UNL A   1      45.077  34.356  28.219  1.00  0.00     0.031 A 
ATOM     81  C   UNL A   1      46.050  33.374  30.195  1.00  0.00     0.131 A 
ATOM     82  C   UNL A   1      45.854  35.503  28.439  1.00  0.00     0.055 A 
ATOM     83  C   UNL A   1      46.770  34.542  30.445  1.00  0.00     0.041 A 
ATOM     84  F   UNL A   1      46.199  32.354  31.054  1.00  0.00    -0.206 F 
ATOM     85  C   UNL A   1      46.685  35.610  29.557  1.00  0.00     0.022 A 
BRANCH  82  86
ATOM     86  S   UNL A   1      45.841  36.817  27.189  1.00  0.00     0.124 S 
ATOM     87  O   UNL A   1      44.433  37.197  27.162  1.00  0.00    -0.237 OA
ATOM     88  O   UNL A   1      46.756  37.801  27.761  1.00  0.00    -0.237 OA
ATOM     89  O   UNL A   1      46.327  36.148  25.984  1.00  0.00    -0.744 OA
ENDBRANCH  82  86
ENDBRANCH  56  79
ENDBRANCH  30  31
ENDBRANCH  23  25
ENDBRANCH  22  23
ENDBRANCH  21  22
ENDBRANCH   1  21
TORSDOF 18
ENDMDL
MODEL 2
REMARK VINA RESULT:     -11.1      5.256      8.328
REMARK SMILES C[C@H]([C@@H](C)C(=O)OCCOC(=O)c1ccc(-c2c3nc(c(-c4cc(S(=O)(=O)[O-])ccc4F)c4ccc([nH]4)c(-c4cc(S(=O)(=O)[O-])ccc4F)c4nc(c(-c5cc(S(=O)(=O)[O-])ccc5F)c5ccc2[nH]5)C=C4)C=C3)cc1)n1c(CC#N)nc2ccccc21
REMARK SMILES IDX 8 1 7 2 5 3 6 4 3 5 4 6 2 7 1 8 76 9 77 10 87 11 81 12 82 13
REMARK SMILES IDX 86 14 83 15 85 16 84 17 78 18 79 19 80 20 9 21 10 22 11 23
REMARK SMILES IDX 12 24 13 25 14 26 75 27 15 28 74 29 16 30 17 31 18 32 68 33
REMARK SMILES IDX 19 34 73 35 67 36 69 37 20 38 72 39 66 40 65 41 21 43 53 44
REMARK SMILES IDX 33 45 52 46 34 47 37 48 51 49 70 50 35 51 36 52 50 54 71 55
REMARK SMILES IDX 38 56 22 57 23 58 31 59 24 60 30 61 32 62 29 63 25 64 26 65
REMARK SMILES IDX 27 66 28 67 54 68 55 69 63 70 56 71 62 72 64 73 61 74 57 75
REMARK SMILES IDX 58 76 59 77 60 78 39 79 40 80 48 81 41 82 47 83 49 84 46 85
REMARK SMILES IDX 42 86 43 87 44 88 45 89
REMARK H PARENT 69 42 37 53
REMARK Flexibility Score: inf
ROOT
ATOM      1  C   UNL A   1      31.815  31.256  26.960  1.00  0.00     0.274 C 
ENDROOT
BRANCH   1   2
ATOM      2  O   UNL A   1      32.584  30.059  27.212  1.00  0.00    -0.462 OA
BRANCH   2   3
ATOM      3  C   UNL A   1      31.954  28.876  26.988  1.00  0.00     0.310 C 
ATOM      4  O   UNL A   1      31.290  28.286  27.833  1.00  0.00    -0.252 OA
BRANCH   3   5
ATOM      5  C   UNL A   1      32.286  28.247  25.634  1.00  0.00     0.119 C 
ATOM      6  C   UNL A   1      33.691  27.671  25.792  1.00  0.00     0.022 C 
BRANCH   5   7
ATOM      7  C   UNL A   1      32.044  29.118  24.370  1.00  0.00     0.100 C 
ATOM      8  C   UNL A   1      32.977  28.791  23.190  1.00  0.00     0.032 C 
BRANCH   7   9
ATOM      9  N   UNL A   1      30.619  29.077  23.935  1.00  0.00    -0.323 N 
ATOM     10  C   UNL A   1      30.064  28.034  23.196  1.00  0.00     0.124 A 
ATOM     11  C   UNL A   1      29.851  30.148  23.494  1.00  0.00     0.068 A 
ATOM     12  N   UNL A   1      29.941  28.480  21.955  1.00  0.00    -0.232 NA
ATOM     13  C   UNL A   1      29.543  29.773  22.180  1.00  0.00     0.089 A 
ATOM     14  C   UNL A   1      29.271  31.259  24.110  1.00  0.00     0.028 A 
ATOM     15  C   UNL A   1      28.766  30.606  21.368  1.00  0.00     0.030 A 
ATOM     16  C   UNL A   1      28.347  31.980  23.333  1.00  0.00     0.002 A 
ATOM     17  C   UNL A   1      28.127  31.687  21.982  1.00  0.00     0.002 A 
BRANCH  10  18
ATOM     18  C   UNL A   1      29.120  27.027  23.797  1.00  0.00     0.195 C 
BRANCH  18  19
ATOM     19  C   UNL A   1      29.818  26.041  24.653  1.00  0.00     0.070 C 
ATOM     20  N   UNL A   1      30.314  25.260  25.341  1.00  0.00    -0.198 NA
ENDBRANCH  18  19
ENDBRANCH  10  18
ENDBRANCH   7   9
ENDBRANCH   5   7
ENDBRANCH   3   5
ENDBRANCH   2   3
ENDBRANCH   1   2
BRANCH   1  21
ATOM     21  C   UNL A   1      32.661  32.533  26.871  1.00  0.00     0.275 C 
BRANCH  21  22
ATOM     22  O   UNL A   1      32.303  33.498  27.872  1.00  0.00    -0.458 OA
BRANCH  22  23
ATOM     23  C   UNL A   1      33.307  34.339  28.215  1.00  0.00     0.338 C 
ATOM     24  O   UNL A   1      33.238  35.552  28.329  1.00  0.00    -0.246 OA
BRANCH  23  25
ATOM     25  C   UNL A   1      34.478  33.565  28.649  1.00  0.00     0.060 A 
ATOM     26  C   UNL A   1      34.242  32.487  29.507  1.00  0.00     0.016 A 
ATOM     27  C   UNL A   1      35.778  33.917  28.295  1.00  0.00     0.016 A 
ATOM     28  C   UNL A   1      35.295  31.756  30.026  1.00  0.00     0.010 A 
ATOM     29  C   UNL A   1      36.846  33.182  28.822  1.00  0.00     0.010 A 
ATOM     30  C   UNL A   1      36.605  32.107  29.699  1.00  0.00    -0.014 A 
BRANCH  30  31
ATOM     31  C   UNL A   1      37.711  31.389  30.367  1.00  0.00     0.031 A 
ATOM     32  C   UNL A   1      37.965  31.639  31.823  1.00  0.00     0.074 A 
ATOM     33  C   UNL A   1      38.417  30.469  29.686  1.00  0.00     0.049 A 
ATOM     34  N   UNL A   1      38.915  31.175  32.589  1.00  0.00    -0.248 NA
ATOM     35  C   UNL A   1      37.018  32.533  32.506  1.00  0.00     0.031 C 
ATOM     36  C   UNL A   1      38.178  30.087  28.292  1.00  0.00     0.029 A 
ATOM     37  N   UNL A   1      39.468  29.681  30.074  1.00  0.00    -0.354 N 
ATOM     38  C   UNL A   1      38.700  31.741  33.840  1.00  0.00     0.074 A 
ATOM     39  C   UNL A   1      37.540  32.598  33.723  1.00  0.00     0.031 C 
ATOM     40  C   UNL A   1      39.058  29.134  27.945  1.00  0.00     0.029 A 
ATOM     41  C   UNL A   1      39.959  28.885  29.065  1.00  0.00     0.049 A 
ATOM     42  H   UNL A   1      39.836  29.684  30.987  1.00  0.00     0.167 HD
ATOM     43  C   UNL A   1      39.415  31.559  34.978  1.00  0.00     0.034 A 
ATOM     44  C   UNL A   1      41.038  28.080  29.043  1.00  0.00     0.034 A 
ATOM     45  C   UNL A   1      40.565  30.690  35.060  1.00  0.00     0.049 A 
ATOM     46  C   UNL A   1      41.875  27.970  30.294  1.00  0.00     0.074 A 
ATOM     47  C   UNL A   1      41.369  30.423  36.154  1.00  0.00     0.029 A 
ATOM     48  N   UNL A   1      41.082  29.952  34.001  1.00  0.00    -0.354 N 
ATOM     49  N   UNL A   1      41.690  28.538  31.464  1.00  0.00    -0.248 NA
ATOM     50  C   UNL A   1      43.063  27.112  30.221  1.00  0.00     0.031 C 
ATOM     51  C   UNL A   1      42.411  29.588  35.739  1.00  0.00     0.029 A 
ATOM     52  C   UNL A   1      42.212  29.260  34.406  1.00  0.00     0.049 A 
ATOM     53  H   UNL A   1      40.699  29.924  33.094  1.00  0.00     0.167 HD
ATOM     54  C   UNL A   1      42.725  28.082  32.276  1.00  0.00     0.074 A 
ATOM     55  C   UNL A   1      43.518  27.181  31.463  1.00  0.00     0.031 C 
ATOM     56  C   UNL A   1      42.995  28.375  33.574  1.00  0.00     0.034 A 
BRANCH  43  57
ATOM     57  C   UNL A   1      39.016  32.371  36.187  1.00  0.00     0.023 A 
ATOM     58  C   UNL A   1      39.497  33.673  36.408  1.00  0.00     0.031 A 
ATOM     59  C   UNL A   1      38.170  31.808  37.160  1.00  0.00     0.131 A 
ATOM     60  C   UNL A   1      39.187  34.339  37.605  1.00  0.00     0.055 A 
ATOM     61  C   UNL A   1      37.800  32.509  38.310  1.00  0.00     0.041 A 
ATOM     62  F   UNL A   1      37.702  30.559  37.019  1.00  0.00    -0.206 F 
ATOM     63  C   UNL A   1      38.322  33.777  38.545  1.00  0.00     0.022 A 
BRANCH  60  64
ATOM     64  S   UNL A   1      40.051  35.889  37.985  1.00  0.00     0.124 S 
ATOM     65  O   UNL A   1      39.287  36.380  39.129  1.00  0.00    -0.237 OA
ATOM     66  O   UNL A   1      41.406  35.433  38.269  1.00  0.00    -0.237 OA
ATOM     67  O   UNL A   1      39.901  36.675  36.762  1.00  0.00    -0.744 OA
ENDBRANCH  60  64
ENDBRANCH  43  57
BRANCH  44  68
ATOM     68  C   UNL A   1      41.428  27.367  27.792  1.00  0.00     0.023 A 
ATOM     69  C   UNL A   1      41.311  25.973  27.683  1.00  0.00     0.031 A 
ATOM     70  C   UNL A   1      41.970  28.069  26.700  1.00  0.00     0.131 A 
ATOM     71  C   UNL A   1      41.772  25.321  26.529  1.00  0.00     0.055 A 
ATOM     72  C   UNL A   1      42.372  27.422  25.530  1.00  0.00     0.041 A 
ATOM     73  F   UNL A   1      42.111  29.403  26.751  1.00  0.00    -0.206 F 
ATOM     74  C   UNL A   1      42.286  26.037  25.445  1.00  0.00     0.022 A 
BRANCH  71  75
ATOM     75  S   UNL A   1      41.777  23.507  26.500  1.00  0.00     0.124 S 
ATOM     76  O   UNL A   1      40.351  23.206  26.526  1.00  0.00    -0.237 OA
ATOM     77  O   UNL A   1      42.471  23.225  25.248  1.00  0.00    -0.237 OA
ATOM     78  O   UNL A   1      42.513  23.150  27.712  1.00  0.00    -0.744 OA
ENDBRANCH  71  75
ENDBRANCH  44  68
BRANCH  56  79
ATOM     79  C   UNL A   1      44.173  27.669  34.200  1.00  0.00     0.023 A 
ATOM     80  C   UNL A   1      44.054  26.387  34.768  1.00  0.00     0.031 A 
ATOM     81  C   UNL A   1      45.431  28.297  34.240  1.00  0.00     0.131 A 
ATOM     82  C   UNL A   1      45.159  25.800  35.402  1.00  0.00     0.055 A 
ATOM     83  C   UNL A   1      46.541  27.679  34.814  1.00  0.00     0.041 A 
ATOM     84  F   UNL A   1      45.600  29.520  33.717  1.00  0.00    -0.206 F 
ATOM     85  C   UNL A   1      46.406  26.430  35.412  1.00  0.00     0.022 A 
BRANCH  82  86
ATOM     86  S   UNL A   1      44.919  24.245  36.304  1.00  0.00     0.124 S 
ATOM     87  O   UNL A   1      44.799  24.708  37.682  1.00  0.00    -0.237 OA
ATOM     88  O   UNL A   1      43.699  23.718  35.699  1.00  0.00    -0.237 OA
ATOM     89  O   UNL A   1      46.134  23.487  36.007  1.00  0.00    -0.744 OA
ENDBRANCH  82  86
ENDBRANCH  56  79
ENDBRANCH  30  31
ENDBRANCH  23  25
ENDBRANCH  22  23
ENDBRANCH  21  22
ENDBRANCH   1  21
TORSDOF 18
ENDMDL
MODEL 3
REMARK VINA RESULT:     -11.0      5.089     10.051
REMARK SMILES C[C@H]([C@@H](C)C(=O)OCCOC(=O)c1ccc(-c2c3nc(c(-c4cc(S(=O)(=O)[O-])ccc4F)c4ccc([nH]4)c(-c4cc(S(=O)(=O)[O-])ccc4F)c4nc(c(-c5cc(S(=O)(=O)[O-])ccc5F)c5ccc2[nH]5)C=C4)C=C3)cc1)n1c(CC#N)nc2ccccc21
REMARK SMILES IDX 8 1 7 2 5 3 6 4 3 5 4 6 2 7 1 8 76 9 77 10 87 11 81 12 82 13
REMARK SMILES IDX 86 14 83 15 85 16 84 17 78 18 79 19 80 20 9 21 10 22 11 23
REMARK SMILES IDX 12 24 13 25 14 26 75 27 15 28 74 29 16 30 17 31 18 32 68 33
REMARK SMILES IDX 19 34 73 35 67 36 69 37 20 38 72 39 66 40 65 41 21 43 53 44
REMARK SMILES IDX 33 45 52 46 34 47 37 48 51 49 70 50 35 51 36 52 50 54 71 55
REMARK SMILES IDX 38 56 22 57 23 58 31 59 24 60 30 61 32 62 29 63 25 64 26 65
REMARK SMILES IDX 27 66 28 67 54 68 55 69 63 70 56 71 62 72 64 73 61 74 57 75
REMARK SMILES IDX 58 76 59 77 60 78 39 79 40 80 48 81 41 82 47 83 49 84 46 85
REMARK SMILES IDX 42 86 43 87 44 88 45 89
REMARK H PARENT 69 42 37 53
REMARK Flexibility Score: inf
ROOT
ATOM      1  C   UNL A   1      31.250  29.207  24.518  1.00  0.00     0.274 C 
ENDROOT
BRANCH   1   2
ATOM      2  O   UNL A   1      32.082  28.026  24.488  1.00  0.00    -0.462 OA
BRANCH   2   3
ATOM      3  C   UNL A   1      32.644  27.712  23.291  1.00  0.00     0.310 C 
ATOM      4  O   UNL A   1      32.847  28.528  22.399  1.00  0.00    -0.252 OA
BRANCH   3   5
ATOM      5  C   UNL A   1      32.847  26.212  23.078  1.00  0.00     0.119 C 
ATOM      6  C   UNL A   1      32.783  26.008  21.566  1.00  0.00     0.022 C 
BRANCH   5   7
ATOM      7  C   UNL A   1      31.974  25.251  23.933  1.00  0.00     0.100 C 
ATOM      8  C   UNL A   1      30.768  24.658  23.182  1.00  0.00     0.032 C 
BRANCH   7   9
ATOM      9  N   UNL A   1      32.789  24.166  24.550  1.00  0.00    -0.323 N 
ATOM     10  C   UNL A   1      32.718  23.814  25.896  1.00  0.00     0.124 A 
ATOM     11  C   UNL A   1      34.114  23.856  24.268  1.00  0.00     0.068 A 
ATOM     12  N   UNL A   1      33.803  24.313  26.471  1.00  0.00    -0.232 NA
ATOM     13  C   UNL A   1      34.743  24.083  25.499  1.00  0.00     0.089 A 
ATOM     14  C   UNL A   1      34.776  23.267  23.189  1.00  0.00     0.028 A 
ATOM     15  C   UNL A   1      36.121  23.885  25.639  1.00  0.00     0.030 A 
ATOM     16  C   UNL A   1      36.116  22.904  23.412  1.00  0.00     0.002 A 
ATOM     17  C   UNL A   1      36.786  23.239  24.595  1.00  0.00     0.002 A 
BRANCH  10  18
ATOM     18  C   UNL A   1      32.056  22.547  26.370  1.00  0.00     0.195 C 
BRANCH  18  19
ATOM     19  C   UNL A   1      32.135  21.462  25.367  1.00  0.00     0.070 C 
ATOM     20  N   UNL A   1      32.167  20.585  24.619  1.00  0.00    -0.198 NA
ENDBRANCH  18  19
ENDBRANCH  10  18
ENDBRANCH   7   9
ENDBRANCH   5   7
ENDBRANCH   3   5
ENDBRANCH   2   3
ENDBRANCH   1   2
BRANCH   1  21
ATOM     21  C   UNL A   1      31.510  30.120  25.724  1.00  0.00     0.275 C 
BRANCH  21  22
ATOM     22  O   UNL A   1      32.908  30.253  26.018  1.00  0.00    -0.458 OA
BRANCH  22  23
ATOM     23  C   UNL A   1      33.199  31.254  26.883  1.00  0.00     0.338 C 
ATOM     24  O   UNL A   1      32.449  32.146  27.248  1.00  0.00    -0.246 OA
BRANCH  23  25
ATOM     25  C   UNL A   1      34.505  31.008  27.508  1.00  0.00     0.060 A 
ATOM     26  C   UNL A   1      34.811  29.685  27.837  1.00  0.00     0.016 A 
ATOM     27  C   UNL A   1      35.382  32.041  27.835  1.00  0.00     0.016 A 
ATOM     28  C   UNL A   1      35.984  29.377  28.501  1.00  0.00     0.010 A 
ATOM     29  C   UNL A   1      36.568  31.732  28.510  1.00  0.00     0.010 A 
ATOM     30  C   UNL A   1      36.865  30.400  28.855  1.00  0.00    -0.014 A 
BRANCH  30  31
ATOM     31  C   UNL A   1      38.047  30.056  29.672  1.00  0.00     0.031 A 
ATOM     32  C   UNL A   1      39.082  29.133  29.101  1.00  0.00     0.074 A 
ATOM     33  C   UNL A   1      38.218  30.631  30.875  1.00  0.00     0.049 A 
ATOM     34  N   UNL A   1      40.155  28.645  29.661  1.00  0.00    -0.248 NA
ATOM     35  C   UNL A   1      38.876  28.705  27.708  1.00  0.00     0.031 C 
ATOM     36  C   UNL A   1      37.313  31.616  31.473  1.00  0.00     0.029 A 
ATOM     37  N   UNL A   1      39.213  30.483  31.805  1.00  0.00    -0.354 N 
ATOM     38  C   UNL A   1      40.743  27.828  28.702  1.00  0.00     0.074 A 
ATOM     39  C   UNL A   1      39.893  27.873  27.531  1.00  0.00     0.031 C 
ATOM     40  C   UNL A   1      37.800  31.985  32.669  1.00  0.00     0.029 A 
ATOM     41  C   UNL A   1      39.009  31.219  32.949  1.00  0.00     0.049 A 
ATOM     42  H   UNL A   1      39.997  29.905  31.667  1.00  0.00     0.167 HD
ATOM     43  C   UNL A   1      41.886  27.107  28.800  1.00  0.00     0.034 A 
ATOM     44  C   UNL A   1      39.702  31.237  34.103  1.00  0.00     0.034 A 
ATOM     45  C   UNL A   1      42.713  27.090  29.983  1.00  0.00     0.049 A 
ATOM     46  C   UNL A   1      40.917  30.350  34.223  1.00  0.00     0.074 A 
ATOM     47  C   UNL A   1      43.892  26.400  30.202  1.00  0.00     0.029 A 
ATOM     48  N   UNL A   1      42.442  27.791  31.153  1.00  0.00    -0.354 N 
ATOM     49  N   UNL A   1      41.447  29.549  33.326  1.00  0.00    -0.248 NA
ATOM     50  C   UNL A   1      41.625  30.369  35.508  1.00  0.00     0.031 C 
ATOM     51  C   UNL A   1      44.291  26.623  31.525  1.00  0.00     0.029 A 
ATOM     52  C   UNL A   1      43.410  27.521  32.108  1.00  0.00     0.049 A 
ATOM     53  H   UNL A   1      41.673  28.393  31.284  1.00  0.00     0.167 HD
ATOM     54  C   UNL A   1      42.569  28.991  33.931  1.00  0.00     0.074 A 
ATOM     55  C   UNL A   1      42.645  29.560  35.262  1.00  0.00     0.031 C 
ATOM     56  C   UNL A   1      43.459  28.093  33.434  1.00  0.00     0.034 A 
BRANCH  43  57
ATOM     57  C   UNL A   1      42.255  26.226  27.630  1.00  0.00     0.023 A 
ATOM     58  C   UNL A   1      41.790  24.904  27.510  1.00  0.00     0.031 A 
ATOM     59  C   UNL A   1      43.127  26.709  26.637  1.00  0.00     0.131 A 
ATOM     60  C   UNL A   1      42.257  24.092  26.463  1.00  0.00     0.055 A 
ATOM     61  C   UNL A   1      43.522  25.921  25.554  1.00  0.00     0.041 A 
ATOM     62  F   UNL A   1      43.626  27.952  26.712  1.00  0.00    -0.206 F 
ATOM     63  C   UNL A   1      43.098  24.598  25.471  1.00  0.00     0.022 A 
BRANCH  60  64
ATOM     64  S   UNL A   1      41.867  22.320  26.500  1.00  0.00     0.124 S 
ATOM     65  O   UNL A   1      40.429  22.328  26.248  1.00  0.00    -0.237 OA
ATOM     66  O   UNL A   1      42.701  21.791  25.427  1.00  0.00    -0.237 OA
ATOM     67  O   UNL A   1      42.254  21.911  27.849  1.00  0.00    -0.744 OA
ENDBRANCH  60  64
ENDBRANCH  43  57
BRANCH  44  68
ATOM     68  C   UNL A   1      39.240  32.067  35.253  1.00  0.00     0.023 A 
ATOM     69  C   UNL A   1      39.670  33.394  35.412  1.00  0.00     0.031 A 
ATOM     70  C   UNL A   1      38.396  31.527  36.241  1.00  0.00     0.131 A 
ATOM     71  C   UNL A   1      39.292  34.120  36.552  1.00  0.00     0.055 A 
ATOM     72  C   UNL A   1      37.974  32.273  37.343  1.00  0.00     0.041 A 
ATOM     73  F   UNL A   1      37.959  30.261  36.144  1.00  0.00    -0.206 F 
ATOM     74  C   UNL A   1      38.434  33.574  37.510  1.00  0.00     0.022 A 
BRANCH  71  75
ATOM     75  S   UNL A   1      40.016  35.761  36.815  1.00  0.00     0.124 S 
ATOM     76  O   UNL A   1      41.428  35.439  36.985  1.00  0.00    -0.237 OA
ATOM     77  O   UNL A   1      39.660  36.453  35.581  1.00  0.00    -0.237 OA
ATOM     78  O   UNL A   1      39.338  36.244  38.016  1.00  0.00    -0.744 OA
ENDBRANCH  71  75
ENDBRANCH  44  68
BRANCH  56  79
ATOM     79  C   UNL A   1      44.617  27.718  34.326  1.00  0.00     0.023 A 
ATOM     80  C   UNL A   1      44.551  26.623  35.207  1.00  0.00     0.031 A 
ATOM     81  C   UNL A   1      45.801  28.478  34.301  1.00  0.00     0.131 A 
ATOM     82  C   UNL A   1      45.626  26.355  36.068  1.00  0.00     0.055 A 
ATOM     83  C   UNL A   1      46.890  28.166  35.114  1.00  0.00     0.041 A 
ATOM     84  F   UNL A   1      45.917  29.534  33.483  1.00  0.00    -0.206 F 
ATOM     85  C   UNL A   1      46.802  27.108  36.014  1.00  0.00     0.022 A 
BRANCH  82  86
ATOM     86  S   UNL A   1      45.427  25.071  37.334  1.00  0.00     0.124 S 
ATOM     87  O   UNL A   1      46.211  23.974  36.779  1.00  0.00    -0.237 OA
ATOM     88  O   UNL A   1      45.981  25.715  38.521  1.00  0.00    -0.237 OA
ATOM     89  O   UNL A   1      43.983  24.846  37.370  1.00  0.00    -0.744 OA
ENDBRANCH  82  86
ENDBRANCH  56  79
ENDBRANCH  30  31
ENDBRANCH  23  25
ENDBRANCH  22  23
ENDBRANCH  21  22
ENDBRANCH   1  21
TORSDOF 18
ENDMDL
