MODEL 1
REMARK VINA RESULT:     -12.3      0.000      0.000
REMARK SMILES CCOC(=O)c1nc(Nc2cccc(C(=O)OCCOC(=O)c3ccc(-c4c5nc(c(-c6cc(S(=O)(=O)[O-])ccc6F)c6ccc([nH]6)c(-c6cc(S(=O)(=O)[O-])ccc6F)c6nc(c(-c7cc(S(=O)(=O)[O-])ccc7F)c7ccc4[nH]7)C=C6)C=C5)cc3)c2)c2ccccc2n1
REMARK SMILES IDX 18 1 17 2 15 3 16 4 14 5 10 6 11 7 86 8 12 9 13 10 9 11 8 13
REMARK SMILES IDX 6 14 7 15 93 16 92 17 87 18 91 19 88 20 90 21 89 22 4 23
REMARK SMILES IDX 5 24 3 25 2 26 1 27 19 28 20 29 21 30 22 31 23 32 24 33
REMARK SMILES IDX 85 34 25 35 84 36 26 37 27 38 28 39 78 40 29 41 83 42 77 43
REMARK SMILES IDX 79 44 30 45 82 46 76 47 75 48 31 50 63 51 43 52 62 53 44 54
REMARK SMILES IDX 47 55 61 56 80 57 45 58 46 59 60 61 81 62 48 63 32 64 33 65
REMARK SMILES IDX 41 66 34 67 40 68 42 69 39 70 35 71 36 72 37 73 38 74 64 75
REMARK SMILES IDX 65 76 73 77 66 78 72 79 74 80 71 81 67 82 68 83 69 84 70 85
REMARK SMILES IDX 49 86 50 87 58 88 51 89 57 90 59 91 56 92 52 93 53 94 54 95
REMARK SMILES IDX 55 96
REMARK H PARENT 9 12 79 49 47 60
REMARK Flexibility Score: inf
ROOT
ATOM      1  C   UNL A   1      31.259  28.729  24.812  1.00  0.00     0.275 C 
ENDROOT
BRANCH   1   2
ATOM      2  O   UNL A   1      31.905  28.442  23.556  1.00  0.00    -0.458 OA
BRANCH   2   3
ATOM      3  C   UNL A   1      31.186  27.723  22.654  1.00  0.00     0.338 C 
ATOM      4  O   UNL A   1      30.249  28.134  21.988  1.00  0.00    -0.246 OA
BRANCH   3   5
ATOM      5  C   UNL A   1      31.777  26.372  22.489  1.00  0.00     0.062 A 
ATOM      6  C   UNL A   1      32.369  24.197  23.380  1.00  0.00     0.040 A 
ATOM      7  C   UNL A   1      32.957  23.861  22.154  1.00  0.00     0.026 A 
ATOM      8  C   UNL A   1      31.835  25.481  23.557  1.00  0.00     0.041 A 
ATOM      9  C   UNL A   1      32.896  24.744  21.081  1.00  0.00     0.003 A 
ATOM     10  C   UNL A   1      32.249  25.969  21.235  1.00  0.00     0.016 A 
BRANCH   6  11
ATOM     11  N   UNL A   1      32.162  23.192  24.345  1.00  0.00    -0.340 N 
ATOM     12  H   UNL A   1      31.390  23.287  24.948  1.00  0.00     0.168 HD
BRANCH  11  13
ATOM     13  C   UNL A   1      32.988  22.054  24.509  1.00  0.00     0.142 A 
ATOM     14  C   UNL A   1      33.219  19.771  24.457  1.00  0.00     0.241 A 
ATOM     15  N   UNL A   1      32.440  20.846  24.289  1.00  0.00    -0.204 NA
ATOM     16  N   UNL A   1      34.511  19.791  24.830  1.00  0.00    -0.222 NA
ATOM     17  C   UNL A   1      35.050  21.000  25.022  1.00  0.00     0.077 A 
ATOM     18  C   UNL A   1      34.329  22.199  24.889  1.00  0.00     0.043 A 
ATOM     19  C   UNL A   1      36.397  21.079  25.350  1.00  0.00     0.029 A 
ATOM     20  C   UNL A   1      34.974  23.439  25.120  1.00  0.00     0.014 A 
ATOM     21  C   UNL A   1      37.042  22.303  25.549  1.00  0.00     0.002 A 
ATOM     22  C   UNL A   1      36.328  23.488  25.439  1.00  0.00     0.001 A 
BRANCH  14  23
ATOM     23  C   UNL A   1      32.610  18.456  24.084  1.00  0.00     0.376 C 
ATOM     24  O   UNL A   1      32.148  18.196  22.983  1.00  0.00    -0.242 OA
BRANCH  23  25
ATOM     25  O   UNL A   1      32.632  17.610  25.152  1.00  0.00    -0.460 OA
BRANCH  25  26
ATOM     26  C   UNL A   1      33.545  16.507  25.038  1.00  0.00     0.230 C 
ATOM     27  C   UNL A   1      32.878  15.176  25.350  1.00  0.00     0.049 C 
ENDBRANCH  25  26
ENDBRANCH  23  25
ENDBRANCH  14  23
ENDBRANCH  11  13
ENDBRANCH   6  11
ENDBRANCH   3   5
ENDBRANCH   2   3
ENDBRANCH   1   2
BRANCH   1  28
ATOM     28  C   UNL A   1      31.681  30.098  25.347  1.00  0.00     0.275 C 
BRANCH  28  29
ATOM     29  O   UNL A   1      32.606  29.952  26.440  1.00  0.00    -0.458 OA
BRANCH  29  30
ATOM     30  C   UNL A   1      33.031  31.112  26.993  1.00  0.00     0.338 C 
ATOM     31  O   UNL A   1      32.390  32.137  27.146  1.00  0.00    -0.246 OA
BRANCH  30  32
ATOM     32  C   UNL A   1      34.400  30.948  27.503  1.00  0.00     0.060 A 
ATOM     33  C   UNL A   1      34.832  29.656  27.768  1.00  0.00     0.016 A 
ATOM     34  C   UNL A   1      35.183  32.033  27.881  1.00  0.00     0.016 A 
ATOM     35  C   UNL A   1      35.984  29.428  28.512  1.00  0.00     0.010 A 
ATOM     36  C   UNL A   1      36.408  31.800  28.527  1.00  0.00     0.010 A 
ATOM     37  C   UNL A   1      36.807  30.496  28.885  1.00  0.00    -0.014 A 
BRANCH  37  38
ATOM     38  C   UNL A   1      38.049  30.244  29.678  1.00  0.00     0.031 A 
ATOM     39  C   UNL A   1      39.145  29.377  29.106  1.00  0.00     0.074 A 
ATOM     40  C   UNL A   1      38.221  30.812  30.891  1.00  0.00     0.049 A 
ATOM     41  N   UNL A   1      40.198  28.873  29.697  1.00  0.00    -0.248 NA
ATOM     42  C   UNL A   1      39.031  29.019  27.683  1.00  0.00     0.031 C 
ATOM     43  C   UNL A   1      37.284  31.735  31.538  1.00  0.00     0.029 A 
ATOM     44  N   UNL A   1      39.247  30.704  31.801  1.00  0.00    -0.354 N 
ATOM     45  C   UNL A   1      40.852  28.112  28.733  1.00  0.00     0.074 A 
ATOM     46  C   UNL A   1      40.057  28.195  27.526  1.00  0.00     0.031 C 
ATOM     47  C   UNL A   1      37.791  32.131  32.716  1.00  0.00     0.029 A 
ATOM     48  C   UNL A   1      39.028  31.405  32.967  1.00  0.00     0.049 A 
ATOM     49  H   UNL A   1      40.061  30.175  31.635  1.00  0.00     0.167 HD
ATOM     50  C   UNL A   1      42.011  27.415  28.843  1.00  0.00     0.034 A 
ATOM     51  C   UNL A   1      39.707  31.418  34.132  1.00  0.00     0.034 A 
ATOM     52  C   UNL A   1      42.809  27.366  30.045  1.00  0.00     0.049 A 
ATOM     53  C   UNL A   1      40.935  30.551  34.264  1.00  0.00     0.074 A 
ATOM     54  C   UNL A   1      43.984  26.670  30.273  1.00  0.00     0.029 A 
ATOM     55  N   UNL A   1      42.522  28.050  31.219  1.00  0.00    -0.354 N 
ATOM     56  N   UNL A   1      41.498  29.774  33.366  1.00  0.00    -0.248 NA
ATOM     57  C   UNL A   1      41.616  30.555  35.565  1.00  0.00     0.031 C 
ATOM     58  C   UNL A   1      44.374  26.884  31.599  1.00  0.00     0.029 A 
ATOM     59  C   UNL A   1      43.488  27.779  32.176  1.00  0.00     0.049 A 
ATOM     60  H   UNL A   1      41.746  28.641  31.353  1.00  0.00     0.167 HD
ATOM     61  C   UNL A   1      42.620  29.231  33.987  1.00  0.00     0.074 A 
ATOM     62  C   UNL A   1      42.665  29.785  35.324  1.00  0.00     0.031 C 
ATOM     63  C   UNL A   1      43.529  28.349  33.501  1.00  0.00     0.034 A 
BRANCH  50  64
ATOM     64  C   UNL A   1      42.469  26.617  27.646  1.00  0.00     0.023 A 
ATOM     65  C   UNL A   1      42.079  25.282  27.449  1.00  0.00     0.031 A 
ATOM     66  C   UNL A   1      43.304  27.207  26.678  1.00  0.00     0.131 A 
ATOM     67  C   UNL A   1      42.563  24.565  26.344  1.00  0.00     0.055 A 
ATOM     68  C   UNL A   1      43.721  26.513  25.540  1.00  0.00     0.041 A 
ATOM     69  F   UNL A   1      43.728  28.473  26.822  1.00  0.00    -0.206 F 
ATOM     70  C   UNL A   1      43.359  25.181  25.374  1.00  0.00     0.022 A 
BRANCH  67  71
ATOM     71  S   UNL A   1      42.234  22.785  26.249  1.00  0.00     0.124 S 
ATOM     72  O   UNL A   1      40.788  22.741  26.455  1.00  0.00    -0.237 OA
ATOM     73  O   UNL A   1      42.698  22.448  24.908  1.00  0.00    -0.237 OA
ATOM     74  O   UNL A   1      43.028  22.229  27.341  1.00  0.00    -0.744 OA
ENDBRANCH  67  71
ENDBRANCH  50  64
BRANCH  51  75
ATOM     75  C   UNL A   1      39.210  32.203  35.306  1.00  0.00     0.023 A 
ATOM     76  C   UNL A   1      39.581  33.543  35.490  1.00  0.00     0.031 A 
ATOM     77  C   UNL A   1      38.439  31.594  36.315  1.00  0.00     0.131 A 
ATOM     78  C   UNL A   1      39.252  34.204  36.685  1.00  0.00     0.055 A 
ATOM     79  C   UNL A   1      38.041  32.282  37.462  1.00  0.00     0.041 A 
ATOM     80  F   UNL A   1      38.064  30.309  36.204  1.00  0.00    -0.206 F 
ATOM     81  C   UNL A   1      38.469  33.590  37.663  1.00  0.00     0.022 A 
BRANCH  78  82
ATOM     82  S   UNL A   1      40.004  35.823  37.012  1.00  0.00     0.124 S 
ATOM     83  O   UNL A   1      41.403  35.462  37.214  1.00  0.00    -0.237 OA
ATOM     84  O   UNL A   1      39.700  36.551  35.784  1.00  0.00    -0.237 OA
ATOM     85  O   UNL A   1      39.301  36.289  38.204  1.00  0.00    -0.744 OA
ENDBRANCH  78  82
ENDBRANCH  51  75
BRANCH  63  86
ATOM     86  C   UNL A   1      44.688  27.994  34.399  1.00  0.00     0.023 A 
ATOM     87  C   UNL A   1      44.597  26.972  35.361  1.00  0.00     0.031 A 
ATOM     88  C   UNL A   1      45.897  28.706  34.302  1.00  0.00     0.131 A 
ATOM     89  C   UNL A   1      45.673  26.735  36.230  1.00  0.00     0.055 A 
ATOM     90  C   UNL A   1      46.987  28.419  35.123  1.00  0.00     0.041 A 
ATOM     91  F   UNL A   1      46.038  29.693  33.404  1.00  0.00    -0.206 F 
ATOM     92  C   UNL A   1      46.874  27.439  36.105  1.00  0.00     0.022 A 
BRANCH  89  93
ATOM     93  S   UNL A   1      45.446  25.562  37.595  1.00  0.00     0.124 S 
ATOM     94  O   UNL A   1      44.003  25.354  37.580  1.00  0.00    -0.237 OA
ATOM     95  O   UNL A   1      46.259  24.427  37.169  1.00  0.00    -0.237 OA
ATOM     96  O   UNL A   1      45.958  26.287  38.757  1.00  0.00    -0.744 OA
ENDBRANCH  89  93
ENDBRANCH  63  86
ENDBRANCH  37  38
ENDBRANCH  30  32
ENDBRANCH  29  30
ENDBRANCH  28  29
ENDBRANCH   1  28
TORSDOF 19
ENDMDL
MODEL 2
REMARK VINA RESULT:     -12.2      4.931     10.302
REMARK SMILES CCOC(=O)c1nc(Nc2cccc(C(=O)OCCOC(=O)c3ccc(-c4c5nc(c(-c6cc(S(=O)(=O)[O-])ccc6F)c6ccc([nH]6)c(-c6cc(S(=O)(=O)[O-])ccc6F)c6nc(c(-c7cc(S(=O)(=O)[O-])ccc7F)c7ccc4[nH]7)C=C6)C=C5)cc3)c2)c2ccccc2n1
REMARK SMILES IDX 18 1 17 2 15 3 16 4 14 5 10 6 11 7 86 8 12 9 13 10 9 11 8 13
REMARK SMILES IDX 6 14 7 15 93 16 92 17 87 18 91 19 88 20 90 21 89 22 4 23
REMARK SMILES IDX 5 24 3 25 2 26 1 27 19 28 20 29 21 30 22 31 23 32 24 33
REMARK SMILES IDX 85 34 25 35 84 36 26 37 27 38 28 39 78 40 29 41 83 42 77 43
REMARK SMILES IDX 79 44 30 45 82 46 76 47 75 48 31 50 63 51 43 52 62 53 44 54
REMARK SMILES IDX 47 55 61 56 80 57 45 58 46 59 60 61 81 62 48 63 32 64 33 65
REMARK SMILES IDX 41 66 34 67 40 68 42 69 39 70 35 71 36 72 37 73 38 74 64 75
REMARK SMILES IDX 65 76 73 77 66 78 72 79 74 80 71 81 67 82 68 83 69 84 70 85
REMARK SMILES IDX 49 86 50 87 58 88 51 89 57 90 59 91 56 92 52 93 53 94 54 95
REMARK SMILES IDX 55 96
REMARK H PARENT 9 12 79 49 47 60
REMARK Flexibility Score: inf
ROOT
ATOM      1  C   UNL A   1      35.536  21.559  25.435  1.00  0.00     0.275 C 
ENDROOT
BRANCH   1   2
ATOM      2  O   UNL A   1      35.502  22.976  25.175  1.00  0.00    -0.458 OA
BRANCH   2   3
ATOM      3  C   UNL A   1      34.559  23.409  24.297  1.00  0.00     0.338 C 
ATOM      4  O   UNL A   1      34.710  23.563  23.096  1.00  0.00    -0.246 OA
BRANCH   3   5
ATOM      5  C   UNL A   1      33.251  23.557  24.983  1.00  0.00     0.062 A 
ATOM      6  C   UNL A   1      31.741  24.798  26.415  1.00  0.00     0.040 A 
ATOM      7  C   UNL A   1      30.800  23.767  26.308  1.00  0.00     0.026 A 
ATOM      8  C   UNL A   1      32.991  24.655  25.798  1.00  0.00     0.041 A 
ATOM      9  C   UNL A   1      31.051  22.670  25.490  1.00  0.00     0.003 A 
ATOM     10  C   UNL A   1      32.248  22.602  24.780  1.00  0.00     0.016 A 
BRANCH   6  11
ATOM     11  N   UNL A   1      31.355  26.028  26.984  1.00  0.00    -0.340 N 
ATOM     12  H   UNL A   1      30.896  26.007  27.854  1.00  0.00     0.168 HD
BRANCH  11  13
ATOM     13  C   UNL A   1      31.581  27.293  26.391  1.00  0.00     0.142 A 
ATOM     14  C   UNL A   1      32.621  29.339  26.460  1.00  0.00     0.241 A 
ATOM     15  N   UNL A   1      32.419  28.138  27.017  1.00  0.00    -0.204 NA
ATOM     16  N   UNL A   1      32.054  29.780  25.323  1.00  0.00    -0.222 NA
ATOM     17  C   UNL A   1      31.242  28.921  24.698  1.00  0.00     0.077 A 
ATOM     18  C   UNL A   1      30.943  27.639  25.192  1.00  0.00     0.043 A 
ATOM     19  C   UNL A   1      30.679  29.305  23.489  1.00  0.00     0.029 A 
ATOM     20  C   UNL A   1      30.063  26.794  24.471  1.00  0.00     0.014 A 
ATOM     21  C   UNL A   1      29.834  28.460  22.762  1.00  0.00     0.002 A 
ATOM     22  C   UNL A   1      29.520  27.203  23.256  1.00  0.00     0.001 A 
BRANCH  14  23
ATOM     23  C   UNL A   1      33.652  30.200  27.119  1.00  0.00     0.376 C 
ATOM     24  O   UNL A   1      33.422  31.288  27.628  1.00  0.00    -0.242 OA
BRANCH  23  25
ATOM     25  O   UNL A   1      34.875  29.604  27.048  1.00  0.00    -0.460 OA
BRANCH  25  26
ATOM     26  C   UNL A   1      35.862  30.127  27.950  1.00  0.00     0.230 C 
ATOM     27  C   UNL A   1      37.278  29.778  27.517  1.00  0.00     0.049 C 
ENDBRANCH  25  26
ENDBRANCH  23  25
ENDBRANCH  14  23
ENDBRANCH  11  13
ENDBRANCH   6  11
ENDBRANCH   3   5
ENDBRANCH   2   3
ENDBRANCH   1   2
BRANCH   1  28
ATOM     28  C   UNL A   1      36.874  20.954  25.004  1.00  0.00     0.275 C 
BRANCH  28  29
ATOM     29  O   UNL A   1      37.935  21.915  25.148  1.00  0.00    -0.458 OA
BRANCH  29  30
ATOM     30  C   UNL A   1      38.967  21.520  25.928  1.00  0.00     0.338 C 
ATOM     31  O   UNL A   1      39.444  20.401  26.014  1.00  0.00    -0.246 OA
BRANCH  30  32
ATOM     32  C   UNL A   1      39.540  22.682  26.623  1.00  0.00     0.060 A 
ATOM     33  C   UNL A   1      39.161  23.942  26.180  1.00  0.00     0.016 A 
ATOM     34  C   UNL A   1      40.553  22.555  27.567  1.00  0.00     0.016 A 
ATOM     35  C   UNL A   1      39.858  25.076  26.576  1.00  0.00     0.010 A 
ATOM     36  C   UNL A   1      41.178  23.711  28.059  1.00  0.00     0.010 A 
ATOM     37  C   UNL A   1      40.866  24.985  27.542  1.00  0.00    -0.014 A 
BRANCH  37  38
ATOM     38  C   UNL A   1      41.607  26.211  27.971  1.00  0.00     0.031 A 
ATOM     39  C   UNL A   1      40.914  27.254  28.815  1.00  0.00     0.074 A 
ATOM     40  C   UNL A   1      42.905  26.384  27.640  1.00  0.00     0.049 A 
ATOM     41  N   UNL A   1      41.302  28.465  29.122  1.00  0.00    -0.248 NA
ATOM     42  C   UNL A   1      39.605  26.886  29.377  1.00  0.00     0.031 C 
ATOM     43  C   UNL A   1      43.727  25.425  26.895  1.00  0.00     0.029 A 
ATOM     44  N   UNL A   1      43.770  27.424  27.891  1.00  0.00    -0.354 N 
ATOM     45  C   UNL A   1      40.274  29.018  29.879  1.00  0.00     0.074 A 
ATOM     46  C   UNL A   1      39.230  28.017  29.959  1.00  0.00     0.031 C 
ATOM     47  C   UNL A   1      44.975  25.906  26.780  1.00  0.00     0.029 A 
ATOM     48  C   UNL A   1      45.018  27.252  27.334  1.00  0.00     0.049 A 
ATOM     49  H   UNL A   1      43.518  28.218  28.417  1.00  0.00     0.167 HD
ATOM     50  C   UNL A   1      40.211  30.241  30.461  1.00  0.00     0.034 A 
ATOM     51  C   UNL A   1      46.062  28.098  27.223  1.00  0.00     0.034 A 
ATOM     52  C   UNL A   1      41.273  31.218  30.399  1.00  0.00     0.049 A 
ATOM     53  C   UNL A   1      45.925  29.493  27.786  1.00  0.00     0.074 A 
ATOM     54  C   UNL A   1      41.302  32.496  30.929  1.00  0.00     0.029 A 
ATOM     55  N   UNL A   1      42.500  31.020  29.780  1.00  0.00    -0.354 N 
ATOM     56  N   UNL A   1      44.915  30.027  28.433  1.00  0.00    -0.248 NA
ATOM     57  C   UNL A   1      47.065  30.399  27.599  1.00  0.00     0.031 C 
ATOM     58  C   UNL A   1      42.518  33.091  30.580  1.00  0.00     0.029 A 
ATOM     59  C   UNL A   1      43.284  32.157  29.902  1.00  0.00     0.049 A 
ATOM     60  H   UNL A   1      42.775  30.192  29.321  1.00  0.00     0.167 HD
ATOM     61  C   UNL A   1      45.318  31.319  28.761  1.00  0.00     0.074 A 
ATOM     62  C   UNL A   1      46.668  31.473  28.261  1.00  0.00     0.031 C 
ATOM     63  C   UNL A   1      44.634  32.293  29.411  1.00  0.00     0.034 A 
BRANCH  50  64
ATOM     64  C   UNL A   1      38.938  30.613  31.183  1.00  0.00     0.023 A 
ATOM     65  C   UNL A   1      37.984  31.472  30.613  1.00  0.00     0.031 A 
ATOM     66  C   UNL A   1      38.670  30.089  32.462  1.00  0.00     0.131 A 
ATOM     67  C   UNL A   1      36.835  31.824  31.339  1.00  0.00     0.055 A 
ATOM     68  C   UNL A   1      37.489  30.381  33.147  1.00  0.00     0.041 A 
ATOM     69  F   UNL A   1      39.554  29.280  33.068  1.00  0.00    -0.206 F 
ATOM     70  C   UNL A   1      36.568  31.262  32.589  1.00  0.00     0.022 A 
BRANCH  67  71
ATOM     71  S   UNL A   1      35.747  33.114  30.674  1.00  0.00     0.124 S 
ATOM     72  O   UNL A   1      35.938  34.189  31.645  1.00  0.00    -0.237 OA
ATOM     73  O   UNL A   1      36.306  33.346  29.347  1.00  0.00    -0.237 OA
ATOM     74  O   UNL A   1      34.425  32.493  30.694  1.00  0.00    -0.744 OA
ENDBRANCH  67  71
ENDBRANCH  50  64
BRANCH  51  75
ATOM     75  C   UNL A   1      47.299  27.704  26.479  1.00  0.00     0.023 A 
ATOM     76  C   UNL A   1      47.439  27.979  25.110  1.00  0.00     0.031 A 
ATOM     77  C   UNL A   1      48.316  26.955  27.103  1.00  0.00     0.131 A 
ATOM     78  C   UNL A   1      48.523  27.444  24.396  1.00  0.00     0.055 A 
ATOM     79  C   UNL A   1      49.435  26.499  26.405  1.00  0.00     0.041 A 
ATOM     80  F   UNL A   1      48.233  26.648  28.407  1.00  0.00    -0.206 F 
ATOM     81  C   UNL A   1      49.532  26.723  25.036  1.00  0.00     0.022 A 
BRANCH  78  82
ATOM     82  S   UNL A   1      48.508  27.566  22.584  1.00  0.00     0.124 S 
ATOM     83  O   UNL A   1      48.604  26.163  22.195  1.00  0.00    -0.237 OA
ATOM     84  O   UNL A   1      47.225  28.215  22.336  1.00  0.00    -0.237 OA
ATOM     85  O   UNL A   1      49.686  28.378  22.289  1.00  0.00    -0.744 OA
ENDBRANCH  78  82
ENDBRANCH  51  75
BRANCH  63  86
ATOM     86  C   UNL A   1      45.368  33.582  29.683  1.00  0.00     0.023 A 
ATOM     87  C   UNL A   1      45.329  34.664  28.786  1.00  0.00     0.031 A 
ATOM     88  C   UNL A   1      46.138  33.721  30.853  1.00  0.00     0.131 A 
ATOM     89  C   UNL A   1      46.097  35.811  29.042  1.00  0.00     0.055 A 
ATOM     90  C   UNL A   1      46.844  34.890  31.134  1.00  0.00     0.041 A 
ATOM     91  F   UNL A   1      46.214  32.719  31.743  1.00  0.00    -0.206 F 
ATOM     92  C   UNL A   1      46.839  35.937  30.219  1.00  0.00     0.022 A 
BRANCH  89  93
ATOM     93  S   UNL A   1      46.194  37.095  27.764  1.00  0.00     0.124 S 
ATOM     94  O   UNL A   1      46.680  36.342  26.613  1.00  0.00    -0.237 OA
ATOM     95  O   UNL A   1      44.814  37.561  27.685  1.00  0.00    -0.237 OA
ATOM     96  O   UNL A   1      47.142  38.060  28.321  1.00  0.00    -0.744 OA
ENDBRANCH  89  93
ENDBRANCH  63  86
ENDBRANCH  37  38
ENDBRANCH  30  32
ENDBRANCH  29  30
ENDBRANCH  28  29
ENDBRANCH   1  28
TORSDOF 19
ENDMDL
MODEL 3
REMARK VINA RESULT:     -11.8      1.164      2.270
REMARK SMILES CCOC(=O)c1nc(Nc2cccc(C(=O)OCCOC(=O)c3ccc(-c4c5nc(c(-c6cc(S(=O)(=O)[O-])ccc6F)c6ccc([nH]6)c(-c6cc(S(=O)(=O)[O-])ccc6F)c6nc(c(-c7cc(S(=O)(=O)[O-])ccc7F)c7ccc4[nH]7)C=C6)C=C5)cc3)c2)c2ccccc2n1
REMARK SMILES IDX 18 1 17 2 15 3 16 4 14 5 10 6 11 7 86 8 12 9 13 10 9 11 8 13
REMARK SMILES IDX 6 14 7 15 93 16 92 17 87 18 91 19 88 20 90 21 89 22 4 23
REMARK SMILES IDX 5 24 3 25 2 26 1 27 19 28 20 29 21 30 22 31 23 32 24 33
REMARK SMILES IDX 85 34 25 35 84 36 26 37 27 38 28 39 78 40 29 41 83 42 77 43
REMARK SMILES IDX 79 44 30 45 82 46 76 47 75 48 31 50 63 51 43 52 62 53 44 54
REMARK SMILES IDX 47 55 61 56 80 57 45 58 46 59 60 61 81 62 48 63 32 64 33 65
REMARK SMILES IDX 41 66 34 67 40 68 42 69 39 70 35 71 36 72 37 73 38 74 64 75
REMARK SMILES IDX 65 76 73 77 66 78 72 79 74 80 71 81 67 82 68 83 69 84 70 85
REMARK SMILES IDX 49 86 50 87 58 88 51 89 57 90 59 91 56 92 52 93 53 94 54 95
REMARK SMILES IDX 55 96
REMARK H PARENT 9 12 79 49 47 60
REMARK Flexibility Score: inf
ROOT
ATOM      1  C   UNL A   1      31.061  28.596  25.683  1.00  0.00     0.275 C 
ENDROOT
BRANCH   1   2
ATOM      2  O   UNL A   1      31.642  27.737  24.683  1.00  0.00    -0.458 OA
BRANCH   2   3
ATOM      3  C   UNL A   1      30.802  27.270  23.722  1.00  0.00     0.338 C 
ATOM      4  O   UNL A   1      29.704  27.725  23.442  1.00  0.00    -0.246 OA
BRANCH   3   5
ATOM      5  C   UNL A   1      31.458  26.183  22.953  1.00  0.00     0.062 A 
ATOM      6  C   UNL A   1      32.045  23.849  22.668  1.00  0.00     0.040 A 
ATOM      7  C   UNL A   1      32.759  24.176  21.509  1.00  0.00     0.026 A 
ATOM      8  C   UNL A   1      31.449  24.871  23.419  1.00  0.00     0.041 A 
ATOM      9  C   UNL A   1      32.765  25.483  21.034  1.00  0.00     0.003 A 
ATOM     10  C   UNL A   1      32.061  26.468  21.723  1.00  0.00     0.016 A 
BRANCH   6  11
ATOM     11  N   UNL A   1      31.787  22.495  22.962  1.00  0.00    -0.340 N 
ATOM     12  H   UNL A   1      30.992  22.081  22.554  1.00  0.00     0.168 HD
BRANCH  11  13
ATOM     13  C   UNL A   1      32.590  21.689  23.802  1.00  0.00     0.142 A 
ATOM     14  C   UNL A   1      33.966  21.519  25.632  1.00  0.00     0.241 A 
ATOM     15  N   UNL A   1      33.197  22.281  24.846  1.00  0.00    -0.204 NA
ATOM     16  N   UNL A   1      34.189  20.202  25.470  1.00  0.00    -0.222 NA
ATOM     17  C   UNL A   1      33.560  19.620  24.443  1.00  0.00     0.077 A 
ATOM     18  C   UNL A   1      32.738  20.320  23.543  1.00  0.00     0.043 A 
ATOM     19  C   UNL A   1      33.708  18.251  24.267  1.00  0.00     0.029 A 
ATOM     20  C   UNL A   1      32.115  19.627  22.474  1.00  0.00     0.014 A 
ATOM     21  C   UNL A   1      33.070  17.562  23.231  1.00  0.00     0.002 A 
ATOM     22  C   UNL A   1      32.275  18.253  22.328  1.00  0.00     0.001 A 
BRANCH  14  23
ATOM     23  C   UNL A   1      34.524  22.187  26.849  1.00  0.00     0.376 C 
ATOM     24  O   UNL A   1      33.857  22.529  27.816  1.00  0.00    -0.242 OA
BRANCH  23  25
ATOM     25  O   UNL A   1      35.866  22.371  26.709  1.00  0.00    -0.460 OA
BRANCH  25  26
ATOM     26  C   UNL A   1      36.246  23.479  25.877  1.00  0.00     0.230 C 
ATOM     27  C   UNL A   1      37.673  23.933  26.143  1.00  0.00     0.049 C 
ENDBRANCH  25  26
ENDBRANCH  23  25
ENDBRANCH  14  23
ENDBRANCH  11  13
ENDBRANCH   6  11
ENDBRANCH   3   5
ENDBRANCH   2   3
ENDBRANCH   1   2
BRANCH   1  28
ATOM     28  C   UNL A   1      31.559  30.034  25.529  1.00  0.00     0.275 C 
BRANCH  28  29
ATOM     29  O   UNL A   1      32.938  30.139  25.931  1.00  0.00    -0.458 OA
BRANCH  29  30
ATOM     30  C   UNL A   1      33.202  31.117  26.828  1.00  0.00     0.338 C 
ATOM     31  O   UNL A   1      32.436  31.976  27.234  1.00  0.00    -0.246 OA
BRANCH  30  32
ATOM     32  C   UNL A   1      34.563  30.952  27.358  1.00  0.00     0.060 A 
ATOM     33  C   UNL A   1      35.008  29.658  27.585  1.00  0.00     0.016 A 
ATOM     34  C   UNL A   1      35.325  32.033  27.789  1.00  0.00     0.016 A 
ATOM     35  C   UNL A   1      36.148  29.418  28.341  1.00  0.00     0.010 A 
ATOM     36  C   UNL A   1      36.540  31.792  28.449  1.00  0.00     0.010 A 
ATOM     37  C   UNL A   1      36.950  30.481  28.767  1.00  0.00    -0.014 A 
BRANCH  37  38
ATOM     38  C   UNL A   1      38.181  30.217  29.573  1.00  0.00     0.031 A 
ATOM     39  C   UNL A   1      39.271  29.333  29.017  1.00  0.00     0.074 A 
ATOM     40  C   UNL A   1      38.348  30.788  30.787  1.00  0.00     0.049 A 
ATOM     41  N   UNL A   1      40.312  28.819  29.620  1.00  0.00    -0.248 NA
ATOM     42  C   UNL A   1      39.167  28.971  27.594  1.00  0.00     0.031 C 
ATOM     43  C   UNL A   1      37.416  31.726  31.420  1.00  0.00     0.029 A 
ATOM     44  N   UNL A   1      39.363  30.671  31.707  1.00  0.00    -0.354 N 
ATOM     45  C   UNL A   1      40.966  28.045  28.666  1.00  0.00     0.074 A 
ATOM     46  C   UNL A   1      40.184  28.133  27.450  1.00  0.00     0.031 C 
ATOM     47  C   UNL A   1      37.917  32.120  32.601  1.00  0.00     0.029 A 
ATOM     48  C   UNL A   1      39.142  31.379  32.868  1.00  0.00     0.049 A 
ATOM     49  H   UNL A   1      40.172  30.130  31.551  1.00  0.00     0.167 HD
ATOM     50  C   UNL A   1      42.114  27.334  28.790  1.00  0.00     0.034 A 
ATOM     51  C   UNL A   1      39.809  31.389  34.040  1.00  0.00     0.034 A 
ATOM     52  C   UNL A   1      42.899  27.280  30.001  1.00  0.00     0.049 A 
ATOM     53  C   UNL A   1      41.025  30.506  34.187  1.00  0.00     0.074 A 
ATOM     54  C   UNL A   1      44.063  26.570  30.243  1.00  0.00     0.029 A 
ATOM     55  N   UNL A   1      42.610  27.972  31.169  1.00  0.00    -0.354 N 
ATOM     56  N   UNL A   1      41.587  29.719  33.299  1.00  0.00    -0.248 NA
ATOM     57  C   UNL A   1      41.692  30.507  35.495  1.00  0.00     0.031 C 
ATOM     58  C   UNL A   1      44.443  26.785  31.572  1.00  0.00     0.029 A 
ATOM     59  C   UNL A   1      43.563  27.693  32.137  1.00  0.00     0.049 A 
ATOM     60  H   UNL A   1      41.840  28.574  31.292  1.00  0.00     0.167 HD
ATOM     61  C   UNL A   1      42.695  29.163  33.933  1.00  0.00     0.074 A 
ATOM     62  C   UNL A   1      42.733  29.723  35.268  1.00  0.00     0.031 C 
ATOM     63  C   UNL A   1      43.597  28.268  33.460  1.00  0.00     0.034 A 
BRANCH  50  64
ATOM     64  C   UNL A   1      42.574  26.525  27.601  1.00  0.00     0.023 A 
ATOM     65  C   UNL A   1      42.196  25.184  27.424  1.00  0.00     0.031 A 
ATOM     66  C   UNL A   1      43.398  27.111  26.621  1.00  0.00     0.131 A 
ATOM     67  C   UNL A   1      42.683  24.458  26.325  1.00  0.00     0.055 A 
ATOM     68  C   UNL A   1      43.816  26.407  25.490  1.00  0.00     0.041 A 
ATOM     69  F   UNL A   1      43.810  28.383  26.746  1.00  0.00    -0.206 F 
ATOM     70  C   UNL A   1      43.466  25.069  25.343  1.00  0.00     0.022 A 
BRANCH  67  71
ATOM     71  S   UNL A   1      42.370  22.673  26.255  1.00  0.00     0.124 S 
ATOM     72  O   UNL A   1      43.007  22.312  24.991  1.00  0.00    -0.237 OA
ATOM     73  O   UNL A   1      43.028  22.189  27.463  1.00  0.00    -0.237 OA
ATOM     74  O   UNL A   1      40.913  22.579  26.260  1.00  0.00    -0.744 OA
ENDBRANCH  67  71
ENDBRANCH  50  64
BRANCH  51  75
ATOM     75  C   UNL A   1      39.310  32.185  35.205  1.00  0.00     0.023 A 
ATOM     76  C   UNL A   1      39.694  33.522  35.385  1.00  0.00     0.031 A 
ATOM     77  C   UNL A   1      38.525  31.589  36.211  1.00  0.00     0.131 A 
ATOM     78  C   UNL A   1      39.362  34.192  36.574  1.00  0.00     0.055 A 
ATOM     79  C   UNL A   1      38.125  32.287  37.351  1.00  0.00     0.041 A 
ATOM     80  F   UNL A   1      38.138  30.307  36.104  1.00  0.00    -0.206 F 
ATOM     81  C   UNL A   1      38.564  33.591  37.549  1.00  0.00     0.022 A 
BRANCH  78  82
ATOM     82  S   UNL A   1      40.128  35.805  36.898  1.00  0.00     0.124 S 
ATOM     83  O   UNL A   1      39.561  36.144  38.199  1.00  0.00    -0.237 OA
ATOM     84  O   UNL A   1      41.548  35.474  36.884  1.00  0.00    -0.237 OA
ATOM     85  O   UNL A   1      39.668  36.630  35.783  1.00  0.00    -0.744 OA
ENDBRANCH  78  82
ENDBRANCH  51  75
BRANCH  63  86
ATOM     86  C   UNL A   1      44.743  27.902  34.370  1.00  0.00     0.023 A 
ATOM     87  C   UNL A   1      44.668  26.815  35.259  1.00  0.00     0.031 A 
ATOM     88  C   UNL A   1      45.922  28.669  34.361  1.00  0.00     0.131 A 
ATOM     89  C   UNL A   1      45.725  26.565  36.146  1.00  0.00     0.055 A 
ATOM     90  C   UNL A   1      46.998  28.373  35.199  1.00  0.00     0.041 A 
ATOM     91  F   UNL A   1      46.047  29.720  33.536  1.00  0.00    -0.206 F 
ATOM     92  C   UNL A   1      46.897  27.325  36.108  1.00  0.00     0.022 A 
BRANCH  89  93
ATOM     93  S   UNL A   1      45.509  25.294  37.422  1.00  0.00     0.124 S 
ATOM     94  O   UNL A   1      44.056  25.221  37.534  1.00  0.00    -0.237 OA
ATOM     95  O   UNL A   1      46.161  24.135  36.823  1.00  0.00    -0.237 OA
ATOM     96  O   UNL A   1      46.194  25.856  38.585  1.00  0.00    -0.744 OA
ENDBRANCH  89  93
ENDBRANCH  63  86
ENDBRANCH  37  38
ENDBRANCH  30  32
ENDBRANCH  29  30
ENDBRANCH  28  29
ENDBRANCH   1  28
TORSDOF 19
ENDMDL
