MODEL 1
REMARK VINA RESULT:     -11.5      0.000      0.000
REMARK SMILES C[C@@H](C(=O)OCCOC(=O)c1ccc(-c2c3nc(c(-c4cc(S(=O)(=O)[O-])ccc4F)c4ccc([nH]4)c(-c4cc(S(=O)(=O)[O-])ccc4F)c4nc(c(-c5cc(S(=O)(=O)[O-])ccc5F)c5ccc2[nH]5)C=C4)C=C3)cc1)c1ccc(-c2cccc(OC(=O)NCCC3CCCCC3)c2)c(F)c1
REMARK SMILES IDX 3 1 4 2 2 3 1 4 74 5 75 6 98 7 76 8 96 9 77 10 97 11 78 12
REMARK SMILES IDX 79 13 95 14 80 15 82 16 81 17 83 18 84 19 85 20 86 21 87 23
REMARK SMILES IDX 88 24 89 25 90 26 94 27 91 28 93 29 92 30 5 31 6 32 7 33
REMARK SMILES IDX 8 34 9 35 10 36 11 37 12 38 73 39 13 40 72 41 14 42 15 43
REMARK SMILES IDX 16 44 66 45 17 46 71 47 65 48 67 49 18 50 70 51 64 52 63 53
REMARK SMILES IDX 19 55 51 56 31 57 50 58 32 59 35 60 49 61 68 62 33 63 34 64
REMARK SMILES IDX 48 66 69 67 36 68 20 69 21 70 29 71 22 72 28 73 30 74 27 75
REMARK SMILES IDX 23 76 24 77 25 78 26 79 52 80 53 81 61 82 54 83 60 84 62 85
REMARK SMILES IDX 59 86 55 87 56 88 57 89 58 90 37 91 38 92 46 93 39 94 45 95
REMARK SMILES IDX 47 96 44 97 40 98 41 99 42 100 43 101
REMARK H PARENT 86 22 67 54 35 65
REMARK Flexibility Score: inf
ROOT
ATOM      1  C   UNL A   1      35.031  33.651  28.037  1.00  0.00     0.313 C 
ATOM      2  O   UNL A   1      35.933  33.377  27.253  1.00  0.00    -0.252 OA
ENDROOT
BRANCH   1   3
ATOM      3  C   UNL A   1      34.182  32.593  28.771  1.00  0.00     0.126 C 
ATOM      4  C   UNL A   1      34.797  32.255  30.144  1.00  0.00     0.025 C 
BRANCH   3   5
ATOM      5  C   UNL A   1      33.879  31.321  27.971  1.00  0.00    -0.031 A 
ATOM      6  C   UNL A   1      34.708  30.196  27.996  1.00  0.00     0.005 A 
ATOM      7  C   UNL A   1      32.742  31.248  27.144  1.00  0.00     0.044 A 
ATOM      8  C   UNL A   1      34.325  29.005  27.370  1.00  0.00     0.012 A 
ATOM      9  C   UNL A   1      32.351  30.047  26.539  1.00  0.00     0.131 A 
ATOM     10  C   UNL A   1      33.100  28.889  26.701  1.00  0.00     0.018 A 
ATOM     11  F   UNL A   1      31.241  30.045  25.786  1.00  0.00    -0.206 F 
BRANCH  10  12
ATOM     12  C   UNL A   1      32.700  27.583  26.176  1.00  0.00    -0.012 A 
ATOM     13  C   UNL A   1      31.373  27.131  26.206  1.00  0.00     0.009 A 
ATOM     14  C   UNL A   1      33.700  26.704  25.747  1.00  0.00     0.056 A 
ATOM     15  C   UNL A   1      31.067  25.809  25.858  1.00  0.00     0.004 A 
ATOM     16  C   UNL A   1      33.400  25.388  25.415  1.00  0.00     0.133 A 
ATOM     17  C   UNL A   1      32.083  24.931  25.477  1.00  0.00     0.047 A 
BRANCH  16  18
ATOM     18  O   UNL A   1      34.374  24.456  24.992  1.00  0.00    -0.410 OA
BRANCH  18  19
ATOM     19  C   UNL A   1      34.365  23.814  23.755  1.00  0.00     0.412 C 
ATOM     20  O   UNL A   1      34.433  24.349  22.647  1.00  0.00    -0.224 OA
ATOM     21  N   UNL A   1      34.264  22.464  23.843  1.00  0.00    -0.321 N 
ATOM     22  H   UNL A   1      34.302  21.970  22.992  1.00  0.00     0.167 HD
BRANCH  21  23
ATOM     23  C   UNL A   1      34.107  21.665  25.037  1.00  0.00     0.119 C 
BRANCH  23  24
ATOM     24  C   UNL A   1      34.967  20.401  24.969  1.00  0.00     0.025 C 
BRANCH  24  25
ATOM     25  C   UNL A   1      34.215  19.140  24.489  1.00  0.00    -0.009 C 
ATOM     26  C   UNL A   1      35.121  17.897  24.462  1.00  0.00     0.003 C 
ATOM     27  C   UNL A   1      32.981  18.897  25.375  1.00  0.00     0.003 C 
ATOM     28  C   UNL A   1      34.354  16.634  24.074  1.00  0.00     0.000 C 
ATOM     29  C   UNL A   1      32.224  17.638  24.960  1.00  0.00     0.000 C 
ATOM     30  C   UNL A   1      33.135  16.416  24.963  1.00  0.00     0.000 C 
ENDBRANCH  24  25
ENDBRANCH  23  24
ENDBRANCH  21  23
ENDBRANCH  18  19
ENDBRANCH  16  18
ENDBRANCH  10  12
ENDBRANCH   3   5
ENDBRANCH   1   3
BRANCH   1  31
ATOM     31  O   UNL A   1      34.644  34.928  28.317  1.00  0.00    -0.462 OA
BRANCH  31  32
ATOM     32  C   UNL A   1      33.228  35.193  28.380  1.00  0.00     0.274 C 
BRANCH  32  33
ATOM     33  C   UNL A   1      32.929  36.049  29.609  1.00  0.00     0.275 C 
BRANCH  33  34
ATOM     34  O   UNL A   1      32.648  35.184  30.727  1.00  0.00    -0.458 OA
BRANCH  34  35
ATOM     35  C   UNL A   1      32.791  35.743  31.954  1.00  0.00     0.338 C 
ATOM     36  O   UNL A   1      32.106  36.620  32.451  1.00  0.00    -0.246 OA
BRANCH  35  37
ATOM     37  C   UNL A   1      33.893  35.076  32.670  1.00  0.00     0.060 A 
ATOM     38  C   UNL A   1      35.155  35.644  32.593  1.00  0.00     0.016 A 
ATOM     39  C   UNL A   1      33.730  33.824  33.265  1.00  0.00     0.016 A 
ATOM     40  C   UNL A   1      36.263  34.915  33.020  1.00  0.00     0.010 A 
ATOM     41  C   UNL A   1      34.848  33.144  33.789  1.00  0.00     0.010 A 
ATOM     42  C   UNL A   1      36.146  33.663  33.637  1.00  0.00    -0.014 A 
BRANCH  42  43
ATOM     43  C   UNL A   1      37.395  32.902  33.997  1.00  0.00     0.031 A 
ATOM     44  C   UNL A   1      38.045  33.107  35.348  1.00  0.00     0.074 A 
ATOM     45  C   UNL A   1      37.875  31.912  33.206  1.00  0.00     0.049 A 
ATOM     46  N   UNL A   1      39.189  32.655  35.800  1.00  0.00    -0.248 NA
ATOM     47  C   UNL A   1      37.299  33.913  36.325  1.00  0.00     0.031 C 
ATOM     48  C   UNL A   1      37.271  31.462  31.951  1.00  0.00     0.029 A 
ATOM     49  N   UNL A   1      38.945  31.058  33.367  1.00  0.00    -0.354 N 
ATOM     50  C   UNL A   1      39.328  33.175  37.085  1.00  0.00     0.074 A 
ATOM     51  C   UNL A   1      38.146  33.969  37.342  1.00  0.00     0.031 C 
ATOM     52  C   UNL A   1      37.897  30.354  31.528  1.00  0.00     0.029 A 
ATOM     53  C   UNL A   1      39.061  30.112  32.369  1.00  0.00     0.049 A 
ATOM     54  H   UNL A   1      39.570  31.117  34.125  1.00  0.00     0.167 HD
ATOM     55  C   UNL A   1      40.352  33.011  37.962  1.00  0.00     0.034 A 
ATOM     56  C   UNL A   1      40.022  29.198  32.108  1.00  0.00     0.034 A 
ATOM     57  C   UNL A   1      41.498  32.167  37.716  1.00  0.00     0.049 A 
ATOM     58  C   UNL A   1      41.222  29.143  33.022  1.00  0.00     0.074 A 
ATOM     59  C   UNL A   1      42.616  31.978  38.510  1.00  0.00     0.029 A 
ATOM     60  N   UNL A   1      41.670  31.359  36.599  1.00  0.00    -0.354 N 
ATOM     61  N   UNL A   1      41.425  29.765  34.160  1.00  0.00    -0.248 NA
ATOM     62  C   UNL A   1      42.341  28.290  32.597  1.00  0.00     0.031 C 
ATOM     63  C   UNL A   1      43.494  31.120  37.842  1.00  0.00     0.029 A 
ATOM     64  C   UNL A   1      42.887  30.696  36.671  1.00  0.00     0.049 A 
ATOM     65  H   UNL A   1      41.022  31.268  35.863  1.00  0.00     0.167 HD
ATOM     66  C   UNL A   1      42.689  29.368  34.589  1.00  0.00     0.074 A 
ATOM     67  C   UNL A   1      43.184  28.425  33.610  1.00  0.00     0.031 C 
ATOM     68  C   UNL A   1      43.380  29.757  35.692  1.00  0.00     0.034 A 
BRANCH  55  69
ATOM     69  C   UNL A   1      40.333  33.847  39.222  1.00  0.00     0.023 A 
ATOM     70  C   UNL A   1      39.727  33.417  40.414  1.00  0.00     0.031 A 
ATOM     71  C   UNL A   1      40.918  35.128  39.207  1.00  0.00     0.131 A 
ATOM     72  C   UNL A   1      39.664  34.286  41.517  1.00  0.00     0.055 A 
ATOM     73  C   UNL A   1      40.924  35.954  40.332  1.00  0.00     0.041 A 
ATOM     74  F   UNL A   1      41.490  35.604  38.089  1.00  0.00    -0.206 F 
ATOM     75  C   UNL A   1      40.280  35.540  41.492  1.00  0.00     0.022 A 
BRANCH  72  76
ATOM     76  S   UNL A   1      38.631  33.821  42.936  1.00  0.00     0.124 S 
ATOM     77  O   UNL A   1      37.287  34.007  42.395  1.00  0.00    -0.237 OA
ATOM     78  O   UNL A   1      39.038  32.444  43.183  1.00  0.00    -0.237 OA
ATOM     79  O   UNL A   1      39.015  34.781  43.969  1.00  0.00    -0.744 OA
ENDBRANCH  72  76
ENDBRANCH  55  69
BRANCH  56  80
ATOM     80  C   UNL A   1      39.979  28.361  30.862  1.00  0.00     0.023 A 
ATOM     81  C   UNL A   1      40.733  28.685  29.719  1.00  0.00     0.031 A 
ATOM     82  C   UNL A   1      39.097  27.265  30.764  1.00  0.00     0.131 A 
ATOM     83  C   UNL A   1      40.560  27.952  28.530  1.00  0.00     0.055 A 
ATOM     84  C   UNL A   1      38.990  26.491  29.609  1.00  0.00     0.041 A 
ATOM     85  F   UNL A   1      38.312  26.927  31.799  1.00  0.00    -0.206 F 
ATOM     86  C   UNL A   1      39.711  26.844  28.477  1.00  0.00     0.022 A 
BRANCH  83  87
ATOM     87  S   UNL A   1      41.327  28.552  26.996  1.00  0.00     0.124 S 
ATOM     88  O   UNL A   1      41.851  27.320  26.418  1.00  0.00    -0.237 OA
ATOM     89  O   UNL A   1      40.194  29.153  26.303  1.00  0.00    -0.237 OA
ATOM     90  O   UNL A   1      42.336  29.499  27.468  1.00  0.00    -0.744 OA
ENDBRANCH  83  87
ENDBRANCH  56  80
BRANCH  68  91
ATOM     91  C   UNL A   1      44.729  29.117  35.922  1.00  0.00     0.023 A 
ATOM     92  C   UNL A   1      44.869  27.905  36.621  1.00  0.00     0.031 A 
ATOM     93  C   UNL A   1      45.896  29.738  35.440  1.00  0.00     0.131 A 
ATOM     94  C   UNL A   1      46.147  27.383  36.868  1.00  0.00     0.055 A 
ATOM     95  C   UNL A   1      47.160  29.178  35.629  1.00  0.00     0.041 A 
ATOM     96  F   UNL A   1      45.826  30.901  34.773  1.00  0.00    -0.206 F 
ATOM     97  C   UNL A   1      47.293  28.000  36.359  1.00  0.00     0.022 A 
BRANCH  94  98
ATOM     98  S   UNL A   1      46.305  25.937  37.954  1.00  0.00     0.124 S 
ATOM     99  O   UNL A   1      47.335  26.374  38.891  1.00  0.00    -0.237 OA
ATOM    100  O   UNL A   1      44.958  25.808  38.500  1.00  0.00    -0.237 OA
ATOM    101  O   UNL A   1      46.709  24.867  37.042  1.00  0.00    -0.744 OA
ENDBRANCH  94  98
ENDBRANCH  68  91
ENDBRANCH  42  43
ENDBRANCH  35  37
ENDBRANCH  34  35
ENDBRANCH  33  34
ENDBRANCH  32  33
ENDBRANCH  31  32
ENDBRANCH   1  31
TORSDOF 21
ENDMDL
MODEL 2
REMARK VINA RESULT:     -11.4      3.127      4.533
REMARK SMILES C[C@@H](C(=O)OCCOC(=O)c1ccc(-c2c3nc(c(-c4cc(S(=O)(=O)[O-])ccc4F)c4ccc([nH]4)c(-c4cc(S(=O)(=O)[O-])ccc4F)c4nc(c(-c5cc(S(=O)(=O)[O-])ccc5F)c5ccc2[nH]5)C=C4)C=C3)cc1)c1ccc(-c2cccc(OC(=O)NCCC3CCCCC3)c2)c(F)c1
REMARK SMILES IDX 3 1 4 2 2 3 1 4 74 5 75 6 98 7 76 8 96 9 77 10 97 11 78 12
REMARK SMILES IDX 79 13 95 14 80 15 82 16 81 17 83 18 84 19 85 20 86 21 87 23
REMARK SMILES IDX 88 24 89 25 90 26 94 27 91 28 93 29 92 30 5 31 6 32 7 33
REMARK SMILES IDX 8 34 9 35 10 36 11 37 12 38 73 39 13 40 72 41 14 42 15 43
REMARK SMILES IDX 16 44 66 45 17 46 71 47 65 48 67 49 18 50 70 51 64 52 63 53
REMARK SMILES IDX 19 55 51 56 31 57 50 58 32 59 35 60 49 61 68 62 33 63 34 64
REMARK SMILES IDX 48 66 69 67 36 68 20 69 21 70 29 71 22 72 28 73 30 74 27 75
REMARK SMILES IDX 23 76 24 77 25 78 26 79 52 80 53 81 61 82 54 83 60 84 62 85
REMARK SMILES IDX 59 86 55 87 56 88 57 89 58 90 37 91 38 92 46 93 39 94 45 95
REMARK SMILES IDX 47 96 44 97 40 98 41 99 42 100 43 101
REMARK H PARENT 86 22 67 54 35 65
REMARK Flexibility Score: inf
ROOT
ATOM      1  C   UNL A   1      34.403  34.112  28.209  1.00  0.00     0.313 C 
ATOM      2  O   UNL A   1      34.693  34.769  27.215  1.00  0.00    -0.252 OA
ENDROOT
BRANCH   1   3
ATOM      3  C   UNL A   1      35.121  32.809  28.614  1.00  0.00     0.126 C 
ATOM      4  C   UNL A   1      36.647  32.950  28.451  1.00  0.00     0.025 C 
BRANCH   3   5
ATOM      5  C   UNL A   1      34.606  31.535  27.934  1.00  0.00    -0.031 A 
ATOM      6  C   UNL A   1      35.358  30.359  27.863  1.00  0.00     0.005 A 
ATOM      7  C   UNL A   1      33.338  31.512  27.322  1.00  0.00     0.044 A 
ATOM      8  C   UNL A   1      34.800  29.177  27.364  1.00  0.00     0.012 A 
ATOM      9  C   UNL A   1      32.776  30.321  26.847  1.00  0.00     0.131 A 
ATOM     10  C   UNL A   1      33.471  29.121  26.925  1.00  0.00     0.018 A 
ATOM     11  F   UNL A   1      31.551  30.368  26.300  1.00  0.00    -0.206 F 
BRANCH  10  12
ATOM     12  C   UNL A   1      32.908  27.828  26.534  1.00  0.00    -0.012 A 
ATOM     13  C   UNL A   1      31.548  27.519  26.687  1.00  0.00     0.009 A 
ATOM     14  C   UNL A   1      33.782  26.822  26.112  1.00  0.00     0.056 A 
ATOM     15  C   UNL A   1      31.090  26.215  26.467  1.00  0.00     0.004 A 
ATOM     16  C   UNL A   1      33.331  25.523  25.908  1.00  0.00     0.133 A 
ATOM     17  C   UNL A   1      31.984  25.210  26.093  1.00  0.00     0.047 A 
BRANCH  16  18
ATOM     18  O   UNL A   1      34.176  24.466  25.498  1.00  0.00    -0.410 OA
BRANCH  18  19
ATOM     19  C   UNL A   1      33.725  23.233  25.032  1.00  0.00     0.412 C 
ATOM     20  O   UNL A   1      33.485  22.233  25.710  1.00  0.00    -0.224 OA
ATOM     21  N   UNL A   1      33.557  23.188  23.686  1.00  0.00    -0.321 N 
ATOM     22  H   UNL A   1      33.194  22.348  23.322  1.00  0.00     0.167 HD
BRANCH  21  23
ATOM     23  C   UNL A   1      33.849  24.226  22.724  1.00  0.00     0.119 C 
BRANCH  23  24
ATOM     24  C   UNL A   1      32.572  24.701  22.025  1.00  0.00     0.025 C 
BRANCH  24  25
ATOM     25  C   UNL A   1      32.403  26.235  21.975  1.00  0.00    -0.009 C 
ATOM     26  C   UNL A   1      31.162  26.709  22.752  1.00  0.00     0.003 C 
ATOM     27  C   UNL A   1      33.673  26.921  22.506  1.00  0.00     0.003 C 
ATOM     28  C   UNL A   1      31.046  28.232  22.778  1.00  0.00     0.000 C 
ATOM     29  C   UNL A   1      33.539  28.442  22.509  1.00  0.00     0.000 C 
ATOM     30  C   UNL A   1      32.317  28.889  23.303  1.00  0.00     0.000 C 
ENDBRANCH  24  25
ENDBRANCH  23  24
ENDBRANCH  21  23
ENDBRANCH  18  19
ENDBRANCH  16  18
ENDBRANCH  10  12
ENDBRANCH   3   5
ENDBRANCH   1   3
BRANCH   1  31
ATOM     31  O   UNL A   1      33.381  34.438  29.050  1.00  0.00    -0.462 OA
BRANCH  31  32
ATOM     32  C   UNL A   1      33.349  35.784  29.566  1.00  0.00     0.274 C 
BRANCH  32  33
ATOM     33  C   UNL A   1      32.792  35.767  30.988  1.00  0.00     0.275 C 
BRANCH  33  34
ATOM     34  O   UNL A   1      33.869  35.524  31.912  1.00  0.00    -0.458 OA
BRANCH  34  35
ATOM     35  C   UNL A   1      33.899  34.288  32.469  1.00  0.00     0.338 C 
ATOM     36  O   UNL A   1      33.000  33.729  33.074  1.00  0.00    -0.246 OA
BRANCH  35  37
ATOM     37  C   UNL A   1      35.194  33.650  32.178  1.00  0.00     0.060 A 
ATOM     38  C   UNL A   1      35.310  32.286  32.397  1.00  0.00     0.016 A 
ATOM     39  C   UNL A   1      36.328  34.401  31.861  1.00  0.00     0.016 A 
ATOM     40  C   UNL A   1      36.571  31.695  32.397  1.00  0.00     0.010 A 
ATOM     41  C   UNL A   1      37.584  33.769  31.760  1.00  0.00     0.010 A 
ATOM     42  C   UNL A   1      37.734  32.405  32.069  1.00  0.00    -0.014 A 
BRANCH  42  43
ATOM     43  C   UNL A   1      39.069  31.716  32.170  1.00  0.00     0.031 A 
ATOM     44  C   UNL A   1      39.936  31.919  33.393  1.00  0.00     0.074 A 
ATOM     45  C   UNL A   1      39.459  30.787  31.264  1.00  0.00     0.049 A 
ATOM     46  N   UNL A   1      41.167  31.529  33.618  1.00  0.00    -0.248 NA
ATOM     47  C   UNL A   1      39.329  32.641  34.521  1.00  0.00     0.031 C 
ATOM     48  C   UNL A   1      38.669  30.340  30.115  1.00  0.00     0.029 A 
ATOM     49  N   UNL A   1      40.589  30.001  31.196  1.00  0.00    -0.354 N 
ATOM     50  C   UNL A   1      41.502  32.015  34.880  1.00  0.00     0.074 A 
ATOM     51  C   UNL A   1      40.339  32.719  35.375  1.00  0.00     0.031 C 
ATOM     52  C   UNL A   1      39.274  29.291  29.540  1.00  0.00     0.029 A 
ATOM     53  C   UNL A   1      40.582  29.099  30.152  1.00  0.00     0.049 A 
ATOM     54  H   UNL A   1      41.335  30.076  31.835  1.00  0.00     0.167 HD
ATOM     55  C   UNL A   1      42.673  31.889  35.555  1.00  0.00     0.034 A 
ATOM     56  C   UNL A   1      41.534  28.260  29.686  1.00  0.00     0.034 A 
ATOM     57  C   UNL A   1      43.805  31.132  35.074  1.00  0.00     0.049 A 
ATOM     58  C   UNL A   1      42.878  28.254  30.372  1.00  0.00     0.074 A 
ATOM     59  C   UNL A   1      45.056  30.991  35.651  1.00  0.00     0.029 A 
ATOM     60  N   UNL A   1      43.824  30.375  33.910  1.00  0.00    -0.354 N 
ATOM     61  N   UNL A   1      43.243  28.849  31.483  1.00  0.00    -0.248 NA
ATOM     62  C   UNL A   1      43.952  27.491  29.720  1.00  0.00     0.031 C 
ATOM     63  C   UNL A   1      45.851  30.216  34.802  1.00  0.00     0.029 A 
ATOM     64  C   UNL A   1      45.071  29.792  33.738  1.00  0.00     0.049 A 
ATOM     65  H   UNL A   1      43.061  30.266  33.296  1.00  0.00     0.167 HD
ATOM     66  C   UNL A   1      44.585  28.523  31.666  1.00  0.00     0.074 A 
ATOM     67  C   UNL A   1      44.953  27.649  30.574  1.00  0.00     0.031 C 
ATOM     68  C   UNL A   1      45.437  28.920  32.646  1.00  0.00     0.034 A 
BRANCH  55  69
ATOM     69  C   UNL A   1      42.828  32.680  36.835  1.00  0.00     0.023 A 
ATOM     70  C   UNL A   1      42.467  32.173  38.094  1.00  0.00     0.031 A 
ATOM     71  C   UNL A   1      43.329  33.995  36.776  1.00  0.00     0.131 A 
ATOM     72  C   UNL A   1      42.550  32.999  39.229  1.00  0.00     0.055 A 
ATOM     73  C   UNL A   1      43.486  34.781  37.917  1.00  0.00     0.041 A 
ATOM     74  F   UNL A   1      43.668  34.543  35.597  1.00  0.00    -0.206 F 
ATOM     75  C   UNL A   1      43.081  34.289  39.152  1.00  0.00     0.022 A 
BRANCH  72  76
ATOM     76  S   UNL A   1      41.810  32.422  40.783  1.00  0.00     0.124 S 
ATOM     77  O   UNL A   1      42.626  31.248  41.080  1.00  0.00    -0.237 OA
ATOM     78  O   UNL A   1      41.992  33.570  41.663  1.00  0.00    -0.237 OA
ATOM     79  O   UNL A   1      40.426  32.131  40.416  1.00  0.00    -0.744 OA
ENDBRANCH  72  76
ENDBRANCH  55  69
BRANCH  56  80
ATOM     80  C   UNL A   1      41.319  27.463  28.431  1.00  0.00     0.023 A 
ATOM     81  C   UNL A   1      41.106  26.073  28.458  1.00  0.00     0.031 A 
ATOM     82  C   UNL A   1      41.423  28.077  27.166  1.00  0.00     0.131 A 
ATOM     83  C   UNL A   1      41.045  25.347  27.253  1.00  0.00     0.055 A 
ATOM     84  C   UNL A   1      41.279  27.365  25.975  1.00  0.00     0.041 A 
ATOM     85  F   UNL A   1      41.672  29.392  27.063  1.00  0.00    -0.206 F 
ATOM     86  C   UNL A   1      41.107  25.989  26.015  1.00  0.00     0.022 A 
BRANCH  83  87
ATOM     87  S   UNL A   1      41.049  23.531  27.309  1.00  0.00     0.124 S 
ATOM     88  O   UNL A   1      41.796  23.193  26.103  1.00  0.00    -0.237 OA
ATOM     89  O   UNL A   1      41.724  23.266  28.575  1.00  0.00    -0.237 OA
ATOM     90  O   UNL A   1      39.630  23.186  27.281  1.00  0.00    -0.744 OA
ENDBRANCH  83  87
ENDBRANCH  56  80
BRANCH  68  91
ATOM     91  C   UNL A   1      46.840  28.364  32.608  1.00  0.00     0.023 A 
ATOM     92  C   UNL A   1      47.886  29.025  31.939  1.00  0.00     0.031 A 
ATOM     93  C   UNL A   1      47.134  27.145  33.247  1.00  0.00     0.131 A 
ATOM     94  C   UNL A   1      49.158  28.437  31.875  1.00  0.00     0.055 A 
ATOM     95  C   UNL A   1      48.418  26.599  33.238  1.00  0.00     0.041 A 
ATOM     96  F   UNL A   1      46.175  26.464  33.894  1.00  0.00    -0.206 F 
ATOM     97  C   UNL A   1      49.437  27.239  32.538  1.00  0.00     0.022 A 
BRANCH  94  98
ATOM     98  S   UNL A   1      50.423  29.208  30.826  1.00  0.00     0.124 S 
ATOM     99  O   UNL A   1      50.182  28.564  29.539  1.00  0.00    -0.237 OA
ATOM    100  O   UNL A   1      50.077  30.623  30.907  1.00  0.00    -0.237 OA
ATOM    101  O   UNL A   1      51.679  28.839  31.478  1.00  0.00    -0.744 OA
ENDBRANCH  94  98
ENDBRANCH  68  91
ENDBRANCH  42  43
ENDBRANCH  35  37
ENDBRANCH  34  35
ENDBRANCH  33  34
ENDBRANCH  32  33
ENDBRANCH  31  32
ENDBRANCH   1  31
TORSDOF 21
ENDMDL
MODEL 3
REMARK VINA RESULT:     -11.4      5.528     10.214
REMARK SMILES C[C@@H](C(=O)OCCOC(=O)c1ccc(-c2c3nc(c(-c4cc(S(=O)(=O)[O-])ccc4F)c4ccc([nH]4)c(-c4cc(S(=O)(=O)[O-])ccc4F)c4nc(c(-c5cc(S(=O)(=O)[O-])ccc5F)c5ccc2[nH]5)C=C4)C=C3)cc1)c1ccc(-c2cccc(OC(=O)NCCC3CCCCC3)c2)c(F)c1
REMARK SMILES IDX 3 1 4 2 2 3 1 4 74 5 75 6 98 7 76 8 96 9 77 10 97 11 78 12
REMARK SMILES IDX 79 13 95 14 80 15 82 16 81 17 83 18 84 19 85 20 86 21 87 23
REMARK SMILES IDX 88 24 89 25 90 26 94 27 91 28 93 29 92 30 5 31 6 32 7 33
REMARK SMILES IDX 8 34 9 35 10 36 11 37 12 38 73 39 13 40 72 41 14 42 15 43
REMARK SMILES IDX 16 44 66 45 17 46 71 47 65 48 67 49 18 50 70 51 64 52 63 53
REMARK SMILES IDX 19 55 51 56 31 57 50 58 32 59 35 60 49 61 68 62 33 63 34 64
REMARK SMILES IDX 48 66 69 67 36 68 20 69 21 70 29 71 22 72 28 73 30 74 27 75
REMARK SMILES IDX 23 76 24 77 25 78 26 79 52 80 53 81 61 82 54 83 60 84 62 85
REMARK SMILES IDX 59 86 55 87 56 88 57 89 58 90 37 91 38 92 46 93 39 94 45 95
REMARK SMILES IDX 47 96 44 97 40 98 41 99 42 100 43 101
REMARK H PARENT 86 22 67 54 35 65
REMARK Flexibility Score: inf
ROOT
ATOM      1  C   UNL A   1      34.467  33.398  30.540  1.00  0.00     0.313 C 
ATOM      2  O   UNL A   1      33.796  34.337  30.125  1.00  0.00    -0.252 OA
ENDROOT
BRANCH   1   3
ATOM      3  C   UNL A   1      35.642  32.773  29.761  1.00  0.00     0.126 C 
ATOM      4  C   UNL A   1      36.537  33.868  29.148  1.00  0.00     0.025 C 
BRANCH   3   5
ATOM      5  C   UNL A   1      35.253  31.724  28.713  1.00  0.00    -0.031 A 
ATOM      6  C   UNL A   1      36.100  30.677  28.340  1.00  0.00     0.005 A 
ATOM      7  C   UNL A   1      34.008  31.794  28.057  1.00  0.00     0.044 A 
ATOM      8  C   UNL A   1      35.655  29.659  27.490  1.00  0.00     0.012 A 
ATOM      9  C   UNL A   1      33.559  30.760  27.227  1.00  0.00     0.131 A 
ATOM     10  C   UNL A   1      34.348  29.642  26.987  1.00  0.00     0.018 A 
ATOM     11  F   UNL A   1      32.351  30.880  26.656  1.00  0.00    -0.206 F 
BRANCH  10  12
ATOM     12  C   UNL A   1      33.904  28.486  26.207  1.00  0.00    -0.012 A 
ATOM     13  C   UNL A   1      34.163  28.356  24.835  1.00  0.00     0.009 A 
ATOM     14  C   UNL A   1      33.080  27.542  26.828  1.00  0.00     0.056 A 
ATOM     15  C   UNL A   1      33.567  27.326  24.097  1.00  0.00     0.004 A 
ATOM     16  C   UNL A   1      32.476  26.528  26.093  1.00  0.00     0.133 A 
ATOM     17  C   UNL A   1      32.710  26.419  24.722  1.00  0.00     0.047 A 
BRANCH  16  18
ATOM     18  O   UNL A   1      31.623  25.559  26.669  1.00  0.00    -0.410 OA
BRANCH  18  19
ATOM     19  C   UNL A   1      31.164  24.421  26.008  1.00  0.00     0.412 C 
ATOM     20  O   UNL A   1      31.721  23.323  25.958  1.00  0.00    -0.224 OA
ATOM     21  N   UNL A   1      29.982  24.604  25.367  1.00  0.00    -0.321 N 
ATOM     22  H   UNL A   1      29.600  23.811  24.927  1.00  0.00     0.167 HD
BRANCH  21  23
ATOM     23  C   UNL A   1      29.218  25.826  25.254  1.00  0.00     0.119 C 
BRANCH  23  24
ATOM     24  C   UNL A   1      29.058  26.239  23.789  1.00  0.00     0.025 C 
BRANCH  24  25
ATOM     25  C   UNL A   1      29.136  27.762  23.541  1.00  0.00    -0.009 C 
ATOM     26  C   UNL A   1      30.184  28.125  22.474  1.00  0.00     0.003 C 
ATOM     27  C   UNL A   1      27.751  28.303  23.152  1.00  0.00     0.003 C 
ATOM     28  C   UNL A   1      30.197  29.621  22.165  1.00  0.00     0.000 C 
ATOM     29  C   UNL A   1      27.787  29.801  22.862  1.00  0.00     0.000 C 
ATOM     30  C   UNL A   1      28.813  30.133  21.786  1.00  0.00     0.000 C 
ENDBRANCH  24  25
ENDBRANCH  23  24
ENDBRANCH  21  23
ENDBRANCH  18  19
ENDBRANCH  16  18
ENDBRANCH  10  12
ENDBRANCH   3   5
ENDBRANCH   1   3
BRANCH   1  31
ATOM     31  O   UNL A   1      34.224  32.770  31.725  1.00  0.00    -0.462 OA
BRANCH  31  32
ATOM     32  C   UNL A   1      34.405  33.537  32.933  1.00  0.00     0.274 C 
BRANCH  32  33
ATOM     33  C   UNL A   1      35.814  33.303  33.474  1.00  0.00     0.275 C 
BRANCH  33  34
ATOM     34  O   UNL A   1      36.039  31.886  33.602  1.00  0.00    -0.458 OA
BRANCH  34  35
ATOM     35  C   UNL A   1      37.224  31.525  34.151  1.00  0.00     0.338 C 
ATOM     36  O   UNL A   1      37.560  31.628  35.318  1.00  0.00    -0.246 OA
BRANCH  35  37
ATOM     37  C   UNL A   1      38.072  30.901  33.120  1.00  0.00     0.060 A 
ATOM     38  C   UNL A   1      39.136  30.117  33.541  1.00  0.00     0.016 A 
ATOM     39  C   UNL A   1      37.934  31.215  31.767  1.00  0.00     0.016 A 
ATOM     40  C   UNL A   1      40.112  29.735  32.625  1.00  0.00     0.010 A 
ATOM     41  C   UNL A   1      38.874  30.732  30.834  1.00  0.00     0.010 A 
ATOM     42  C   UNL A   1      40.008  30.013  31.256  1.00  0.00    -0.014 A 
BRANCH  42  43
ATOM     43  C   UNL A   1      41.143  29.638  30.340  1.00  0.00     0.031 A 
ATOM     44  C   UNL A   1      41.097  28.336  29.570  1.00  0.00     0.074 A 
ATOM     45  C   UNL A   1      42.144  30.506  30.058  1.00  0.00     0.049 A 
ATOM     46  N   UNL A   1      42.023  27.766  28.840  1.00  0.00    -0.248 NA
ATOM     47  C   UNL A   1      39.834  27.586  29.615  1.00  0.00     0.031 C 
ATOM     48  C   UNL A   1      42.253  31.871  30.577  1.00  0.00     0.029 A 
ATOM     49  N   UNL A   1      43.230  30.400  29.216  1.00  0.00    -0.354 N 
ATOM     50  C   UNL A   1      41.479  26.564  28.394  1.00  0.00     0.074 A 
ATOM     51  C   UNL A   1      40.137  26.493  28.930  1.00  0.00     0.031 C 
ATOM     52  C   UNL A   1      43.259  32.504  29.956  1.00  0.00     0.029 A 
ATOM     53  C   UNL A   1      43.988  31.550  29.131  1.00  0.00     0.049 A 
ATOM     54  H   UNL A   1      43.446  29.577  28.719  1.00  0.00     0.167 HD
ATOM     55  C   UNL A   1      42.051  25.607  27.618  1.00  0.00     0.034 A 
ATOM     56  C   UNL A   1      45.169  31.802  28.525  1.00  0.00     0.034 A 
ATOM     57  C   UNL A   1      43.369  25.719  27.040  1.00  0.00     0.049 A 
ATOM     58  C   UNL A   1      45.852  30.672  27.793  1.00  0.00     0.074 A 
ATOM     59  C   UNL A   1      44.064  24.785  26.289  1.00  0.00     0.029 A 
ATOM     60  N   UNL A   1      44.190  26.836  27.131  1.00  0.00    -0.354 N 
ATOM     61  N   UNL A   1      45.397  29.473  27.514  1.00  0.00    -0.248 NA
ATOM     62  C   UNL A   1      47.223  30.917  27.325  1.00  0.00     0.031 C 
ATOM     63  C   UNL A   1      45.328  25.305  25.995  1.00  0.00     0.029 A 
ATOM     64  C   UNL A   1      45.392  26.602  26.480  1.00  0.00     0.049 A 
ATOM     65  H   UNL A   1      43.953  27.674  27.592  1.00  0.00     0.167 HD
ATOM     66  C   UNL A   1      46.424  28.827  26.830  1.00  0.00     0.074 A 
ATOM     67  C   UNL A   1      47.504  29.781  26.704  1.00  0.00     0.031 C 
ATOM     68  C   UNL A   1      46.470  27.555  26.356  1.00  0.00     0.034 A 
BRANCH  55  69
ATOM     69  C   UNL A   1      41.296  24.309  27.442  1.00  0.00     0.023 A 
ATOM     70  C   UNL A   1      40.177  24.183  26.603  1.00  0.00     0.031 A 
ATOM     71  C   UNL A   1      41.704  23.172  28.167  1.00  0.00     0.131 A 
ATOM     72  C   UNL A   1      39.468  22.970  26.561  1.00  0.00     0.055 A 
ATOM     73  C   UNL A   1      41.045  21.948  28.059  1.00  0.00     0.041 A 
ATOM     74  F   UNL A   1      42.752  23.237  29.004  1.00  0.00    -0.206 F 
ATOM     75  C   UNL A   1      39.909  21.846  27.263  1.00  0.00     0.022 A 
BRANCH  72  76
ATOM     76  S   UNL A   1      37.870  22.923  25.701  1.00  0.00     0.124 S 
ATOM     77  O   UNL A   1      37.987  21.687  24.932  1.00  0.00    -0.237 OA
ATOM     78  O   UNL A   1      36.919  22.905  26.804  1.00  0.00    -0.237 OA
ATOM     79  O   UNL A   1      37.876  24.146  24.901  1.00  0.00    -0.744 OA
ENDBRANCH  72  76
ENDBRANCH  55  69
BRANCH  56  80
ATOM     80  C   UNL A   1      45.864  33.123  28.696  1.00  0.00     0.023 A 
ATOM     81  C   UNL A   1      45.812  34.125  27.710  1.00  0.00     0.031 A 
ATOM     82  C   UNL A   1      46.678  33.364  29.822  1.00  0.00     0.131 A 
ATOM     83  C   UNL A   1      46.587  35.292  27.852  1.00  0.00     0.055 A 
ATOM     84  C   UNL A   1      47.378  34.557  29.996  1.00  0.00     0.041 A 
ATOM     85  F   UNL A   1      46.811  32.434  30.780  1.00  0.00    -0.206 F 
ATOM     86  C   UNL A   1      47.350  35.522  28.999  1.00  0.00     0.022 A 
BRANCH  83  87
ATOM     87  S   UNL A   1      46.726  36.441  26.452  1.00  0.00     0.124 S 
ATOM     88  O   UNL A   1      46.086  35.689  25.378  1.00  0.00    -0.237 OA
ATOM     89  O   UNL A   1      45.997  37.606  26.940  1.00  0.00    -0.237 OA
ATOM     90  O   UNL A   1      48.168  36.630  26.307  1.00  0.00    -0.744 OA
ENDBRANCH  83  87
ENDBRANCH  56  80
BRANCH  68  91
ATOM     91  C   UNL A   1      47.715  27.141  25.608  1.00  0.00     0.023 A 
ATOM     92  C   UNL A   1      48.791  26.501  26.249  1.00  0.00     0.031 A 
ATOM     93  C   UNL A   1      47.830  27.401  24.230  1.00  0.00     0.131 A 
ATOM     94  C   UNL A   1      49.954  26.195  25.526  1.00  0.00     0.055 A 
ATOM     95  C   UNL A   1      48.961  27.031  23.502  1.00  0.00     0.041 A 
ATOM     96  F   UNL A   1      46.839  28.017  23.566  1.00  0.00    -0.206 F 
ATOM     97  C   UNL A   1      50.038  26.437  24.153  1.00  0.00     0.022 A 
BRANCH  94  98
ATOM     98  S   UNL A   1      51.400  25.568  26.426  1.00  0.00     0.124 S 
ATOM     99  O   UNL A   1      52.149  24.901  25.366  1.00  0.00    -0.237 OA
ATOM    100  O   UNL A   1      51.993  26.791  26.955  1.00  0.00    -0.237 OA
ATOM    101  O   UNL A   1      50.819  24.676  27.429  1.00  0.00    -0.744 OA
ENDBRANCH  94  98
ENDBRANCH  68  91
ENDBRANCH  42  43
ENDBRANCH  35  37
ENDBRANCH  34  35
ENDBRANCH  33  34
ENDBRANCH  32  33
ENDBRANCH  31  32
ENDBRANCH   1  31
TORSDOF 21
ENDMDL
