MODEL 1
REMARK VINA RESULT:     -10.7      0.000      0.000
REMARK SMILES CC[C@@H]1SC[C@@H](C(=O)OCCOC(=O)c2ccc(-c3c4nc(c(-c5cc(S(=O)(=O)[O-])ccc5F)c5ccc([nH]5)c(-c5cc(S(=O)(=O)[O-])ccc5F)c5nc(c(-c6cc(S(=O)(=O)[O-])ccc6F)c6ccc3[nH]6)C=C5)C=C4)cc2)N1C(=O)c1ccc(C[NH3+])o1
REMARK SMILES IDX 10 1 9 2 7 3 8 4 6 5 3 6 4 7 78 8 5 9 2 10 1 11 79 12 80 13
REMARK SMILES IDX 81 14 82 15 87 16 83 17 84 18 85 19 86 20 11 24 12 25 13 26
REMARK SMILES IDX 14 27 15 28 16 29 77 30 17 31 76 32 18 33 19 34 20 35 70 36
REMARK SMILES IDX 21 37 75 38 69 39 71 40 22 41 74 42 68 43 67 44 23 46 55 47
REMARK SMILES IDX 35 48 54 49 36 50 39 51 53 52 72 53 37 54 38 55 52 57 73 58
REMARK SMILES IDX 40 59 24 60 25 61 33 62 26 63 32 64 34 65 31 66 27 67 28 68
REMARK SMILES IDX 29 69 30 70 56 71 57 72 65 73 58 74 64 75 66 76 63 77 59 78
REMARK SMILES IDX 60 79 61 80 62 81 41 82 42 83 50 84 43 85 49 86 51 87 48 88
REMARK SMILES IDX 44 89 45 90 46 91 47 92
REMARK H PARENT 86 21 86 22 86 23 71 45 39 56
REMARK Flexibility Score: inf
ROOT
ATOM      1  C   UNL A   1      35.878  21.426  24.469  1.00  0.00     0.274 C 
ENDROOT
BRANCH   1   2
ATOM      2  O   UNL A   1      34.746  21.263  25.346  1.00  0.00    -0.461 OA
BRANCH   2   3
ATOM      3  C   UNL A   1      34.268  22.410  25.907  1.00  0.00     0.329 C 
ATOM      4  O   UNL A   1      34.945  23.194  26.566  1.00  0.00    -0.250 OA
BRANCH   3   5
ATOM      5  C   UNL A   1      32.753  22.586  25.726  1.00  0.00     0.206 C 
ATOM      6  C   UNL A   1      32.273  24.111  23.855  1.00  0.00     0.144 C 
ATOM      7  S   UNL A   1      32.458  22.425  23.125  1.00  0.00    -0.134 SA
ATOM      8  N   UNL A   1      32.288  23.918  25.300  1.00  0.00    -0.309 N 
ATOM      9  C   UNL A   1      32.267  21.571  24.709  1.00  0.00     0.109 C 
BRANCH   6  10
ATOM     10  C   UNL A   1      31.045  24.773  23.212  1.00  0.00     0.033 C 
ATOM     11  C   UNL A   1      31.295  26.060  22.435  1.00  0.00     0.007 C 
ENDBRANCH   6  10
BRANCH   8  12
ATOM     12  C   UNL A   1      32.028  24.847  26.305  1.00  0.00     0.291 C 
ATOM     13  O   UNL A   1      31.295  24.528  27.241  1.00  0.00    -0.265 OA
BRANCH  12  14
ATOM     14  C   UNL A   1      32.505  26.204  26.190  1.00  0.00     0.192 A 
ATOM     15  C   UNL A   1      33.794  26.648  25.960  1.00  0.00     0.057 A 
ATOM     16  O   UNL A   1      31.637  27.264  26.171  1.00  0.00    -0.450 OA
ATOM     17  C   UNL A   1      33.723  28.047  25.803  1.00  0.00     0.052 A 
ATOM     18  C   UNL A   1      32.387  28.377  25.888  1.00  0.00     0.159 A 
BRANCH  18  19
ATOM     19  C   UNL A   1      31.667  29.655  25.669  1.00  0.00     0.335 C 
BRANCH  19  20
ATOM     20  N   UNL A   1      31.153  29.747  24.305  1.00  0.00    -0.351 N 
ATOM     21  H   UNL A   1      30.179  30.051  24.329  1.00  0.00     0.344 HD
ATOM     22  H   UNL A   1      31.212  28.832  23.858  1.00  0.00     0.344 HD
ATOM     23  H   UNL A   1      31.707  30.421  23.777  1.00  0.00     0.344 HD
ENDBRANCH  19  20
ENDBRANCH  18  19
ENDBRANCH  12  14
ENDBRANCH   8  12
ENDBRANCH   3   5
ENDBRANCH   2   3
ENDBRANCH   1   2
BRANCH   1  24
ATOM     24  C   UNL A   1      37.060  20.602  24.966  1.00  0.00     0.275 C 
BRANCH  24  25
ATOM     25  O   UNL A   1      37.678  21.272  26.075  1.00  0.00    -0.458 OA
BRANCH  25  26
ATOM     26  C   UNL A   1      39.030  21.194  26.115  1.00  0.00     0.338 C 
ATOM     27  O   UNL A   1      39.721  20.240  25.805  1.00  0.00    -0.246 OA
BRANCH  26  28
ATOM     28  C   UNL A   1      39.568  22.445  26.672  1.00  0.00     0.060 A 
ATOM     29  C   UNL A   1      39.058  23.678  26.268  1.00  0.00     0.016 A 
ATOM     30  C   UNL A   1      40.668  22.380  27.528  1.00  0.00     0.016 A 
ATOM     31  C   UNL A   1      39.702  24.854  26.647  1.00  0.00     0.010 A 
ATOM     32  C   UNL A   1      41.264  23.562  27.970  1.00  0.00     0.010 A 
ATOM     33  C   UNL A   1      40.813  24.809  27.499  1.00  0.00    -0.014 A 
BRANCH  33  34
ATOM     34  C   UNL A   1      41.558  26.049  27.842  1.00  0.00     0.031 A 
ATOM     35  C   UNL A   1      40.882  27.119  28.658  1.00  0.00     0.074 A 
ATOM     36  C   UNL A   1      42.827  26.219  27.426  1.00  0.00     0.049 A 
ATOM     37  N   UNL A   1      41.278  28.339  28.921  1.00  0.00    -0.248 NA
ATOM     38  C   UNL A   1      39.577  26.772  29.239  1.00  0.00     0.031 C 
ATOM     39  C   UNL A   1      43.608  25.237  26.672  1.00  0.00     0.029 A 
ATOM     40  N   UNL A   1      43.682  27.281  27.576  1.00  0.00    -0.354 N 
ATOM     41  C   UNL A   1      40.253  28.919  29.661  1.00  0.00     0.074 A 
ATOM     42  C   UNL A   1      39.211  27.921  29.787  1.00  0.00     0.031 C 
ATOM     43  C   UNL A   1      44.831  25.738  26.436  1.00  0.00     0.029 A 
ATOM     44  C   UNL A   1      44.898  27.099  26.958  1.00  0.00     0.049 A 
ATOM     45  H   UNL A   1      43.448  28.096  28.076  1.00  0.00     0.167 HD
ATOM     46  C   UNL A   1      40.190  30.168  30.187  1.00  0.00     0.034 A 
ATOM     47  C   UNL A   1      45.933  27.946  26.797  1.00  0.00     0.034 A 
ATOM     48  C   UNL A   1      41.252  31.141  30.075  1.00  0.00     0.049 A 
ATOM     49  C   UNL A   1      45.827  29.342  27.355  1.00  0.00     0.074 A 
ATOM     50  C   UNL A   1      41.298  32.432  30.571  1.00  0.00     0.029 A 
ATOM     51  N   UNL A   1      42.461  30.924  29.425  1.00  0.00    -0.354 N 
ATOM     52  N   UNL A   1      44.830  29.898  28.003  1.00  0.00    -0.248 NA
ATOM     53  C   UNL A   1      46.984  30.222  27.153  1.00  0.00     0.031 C 
ATOM     54  C   UNL A   1      42.512  33.012  30.180  1.00  0.00     0.029 A 
ATOM     55  C   UNL A   1      43.251  32.062  29.493  1.00  0.00     0.049 A 
ATOM     56  H   UNL A   1      42.719  30.084  28.981  1.00  0.00     0.167 HD
ATOM     57  C   UNL A   1      45.249  31.191  28.300  1.00  0.00     0.074 A 
ATOM     58  C   UNL A   1      46.593  31.323  27.777  1.00  0.00     0.031 C 
ATOM     59  C   UNL A   1      44.583  32.182  28.948  1.00  0.00     0.034 A 
BRANCH  46  60
ATOM     60  C   UNL A   1      38.905  30.566  30.872  1.00  0.00     0.023 A 
ATOM     61  C   UNL A   1      37.884  31.264  30.201  1.00  0.00     0.031 A 
ATOM     62  C   UNL A   1      38.717  30.278  32.237  1.00  0.00     0.131 A 
ATOM     63  C   UNL A   1      36.758  31.711  30.911  1.00  0.00     0.055 A 
ATOM     64  C   UNL A   1      37.560  30.660  32.919  1.00  0.00     0.041 A 
ATOM     65  F   UNL A   1      39.664  29.632  32.936  1.00  0.00    -0.206 F 
ATOM     66  C   UNL A   1      36.579  31.395  32.260  1.00  0.00     0.022 A 
BRANCH  63  67
ATOM     67  S   UNL A   1      35.594  32.829  30.081  1.00  0.00     0.124 S 
ATOM     68  O   UNL A   1      35.757  32.443  28.682  1.00  0.00    -0.237 OA
ATOM     69  O   UNL A   1      34.322  32.476  30.698  1.00  0.00    -0.237 OA
ATOM     70  O   UNL A   1      36.101  34.160  30.413  1.00  0.00    -0.744 OA
ENDBRANCH  63  67
ENDBRANCH  46  60
BRANCH  47  71
ATOM     71  C   UNL A   1      47.135  27.524  26.026  1.00  0.00     0.023 A 
ATOM     72  C   UNL A   1      47.273  27.842  24.666  1.00  0.00     0.031 A 
ATOM     73  C   UNL A   1      48.152  26.768  26.635  1.00  0.00     0.131 A 
ATOM     74  C   UNL A   1      48.387  27.375  23.950  1.00  0.00     0.055 A 
ATOM     75  C   UNL A   1      49.280  26.346  25.931  1.00  0.00     0.041 A 
ATOM     76  F   UNL A   1      48.068  26.439  27.935  1.00  0.00    -0.206 F 
ATOM     77  C   UNL A   1      49.397  26.640  24.576  1.00  0.00     0.022 A 
BRANCH  74  78
ATOM     78  S   UNL A   1      48.465  27.686  22.165  1.00  0.00     0.124 S 
ATOM     79  O   UNL A   1      47.202  28.375  21.926  1.00  0.00    -0.237 OA
ATOM     80  O   UNL A   1      49.671  28.500  22.051  1.00  0.00    -0.237 OA
ATOM     81  O   UNL A   1      48.564  26.346  21.590  1.00  0.00    -0.744 OA
ENDBRANCH  74  78
ENDBRANCH  47  71
BRANCH  59  82
ATOM     82  C   UNL A   1      45.329  33.475  29.154  1.00  0.00     0.023 A 
ATOM     83  C   UNL A   1      45.237  34.534  28.235  1.00  0.00     0.031 A 
ATOM     84  C   UNL A   1      46.167  33.635  30.270  1.00  0.00     0.131 A 
ATOM     85  C   UNL A   1      46.014  35.687  28.420  1.00  0.00     0.055 A 
ATOM     86  C   UNL A   1      46.898  34.805  30.476  1.00  0.00     0.041 A 
ATOM     87  F   UNL A   1      46.292  32.653  31.178  1.00  0.00    -0.206 F 
ATOM     88  C   UNL A   1      46.835  35.835  29.541  1.00  0.00     0.022 A 
BRANCH  85  89
ATOM     89  S   UNL A   1      46.007  36.961  27.127  1.00  0.00     0.124 S 
ATOM     90  O   UNL A   1      46.806  38.018  27.737  1.00  0.00    -0.237 OA
ATOM     91  O   UNL A   1      46.622  36.265  26.001  1.00  0.00    -0.237 OA
ATOM     92  O   UNL A   1      44.589  37.274  26.961  1.00  0.00    -0.744 OA
ENDBRANCH  85  89
ENDBRANCH  59  82
ENDBRANCH  33  34
ENDBRANCH  26  28
ENDBRANCH  25  26
ENDBRANCH  24  25
ENDBRANCH   1  24
TORSDOF 19
ENDMDL
MODEL 2
REMARK VINA RESULT:     -10.6      1.205      7.683
REMARK SMILES CC[C@@H]1SC[C@@H](C(=O)OCCOC(=O)c2ccc(-c3c4nc(c(-c5cc(S(=O)(=O)[O-])ccc5F)c5ccc([nH]5)c(-c5cc(S(=O)(=O)[O-])ccc5F)c5nc(c(-c6cc(S(=O)(=O)[O-])ccc6F)c6ccc3[nH]6)C=C5)C=C4)cc2)N1C(=O)c1ccc(C[NH3+])o1
REMARK SMILES IDX 10 1 9 2 7 3 8 4 6 5 3 6 4 7 78 8 5 9 2 10 1 11 79 12 80 13
REMARK SMILES IDX 81 14 82 15 87 16 83 17 84 18 85 19 86 20 11 24 12 25 13 26
REMARK SMILES IDX 14 27 15 28 16 29 77 30 17 31 76 32 18 33 19 34 20 35 70 36
REMARK SMILES IDX 21 37 75 38 69 39 71 40 22 41 74 42 68 43 67 44 23 46 55 47
REMARK SMILES IDX 35 48 54 49 36 50 39 51 53 52 72 53 37 54 38 55 52 57 73 58
REMARK SMILES IDX 40 59 24 60 25 61 33 62 26 63 32 64 34 65 31 66 27 67 28 68
REMARK SMILES IDX 29 69 30 70 56 71 57 72 65 73 58 74 64 75 66 76 63 77 59 78
REMARK SMILES IDX 60 79 61 80 62 81 41 82 42 83 50 84 43 85 49 86 51 87 48 88
REMARK SMILES IDX 44 89 45 90 46 91 47 92
REMARK H PARENT 86 21 86 22 86 23 71 45 39 56
REMARK Flexibility Score: inf
ROOT
ATOM      1  C   UNL A   1      35.463  20.241  24.819  1.00  0.00     0.274 C 
ENDROOT
BRANCH   1   2
ATOM      2  O   UNL A   1      35.017  21.396  25.557  1.00  0.00    -0.461 OA
BRANCH   2   3
ATOM      3  C   UNL A   1      34.049  22.140  24.952  1.00  0.00     0.329 C 
ATOM      4  O   UNL A   1      33.530  21.862  23.875  1.00  0.00    -0.250 OA
BRANCH   3   5
ATOM      5  C   UNL A   1      33.729  23.442  25.704  1.00  0.00     0.206 C 
ATOM      6  C   UNL A   1      31.401  24.129  25.298  1.00  0.00     0.144 C 
ATOM      7  S   UNL A   1      31.362  22.954  26.723  1.00  0.00    -0.134 SA
ATOM      8  N   UNL A   1      32.812  24.383  25.037  1.00  0.00    -0.309 N 
ATOM      9  C   UNL A   1      33.136  23.086  27.054  1.00  0.00     0.109 C 
BRANCH   6  10
ATOM     10  C   UNL A   1      30.489  25.317  25.639  1.00  0.00     0.033 C 
ATOM     11  C   UNL A   1      29.844  26.038  24.462  1.00  0.00     0.007 C 
ENDBRANCH   6  10
BRANCH   8  12
ATOM     12  C   UNL A   1      33.383  25.312  24.170  1.00  0.00     0.291 C 
ATOM     13  O   UNL A   1      33.815  24.929  23.082  1.00  0.00    -0.265 OA
BRANCH  12  14
ATOM     14  C   UNL A   1      33.583  26.678  24.587  1.00  0.00     0.192 A 
ATOM     15  C   UNL A   1      33.266  27.842  23.909  1.00  0.00     0.057 A 
ATOM     16  O   UNL A   1      34.025  26.980  25.848  1.00  0.00    -0.450 OA
ATOM     17  C   UNL A   1      33.535  28.912  24.785  1.00  0.00     0.052 A 
ATOM     18  C   UNL A   1      33.947  28.344  25.972  1.00  0.00     0.159 A 
BRANCH  18  19
ATOM     19  C   UNL A   1      34.237  28.932  27.303  1.00  0.00     0.335 C 
BRANCH  19  20
ATOM     20  N   UNL A   1      33.386  30.088  27.569  1.00  0.00    -0.351 N 
ATOM     21  H   UNL A   1      32.499  29.774  27.963  1.00  0.00     0.344 HD
ATOM     22  H   UNL A   1      33.211  30.589  26.697  1.00  0.00     0.344 HD
ATOM     23  H   UNL A   1      33.851  30.709  28.231  1.00  0.00     0.344 HD
ENDBRANCH  19  20
ENDBRANCH  18  19
ENDBRANCH  12  14
ENDBRANCH   8  12
ENDBRANCH   3   5
ENDBRANCH   2   3
ENDBRANCH   1   2
BRANCH   1  24
ATOM     24  C   UNL A   1      36.963  20.039  24.998  1.00  0.00     0.275 C 
BRANCH  24  25
ATOM     25  O   UNL A   1      37.549  21.243  25.515  1.00  0.00    -0.458 OA
BRANCH  25  26
ATOM     26  C   UNL A   1      38.848  21.137  25.887  1.00  0.00     0.338 C 
ATOM     27  O   UNL A   1      39.536  20.132  25.880  1.00  0.00    -0.246 OA
BRANCH  26  28
ATOM     28  C   UNL A   1      39.313  22.440  26.389  1.00  0.00     0.060 A 
ATOM     29  C   UNL A   1      38.582  23.600  26.132  1.00  0.00     0.016 A 
ATOM     30  C   UNL A   1      40.548  22.510  27.031  1.00  0.00     0.016 A 
ATOM     31  C   UNL A   1      39.127  24.846  26.436  1.00  0.00     0.010 A 
ATOM     32  C   UNL A   1      41.058  23.754  27.406  1.00  0.00     0.010 A 
ATOM     33  C   UNL A   1      40.371  24.937  27.074  1.00  0.00    -0.014 A 
BRANCH  33  34
ATOM     34  C   UNL A   1      40.999  26.260  27.328  1.00  0.00     0.031 A 
ATOM     35  C   UNL A   1      42.364  26.555  26.764  1.00  0.00     0.074 A 
ATOM     36  C   UNL A   1      40.357  27.190  28.060  1.00  0.00     0.049 A 
ATOM     37  N   UNL A   1      43.163  27.563  27.005  1.00  0.00    -0.248 NA
ATOM     38  C   UNL A   1      42.906  25.571  25.816  1.00  0.00     0.031 C 
ATOM     39  C   UNL A   1      39.012  27.044  28.621  1.00  0.00     0.029 A 
ATOM     40  N   UNL A   1      40.751  28.441  28.461  1.00  0.00    -0.354 N 
ATOM     41  C   UNL A   1      44.319  27.314  26.272  1.00  0.00     0.074 A 
ATOM     42  C   UNL A   1      44.121  26.049  25.595  1.00  0.00     0.031 C 
ATOM     43  C   UNL A   1      38.690  28.167  29.282  1.00  0.00     0.029 A 
ATOM     44  C   UNL A   1      39.826  29.081  29.253  1.00  0.00     0.049 A 
ATOM     45  H   UNL A   1      41.614  28.842  28.208  1.00  0.00     0.167 HD
ATOM     46  C   UNL A   1      45.440  28.073  26.173  1.00  0.00     0.034 A 
ATOM     47  C   UNL A   1      39.901  30.253  29.913  1.00  0.00     0.034 A 
ATOM     48  C   UNL A   1      45.608  29.346  26.834  1.00  0.00     0.049 A 
ATOM     49  C   UNL A   1      41.169  31.061  29.822  1.00  0.00     0.074 A 
ATOM     50  C   UNL A   1      46.696  30.201  26.802  1.00  0.00     0.029 A 
ATOM     51  N   UNL A   1      44.654  29.952  27.643  1.00  0.00    -0.354 N 
ATOM     52  N   UNL A   1      42.277  30.789  29.172  1.00  0.00    -0.248 NA
ATOM     53  C   UNL A   1      41.195  32.332  30.557  1.00  0.00     0.031 C 
ATOM     54  C   UNL A   1      46.421  31.297  27.629  1.00  0.00     0.029 A 
ATOM     55  C   UNL A   1      45.135  31.159  28.129  1.00  0.00     0.049 A 
ATOM     56  H   UNL A   1      43.765  29.578  27.843  1.00  0.00     0.167 HD
ATOM     57  C   UNL A   1      43.128  31.864  29.410  1.00  0.00     0.074 A 
ATOM     58  C   UNL A   1      42.397  32.795  30.246  1.00  0.00     0.031 C 
ATOM     59  C   UNL A   1      44.399  32.066  28.977  1.00  0.00     0.034 A 
BRANCH  46  60
ATOM     60  C   UNL A   1      46.588  27.509  25.372  1.00  0.00     0.023 A 
ATOM     61  C   UNL A   1      46.906  27.981  24.086  1.00  0.00     0.031 A 
ATOM     62  C   UNL A   1      47.352  26.446  25.890  1.00  0.00     0.131 A 
ATOM     63  C   UNL A   1      47.910  27.348  23.335  1.00  0.00     0.055 A 
ATOM     64  C   UNL A   1      48.399  25.870  25.168  1.00  0.00     0.041 A 
ATOM     65  F   UNL A   1      47.083  25.939  27.104  1.00  0.00    -0.206 F 
ATOM     66  C   UNL A   1      48.673  26.310  23.876  1.00  0.00     0.022 A 
BRANCH  63  67
ATOM     67  S   UNL A   1      48.114  27.808  21.592  1.00  0.00     0.124 S 
ATOM     68  O   UNL A   1      49.113  28.870  21.680  1.00  0.00    -0.237 OA
ATOM     69  O   UNL A   1      48.560  26.559  20.986  1.00  0.00    -0.237 OA
ATOM     70  O   UNL A   1      46.779  28.252  21.196  1.00  0.00    -0.744 OA
ENDBRANCH  63  67
ENDBRANCH  46  60
BRANCH  47  71
ATOM     71  C   UNL A   1      38.768  30.707  30.765  1.00  0.00     0.023 A 
ATOM     72  C   UNL A   1      37.659  31.364  30.209  1.00  0.00     0.031 A 
ATOM     73  C   UNL A   1      38.793  30.516  32.159  1.00  0.00     0.131 A 
ATOM     74  C   UNL A   1      36.636  31.837  31.047  1.00  0.00     0.055 A 
ATOM     75  C   UNL A   1      37.752  30.947  32.981  1.00  0.00     0.041 A 
ATOM     76  F   UNL A   1      39.831  29.892  32.739  1.00  0.00    -0.206 F 
ATOM     77  C   UNL A   1      36.670  31.622  32.427  1.00  0.00     0.022 A 
BRANCH  74  78
ATOM     78  S   UNL A   1      35.287  32.802  30.311  1.00  0.00     0.124 S 
ATOM     79  O   UNL A   1      34.402  32.997  31.454  1.00  0.00    -0.237 OA
ATOM     80  O   UNL A   1      35.989  33.988  29.832  1.00  0.00    -0.237 OA
ATOM     81  O   UNL A   1      34.771  31.921  29.266  1.00  0.00    -0.744 OA
ENDBRANCH  74  78
ENDBRANCH  47  71
BRANCH  59  82
ATOM     82  C   UNL A   1      45.050  33.366  29.375  1.00  0.00     0.023 A 
ATOM     83  C   UNL A   1      45.032  34.489  28.530  1.00  0.00     0.031 A 
ATOM     84  C   UNL A   1      45.723  33.469  30.604  1.00  0.00     0.131 A 
ATOM     85  C   UNL A   1      45.723  35.652  28.902  1.00  0.00     0.055 A 
ATOM     86  C   UNL A   1      46.365  34.645  30.991  1.00  0.00     0.041 A 
ATOM     87  F   UNL A   1      45.771  32.424  31.446  1.00  0.00    -0.206 F 
ATOM     88  C   UNL A   1      46.379  35.742  30.133  1.00  0.00     0.022 A 
BRANCH  85  89
ATOM     89  S   UNL A   1      45.830  37.021  27.715  1.00  0.00     0.124 S 
ATOM     90  O   UNL A   1      44.780  37.917  28.188  1.00  0.00    -0.237 OA
ATOM     91  O   UNL A   1      47.200  37.488  27.901  1.00  0.00    -0.237 OA
ATOM     92  O   UNL A   1      45.564  36.380  26.428  1.00  0.00    -0.744 OA
ENDBRANCH  85  89
ENDBRANCH  59  82
ENDBRANCH  33  34
ENDBRANCH  26  28
ENDBRANCH  25  26
ENDBRANCH  24  25
ENDBRANCH   1  24
TORSDOF 19
ENDMDL
MODEL 3
REMARK VINA RESULT:     -10.6      4.729      9.795
REMARK SMILES CC[C@@H]1SC[C@@H](C(=O)OCCOC(=O)c2ccc(-c3c4nc(c(-c5cc(S(=O)(=O)[O-])ccc5F)c5ccc([nH]5)c(-c5cc(S(=O)(=O)[O-])ccc5F)c5nc(c(-c6cc(S(=O)(=O)[O-])ccc6F)c6ccc3[nH]6)C=C5)C=C4)cc2)N1C(=O)c1ccc(C[NH3+])o1
REMARK SMILES IDX 10 1 9 2 7 3 8 4 6 5 3 6 4 7 78 8 5 9 2 10 1 11 79 12 80 13
REMARK SMILES IDX 81 14 82 15 87 16 83 17 84 18 85 19 86 20 11 24 12 25 13 26
REMARK SMILES IDX 14 27 15 28 16 29 77 30 17 31 76 32 18 33 19 34 20 35 70 36
REMARK SMILES IDX 21 37 75 38 69 39 71 40 22 41 74 42 68 43 67 44 23 46 55 47
REMARK SMILES IDX 35 48 54 49 36 50 39 51 53 52 72 53 37 54 38 55 52 57 73 58
REMARK SMILES IDX 40 59 24 60 25 61 33 62 26 63 32 64 34 65 31 66 27 67 28 68
REMARK SMILES IDX 29 69 30 70 56 71 57 72 65 73 58 74 64 75 66 76 63 77 59 78
REMARK SMILES IDX 60 79 61 80 62 81 41 82 42 83 50 84 43 85 49 86 51 87 48 88
REMARK SMILES IDX 44 89 45 90 46 91 47 92
REMARK H PARENT 86 21 86 22 86 23 71 45 39 56
REMARK Flexibility Score: inf
ROOT
ATOM      1  C   UNL A   1      32.547  29.313  24.562  1.00  0.00     0.274 C 
ENDROOT
BRANCH   1   2
ATOM      2  O   UNL A   1      31.946  28.022  24.343  1.00  0.00    -0.461 OA
BRANCH   2   3
ATOM      3  C   UNL A   1      32.715  26.950  24.686  1.00  0.00     0.329 C 
ATOM      4  O   UNL A   1      33.755  27.021  25.334  1.00  0.00    -0.250 OA
BRANCH   3   5
ATOM      5  C   UNL A   1      32.210  25.627  24.088  1.00  0.00     0.206 C 
ATOM      6  C   UNL A   1      32.620  23.761  25.640  1.00  0.00     0.144 C 
ATOM      7  S   UNL A   1      30.998  24.499  26.123  1.00  0.00    -0.134 SA
ATOM      8  N   UNL A   1      32.997  24.420  24.395  1.00  0.00    -0.309 N 
ATOM      9  C   UNL A   1      30.788  25.395  24.564  1.00  0.00     0.109 C 
BRANCH   6  10
ATOM     10  C   UNL A   1      32.467  22.233  25.648  1.00  0.00     0.033 C 
ATOM     11  C   UNL A   1      33.397  21.461  26.576  1.00  0.00     0.007 C 
ENDBRANCH   6  10
BRANCH   8  12
ATOM     12  C   UNL A   1      34.053  24.121  23.537  1.00  0.00     0.291 C 
ATOM     13  O   UNL A   1      33.882  24.215  22.321  1.00  0.00    -0.265 OA
BRANCH  12  14
ATOM     14  C   UNL A   1      35.289  23.586  24.053  1.00  0.00     0.192 A 
ATOM     15  C   UNL A   1      36.079  22.579  23.529  1.00  0.00     0.057 A 
ATOM     16  O   UNL A   1      35.916  24.155  25.131  1.00  0.00    -0.450 OA
ATOM     17  C   UNL A   1      37.240  22.514  24.324  1.00  0.00     0.052 A 
ATOM     18  C   UNL A   1      37.126  23.522  25.257  1.00  0.00     0.159 A 
BRANCH  18  19
ATOM     19  C   UNL A   1      38.074  24.045  26.272  1.00  0.00     0.335 C 
BRANCH  19  20
ATOM     20  N   UNL A   1      38.845  22.965  26.882  1.00  0.00    -0.351 N 
ATOM     21  H   UNL A   1      38.250  22.144  26.995  1.00  0.00     0.344 HD
ATOM     22  H   UNL A   1      39.186  23.266  27.796  1.00  0.00     0.344 HD
ATOM     23  H   UNL A   1      39.637  22.732  26.283  1.00  0.00     0.344 HD
ENDBRANCH  19  20
ENDBRANCH  18  19
ENDBRANCH  12  14
ENDBRANCH   8  12
ENDBRANCH   3   5
ENDBRANCH   2   3
ENDBRANCH   1   2
BRANCH   1  24
ATOM     24  C   UNL A   1      31.740  30.112  25.578  1.00  0.00     0.275 C 
BRANCH  24  25
ATOM     25  O   UNL A   1      32.411  30.089  26.847  1.00  0.00    -0.458 OA
BRANCH  25  26
ATOM     26  C   UNL A   1      33.037  31.241  27.188  1.00  0.00     0.338 C 
ATOM     27  O   UNL A   1      32.609  32.376  27.065  1.00  0.00    -0.246 OA
BRANCH  26  28
ATOM     28  C   UNL A   1      34.387  30.928  27.682  1.00  0.00     0.060 A 
ATOM     29  C   UNL A   1      34.758  29.608  27.942  1.00  0.00     0.016 A 
ATOM     30  C   UNL A   1      35.251  31.978  27.989  1.00  0.00     0.016 A 
ATOM     31  C   UNL A   1      35.960  29.340  28.593  1.00  0.00     0.010 A 
ATOM     32  C   UNL A   1      36.489  31.702  28.570  1.00  0.00     0.010 A 
ATOM     33  C   UNL A   1      36.837  30.384  28.917  1.00  0.00    -0.014 A 
BRANCH  33  34
ATOM     34  C   UNL A   1      38.082  30.119  29.685  1.00  0.00     0.031 A 
ATOM     35  C   UNL A   1      39.143  29.227  29.095  1.00  0.00     0.074 A 
ATOM     36  C   UNL A   1      38.263  30.668  30.901  1.00  0.00     0.049 A 
ATOM     37  N   UNL A   1      40.214  28.726  29.656  1.00  0.00    -0.248 NA
ATOM     38  C   UNL A   1      38.959  28.833  27.690  1.00  0.00     0.031 C 
ATOM     39  C   UNL A   1      37.333  31.587  31.560  1.00  0.00     0.029 A 
ATOM     40  N   UNL A   1      39.289  30.530  31.800  1.00  0.00    -0.354 N 
ATOM     41  C   UNL A   1      40.810  27.925  28.687  1.00  0.00     0.074 A 
ATOM     42  C   UNL A   1      39.967  27.993  27.511  1.00  0.00     0.031 C 
ATOM     43  C   UNL A   1      37.838  31.939  32.753  1.00  0.00     0.029 A 
ATOM     44  C   UNL A   1      39.088  31.220  32.973  1.00  0.00     0.049 A 
ATOM     45  H   UNL A   1      40.092  29.988  31.624  1.00  0.00     0.167 HD
ATOM     46  C   UNL A   1      41.954  27.201  28.773  1.00  0.00     0.034 A 
ATOM     47  C   UNL A   1      39.808  31.239  34.111  1.00  0.00     0.034 A 
ATOM     48  C   UNL A   1      42.797  27.167  29.946  1.00  0.00     0.049 A 
ATOM     49  C   UNL A   1      41.055  30.398  34.200  1.00  0.00     0.074 A 
ATOM     50  C   UNL A   1      43.979  26.474  30.143  1.00  0.00     0.029 A 
ATOM     51  N   UNL A   1      42.549  27.866  31.121  1.00  0.00    -0.354 N 
ATOM     52  N   UNL A   1      41.578  29.600  33.298  1.00  0.00    -0.248 NA
ATOM     53  C   UNL A   1      41.803  30.459  35.461  1.00  0.00     0.031 C 
ATOM     54  C   UNL A   1      44.418  26.713  31.451  1.00  0.00     0.029 A 
ATOM     55  C   UNL A   1      43.544  27.606  32.052  1.00  0.00     0.049 A 
ATOM     56  H   UNL A   1      41.777  28.459  31.272  1.00  0.00     0.167 HD
ATOM     57  C   UNL A   1      42.727  29.074  33.881  1.00  0.00     0.074 A 
ATOM     58  C   UNL A   1      42.828  29.661  35.202  1.00  0.00     0.031 C 
ATOM     59  C   UNL A   1      43.619  28.187  33.371  1.00  0.00     0.034 A 
BRANCH  46  60
ATOM     60  C   UNL A   1      42.319  26.341  27.587  1.00  0.00     0.023 A 
ATOM     61  C   UNL A   1      42.093  24.953  27.572  1.00  0.00     0.031 A 
ATOM     62  C   UNL A   1      42.946  26.917  26.466  1.00  0.00     0.131 A 
ATOM     63  C   UNL A   1      42.553  24.180  26.494  1.00  0.00     0.055 A 
ATOM     64  C   UNL A   1      43.334  26.154  25.364  1.00  0.00     0.041 A 
ATOM     65  F   UNL A   1      43.207  28.234  26.431  1.00  0.00    -0.206 F 
ATOM     66  C   UNL A   1      43.152  24.774  25.380  1.00  0.00     0.022 A 
BRANCH  63  67
ATOM     67  S   UNL A   1      42.482  22.372  26.626  1.00  0.00     0.124 S 
ATOM     68  O   UNL A   1      42.271  22.186  28.060  1.00  0.00    -0.237 OA
ATOM     69  O   UNL A   1      41.355  22.036  25.765  1.00  0.00    -0.237 OA
ATOM     70  O   UNL A   1      43.790  21.939  26.137  1.00  0.00    -0.744 OA
ENDBRANCH  63  67
ENDBRANCH  46  60
BRANCH  47  71
ATOM     71  C   UNL A   1      39.341  32.034  35.281  1.00  0.00     0.023 A 
ATOM     72  C   UNL A   1      39.764  33.358  35.474  1.00  0.00     0.031 A 
ATOM     73  C   UNL A   1      38.485  31.466  36.242  1.00  0.00     0.131 A 
ATOM     74  C   UNL A   1      39.358  34.060  36.620  1.00  0.00     0.055 A 
ATOM     75  C   UNL A   1      38.046  32.184  37.355  1.00  0.00     0.041 A 
ATOM     76  F   UNL A   1      38.050  30.203  36.101  1.00  0.00    -0.206 F 
ATOM     77  C   UNL A   1      38.492  33.486  37.555  1.00  0.00     0.022 A 
BRANCH  74  78
ATOM     78  S   UNL A   1      40.033  35.719  36.908  1.00  0.00     0.124 S 
ATOM     79  O   UNL A   1      39.340  36.116  38.129  1.00  0.00    -0.237 OA
ATOM     80  O   UNL A   1      41.460  35.446  37.039  1.00  0.00    -0.237 OA
ATOM     81  O   UNL A   1      39.649  36.455  35.705  1.00  0.00    -0.744 OA
ENDBRANCH  74  78
ENDBRANCH  47  71
BRANCH  59  82
ATOM     82  C   UNL A   1      44.799  27.839  34.243  1.00  0.00     0.023 A 
ATOM     83  C   UNL A   1      45.967  28.621  34.249  1.00  0.00     0.031 A 
ATOM     84  C   UNL A   1      44.763  26.692  35.053  1.00  0.00     0.131 A 
ATOM     85  C   UNL A   1      47.073  28.215  35.010  1.00  0.00     0.055 A 
ATOM     86  C   UNL A   1      45.848  26.321  35.847  1.00  0.00     0.041 A 
ATOM     87  F   UNL A   1      43.671  25.910  35.081  1.00  0.00    -0.206 F 
ATOM     88  C   UNL A   1      47.017  27.077  35.819  1.00  0.00     0.022 A 
BRANCH  85  89
ATOM     89  S   UNL A   1      48.624  29.146  34.862  1.00  0.00     0.124 S 
ATOM     90  O   UNL A   1      48.157  30.440  34.375  1.00  0.00    -0.237 OA
ATOM     91  O   UNL A   1      49.133  29.125  36.230  1.00  0.00    -0.237 OA
ATOM     92  O   UNL A   1      49.402  28.366  33.901  1.00  0.00    -0.744 OA
ENDBRANCH  85  89
ENDBRANCH  59  82
ENDBRANCH  33  34
ENDBRANCH  26  28
ENDBRANCH  25  26
ENDBRANCH  24  25
ENDBRANCH   1  24
TORSDOF 19
ENDMDL
