MODEL 1
REMARK VINA RESULT:      -9.8      0.000      0.000
REMARK SMILES COCCOCC[C@@H]1CCC[C@]1([NH3+])C(=O)OCCOC(=O)c1ccc(-c2c3nc(c(-c4cc(S(=O)(=O)[O-])ccc4F)c4ccc([nH]4)c(-c4cc(S(=O)(=O)[O-])ccc4F)c4nc(c(-c5cc(S(=O)(=O)[O-])ccc5F)c5ccc2[nH]5)C=C4)C=C3)cc1
REMARK SMILES IDX 16 1 14 2 15 3 12 4 8 5 9 6 10 7 11 8 7 9 6 10 5 11 4 12
REMARK SMILES IDX 3 13 2 14 1 15 13 16 17 20 18 21 19 22 20 23 21 24 22 25
REMARK SMILES IDX 23 26 84 27 24 28 83 29 25 30 26 31 27 32 77 33 28 34 82 35
REMARK SMILES IDX 76 36 78 37 29 38 81 39 75 40 74 41 30 43 62 44 42 45 61 46
REMARK SMILES IDX 43 47 46 48 60 49 79 50 44 51 45 52 59 54 80 55 47 56 31 57
REMARK SMILES IDX 32 58 40 59 33 60 39 61 41 62 38 63 34 64 35 65 36 66 37 67
REMARK SMILES IDX 63 68 64 69 72 70 65 71 71 72 73 73 70 74 66 75 67 76 68 77
REMARK SMILES IDX 69 78 48 79 49 80 57 81 50 82 56 83 58 84 55 85 51 86 52 87
REMARK SMILES IDX 53 88 54 89
REMARK H PARENT 13 17 13 18 13 19 78 42 46 53
REMARK Flexibility Score: inf
ROOT
ATOM      1  O   UNL A   1      32.754  27.495  26.504  1.00  0.00    -0.457 OA
ENDROOT
BRANCH   1   2
ATOM      2  C   UNL A   1      32.317  26.539  25.639  1.00  0.00     0.368 C 
ATOM      3  O   UNL A   1      31.681  25.550  25.999  1.00  0.00    -0.245 OA
BRANCH   2   4
ATOM      4  C   UNL A   1      32.799  26.757  24.169  1.00  0.00     0.195 C 
ATOM      5  C   UNL A   1      31.751  26.853  23.025  1.00  0.00     0.065 C 
ATOM      6  C   UNL A   1      31.485  25.382  22.638  1.00  0.00     0.011 C 
ATOM      7  C   UNL A   1      32.724  24.588  23.014  1.00  0.00     0.008 C 
ATOM      8  C   UNL A   1      33.663  25.565  23.705  1.00  0.00     0.081 C 
BRANCH   5   9
ATOM      9  C   UNL A   1      30.395  27.578  23.168  1.00  0.00     0.039 C 
BRANCH   9  10
ATOM     10  C   UNL A   1      30.233  28.991  22.625  1.00  0.00     0.161 C 
BRANCH  10  11
ATOM     11  O   UNL A   1      29.571  29.890  23.507  1.00  0.00    -0.379 OA
BRANCH  11  12
ATOM     12  C   UNL A   1      28.286  30.344  23.093  1.00  0.00     0.188 C 
BRANCH  12  13
ATOM     13  C   UNL A   1      28.034  31.830  23.390  1.00  0.00     0.188 C 
BRANCH  13  14
ATOM     14  O   UNL A   1      27.710  32.552  22.198  1.00  0.00    -0.382 OA
ATOM     15  C   UNL A   1      28.339  32.018  21.039  1.00  0.00     0.195 C 
ENDBRANCH  13  14
ENDBRANCH  12  13
ENDBRANCH  11  12
ENDBRANCH  10  11
ENDBRANCH   9  10
ENDBRANCH   5   9
BRANCH   4  16
ATOM     16  N   UNL A   1      33.734  27.899  24.208  1.00  0.00    -0.343 N 
ATOM     17  H   UNL A   1      33.823  28.233  25.169  1.00  0.00     0.345 HD
ATOM     18  H   UNL A   1      33.377  28.651  23.619  1.00  0.00     0.345 HD
ATOM     19  H   UNL A   1      34.648  27.603  23.866  1.00  0.00     0.345 HD
ENDBRANCH   4  16
ENDBRANCH   2   4
ENDBRANCH   1   2
BRANCH   1  20
ATOM     20  C   UNL A   1      31.724  28.292  27.128  1.00  0.00     0.274 C 
BRANCH  20  21
ATOM     21  C   UNL A   1      31.587  29.646  26.440  1.00  0.00     0.275 C 
BRANCH  21  22
ATOM     22  O   UNL A   1      32.895  30.194  26.233  1.00  0.00    -0.458 OA
BRANCH  22  23
ATOM     23  C   UNL A   1      33.254  31.192  27.069  1.00  0.00     0.338 C 
ATOM     24  O   UNL A   1      32.556  32.132  27.431  1.00  0.00    -0.246 OA
BRANCH  23  25
ATOM     25  C   UNL A   1      34.630  30.972  27.554  1.00  0.00     0.060 A 
ATOM     26  C   UNL A   1      35.068  29.687  27.878  1.00  0.00     0.016 A 
ATOM     27  C   UNL A   1      35.446  32.068  27.830  1.00  0.00     0.016 A 
ATOM     28  C   UNL A   1      36.252  29.509  28.590  1.00  0.00     0.010 A 
ATOM     29  C   UNL A   1      36.693  31.869  28.429  1.00  0.00     0.010 A 
ATOM     30  C   UNL A   1      37.096  30.590  28.859  1.00  0.00    -0.014 A 
BRANCH  30  31
ATOM     31  C   UNL A   1      38.365  30.420  29.625  1.00  0.00     0.031 A 
ATOM     32  C   UNL A   1      39.477  29.590  29.037  1.00  0.00     0.074 A 
ATOM     33  C   UNL A   1      38.534  30.976  30.842  1.00  0.00     0.049 A 
ATOM     34  N   UNL A   1      40.478  28.997  29.632  1.00  0.00    -0.248 NA
ATOM     35  C   UNL A   1      39.434  29.379  27.582  1.00  0.00     0.031 C 
ATOM     36  C   UNL A   1      37.597  31.883  31.508  1.00  0.00     0.029 A 
ATOM     37  N   UNL A   1      39.562  30.849  31.747  1.00  0.00    -0.354 N 
ATOM     38  C   UNL A   1      41.128  28.264  28.644  1.00  0.00     0.074 A 
ATOM     39  C   UNL A   1      40.415  28.506  27.406  1.00  0.00     0.031 C 
ATOM     40  C   UNL A   1      38.104  32.254  32.692  1.00  0.00     0.029 A 
ATOM     41  C   UNL A   1      39.332  31.507  32.933  1.00  0.00     0.049 A 
ATOM     42  H   UNL A   1      40.382  30.335  31.563  1.00  0.00     0.167 HD
ATOM     43  C   UNL A   1      42.206  27.450  28.772  1.00  0.00     0.034 A 
ATOM     44  C   UNL A   1      39.980  31.456  34.112  1.00  0.00     0.034 A 
ATOM     45  C   UNL A   1      42.936  27.287  30.008  1.00  0.00     0.049 A 
ATOM     46  C   UNL A   1      41.153  30.524  34.251  1.00  0.00     0.074 A 
ATOM     47  C   UNL A   1      44.036  26.487  30.268  1.00  0.00     0.029 A 
ATOM     48  N   UNL A   1      42.650  27.959  31.191  1.00  0.00    -0.354 N 
ATOM     49  N   UNL A   1      41.673  29.715  33.357  1.00  0.00    -0.248 NA
ATOM     50  C   UNL A   1      41.808  30.479  35.563  1.00  0.00     0.031 C 
ATOM     51  C   UNL A   1      44.387  26.643  31.615  1.00  0.00     0.029 A 
ATOM     52  C   UNL A   1      43.546  27.588  32.181  1.00  0.00     0.049 A 
ATOM     53  H   UNL A   1      41.917  28.606  31.308  1.00  0.00     0.167 HD
ATOM     54  C   UNL A   1      42.723  29.068  34.000  1.00  0.00     0.074 A 
ATOM     55  C   UNL A   1      42.773  29.597  35.349  1.00  0.00     0.031 C 
ATOM     56  C   UNL A   1      43.568  28.120  33.522  1.00  0.00     0.034 A 
BRANCH  43  57
ATOM     57  C   UNL A   1      42.603  26.619  27.574  1.00  0.00     0.023 A 
ATOM     58  C   UNL A   1      42.168  25.296  27.393  1.00  0.00     0.031 A 
ATOM     59  C   UNL A   1      43.473  27.162  26.609  1.00  0.00     0.131 A 
ATOM     60  C   UNL A   1      42.654  24.541  26.313  1.00  0.00     0.055 A 
ATOM     61  C   UNL A   1      43.892  26.432  25.496  1.00  0.00     0.041 A 
ATOM     62  F   UNL A   1      43.942  28.414  26.739  1.00  0.00    -0.206 F 
ATOM     63  C   UNL A   1      43.494  25.107  25.351  1.00  0.00     0.022 A 
BRANCH  60  64
ATOM     64  S   UNL A   1      42.286  22.765  26.257  1.00  0.00     0.124 S 
ATOM     65  O   UNL A   1      42.646  22.432  24.881  1.00  0.00    -0.237 OA
ATOM     66  O   UNL A   1      43.160  22.229  27.294  1.00  0.00    -0.237 OA
ATOM     67  O   UNL A   1      40.855  22.701  26.552  1.00  0.00    -0.744 OA
ENDBRANCH  60  64
ENDBRANCH  43  57
BRANCH  44  68
ATOM     68  C   UNL A   1      39.466  32.224  35.283  1.00  0.00     0.023 A 
ATOM     69  C   UNL A   1      39.890  33.539  35.531  1.00  0.00     0.031 A 
ATOM     70  C   UNL A   1      38.548  31.645  36.180  1.00  0.00     0.131 A 
ATOM     71  C   UNL A   1      39.412  34.223  36.660  1.00  0.00     0.055 A 
ATOM     72  C   UNL A   1      38.035  32.349  37.268  1.00  0.00     0.041 A 
ATOM     73  F   UNL A   1      38.114  30.389  35.991  1.00  0.00    -0.206 F 
ATOM     74  C   UNL A   1      38.473  33.645  37.518  1.00  0.00     0.022 A 
BRANCH  71  75
ATOM     75  S   UNL A   1      40.084  35.867  37.028  1.00  0.00     0.124 S 
ATOM     76  O   UNL A   1      41.503  35.576  37.205  1.00  0.00    -0.237 OA
ATOM     77  O   UNL A   1      39.727  36.618  35.829  1.00  0.00    -0.237 OA
ATOM     78  O   UNL A   1      39.372  36.262  38.242  1.00  0.00    -0.744 OA
ENDBRANCH  71  75
ENDBRANCH  44  68
BRANCH  56  79
ATOM     79  C   UNL A   1      44.643  27.642  34.462  1.00  0.00     0.023 A 
ATOM     80  C   UNL A   1      45.894  28.276  34.535  1.00  0.00     0.031 A 
ATOM     81  C   UNL A   1      44.416  26.516  35.272  1.00  0.00     0.131 A 
ATOM     82  C   UNL A   1      46.894  27.748  35.365  1.00  0.00     0.055 A 
ATOM     83  C   UNL A   1      45.398  26.024  36.133  1.00  0.00     0.041 A 
ATOM     84  F   UNL A   1      43.237  25.875  35.236  1.00  0.00    -0.206 F 
ATOM     85  C   UNL A   1      46.649  26.633  36.173  1.00  0.00     0.022 A 
BRANCH  82  86
ATOM     86  S   UNL A   1      48.549  28.488  35.317  1.00  0.00     0.124 S 
ATOM     87  O   UNL A   1      48.949  28.429  36.720  1.00  0.00    -0.237 OA
ATOM     88  O   UNL A   1      49.265  27.594  34.412  1.00  0.00    -0.237 OA
ATOM     89  O   UNL A   1      48.309  29.833  34.797  1.00  0.00    -0.744 OA
ENDBRANCH  82  86
ENDBRANCH  56  79
ENDBRANCH  30  31
ENDBRANCH  23  25
ENDBRANCH  22  23
ENDBRANCH  21  22
ENDBRANCH  20  21
ENDBRANCH   1  20
TORSDOF 21
ENDMDL
MODEL 2
REMARK VINA RESULT:      -9.7      2.114      3.892
REMARK SMILES COCCOCC[C@@H]1CCC[C@]1([NH3+])C(=O)OCCOC(=O)c1ccc(-c2c3nc(c(-c4cc(S(=O)(=O)[O-])ccc4F)c4ccc([nH]4)c(-c4cc(S(=O)(=O)[O-])ccc4F)c4nc(c(-c5cc(S(=O)(=O)[O-])ccc5F)c5ccc2[nH]5)C=C4)C=C3)cc1
REMARK SMILES IDX 16 1 14 2 15 3 12 4 8 5 9 6 10 7 11 8 7 9 6 10 5 11 4 12
REMARK SMILES IDX 3 13 2 14 1 15 13 16 17 20 18 21 19 22 20 23 21 24 22 25
REMARK SMILES IDX 23 26 84 27 24 28 83 29 25 30 26 31 27 32 77 33 28 34 82 35
REMARK SMILES IDX 76 36 78 37 29 38 81 39 75 40 74 41 30 43 62 44 42 45 61 46
REMARK SMILES IDX 43 47 46 48 60 49 79 50 44 51 45 52 59 54 80 55 47 56 31 57
REMARK SMILES IDX 32 58 40 59 33 60 39 61 41 62 38 63 34 64 35 65 36 66 37 67
REMARK SMILES IDX 63 68 64 69 72 70 65 71 71 72 73 73 70 74 66 75 67 76 68 77
REMARK SMILES IDX 69 78 48 79 49 80 57 81 50 82 56 83 58 84 55 85 51 86 52 87
REMARK SMILES IDX 53 88 54 89
REMARK H PARENT 13 17 13 18 13 19 78 42 46 53
REMARK Flexibility Score: inf
ROOT
ATOM      1  O   UNL A   1      31.101  27.265  24.750  1.00  0.00    -0.457 OA
ENDROOT
BRANCH   1   2
ATOM      2  C   UNL A   1      31.029  26.464  25.848  1.00  0.00     0.368 C 
ATOM      3  O   UNL A   1      31.281  26.861  26.984  1.00  0.00    -0.245 OA
BRANCH   2   4
ATOM      4  C   UNL A   1      30.712  24.971  25.515  1.00  0.00     0.195 C 
ATOM      5  C   UNL A   1      31.866  23.931  25.485  1.00  0.00     0.065 C 
ATOM      6  C   UNL A   1      32.438  24.048  24.055  1.00  0.00     0.011 C 
ATOM      7  C   UNL A   1      31.321  24.570  23.168  1.00  0.00     0.008 C 
ATOM      8  C   UNL A   1      30.141  24.849  24.086  1.00  0.00     0.081 C 
BRANCH   5   9
ATOM      9  C   UNL A   1      33.042  23.930  26.487  1.00  0.00     0.039 C 
BRANCH   9  10
ATOM     10  C   UNL A   1      33.746  22.623  26.823  1.00  0.00     0.161 C 
BRANCH  10  11
ATOM     11  O   UNL A   1      33.101  21.459  26.318  1.00  0.00    -0.379 OA
BRANCH  11  12
ATOM     12  C   UNL A   1      33.917  20.567  25.564  1.00  0.00     0.188 C 
BRANCH  12  13
ATOM     13  C   UNL A   1      35.302  21.140  25.225  1.00  0.00     0.188 C 
BRANCH  13  14
ATOM     14  O   UNL A   1      36.247  20.098  24.969  1.00  0.00    -0.382 OA
ATOM     15  C   UNL A   1      37.589  20.570  24.902  1.00  0.00     0.195 C 
ENDBRANCH  13  14
ENDBRANCH  12  13
ENDBRANCH  11  12
ENDBRANCH  10  11
ENDBRANCH   9  10
ENDBRANCH   5   9
BRANCH   4  16
ATOM     16  N   UNL A   1      29.592  24.582  26.396  1.00  0.00    -0.343 N 
ATOM     17  H   UNL A   1      29.270  25.399  26.916  1.00  0.00     0.345 HD
ATOM     18  H   UNL A   1      29.906  23.866  27.049  1.00  0.00     0.345 HD
ATOM     19  H   UNL A   1      28.826  24.216  25.830  1.00  0.00     0.345 HD
ENDBRANCH   4  16
ENDBRANCH   2   4
ENDBRANCH   1   2
BRANCH   1  20
ATOM     20  C   UNL A   1      32.346  27.975  24.573  1.00  0.00     0.274 C 
BRANCH  20  21
ATOM     21  C   UNL A   1      32.182  29.456  24.895  1.00  0.00     0.275 C 
BRANCH  21  22
ATOM     22  O   UNL A   1      33.359  29.914  25.575  1.00  0.00    -0.458 OA
BRANCH  22  23
ATOM     23  C   UNL A   1      33.151  30.761  26.606  1.00  0.00     0.338 C 
ATOM     24  O   UNL A   1      32.162  31.460  26.792  1.00  0.00    -0.246 OA
BRANCH  23  25
ATOM     25  C   UNL A   1      34.286  30.697  27.547  1.00  0.00     0.060 A 
ATOM     26  C   UNL A   1      35.011  31.848  27.858  1.00  0.00     0.016 A 
ATOM     27  C   UNL A   1      34.727  29.459  28.011  1.00  0.00     0.016 A 
ATOM     28  C   UNL A   1      36.235  31.750  28.515  1.00  0.00     0.010 A 
ATOM     29  C   UNL A   1      35.891  29.383  28.781  1.00  0.00     0.010 A 
ATOM     30  C   UNL A   1      36.688  30.522  29.008  1.00  0.00    -0.014 A 
BRANCH  30  31
ATOM     31  C   UNL A   1      37.999  30.395  29.708  1.00  0.00     0.031 A 
ATOM     32  C   UNL A   1      39.098  29.581  29.076  1.00  0.00     0.074 A 
ATOM     33  C   UNL A   1      38.218  30.977  30.905  1.00  0.00     0.049 A 
ATOM     34  N   UNL A   1      40.142  29.022  29.627  1.00  0.00    -0.248 NA
ATOM     35  C   UNL A   1      38.983  29.343  27.629  1.00  0.00     0.031 C 
ATOM     36  C   UNL A   1      37.295  31.874  31.605  1.00  0.00     0.029 A 
ATOM     37  N   UNL A   1      39.294  30.889  31.756  1.00  0.00    -0.354 N 
ATOM     38  C   UNL A   1      40.757  28.287  28.618  1.00  0.00     0.074 A 
ATOM     39  C   UNL A   1      39.975  28.490  27.416  1.00  0.00     0.031 C 
ATOM     40  C   UNL A   1      37.854  32.277  32.754  1.00  0.00     0.029 A 
ATOM     41  C   UNL A   1      39.111  31.564  32.942  1.00  0.00     0.049 A 
ATOM     42  H   UNL A   1      40.115  30.392  31.539  1.00  0.00     0.167 HD
ATOM     43  C   UNL A   1      41.860  27.500  28.703  1.00  0.00     0.034 A 
ATOM     44  C   UNL A   1      39.821  31.548  34.086  1.00  0.00     0.034 A 
ATOM     45  C   UNL A   1      42.657  27.376  29.901  1.00  0.00     0.049 A 
ATOM     46  C   UNL A   1      41.022  30.647  34.178  1.00  0.00     0.074 A 
ATOM     47  C   UNL A   1      43.788  26.607  30.116  1.00  0.00     0.029 A 
ATOM     48  N   UNL A   1      42.417  28.063  31.086  1.00  0.00    -0.354 N 
ATOM     49  N   UNL A   1      41.514  29.834  33.272  1.00  0.00    -0.248 NA
ATOM     50  C   UNL A   1      41.746  30.640  35.455  1.00  0.00     0.031 C 
ATOM     51  C   UNL A   1      44.206  26.795  31.439  1.00  0.00     0.029 A 
ATOM     52  C   UNL A   1      43.373  27.731  32.033  1.00  0.00     0.049 A 
ATOM     53  H   UNL A   1      41.677  28.695  31.231  1.00  0.00     0.167 HD
ATOM     54  C   UNL A   1      42.611  29.223  33.869  1.00  0.00     0.074 A 
ATOM     55  C   UNL A   1      42.719  29.777  35.204  1.00  0.00     0.031 C 
ATOM     56  C   UNL A   1      43.452  28.287  33.363  1.00  0.00     0.034 A 
BRANCH  43  57
ATOM     57  C   UNL A   1      42.214  26.658  27.500  1.00  0.00     0.023 A 
ATOM     58  C   UNL A   1      41.829  25.312  27.379  1.00  0.00     0.031 A 
ATOM     59  C   UNL A   1      42.990  27.214  26.465  1.00  0.00     0.131 A 
ATOM     60  C   UNL A   1      42.276  24.552  26.285  1.00  0.00     0.055 A 
ATOM     61  C   UNL A   1      43.367  26.475  25.343  1.00  0.00     0.041 A 
ATOM     62  F   UNL A   1      43.408  28.488  26.535  1.00  0.00    -0.206 F 
ATOM     63  C   UNL A   1      43.022  25.131  25.255  1.00  0.00     0.022 A 
BRANCH  60  64
ATOM     64  S   UNL A   1      41.987  22.761  26.294  1.00  0.00     0.124 S 
ATOM     65  O   UNL A   1      42.583  22.359  25.022  1.00  0.00    -0.237 OA
ATOM     66  O   UNL A   1      42.696  22.334  27.495  1.00  0.00    -0.237 OA
ATOM     67  O   UNL A   1      40.531  22.648  26.355  1.00  0.00    -0.744 OA
ENDBRANCH  60  64
ENDBRANCH  43  57
BRANCH  44  68
ATOM     68  C   UNL A   1      39.351  32.325  35.269  1.00  0.00     0.023 A 
ATOM     69  C   UNL A   1      39.801  33.633  35.504  1.00  0.00     0.031 A 
ATOM     70  C   UNL A   1      38.449  31.761  36.191  1.00  0.00     0.131 A 
ATOM     71  C   UNL A   1      39.364  34.326  36.645  1.00  0.00     0.055 A 
ATOM     72  C   UNL A   1      37.976  32.474  37.292  1.00  0.00     0.041 A 
ATOM     73  F   UNL A   1      37.990  30.511  36.016  1.00  0.00    -0.206 F 
ATOM     74  C   UNL A   1      38.440  33.763  37.529  1.00  0.00     0.022 A 
BRANCH  71  75
ATOM     75  S   UNL A   1      40.071  35.959  36.993  1.00  0.00     0.124 S 
ATOM     76  O   UNL A   1      41.486  35.644  37.153  1.00  0.00    -0.237 OA
ATOM     77  O   UNL A   1      39.712  36.709  35.793  1.00  0.00    -0.237 OA
ATOM     78  O   UNL A   1      39.383  36.375  38.214  1.00  0.00    -0.744 OA
ENDBRANCH  71  75
ENDBRANCH  44  68
BRANCH  56  79
ATOM     79  C   UNL A   1      44.586  27.850  34.252  1.00  0.00     0.023 A 
ATOM     80  C   UNL A   1      44.425  26.827  35.202  1.00  0.00     0.031 A 
ATOM     81  C   UNL A   1      45.834  28.490  34.165  1.00  0.00     0.131 A 
ATOM     82  C   UNL A   1      45.484  26.508  36.066  1.00  0.00     0.055 A 
ATOM     83  C   UNL A   1      46.899  28.135  34.993  1.00  0.00     0.041 A 
ATOM     84  F   UNL A   1      46.035  29.475  33.274  1.00  0.00    -0.206 F 
ATOM     85  C   UNL A   1      46.723  27.148  35.958  1.00  0.00     0.022 A 
BRANCH  82  86
ATOM     86  S   UNL A   1      45.199  25.300  37.388  1.00  0.00     0.124 S 
ATOM     87  O   UNL A   1      45.125  26.154  38.569  1.00  0.00    -0.237 OA
ATOM     88  O   UNL A   1      43.946  24.675  36.974  1.00  0.00    -0.237 OA
ATOM     89  O   UNL A   1      46.374  24.433  37.321  1.00  0.00    -0.744 OA
ENDBRANCH  82  86
ENDBRANCH  56  79
ENDBRANCH  30  31
ENDBRANCH  23  25
ENDBRANCH  22  23
ENDBRANCH  21  22
ENDBRANCH  20  21
ENDBRANCH   1  20
TORSDOF 21
ENDMDL
MODEL 3
REMARK VINA RESULT:      -9.6      1.706      2.342
REMARK SMILES COCCOCC[C@@H]1CCC[C@]1([NH3+])C(=O)OCCOC(=O)c1ccc(-c2c3nc(c(-c4cc(S(=O)(=O)[O-])ccc4F)c4ccc([nH]4)c(-c4cc(S(=O)(=O)[O-])ccc4F)c4nc(c(-c5cc(S(=O)(=O)[O-])ccc5F)c5ccc2[nH]5)C=C4)C=C3)cc1
REMARK SMILES IDX 16 1 14 2 15 3 12 4 8 5 9 6 10 7 11 8 7 9 6 10 5 11 4 12
REMARK SMILES IDX 3 13 2 14 1 15 13 16 17 20 18 21 19 22 20 23 21 24 22 25
REMARK SMILES IDX 23 26 84 27 24 28 83 29 25 30 26 31 27 32 77 33 28 34 82 35
REMARK SMILES IDX 76 36 78 37 29 38 81 39 75 40 74 41 30 43 62 44 42 45 61 46
REMARK SMILES IDX 43 47 46 48 60 49 79 50 44 51 45 52 59 54 80 55 47 56 31 57
REMARK SMILES IDX 32 58 40 59 33 60 39 61 41 62 38 63 34 64 35 65 36 66 37 67
REMARK SMILES IDX 63 68 64 69 72 70 65 71 71 72 73 73 70 74 66 75 67 76 68 77
REMARK SMILES IDX 69 78 48 79 49 80 57 81 50 82 56 83 58 84 55 85 51 86 52 87
REMARK SMILES IDX 53 88 54 89
REMARK H PARENT 13 17 13 18 13 19 78 42 46 53
REMARK Flexibility Score: inf
ROOT
ATOM      1  O   UNL A   1      32.520  27.091  26.233  1.00  0.00    -0.457 OA
ENDROOT
BRANCH   1   2
ATOM      2  C   UNL A   1      31.716  26.073  25.821  1.00  0.00     0.368 C 
ATOM      3  O   UNL A   1      30.521  26.220  25.576  1.00  0.00    -0.245 OA
BRANCH   2   4
ATOM      4  C   UNL A   1      32.428  24.681  25.803  1.00  0.00     0.195 C 
ATOM      5  C   UNL A   1      32.092  23.663  24.678  1.00  0.00     0.065 C 
ATOM      6  C   UNL A   1      30.839  22.929  25.202  1.00  0.00     0.011 C 
ATOM      7  C   UNL A   1      30.870  23.017  26.719  1.00  0.00     0.008 C 
ATOM      8  C   UNL A   1      32.071  23.879  27.072  1.00  0.00     0.081 C 
BRANCH   5   9
ATOM      9  C   UNL A   1      31.847  24.065  23.207  1.00  0.00     0.039 C 
BRANCH   9  10
ATOM     10  C   UNL A   1      33.026  24.453  22.325  1.00  0.00     0.161 C 
BRANCH  10  11
ATOM     11  O   UNL A   1      32.913  25.739  21.724  1.00  0.00    -0.379 OA
BRANCH  11  12
ATOM     12  C   UNL A   1      31.590  26.243  21.564  1.00  0.00     0.188 C 
BRANCH  12  13
ATOM     13  C   UNL A   1      31.330  27.540  22.347  1.00  0.00     0.188 C 
BRANCH  13  14
ATOM     14  O   UNL A   1      30.097  28.147  21.952  1.00  0.00    -0.382 OA
ATOM     15  C   UNL A   1      29.665  29.163  22.851  1.00  0.00     0.195 C 
ENDBRANCH  13  14
ENDBRANCH  12  13
ENDBRANCH  11  12
ENDBRANCH  10  11
ENDBRANCH   9  10
ENDBRANCH   5   9
BRANCH   4  16
ATOM     16  N   UNL A   1      33.873  24.958  25.933  1.00  0.00    -0.343 N 
ATOM     17  H   UNL A   1      34.023  25.966  25.984  1.00  0.00     0.345 HD
ATOM     18  H   UNL A   1      34.366  24.582  25.124  1.00  0.00     0.345 HD
ATOM     19  H   UNL A   1      34.228  24.519  26.783  1.00  0.00     0.345 HD
ENDBRANCH   4  16
ENDBRANCH   2   4
ENDBRANCH   1   2
BRANCH   1  20
ATOM     20  C   UNL A   1      32.575  28.238  25.357  1.00  0.00     0.274 C 
BRANCH  20  21
ATOM     21  C   UNL A   1      31.779  29.405  25.931  1.00  0.00     0.275 C 
BRANCH  21  22
ATOM     22  O   UNL A   1      32.366  29.795  27.179  1.00  0.00    -0.458 OA
BRANCH  22  23
ATOM     23  C   UNL A   1      33.020  30.977  27.179  1.00  0.00     0.338 C 
ATOM     24  O   UNL A   1      32.548  32.074  26.904  1.00  0.00    -0.246 OA
BRANCH  23  25
ATOM     25  C   UNL A   1      34.414  30.783  27.619  1.00  0.00     0.060 A 
ATOM     26  C   UNL A   1      34.897  29.502  27.890  1.00  0.00     0.016 A 
ATOM     27  C   UNL A   1      35.207  31.892  27.907  1.00  0.00     0.016 A 
ATOM     28  C   UNL A   1      36.105  29.336  28.564  1.00  0.00     0.010 A 
ATOM     29  C   UNL A   1      36.475  31.712  28.465  1.00  0.00     0.010 A 
ATOM     30  C   UNL A   1      36.926  30.432  28.844  1.00  0.00    -0.014 A 
BRANCH  30  31
ATOM     31  C   UNL A   1      38.220  30.276  29.569  1.00  0.00     0.031 A 
ATOM     32  C   UNL A   1      39.308  29.427  28.963  1.00  0.00     0.074 A 
ATOM     33  C   UNL A   1      38.433  30.861  30.765  1.00  0.00     0.049 A 
ATOM     34  N   UNL A   1      40.327  28.844  29.538  1.00  0.00    -0.248 NA
ATOM     35  C   UNL A   1      39.213  29.181  27.516  1.00  0.00     0.031 C 
ATOM     36  C   UNL A   1      37.523  31.788  31.441  1.00  0.00     0.029 A 
ATOM     37  N   UNL A   1      39.491  30.751  31.637  1.00  0.00    -0.354 N 
ATOM     38  C   UNL A   1      40.939  28.084  28.546  1.00  0.00     0.074 A 
ATOM     39  C   UNL A   1      40.185  28.299  27.328  1.00  0.00     0.031 C 
ATOM     40  C   UNL A   1      38.072  32.185  32.597  1.00  0.00     0.029 A 
ATOM     41  C   UNL A   1      39.305  31.440  32.813  1.00  0.00     0.049 A 
ATOM     42  H   UNL A   1      40.302  30.230  31.438  1.00  0.00     0.167 HD
ATOM     43  C   UNL A   1      42.019  27.269  28.657  1.00  0.00     0.034 A 
ATOM     44  C   UNL A   1      39.994  31.415  33.971  1.00  0.00     0.034 A 
ATOM     45  C   UNL A   1      42.790  27.133  29.871  1.00  0.00     0.049 A 
ATOM     46  C   UNL A   1      41.168  30.482  34.091  1.00  0.00     0.074 A 
ATOM     47  C   UNL A   1      43.896  26.335  30.112  1.00  0.00     0.029 A 
ATOM     48  N   UNL A   1      42.548  27.836  31.045  1.00  0.00    -0.354 N 
ATOM     49  N   UNL A   1      41.654  29.649  33.200  1.00  0.00    -0.248 NA
ATOM     50  C   UNL A   1      41.868  30.466  35.381  1.00  0.00     0.031 C 
ATOM     51  C   UNL A   1      44.295  26.523  31.441  1.00  0.00     0.029 A 
ATOM     52  C   UNL A   1      43.477  27.486  32.013  1.00  0.00     0.049 A 
ATOM     53  H   UNL A   1      41.822  28.489  31.172  1.00  0.00     0.167 HD
ATOM     54  C   UNL A   1      42.723  29.013  33.822  1.00  0.00     0.074 A 
ATOM     55  C   UNL A   1      42.822  29.575  35.155  1.00  0.00     0.031 C 
ATOM     56  C   UNL A   1      43.548  28.050  33.339  1.00  0.00     0.034 A 
BRANCH  43  57
ATOM     57  C   UNL A   1      42.371  26.407  27.467  1.00  0.00     0.023 A 
ATOM     58  C   UNL A   1      41.973  25.064  27.361  1.00  0.00     0.031 A 
ATOM     59  C   UNL A   1      43.160  26.942  26.430  1.00  0.00     0.131 A 
ATOM     60  C   UNL A   1      42.419  24.286  26.280  1.00  0.00     0.055 A 
ATOM     61  C   UNL A   1      43.536  26.185  25.320  1.00  0.00     0.041 A 
ATOM     62  F   UNL A   1      43.591  28.213  26.486  1.00  0.00    -0.206 F 
ATOM     63  C   UNL A   1      43.177  24.843  25.248  1.00  0.00     0.022 A 
BRANCH  60  64
ATOM     64  S   UNL A   1      42.111  22.498  26.310  1.00  0.00     0.124 S 
ATOM     65  O   UNL A   1      43.015  22.024  25.265  1.00  0.00    -0.237 OA
ATOM     66  O   UNL A   1      42.472  22.139  27.677  1.00  0.00    -0.237 OA
ATOM     67  O   UNL A   1      40.689  22.388  25.990  1.00  0.00    -0.744 OA
ENDBRANCH  60  64
ENDBRANCH  43  57
BRANCH  44  68
ATOM     68  C   UNL A   1      39.524  32.214  35.139  1.00  0.00     0.023 A 
ATOM     69  C   UNL A   1      40.002  33.513  35.369  1.00  0.00     0.031 A 
ATOM     70  C   UNL A   1      38.593  31.680  36.051  1.00  0.00     0.131 A 
ATOM     71  C   UNL A   1      39.564  34.226  36.497  1.00  0.00     0.055 A 
ATOM     72  C   UNL A   1      38.120  32.415  37.138  1.00  0.00     0.041 A 
ATOM     73  F   UNL A   1      38.107  30.441  35.879  1.00  0.00    -0.206 F 
ATOM     74  C   UNL A   1      38.612  33.694  37.370  1.00  0.00     0.022 A 
BRANCH  71  75
ATOM     75  S   UNL A   1      40.304  35.845  36.842  1.00  0.00     0.124 S 
ATOM     76  O   UNL A   1      41.729  35.552  36.728  1.00  0.00    -0.237 OA
ATOM     77  O   UNL A   1      39.734  36.674  35.785  1.00  0.00    -0.237 OA
ATOM     78  O   UNL A   1      39.838  36.153  38.192  1.00  0.00    -0.744 OA
ENDBRANCH  71  75
ENDBRANCH  44  68
BRANCH  56  79
ATOM     79  C   UNL A   1      44.652  27.590  34.252  1.00  0.00     0.023 A 
ATOM     80  C   UNL A   1      44.475  26.517  35.142  1.00  0.00     0.031 A 
ATOM     81  C   UNL A   1      45.888  28.259  34.250  1.00  0.00     0.131 A 
ATOM     82  C   UNL A   1      45.504  26.175  36.032  1.00  0.00     0.055 A 
ATOM     83  C   UNL A   1      46.926  27.882  35.104  1.00  0.00     0.041 A 
ATOM     84  F   UNL A   1      46.105  29.292  33.420  1.00  0.00    -0.206 F 
ATOM     85  C   UNL A   1      46.732  26.843  36.010  1.00  0.00     0.022 A 
BRANCH  82  86
ATOM     86  S   UNL A   1      45.190  24.895  37.277  1.00  0.00     0.124 S 
ATOM     87  O   UNL A   1      46.534  24.621  37.778  1.00  0.00    -0.237 OA
ATOM     88  O   UNL A   1      44.291  25.574  38.204  1.00  0.00    -0.237 OA
ATOM     89  O   UNL A   1      44.582  23.810  36.509  1.00  0.00    -0.744 OA
ENDBRANCH  82  86
ENDBRANCH  56  79
ENDBRANCH  30  31
ENDBRANCH  23  25
ENDBRANCH  22  23
ENDBRANCH  21  22
ENDBRANCH  20  21
ENDBRANCH   1  20
TORSDOF 21
ENDMDL
