MODEL 1
REMARK VINA RESULT:     -10.2      0.000      0.000
REMARK SMILES COCCCC(=O)N[C@H]1CC[C@@H](C(=O)OCCOC(=O)c2ccc(-c3c4nc(c(-c5cc(S(=O)(=O)[O-])ccc5F)c5ccc([nH]5)c(-c5cc(S(=O)(=O)[O-])ccc5F)c5nc(c(-c6cc(S(=O)(=O)[O-])ccc6F)c6ccc3[nH]6)C=C5)C=C4)cc2)CC1
REMARK SMILES IDX 16 1 15 2 13 3 14 4 12 5 9 6 10 7 85 8 11 9 84 10 8 11 6 12
REMARK SMILES IDX 7 13 5 15 4 16 3 17 2 18 1 19 17 20 18 21 19 22 20 23 21 24
REMARK SMILES IDX 22 25 83 26 23 27 82 28 24 29 25 30 26 31 76 32 27 33 81 34
REMARK SMILES IDX 75 35 77 36 28 37 80 38 74 39 73 40 29 42 61 43 41 44 60 45
REMARK SMILES IDX 42 46 45 47 59 48 78 49 43 50 44 51 58 53 79 54 46 55 30 56
REMARK SMILES IDX 31 57 39 58 32 59 38 60 40 61 37 62 33 63 34 64 35 65 36 66
REMARK SMILES IDX 62 67 63 68 71 69 64 70 70 71 72 72 69 73 65 74 66 75 67 76
REMARK SMILES IDX 68 77 47 78 48 79 56 80 49 81 55 82 57 83 54 84 50 85 51 86
REMARK SMILES IDX 52 87 53 88
REMARK H PARENT 8 14 77 41 45 52
REMARK Flexibility Score: inf
ROOT
ATOM      1  C   UNL A   1      35.985  20.387  25.012  1.00  0.00     0.274 C 
ENDROOT
BRANCH   1   2
ATOM      2  O   UNL A   1      35.557  21.121  26.172  1.00  0.00    -0.462 OA
BRANCH   2   3
ATOM      3  C   UNL A   1      34.263  21.514  26.249  1.00  0.00     0.309 C 
ATOM      4  O   UNL A   1      33.299  20.777  26.096  1.00  0.00    -0.252 OA
BRANCH   3   5
ATOM      5  C   UNL A   1      34.135  23.013  26.521  1.00  0.00     0.099 C 
ATOM      6  C   UNL A   1      33.990  24.815  24.108  1.00  0.00     0.082 C 
ATOM      7  C   UNL A   1      32.785  23.957  24.552  1.00  0.00     0.026 C 
ATOM      8  C   UNL A   1      35.260  24.079  24.500  1.00  0.00     0.026 C 
ATOM      9  C   UNL A   1      32.802  23.588  26.038  1.00  0.00     0.017 C 
ATOM     10  C   UNL A   1      35.308  23.842  26.005  1.00  0.00     0.017 C 
BRANCH   6  11
ATOM     11  N   UNL A   1      33.879  25.100  22.677  1.00  0.00    -0.353 N 
ATOM     12  C   UNL A   1      33.335  26.118  21.961  1.00  0.00     0.220 C 
ATOM     13  O   UNL A   1      33.175  25.926  20.751  1.00  0.00    -0.275 OA
ATOM     14  H   UNL A   1      34.289  24.405  22.111  1.00  0.00     0.163 HD
BRANCH  12  15
ATOM     15  C   UNL A   1      32.978  27.460  22.570  1.00  0.00     0.102 C 
BRANCH  15  16
ATOM     16  C   UNL A   1      31.511  27.607  22.977  1.00  0.00     0.038 C 
BRANCH  16  17
ATOM     17  C   UNL A   1      31.157  28.786  23.886  1.00  0.00     0.160 C 
BRANCH  17  18
ATOM     18  O   UNL A   1      32.256  29.131  24.724  1.00  0.00    -0.385 OA
ATOM     19  C   UNL A   1      31.988  30.135  25.695  1.00  0.00     0.194 C 
ENDBRANCH  17  18
ENDBRANCH  16  17
ENDBRANCH  15  16
ENDBRANCH  12  15
ENDBRANCH   6  11
ENDBRANCH   3   5
ENDBRANCH   2   3
ENDBRANCH   1   2
BRANCH   1  20
ATOM     20  C   UNL A   1      37.490  20.572  24.813  1.00  0.00     0.275 C 
BRANCH  20  21
ATOM     21  O   UNL A   1      37.960  21.674  25.611  1.00  0.00    -0.458 OA
BRANCH  21  22
ATOM     22  C   UNL A   1      39.164  21.504  26.201  1.00  0.00     0.338 C 
ATOM     23  O   UNL A   1      39.820  20.471  26.263  1.00  0.00    -0.246 OA
BRANCH  22  24
ATOM     24  C   UNL A   1      39.652  22.810  26.665  1.00  0.00     0.060 A 
ATOM     25  C   UNL A   1      39.092  23.972  26.124  1.00  0.00     0.016 A 
ATOM     26  C   UNL A   1      40.684  22.891  27.601  1.00  0.00     0.016 A 
ATOM     27  C   UNL A   1      39.565  25.222  26.513  1.00  0.00     0.010 A 
ATOM     28  C   UNL A   1      41.154  24.147  27.995  1.00  0.00     0.010 A 
ATOM     29  C   UNL A   1      40.603  25.320  27.448  1.00  0.00    -0.014 A 
BRANCH  29  30
ATOM     30  C   UNL A   1      41.149  26.648  27.815  1.00  0.00     0.031 A 
ATOM     31  C   UNL A   1      42.582  26.972  27.500  1.00  0.00     0.074 A 
ATOM     32  C   UNL A   1      40.362  27.556  28.421  1.00  0.00     0.049 A 
ATOM     33  N   UNL A   1      43.284  28.026  27.824  1.00  0.00    -0.248 NA
ATOM     34  C   UNL A   1      43.320  25.968  26.721  1.00  0.00     0.031 C 
ATOM     35  C   UNL A   1      38.944  27.367  28.731  1.00  0.00     0.029 A 
ATOM     36  N   UNL A   1      40.643  28.812  28.893  1.00  0.00    -0.354 N 
ATOM     37  C   UNL A   1      44.555  27.808  27.303  1.00  0.00     0.074 A 
ATOM     38  C   UNL A   1      44.529  26.507  26.667  1.00  0.00     0.031 C 
ATOM     39  C   UNL A   1      38.480  28.467  29.345  1.00  0.00     0.029 A 
ATOM     40  C   UNL A   1      39.577  29.414  29.522  1.00  0.00     0.049 A 
ATOM     41  H   UNL A   1      41.522  29.243  28.790  1.00  0.00     0.167 HD
ATOM     42  C   UNL A   1      45.640  28.622  27.352  1.00  0.00     0.034 A 
ATOM     43  C   UNL A   1      39.506  30.580  30.198  1.00  0.00     0.034 A 
ATOM     44  C   UNL A   1      45.643  29.913  27.998  1.00  0.00     0.049 A 
ATOM     45  C   UNL A   1      40.747  31.431  30.309  1.00  0.00     0.074 A 
ATOM     46  C   UNL A   1      46.681  30.823  28.104  1.00  0.00     0.029 A 
ATOM     47  N   UNL A   1      44.556  30.475  28.659  1.00  0.00    -0.354 N 
ATOM     48  N   UNL A   1      41.947  31.209  29.825  1.00  0.00    -0.248 NA
ATOM     49  C   UNL A   1      40.621  32.690  31.053  1.00  0.00     0.031 C 
ATOM     50  C   UNL A   1      46.243  31.900  28.883  1.00  0.00     0.029 A 
ATOM     51  C   UNL A   1      44.909  31.703  29.199  1.00  0.00     0.049 A 
ATOM     52  H   UNL A   1      43.666  30.062  28.731  1.00  0.00     0.167 HD
ATOM     53  C   UNL A   1      42.711  32.316  30.184  1.00  0.00     0.074 A 
ATOM     54  C   UNL A   1      41.832  33.208  30.912  1.00  0.00     0.031 C 
ATOM     55  C   UNL A   1      44.021  32.575  29.933  1.00  0.00     0.034 A 
BRANCH  42  56
ATOM     56  C   UNL A   1      46.922  28.105  26.743  1.00  0.00     0.023 A 
ATOM     57  C   UNL A   1      47.171  28.181  25.361  1.00  0.00     0.031 A 
ATOM     58  C   UNL A   1      47.895  27.496  27.555  1.00  0.00     0.131 A 
ATOM     59  C   UNL A   1      48.327  27.591  24.826  1.00  0.00     0.055 A 
ATOM     60  C   UNL A   1      49.081  26.982  27.025  1.00  0.00     0.041 A 
ATOM     61  F   UNL A   1      47.703  27.373  28.878  1.00  0.00    -0.206 F 
ATOM     62  C   UNL A   1      49.295  27.015  25.651  1.00  0.00     0.022 A 
BRANCH  59  63
ATOM     63  S   UNL A   1      48.479  27.461  23.023  1.00  0.00     0.124 S 
ATOM     64  O   UNL A   1      48.409  26.015  22.825  1.00  0.00    -0.237 OA
ATOM     65  O   UNL A   1      47.330  28.227  22.553  1.00  0.00    -0.237 OA
ATOM     66  O   UNL A   1      49.783  28.058  22.744  1.00  0.00    -0.744 OA
ENDBRANCH  59  63
ENDBRANCH  42  56
BRANCH  43  67
ATOM     67  C   UNL A   1      38.238  30.987  30.867  1.00  0.00     0.023 A 
ATOM     68  C   UNL A   1      37.244  31.694  30.172  1.00  0.00     0.031 A 
ATOM     69  C   UNL A   1      38.022  30.714  32.230  1.00  0.00     0.131 A 
ATOM     70  C   UNL A   1      36.099  32.140  30.852  1.00  0.00     0.055 A 
ATOM     71  C   UNL A   1      36.857  31.112  32.887  1.00  0.00     0.041 A 
ATOM     72  F   UNL A   1      38.941  30.043  32.942  1.00  0.00    -0.206 F 
ATOM     73  C   UNL A   1      35.892  31.841  32.200  1.00  0.00     0.022 A 
BRANCH  70  74
ATOM     74  S   UNL A   1      34.917  33.192  29.965  1.00  0.00     0.124 S 
ATOM     75  O   UNL A   1      34.106  33.715  31.058  1.00  0.00    -0.237 OA
ATOM     76  O   UNL A   1      35.800  34.150  29.306  1.00  0.00    -0.237 OA
ATOM     77  O   UNL A   1      34.235  32.259  29.070  1.00  0.00    -0.744 OA
ENDBRANCH  70  74
ENDBRANCH  43  67
BRANCH  55  78
ATOM     78  C   UNL A   1      44.559  33.902  30.409  1.00  0.00     0.023 A 
ATOM     79  C   UNL A   1      44.441  35.071  29.637  1.00  0.00     0.031 A 
ATOM     80  C   UNL A   1      45.210  33.994  31.652  1.00  0.00     0.131 A 
ATOM     81  C   UNL A   1      45.016  36.269  30.090  1.00  0.00     0.055 A 
ATOM     82  C   UNL A   1      45.728  35.200  32.125  1.00  0.00     0.041 A 
ATOM     83  F   UNL A   1      45.353  32.908  32.429  1.00  0.00    -0.206 F 
ATOM     84  C   UNL A   1      45.644  36.344  31.336  1.00  0.00     0.022 A 
BRANCH  81  85
ATOM     85  S   UNL A   1      45.013  37.711  28.989  1.00  0.00     0.124 S 
ATOM     86  O   UNL A   1      45.545  37.149  27.753  1.00  0.00    -0.237 OA
ATOM     87  O   UNL A   1      43.601  38.082  28.966  1.00  0.00    -0.237 OA
ATOM     88  O   UNL A   1      45.891  38.662  29.667  1.00  0.00    -0.744 OA
ENDBRANCH  81  85
ENDBRANCH  55  78
ENDBRANCH  29  30
ENDBRANCH  22  24
ENDBRANCH  21  22
ENDBRANCH  20  21
ENDBRANCH   1  20
TORSDOF 19
ENDMDL
MODEL 2
REMARK VINA RESULT:     -10.1      3.066      8.991
REMARK SMILES COCCCC(=O)N[C@H]1CC[C@@H](C(=O)OCCOC(=O)c2ccc(-c3c4nc(c(-c5cc(S(=O)(=O)[O-])ccc5F)c5ccc([nH]5)c(-c5cc(S(=O)(=O)[O-])ccc5F)c5nc(c(-c6cc(S(=O)(=O)[O-])ccc6F)c6ccc3[nH]6)C=C5)C=C4)cc2)CC1
REMARK SMILES IDX 16 1 15 2 13 3 14 4 12 5 9 6 10 7 85 8 11 9 84 10 8 11 6 12
REMARK SMILES IDX 7 13 5 15 4 16 3 17 2 18 1 19 17 20 18 21 19 22 20 23 21 24
REMARK SMILES IDX 22 25 83 26 23 27 82 28 24 29 25 30 26 31 76 32 27 33 81 34
REMARK SMILES IDX 75 35 77 36 28 37 80 38 74 39 73 40 29 42 61 43 41 44 60 45
REMARK SMILES IDX 42 46 45 47 59 48 78 49 43 50 44 51 58 53 79 54 46 55 30 56
REMARK SMILES IDX 31 57 39 58 32 59 38 60 40 61 37 62 33 63 34 64 35 65 36 66
REMARK SMILES IDX 62 67 63 68 71 69 64 70 70 71 72 72 69 73 65 74 66 75 67 76
REMARK SMILES IDX 68 77 47 78 48 79 56 80 49 81 55 82 57 83 54 84 50 85 51 86
REMARK SMILES IDX 52 87 53 88
REMARK H PARENT 8 14 77 41 45 52
REMARK Flexibility Score: inf
ROOT
ATOM      1  C   UNL A   1      39.635  21.503  26.428  1.00  0.00     0.274 C 
ENDROOT
BRANCH   1   2
ATOM      2  O   UNL A   1      38.423  21.859  25.742  1.00  0.00    -0.462 OA
BRANCH   2   3
ATOM      3  C   UNL A   1      37.929  23.110  25.904  1.00  0.00     0.309 C 
ATOM      4  O   UNL A   1      38.368  23.935  26.693  1.00  0.00    -0.252 OA
BRANCH   3   5
ATOM      5  C   UNL A   1      36.726  23.374  25.000  1.00  0.00     0.099 C 
ATOM      6  C   UNL A   1      34.422  21.441  25.222  1.00  0.00     0.082 C 
ATOM      7  C   UNL A   1      34.686  22.514  26.302  1.00  0.00     0.026 C 
ATOM      8  C   UNL A   1      35.757  21.050  24.612  1.00  0.00     0.026 C 
ATOM      9  C   UNL A   1      35.464  23.729  25.788  1.00  0.00     0.017 C 
ATOM     10  C   UNL A   1      36.447  22.261  23.994  1.00  0.00     0.017 C 
BRANCH   6  11
ATOM     11  N   UNL A   1      33.686  20.326  25.820  1.00  0.00    -0.353 N 
ATOM     12  C   UNL A   1      33.348  19.084  25.386  1.00  0.00     0.220 C 
ATOM     13  O   UNL A   1      32.490  18.480  26.039  1.00  0.00    -0.275 OA
ATOM     14  H   UNL A   1      33.370  20.516  26.733  1.00  0.00     0.163 HD
BRANCH  12  15
ATOM     15  C   UNL A   1      34.007  18.414  24.196  1.00  0.00     0.102 C 
BRANCH  15  16
ATOM     16  C   UNL A   1      33.796  16.901  24.118  1.00  0.00     0.038 C 
BRANCH  16  17
ATOM     17  C   UNL A   1      34.690  16.029  25.004  1.00  0.00     0.160 C 
BRANCH  17  18
ATOM     18  O   UNL A   1      34.029  14.819  25.360  1.00  0.00    -0.385 OA
ATOM     19  C   UNL A   1      32.614  14.908  25.466  1.00  0.00     0.194 C 
ENDBRANCH  17  18
ENDBRANCH  16  17
ENDBRANCH  15  16
ENDBRANCH  12  15
ENDBRANCH   6  11
ENDBRANCH   3   5
ENDBRANCH   2   3
ENDBRANCH   1   2
BRANCH   1  20
ATOM     20  C   UNL A   1      40.011  20.059  26.093  1.00  0.00     0.275 C 
BRANCH  20  21
ATOM     21  O   UNL A   1      41.293  19.739  26.662  1.00  0.00    -0.458 OA
BRANCH  21  22
ATOM     22  C   UNL A   1      42.366  19.995  25.881  1.00  0.00     0.338 C 
ATOM     23  O   UNL A   1      42.800  19.304  24.968  1.00  0.00    -0.246 OA
BRANCH  22  24
ATOM     24  C   UNL A   1      42.882  21.331  26.210  1.00  0.00     0.060 A 
ATOM     25  C   UNL A   1      43.138  21.646  27.549  1.00  0.00     0.016 A 
ATOM     26  C   UNL A   1      43.077  22.284  25.210  1.00  0.00     0.016 A 
ATOM     27  C   UNL A   1      43.586  22.918  27.894  1.00  0.00     0.010 A 
ATOM     28  C   UNL A   1      43.533  23.558  25.557  1.00  0.00     0.010 A 
ATOM     29  C   UNL A   1      43.783  23.886  26.902  1.00  0.00    -0.014 A 
BRANCH  29  30
ATOM     30  C   UNL A   1      44.199  25.259  27.276  1.00  0.00     0.031 A 
ATOM     31  C   UNL A   1      43.185  26.212  27.840  1.00  0.00     0.074 A 
ATOM     32  C   UNL A   1      45.479  25.642  27.113  1.00  0.00     0.049 A 
ATOM     33  N   UNL A   1      43.311  27.480  28.133  1.00  0.00    -0.248 NA
ATOM     34  C   UNL A   1      41.848  25.660  28.102  1.00  0.00     0.031 C 
ATOM     35  C   UNL A   1      46.558  24.784  26.620  1.00  0.00     0.029 A 
ATOM     36  N   UNL A   1      46.087  26.851  27.336  1.00  0.00    -0.354 N 
ATOM     37  C   UNL A   1      42.065  27.887  28.600  1.00  0.00     0.074 A 
ATOM     38  C   UNL A   1      41.193  26.733  28.523  1.00  0.00     0.031 C 
ATOM     39  C   UNL A   1      47.695  25.497  26.573  1.00  0.00     0.029 A 
ATOM     40  C   UNL A   1      47.416  26.871  26.979  1.00  0.00     0.049 A 
ATOM     41  H   UNL A   1      45.619  27.629  27.715  1.00  0.00     0.167 HD
ATOM     42  C   UNL A   1      41.690  29.110  29.052  1.00  0.00     0.034 A 
ATOM     43  C   UNL A   1      48.296  27.893  26.947  1.00  0.00     0.034 A 
ATOM     44  C   UNL A   1      42.577  30.247  29.113  1.00  0.00     0.049 A 
ATOM     45  C   UNL A   1      47.834  29.263  27.378  1.00  0.00     0.074 A 
ATOM     46  C   UNL A   1      42.307  31.530  29.558  1.00  0.00     0.029 A 
ATOM     47  N   UNL A   1      43.907  30.241  28.708  1.00  0.00    -0.354 N 
ATOM     48  N   UNL A   1      46.650  29.640  27.804  1.00  0.00    -0.248 NA
ATOM     49  C   UNL A   1      48.827  30.343  27.327  1.00  0.00     0.031 C 
ATOM     50  C   UNL A   1      43.449  32.314  29.359  1.00  0.00     0.029 A 
ATOM     51  C   UNL A   1      44.459  31.505  28.864  1.00  0.00     0.049 A 
ATOM     52  H   UNL A   1      44.387  29.456  28.362  1.00  0.00     0.167 HD
ATOM     53  C   UNL A   1      46.767  30.996  28.098  1.00  0.00     0.074 A 
ATOM     54  C   UNL A   1      48.138  31.365  27.812  1.00  0.00     0.031 C 
ATOM     55  C   UNL A   1      45.827  31.858  28.564  1.00  0.00     0.034 A 
BRANCH  42  56
ATOM     56  C   UNL A   1      40.244  29.286  29.452  1.00  0.00     0.023 A 
ATOM     57  C   UNL A   1      39.830  29.204  30.793  1.00  0.00     0.031 A 
ATOM     58  C   UNL A   1      39.261  29.505  28.471  1.00  0.00     0.131 A 
ATOM     59  C   UNL A   1      38.463  29.267  31.107  1.00  0.00     0.055 A 
ATOM     60  C   UNL A   1      37.911  29.647  28.799  1.00  0.00     0.041 A 
ATOM     61  F   UNL A   1      39.593  29.569  27.172  1.00  0.00    -0.206 F 
ATOM     62  C   UNL A   1      37.503  29.513  30.123  1.00  0.00     0.022 A 
BRANCH  59  63
ATOM     63  S   UNL A   1      37.944  28.880  32.802  1.00  0.00     0.124 S 
ATOM     64  O   UNL A   1      36.579  29.402  32.819  1.00  0.00    -0.237 OA
ATOM     65  O   UNL A   1      38.074  27.429  32.848  1.00  0.00    -0.237 OA
ATOM     66  O   UNL A   1      38.896  29.618  33.629  1.00  0.00    -0.744 OA
ENDBRANCH  59  63
ENDBRANCH  42  56
BRANCH  43  67
ATOM     67  C   UNL A   1      49.683  27.678  26.443  1.00  0.00     0.023 A 
ATOM     68  C   UNL A   1      50.023  27.956  25.110  1.00  0.00     0.031 A 
ATOM     69  C   UNL A   1      50.680  27.147  27.280  1.00  0.00     0.131 A 
ATOM     70  C   UNL A   1      51.314  27.662  24.643  1.00  0.00     0.055 A 
ATOM     71  C   UNL A   1      51.977  26.908  26.825  1.00  0.00     0.041 A 
ATOM     72  F   UNL A   1      50.408  26.861  28.564  1.00  0.00    -0.206 F 
ATOM     73  C   UNL A   1      52.297  27.154  25.494  1.00  0.00     0.022 A 
BRANCH  70  74
ATOM     74  S   UNL A   1      51.668  27.877  22.876  1.00  0.00     0.124 S 
ATOM     75  O   UNL A   1      53.031  27.368  22.781  1.00  0.00    -0.237 OA
ATOM     76  O   UNL A   1      50.631  27.057  22.258  1.00  0.00    -0.237 OA
ATOM     77  O   UNL A   1      51.523  29.317  22.673  1.00  0.00    -0.744 OA
ENDBRANCH  70  74
ENDBRANCH  43  67
BRANCH  55  78
ATOM     78  C   UNL A   1      46.275  33.273  28.840  1.00  0.00     0.023 A 
ATOM     79  C   UNL A   1      46.172  34.287  27.871  1.00  0.00     0.031 A 
ATOM     80  C   UNL A   1      46.826  33.606  30.090  1.00  0.00     0.131 A 
ATOM     81  C   UNL A   1      46.664  35.571  28.149  1.00  0.00     0.055 A 
ATOM     82  C   UNL A   1      47.259  34.900  30.382  1.00  0.00     0.041 A 
ATOM     83  F   UNL A   1      46.950  32.676  31.051  1.00  0.00    -0.206 F 
ATOM     84  C   UNL A   1      47.192  35.888  29.404  1.00  0.00     0.022 A 
BRANCH  81  85
ATOM     85  S   UNL A   1      46.689  36.804  26.819  1.00  0.00     0.124 S 
ATOM     86  O   UNL A   1      46.930  35.975  25.643  1.00  0.00    -0.237 OA
ATOM     87  O   UNL A   1      45.359  37.397  26.918  1.00  0.00    -0.237 OA
ATOM     88  O   UNL A   1      47.791  37.689  27.191  1.00  0.00    -0.744 OA
ENDBRANCH  81  85
ENDBRANCH  55  78
ENDBRANCH  29  30
ENDBRANCH  22  24
ENDBRANCH  21  22
ENDBRANCH  20  21
ENDBRANCH   1  20
TORSDOF 19
ENDMDL
MODEL 3
REMARK VINA RESULT:      -9.9      4.940     11.312
REMARK SMILES COCCCC(=O)N[C@H]1CC[C@@H](C(=O)OCCOC(=O)c2ccc(-c3c4nc(c(-c5cc(S(=O)(=O)[O-])ccc5F)c5ccc([nH]5)c(-c5cc(S(=O)(=O)[O-])ccc5F)c5nc(c(-c6cc(S(=O)(=O)[O-])ccc6F)c6ccc3[nH]6)C=C5)C=C4)cc2)CC1
REMARK SMILES IDX 16 1 15 2 13 3 14 4 12 5 9 6 10 7 85 8 11 9 84 10 8 11 6 12
REMARK SMILES IDX 7 13 5 15 4 16 3 17 2 18 1 19 17 20 18 21 19 22 20 23 21 24
REMARK SMILES IDX 22 25 83 26 23 27 82 28 24 29 25 30 26 31 76 32 27 33 81 34
REMARK SMILES IDX 75 35 77 36 28 37 80 38 74 39 73 40 29 42 61 43 41 44 60 45
REMARK SMILES IDX 42 46 45 47 59 48 78 49 43 50 44 51 58 53 79 54 46 55 30 56
REMARK SMILES IDX 31 57 39 58 32 59 38 60 40 61 37 62 33 63 34 64 35 65 36 66
REMARK SMILES IDX 62 67 63 68 71 69 64 70 70 71 72 72 69 73 65 74 66 75 67 76
REMARK SMILES IDX 68 77 47 78 48 79 56 80 49 81 55 82 57 83 54 84 50 85 51 86
REMARK SMILES IDX 52 87 53 88
REMARK H PARENT 8 14 77 41 45 52
REMARK Flexibility Score: inf
ROOT
ATOM      1  C   UNL A   1      33.174  34.535  28.789  1.00  0.00     0.274 C 
ENDROOT
BRANCH   1   2
ATOM      2  O   UNL A   1      34.271  34.497  29.718  1.00  0.00    -0.462 OA
BRANCH   2   3
ATOM      3  C   UNL A   1      33.998  34.363  31.038  1.00  0.00     0.309 C 
ATOM      4  O   UNL A   1      33.268  35.107  31.678  1.00  0.00    -0.252 OA
BRANCH   3   5
ATOM      5  C   UNL A   1      34.738  33.179  31.659  1.00  0.00     0.099 C 
ATOM      6  C   UNL A   1      37.226  33.820  33.237  1.00  0.00     0.082 C 
ATOM      7  C   UNL A   1      35.815  34.090  33.805  1.00  0.00     0.026 C 
ATOM      8  C   UNL A   1      37.160  33.964  31.726  1.00  0.00     0.026 C 
ATOM      9  C   UNL A   1      34.722  33.211  33.188  1.00  0.00     0.017 C 
ATOM     10  C   UNL A   1      36.156  32.984  31.130  1.00  0.00     0.017 C 
BRANCH   6  11
ATOM     11  N   UNL A   1      38.186  34.716  33.884  1.00  0.00    -0.353 N 
ATOM     12  C   UNL A   1      39.541  34.743  33.960  1.00  0.00     0.220 C 
ATOM     13  O   UNL A   1      40.038  35.489  34.811  1.00  0.00    -0.275 OA
ATOM     14  H   UNL A   1      37.757  35.460  34.367  1.00  0.00     0.163 HD
BRANCH  12  15
ATOM     15  C   UNL A   1      40.439  33.953  33.028  1.00  0.00     0.102 C 
BRANCH  15  16
ATOM     16  C   UNL A   1      41.507  34.784  32.315  1.00  0.00     0.038 C 
BRANCH  16  17
ATOM     17  C   UNL A   1      41.833  34.404  30.868  1.00  0.00     0.160 C 
BRANCH  17  18
ATOM     18  O   UNL A   1      40.679  33.899  30.203  1.00  0.00    -0.385 OA
ATOM     19  C   UNL A   1      39.978  34.842  29.403  1.00  0.00     0.194 C 
ENDBRANCH  17  18
ENDBRANCH  16  17
ENDBRANCH  15  16
ENDBRANCH  12  15
ENDBRANCH   6  11
ENDBRANCH   3   5
ENDBRANCH   2   3
ENDBRANCH   1   2
BRANCH   1  20
ATOM     20  C   UNL A   1      33.289  33.366  27.810  1.00  0.00     0.275 C 
BRANCH  20  21
ATOM     21  O   UNL A   1      34.476  32.603  28.090  1.00  0.00    -0.458 OA
BRANCH  21  22
ATOM     22  C   UNL A   1      34.448  31.307  27.710  1.00  0.00     0.338 C 
ATOM     23  O   UNL A   1      33.617  30.762  26.994  1.00  0.00    -0.246 OA
BRANCH  22  24
ATOM     24  C   UNL A   1      35.671  30.647  28.189  1.00  0.00     0.060 A 
ATOM     25  C   UNL A   1      35.586  29.778  29.281  1.00  0.00     0.016 A 
ATOM     26  C   UNL A   1      36.903  30.912  27.590  1.00  0.00     0.016 A 
ATOM     27  C   UNL A   1      36.734  29.173  29.784  1.00  0.00     0.010 A 
ATOM     28  C   UNL A   1      38.055  30.299  28.091  1.00  0.00     0.010 A 
ATOM     29  C   UNL A   1      37.978  29.432  29.196  1.00  0.00    -0.014 A 
BRANCH  29  30
ATOM     30  C   UNL A   1      39.210  28.838  29.771  1.00  0.00     0.031 A 
ATOM     31  C   UNL A   1      39.783  29.403  31.038  1.00  0.00     0.074 A 
ATOM     32  C   UNL A   1      39.803  27.796  29.159  1.00  0.00     0.049 A 
ATOM     33  N   UNL A   1      40.899  29.104  31.650  1.00  0.00    -0.248 NA
ATOM     34  C   UNL A   1      38.991  30.450  31.701  1.00  0.00     0.031 C 
ATOM     35  C   UNL A   1      39.307  27.137  27.950  1.00  0.00     0.029 A 
ATOM     36  N   UNL A   1      40.955  27.117  29.462  1.00  0.00    -0.354 N 
ATOM     37  C   UNL A   1      40.956  29.937  32.762  1.00  0.00     0.074 A 
ATOM     38  C   UNL A   1      39.772  30.771  32.722  1.00  0.00     0.031 C 
ATOM     39  C   UNL A   1      40.153  26.150  27.612  1.00  0.00     0.029 A 
ATOM     40  C   UNL A   1      41.276  26.142  28.545  1.00  0.00     0.049 A 
ATOM     41  H   UNL A   1      41.499  27.307  30.260  1.00  0.00     0.167 HD
ATOM     42  C   UNL A   1      41.909  29.995  33.727  1.00  0.00     0.034 A 
ATOM     43  C   UNL A   1      42.371  25.360  28.449  1.00  0.00     0.034 A 
ATOM     44  C   UNL A   1      43.084  29.156  33.742  1.00  0.00     0.049 A 
ATOM     45  C   UNL A   1      43.455  25.499  29.488  1.00  0.00     0.074 A 
ATOM     46  C   UNL A   1      44.110  29.125  34.671  1.00  0.00     0.029 A 
ATOM     47  N   UNL A   1      43.396  28.206  32.777  1.00  0.00    -0.354 N 
ATOM     48  N   UNL A   1      43.506  26.299  30.528  1.00  0.00    -0.248 NA
ATOM     49  C   UNL A   1      44.627  24.626  29.343  1.00  0.00     0.031 C 
ATOM     50  C   UNL A   1      45.071  28.207  34.233  1.00  0.00     0.029 A 
ATOM     51  C   UNL A   1      44.612  27.606  33.073  1.00  0.00     0.049 A 
ATOM     52  H   UNL A   1      42.835  27.989  31.998  1.00  0.00     0.167 HD
ATOM     53  C   UNL A   1      44.704  26.005  31.175  1.00  0.00     0.074 A 
ATOM     54  C   UNL A   1      45.335  24.946  30.415  1.00  0.00     0.031 C 
ATOM     55  C   UNL A   1      45.233  26.558  32.297  1.00  0.00     0.034 A 
BRANCH  42  56
ATOM     56  C   UNL A   1      41.742  31.042  34.802  1.00  0.00     0.023 A 
ATOM     57  C   UNL A   1      40.627  31.057  35.658  1.00  0.00     0.031 A 
ATOM     58  C   UNL A   1      42.699  32.062  34.950  1.00  0.00     0.131 A 
ATOM     59  C   UNL A   1      40.460  32.111  36.571  1.00  0.00     0.055 A 
ATOM     60  C   UNL A   1      42.567  33.063  35.915  1.00  0.00     0.041 A 
ATOM     61  F   UNL A   1      43.773  32.114  34.146  1.00  0.00    -0.206 F 
ATOM     62  C   UNL A   1      41.435  33.100  36.722  1.00  0.00     0.022 A 
BRANCH  59  63
ATOM     63  S   UNL A   1      38.884  32.249  37.457  1.00  0.00     0.124 S 
ATOM     64  O   UNL A   1      38.263  33.385  36.778  1.00  0.00    -0.237 OA
ATOM     65  O   UNL A   1      38.272  30.948  37.217  1.00  0.00    -0.237 OA
ATOM     66  O   UNL A   1      39.288  32.504  38.839  1.00  0.00    -0.744 OA
ENDBRANCH  59  63
ENDBRANCH  42  56
BRANCH  43  67
ATOM     67  C   UNL A   1      42.525  24.417  27.305  1.00  0.00     0.023 A 
ATOM     68  C   UNL A   1      41.982  23.123  27.350  1.00  0.00     0.031 A 
ATOM     69  C   UNL A   1      43.262  24.782  26.164  1.00  0.00     0.131 A 
ATOM     70  C   UNL A   1      42.218  22.229  26.294  1.00  0.00     0.055 A 
ATOM     71  C   UNL A   1      43.448  23.907  25.093  1.00  0.00     0.041 A 
ATOM     72  F   UNL A   1      43.805  26.007  26.069  1.00  0.00    -0.206 F 
ATOM     73  C   UNL A   1      42.934  22.616  25.160  1.00  0.00     0.022 A 
BRANCH  70  74
ATOM     74  S   UNL A   1      41.644  20.516  26.462  1.00  0.00     0.124 S 
ATOM     75  O   UNL A   1      42.426  19.838  25.436  1.00  0.00    -0.237 OA
ATOM     76  O   UNL A   1      41.998  20.212  27.845  1.00  0.00    -0.237 OA
ATOM     77  O   UNL A   1      40.210  20.610  26.195  1.00  0.00    -0.744 OA
ENDBRANCH  70  74
ENDBRANCH  43  67
BRANCH  55  78
ATOM     78  C   UNL A   1      46.538  25.983  32.792  1.00  0.00     0.023 A 
ATOM     79  C   UNL A   1      47.779  26.458  32.332  1.00  0.00     0.031 A 
ATOM     80  C   UNL A   1      46.537  24.934  33.728  1.00  0.00     0.131 A 
ATOM     81  C   UNL A   1      48.965  25.848  32.769  1.00  0.00     0.055 A 
ATOM     82  C   UNL A   1      47.721  24.371  34.203  1.00  0.00     0.041 A 
ATOM     83  F   UNL A   1      45.380  24.440  34.198  1.00  0.00    -0.206 F 
ATOM     84  C   UNL A   1      48.945  24.818  33.713  1.00  0.00     0.022 A 
BRANCH  81  85
ATOM     85  S   UNL A   1      50.536  26.356  32.017  1.00  0.00     0.124 S 
ATOM     86  O   UNL A   1      50.138  26.634  30.642  1.00  0.00    -0.237 OA
ATOM     87  O   UNL A   1      50.906  27.517  32.822  1.00  0.00    -0.237 OA
ATOM     88  O   UNL A   1      51.394  25.186  32.190  1.00  0.00    -0.744 OA
ENDBRANCH  81  85
ENDBRANCH  55  78
ENDBRANCH  29  30
ENDBRANCH  22  24
ENDBRANCH  21  22
ENDBRANCH  20  21
ENDBRANCH   1  20
TORSDOF 19
ENDMDL
