MODEL 1
REMARK VINA RESULT:     -11.5      0.000      0.000
REMARK SMILES CC(C)[C@@H]1CCCN1C(=O)N1CCO[C@H](CC(=O)OCCOC(=O)c2ccc(-c3c4nc(c(-c5cc(S(=O)(=O)[O-])ccc5F)c5ccc([nH]5)c(-c5cc(S(=O)(=O)[O-])ccc5F)c5nc(c(-c6cc(S(=O)(=O)[O-])ccc6F)c6ccc3[nH]6)C=C5)C=C4)cc2)C1
REMARK SMILES IDX 20 1 19 2 17 3 18 4 16 5 15 6 11 7 12 8 88 9 13 10 14 11
REMARK SMILES IDX 9 12 10 13 8 14 4 15 5 16 6 17 7 18 2 19 1 20 3 21 21 22
REMARK SMILES IDX 22 23 23 24 24 25 25 26 26 27 87 28 27 29 86 30 28 31 29 32
REMARK SMILES IDX 30 33 80 34 31 35 85 36 79 37 81 38 32 39 84 40 78 41 77 42
REMARK SMILES IDX 33 44 65 45 45 46 64 47 46 48 49 49 63 50 82 51 47 52 48 53
REMARK SMILES IDX 62 55 83 56 50 57 34 58 35 59 43 60 36 61 42 62 44 63 41 64
REMARK SMILES IDX 37 65 38 66 39 67 40 68 66 69 67 70 75 71 68 72 74 73 76 74
REMARK SMILES IDX 73 75 69 76 70 77 71 78 72 79 51 80 52 81 60 82 53 83 59 84
REMARK SMILES IDX 61 85 58 86 54 87 55 88 56 89 57 90
REMARK H PARENT 81 43 49 54
REMARK Flexibility Score: inf
ROOT
ATOM      1  C   UNL A   1      35.628  21.390  25.122  1.00  0.00     0.274 C 
ENDROOT
BRANCH   1   2
ATOM      2  O   UNL A   1      35.442  22.777  24.788  1.00  0.00    -0.462 OA
BRANCH   2   3
ATOM      3  C   UNL A   1      35.097  23.030  23.507  1.00  0.00     0.308 C 
ATOM      4  O   UNL A   1      35.873  22.959  22.557  1.00  0.00    -0.252 OA
BRANCH   3   5
ATOM      5  C   UNL A   1      33.733  23.625  23.337  1.00  0.00     0.156 C 
BRANCH   5   6
ATOM      6  C   UNL A   1      32.447  22.808  23.161  1.00  0.00     0.149 C 
ATOM      7  N   UNL A   1      31.469  23.565  25.254  1.00  0.00    -0.320 N 
ATOM      8  C   UNL A   1      31.224  22.205  25.702  1.00  0.00     0.150 C 
ATOM      9  C   UNL A   1      31.318  23.632  23.798  1.00  0.00     0.154 C 
ATOM     10  C   UNL A   1      32.169  21.214  25.008  1.00  0.00     0.182 C 
ATOM     11  O   UNL A   1      32.402  21.451  23.615  1.00  0.00    -0.374 OA
BRANCH   7  12
ATOM     12  C   UNL A   1      30.957  24.620  25.966  1.00  0.00     0.320 C 
ATOM     13  O   UNL A   1      29.999  24.455  26.722  1.00  0.00    -0.248 OA
BRANCH  12  14
ATOM     14  N   UNL A   1      31.469  25.875  25.689  1.00  0.00    -0.321 N 
ATOM     15  C   UNL A   1      30.853  27.145  25.237  1.00  0.00     0.089 C 
ATOM     16  C   UNL A   1      32.057  28.104  25.143  1.00  0.00     0.027 C 
ATOM     17  C   UNL A   1      32.965  27.630  26.254  1.00  0.00     0.024 C 
ATOM     18  C   UNL A   1      32.833  26.121  26.148  1.00  0.00     0.122 C 
BRANCH  15  19
ATOM     19  C   UNL A   1      30.091  27.231  23.887  1.00  0.00     0.005 C 
ATOM     20  C   UNL A   1      28.657  26.704  23.887  1.00  0.00     0.009 C 
ATOM     21  C   UNL A   1      30.209  28.626  23.293  1.00  0.00     0.009 C 
ENDBRANCH  15  19
ENDBRANCH  12  14
ENDBRANCH   7  12
ENDBRANCH   5   6
ENDBRANCH   3   5
ENDBRANCH   2   3
ENDBRANCH   1   2
BRANCH   1  22
ATOM     22  C   UNL A   1      37.098  20.979  25.074  1.00  0.00     0.275 C 
BRANCH  22  23
ATOM     23  O   UNL A   1      37.954  22.073  25.434  1.00  0.00    -0.458 OA
BRANCH  23  24
ATOM     24  C   UNL A   1      39.076  21.715  26.106  1.00  0.00     0.338 C 
ATOM     25  O   UNL A   1      39.636  20.635  26.088  1.00  0.00    -0.246 OA
BRANCH  24  26
ATOM     26  C   UNL A   1      39.641  22.914  26.736  1.00  0.00     0.060 A 
ATOM     27  C   UNL A   1      39.175  24.165  26.312  1.00  0.00     0.016 A 
ATOM     28  C   UNL A   1      40.632  22.808  27.708  1.00  0.00     0.016 A 
ATOM     29  C   UNL A   1      39.681  25.326  26.878  1.00  0.00     0.010 A 
ATOM     30  C   UNL A   1      41.165  23.973  28.252  1.00  0.00     0.010 A 
ATOM     31  C   UNL A   1      40.697  25.231  27.831  1.00  0.00    -0.014 A 
BRANCH  31  32
ATOM     32  C   UNL A   1      41.405  26.444  28.283  1.00  0.00     0.031 A 
ATOM     33  C   UNL A   1      40.610  27.487  29.005  1.00  0.00     0.074 A 
ATOM     34  C   UNL A   1      42.712  26.608  28.021  1.00  0.00     0.049 A 
ATOM     35  N   UNL A   1      40.908  28.729  29.263  1.00  0.00    -0.248 NA
ATOM     36  C   UNL A   1      39.283  27.065  29.482  1.00  0.00     0.031 C 
ATOM     37  C   UNL A   1      43.586  25.602  27.420  1.00  0.00     0.029 A 
ATOM     38  N   UNL A   1      43.522  27.696  28.207  1.00  0.00    -0.354 N 
ATOM     39  C   UNL A   1      39.790  29.254  29.901  1.00  0.00     0.074 A 
ATOM     40  C   UNL A   1      38.807  28.195  29.979  1.00  0.00     0.031 C 
ATOM     41  C   UNL A   1      44.811  26.130  27.262  1.00  0.00     0.029 A 
ATOM     42  C   UNL A   1      44.782  27.529  27.683  1.00  0.00     0.049 A 
ATOM     43  H   UNL A   1      43.233  28.514  28.670  1.00  0.00     0.167 HD
ATOM     44  C   UNL A   1      39.609  30.514  30.365  1.00  0.00     0.034 A 
ATOM     45  C   UNL A   1      45.770  28.429  27.510  1.00  0.00     0.034 A 
ATOM     46  C   UNL A   1      40.616  31.540  30.249  1.00  0.00     0.049 A 
ATOM     47  C   UNL A   1      45.512  29.856  27.930  1.00  0.00     0.074 A 
ATOM     48  C   UNL A   1      40.557  32.864  30.642  1.00  0.00     0.029 A 
ATOM     49  N   UNL A   1      41.872  31.347  29.685  1.00  0.00    -0.354 N 
ATOM     50  N   UNL A   1      44.431  30.376  28.470  1.00  0.00    -0.248 NA
ATOM     51  C   UNL A   1      46.596  30.819  27.706  1.00  0.00     0.031 C 
ATOM     52  C   UNL A   1      41.755  33.483  30.265  1.00  0.00     0.029 A 
ATOM     53  C   UNL A   1      42.590  32.530  29.700  1.00  0.00     0.049 A 
ATOM     54  H   UNL A   1      42.204  30.491  29.326  1.00  0.00     0.167 HD
ATOM     55  C   UNL A   1      44.718  31.721  28.679  1.00  0.00     0.074 A 
ATOM     56  C   UNL A   1      46.073  31.931  28.206  1.00  0.00     0.031 C 
ATOM     57  C   UNL A   1      43.943  32.696  29.218  1.00  0.00     0.034 A 
BRANCH  44  58
ATOM     58  C   UNL A   1      38.254  30.844  30.945  1.00  0.00     0.023 A 
ATOM     59  C   UNL A   1      37.241  31.438  30.170  1.00  0.00     0.031 A 
ATOM     60  C   UNL A   1      38.002  30.644  32.313  1.00  0.00     0.131 A 
ATOM     61  C   UNL A   1      36.065  31.892  30.786  1.00  0.00     0.055 A 
ATOM     62  C   UNL A   1      36.793  31.020  32.903  1.00  0.00     0.041 A 
ATOM     63  F   UNL A   1      38.940  30.107  33.110  1.00  0.00    -0.206 F 
ATOM     64  C   UNL A   1      35.824  31.666  32.143  1.00  0.00     0.022 A 
BRANCH  61  65
ATOM     65  S   UNL A   1      34.932  32.935  29.826  1.00  0.00     0.124 S 
ATOM     66  O   UNL A   1      34.343  31.963  28.907  1.00  0.00    -0.237 OA
ATOM     67  O   UNL A   1      34.043  33.466  30.852  1.00  0.00    -0.237 OA
ATOM     68  O   UNL A   1      35.818  33.915  29.199  1.00  0.00    -0.744 OA
ENDBRANCH  61  65
ENDBRANCH  44  58
BRANCH  45  69
ATOM     69  C   UNL A   1      47.051  28.035  26.859  1.00  0.00     0.023 A 
ATOM     70  C   UNL A   1      47.169  27.997  25.462  1.00  0.00     0.031 A 
ATOM     71  C   UNL A   1      48.173  27.666  27.625  1.00  0.00     0.131 A 
ATOM     72  C   UNL A   1      48.369  27.571  24.871  1.00  0.00     0.055 A 
ATOM     73  C   UNL A   1      49.380  27.289  27.033  1.00  0.00     0.041 A 
ATOM     74  F   UNL A   1      48.115  27.681  28.966  1.00  0.00    -0.206 F 
ATOM     75  C   UNL A   1      49.480  27.230  25.648  1.00  0.00     0.022 A 
BRANCH  72  76
ATOM     76  S   UNL A   1      48.438  27.401  23.067  1.00  0.00     0.124 S 
ATOM     77  O   UNL A   1      49.760  27.940  22.767  1.00  0.00    -0.237 OA
ATOM     78  O   UNL A   1      48.275  25.962  22.891  1.00  0.00    -0.237 OA
ATOM     79  O   UNL A   1      47.313  28.213  22.605  1.00  0.00    -0.744 OA
ENDBRANCH  72  76
ENDBRANCH  45  69
BRANCH  57  80
ATOM     80  C   UNL A   1      44.575  34.053  29.383  1.00  0.00     0.023 A 
ATOM     81  C   UNL A   1      44.571  35.002  28.348  1.00  0.00     0.031 A 
ATOM     82  C   UNL A   1      45.173  34.399  30.607  1.00  0.00     0.131 A 
ATOM     83  C   UNL A   1      45.191  36.244  28.545  1.00  0.00     0.055 A 
ATOM     84  C   UNL A   1      45.744  35.654  30.813  1.00  0.00     0.041 A 
ATOM     85  F   UNL A   1      45.200  33.525  31.625  1.00  0.00    -0.206 F 
ATOM     86  C   UNL A   1      45.762  36.582  29.776  1.00  0.00     0.022 A 
BRANCH  83  87
ATOM     87  S   UNL A   1      45.290  37.401  27.152  1.00  0.00     0.124 S 
ATOM     88  O   UNL A   1      45.995  36.608  26.150  1.00  0.00    -0.237 OA
ATOM     89  O   UNL A   1      43.885  37.678  26.872  1.00  0.00    -0.237 OA
ATOM     90  O   UNL A   1      46.045  38.529  27.695  1.00  0.00    -0.744 OA
ENDBRANCH  83  87
ENDBRANCH  57  80
ENDBRANCH  31  32
ENDBRANCH  24  26
ENDBRANCH  23  24
ENDBRANCH  22  23
ENDBRANCH   1  22
TORSDOF 18
ENDMDL
MODEL 2
REMARK VINA RESULT:     -11.4      1.489      1.753
REMARK SMILES CC(C)[C@@H]1CCCN1C(=O)N1CCO[C@H](CC(=O)OCCOC(=O)c2ccc(-c3c4nc(c(-c5cc(S(=O)(=O)[O-])ccc5F)c5ccc([nH]5)c(-c5cc(S(=O)(=O)[O-])ccc5F)c5nc(c(-c6cc(S(=O)(=O)[O-])ccc6F)c6ccc3[nH]6)C=C5)C=C4)cc2)C1
REMARK SMILES IDX 20 1 19 2 17 3 18 4 16 5 15 6 11 7 12 8 88 9 13 10 14 11
REMARK SMILES IDX 9 12 10 13 8 14 4 15 5 16 6 17 7 18 2 19 1 20 3 21 21 22
REMARK SMILES IDX 22 23 23 24 24 25 25 26 26 27 87 28 27 29 86 30 28 31 29 32
REMARK SMILES IDX 30 33 80 34 31 35 85 36 79 37 81 38 32 39 84 40 78 41 77 42
REMARK SMILES IDX 33 44 65 45 45 46 64 47 46 48 49 49 63 50 82 51 47 52 48 53
REMARK SMILES IDX 62 55 83 56 50 57 34 58 35 59 43 60 36 61 42 62 44 63 41 64
REMARK SMILES IDX 37 65 38 66 39 67 40 68 66 69 67 70 75 71 68 72 74 73 76 74
REMARK SMILES IDX 73 75 69 76 70 77 71 78 72 79 51 80 52 81 60 82 53 83 59 84
REMARK SMILES IDX 61 85 58 86 54 87 55 88 56 89 57 90
REMARK H PARENT 81 43 49 54
REMARK Flexibility Score: inf
ROOT
ATOM      1  C   UNL A   1      35.269  21.056  24.647  1.00  0.00     0.274 C 
ENDROOT
BRANCH   1   2
ATOM      2  O   UNL A   1      35.162  22.489  24.721  1.00  0.00    -0.462 OA
BRANCH   2   3
ATOM      3  C   UNL A   1      35.128  23.135  23.535  1.00  0.00     0.308 C 
ATOM      4  O   UNL A   1      36.065  23.171  22.741  1.00  0.00    -0.252 OA
BRANCH   3   5
ATOM      5  C   UNL A   1      33.925  24.005  23.337  1.00  0.00     0.156 C 
BRANCH   5   6
ATOM      6  C   UNL A   1      32.524  23.483  22.997  1.00  0.00     0.149 C 
ATOM      7  N   UNL A   1      31.522  24.311  25.052  1.00  0.00    -0.320 N 
ATOM      8  C   UNL A   1      30.968  23.009  25.378  1.00  0.00     0.150 C 
ATOM      9  C   UNL A   1      31.528  24.487  23.597  1.00  0.00     0.154 C 
ATOM     10  C   UNL A   1      31.755  21.883  24.694  1.00  0.00     0.182 C 
ATOM     11  O   UNL A   1      32.163  22.142  23.346  1.00  0.00    -0.374 OA
BRANCH   7  12
ATOM     12  C   UNL A   1      31.167  25.409  25.793  1.00  0.00     0.320 C 
ATOM     13  O   UNL A   1      30.158  25.385  26.500  1.00  0.00    -0.248 OA
BRANCH  12  14
ATOM     14  N   UNL A   1      31.905  26.565  25.603  1.00  0.00    -0.321 N 
ATOM     15  C   UNL A   1      31.533  27.962  25.275  1.00  0.00     0.089 C 
ATOM     16  C   UNL A   1      32.897  28.681  25.219  1.00  0.00     0.027 C 
ATOM     17  C   UNL A   1      33.717  27.952  26.257  1.00  0.00     0.024 C 
ATOM     18  C   UNL A   1      33.298  26.509  26.034  1.00  0.00     0.122 C 
BRANCH  15  19
ATOM     19  C   UNL A   1      30.779  28.305  23.963  1.00  0.00     0.005 C 
ATOM     20  C   UNL A   1      30.177  29.706  23.876  1.00  0.00     0.009 C 
ATOM     21  C   UNL A   1      31.623  27.947  22.749  1.00  0.00     0.009 C 
ENDBRANCH  15  19
ENDBRANCH  12  14
ENDBRANCH   7  12
ENDBRANCH   5   6
ENDBRANCH   3   5
ENDBRANCH   2   3
ENDBRANCH   1   2
BRANCH   1  22
ATOM     22  C   UNL A   1      36.673  20.565  25.000  1.00  0.00     0.275 C 
BRANCH  22  23
ATOM     23  O   UNL A   1      37.468  21.624  25.551  1.00  0.00    -0.458 OA
BRANCH  23  24
ATOM     24  C   UNL A   1      38.721  21.257  25.917  1.00  0.00     0.338 C 
ATOM     25  O   UNL A   1      39.286  20.207  25.672  1.00  0.00    -0.246 OA
BRANCH  24  26
ATOM     26  C   UNL A   1      39.388  22.420  26.515  1.00  0.00     0.060 A 
ATOM     27  C   UNL A   1      38.999  23.695  26.090  1.00  0.00     0.016 A 
ATOM     28  C   UNL A   1      40.398  22.253  27.459  1.00  0.00     0.016 A 
ATOM     29  C   UNL A   1      39.604  24.824  26.626  1.00  0.00     0.010 A 
ATOM     30  C   UNL A   1      41.029  23.383  27.972  1.00  0.00     0.010 A 
ATOM     31  C   UNL A   1      40.638  24.667  27.550  1.00  0.00    -0.014 A 
BRANCH  31  32
ATOM     32  C   UNL A   1      41.444  25.831  27.965  1.00  0.00     0.031 A 
ATOM     33  C   UNL A   1      40.768  26.891  28.778  1.00  0.00     0.074 A 
ATOM     34  C   UNL A   1      42.729  25.938  27.594  1.00  0.00     0.049 A 
ATOM     35  N   UNL A   1      41.150  28.110  29.037  1.00  0.00    -0.248 NA
ATOM     36  C   UNL A   1      39.468  26.522  29.360  1.00  0.00     0.031 C 
ATOM     37  C   UNL A   1      43.497  24.907  26.896  1.00  0.00     0.029 A 
ATOM     38  N   UNL A   1      43.608  26.979  27.733  1.00  0.00    -0.354 N 
ATOM     39  C   UNL A   1      40.119  28.672  29.783  1.00  0.00     0.074 A 
ATOM     40  C   UNL A   1      39.095  27.660  29.922  1.00  0.00     0.031 C 
ATOM     41  C   UNL A   1      44.728  25.379  26.643  1.00  0.00     0.029 A 
ATOM     42  C   UNL A   1      44.807  26.766  27.097  1.00  0.00     0.049 A 
ATOM     43  H   UNL A   1      43.402  27.798  28.238  1.00  0.00     0.167 HD
ATOM     44  C   UNL A   1      40.044  29.926  30.290  1.00  0.00     0.034 A 
ATOM     45  C   UNL A   1      45.821  27.621  26.859  1.00  0.00     0.034 A 
ATOM     46  C   UNL A   1      41.088  30.904  30.109  1.00  0.00     0.049 A 
ATOM     47  C   UNL A   1      45.674  29.047  27.333  1.00  0.00     0.074 A 
ATOM     48  C   UNL A   1      41.131  32.219  30.536  1.00  0.00     0.029 A 
ATOM     49  N   UNL A   1      42.280  30.665  29.432  1.00  0.00    -0.354 N 
ATOM     50  N   UNL A   1      44.672  29.604  27.977  1.00  0.00    -0.248 NA
ATOM     51  C   UNL A   1      46.782  29.962  27.036  1.00  0.00     0.031 C 
ATOM     52  C   UNL A   1      42.322  32.788  30.069  1.00  0.00     0.029 A 
ATOM     53  C   UNL A   1      43.056  31.811  29.412  1.00  0.00     0.049 A 
ATOM     54  H   UNL A   1      42.535  29.805  29.027  1.00  0.00     0.167 HD
ATOM     55  C   UNL A   1      45.043  30.927  28.190  1.00  0.00     0.074 A 
ATOM     56  C   UNL A   1      46.361  31.083  27.605  1.00  0.00     0.031 C 
ATOM     57  C   UNL A   1      44.368  31.924  28.817  1.00  0.00     0.034 A 
BRANCH  44  58
ATOM     58  C   UNL A   1      38.763  30.306  30.992  1.00  0.00     0.023 A 
ATOM     59  C   UNL A   1      37.690  30.903  30.307  1.00  0.00     0.031 A 
ATOM     60  C   UNL A   1      38.646  30.149  32.385  1.00  0.00     0.131 A 
ATOM     61  C   UNL A   1      36.593  31.404  31.025  1.00  0.00     0.055 A 
ATOM     62  C   UNL A   1      37.513  30.572  33.082  1.00  0.00     0.041 A 
ATOM     63  F   UNL A   1      39.648  29.611  33.099  1.00  0.00    -0.206 F 
ATOM     64  C   UNL A   1      36.486  31.221  32.405  1.00  0.00     0.022 A 
BRANCH  61  65
ATOM     65  S   UNL A   1      35.392  32.449  30.153  1.00  0.00     0.124 S 
ATOM     66  O   UNL A   1      36.213  33.601  29.788  1.00  0.00    -0.237 OA
ATOM     67  O   UNL A   1      34.967  31.592  29.052  1.00  0.00    -0.237 OA
ATOM     68  O   UNL A   1      34.372  32.716  31.165  1.00  0.00    -0.744 OA
ENDBRANCH  61  65
ENDBRANCH  44  58
BRANCH  45  69
ATOM     69  C   UNL A   1      47.019  27.182  26.090  1.00  0.00     0.023 A 
ATOM     70  C   UNL A   1      48.107  26.574  26.733  1.00  0.00     0.031 A 
ATOM     71  C   UNL A   1      47.106  27.386  24.700  1.00  0.00     0.131 A 
ATOM     72  C   UNL A   1      49.247  26.217  25.996  1.00  0.00     0.055 A 
ATOM     73  C   UNL A   1      48.223  26.986  23.963  1.00  0.00     0.041 A 
ATOM     74  F   UNL A   1      46.096  27.966  24.033  1.00  0.00    -0.206 F 
ATOM     75  C   UNL A   1      49.307  26.407  24.613  1.00  0.00     0.022 A 
BRANCH  72  76
ATOM     76  S   UNL A   1      50.687  25.563  26.884  1.00  0.00     0.124 S 
ATOM     77  O   UNL A   1      50.100  24.450  27.624  1.00  0.00    -0.237 OA
ATOM     78  O   UNL A   1      51.582  25.205  25.790  1.00  0.00    -0.237 OA
ATOM     79  O   UNL A   1      51.126  26.693  27.701  1.00  0.00    -0.744 OA
ENDBRANCH  72  76
ENDBRANCH  45  69
BRANCH  57  80
ATOM     80  C   UNL A   1      45.080  33.243  28.957  1.00  0.00     0.023 A 
ATOM     81  C   UNL A   1      44.877  34.294  28.048  1.00  0.00     0.031 A 
ATOM     82  C   UNL A   1      45.962  33.449  30.032  1.00  0.00     0.131 A 
ATOM     83  C   UNL A   1      45.581  35.496  28.210  1.00  0.00     0.055 A 
ATOM     84  C   UNL A   1      46.620  34.664  30.217  1.00  0.00     0.041 A 
ATOM     85  F   UNL A   1      46.187  32.474  30.927  1.00  0.00    -0.206 F 
ATOM     86  C   UNL A   1      46.437  35.693  29.298  1.00  0.00     0.022 A 
BRANCH  83  87
ATOM     87  S   UNL A   1      45.403  36.789  26.951  1.00  0.00     0.124 S 
ATOM     88  O   UNL A   1      46.417  36.401  25.975  1.00  0.00    -0.237 OA
ATOM     89  O   UNL A   1      44.016  36.627  26.527  1.00  0.00    -0.237 OA
ATOM     90  O   UNL A   1      45.685  38.022  27.682  1.00  0.00    -0.744 OA
ENDBRANCH  83  87
ENDBRANCH  57  80
ENDBRANCH  31  32
ENDBRANCH  24  26
ENDBRANCH  23  24
ENDBRANCH  22  23
ENDBRANCH   1  22
TORSDOF 18
ENDMDL
MODEL 3
REMARK VINA RESULT:     -11.3      4.925     10.073
REMARK SMILES CC(C)[C@@H]1CCCN1C(=O)N1CCO[C@H](CC(=O)OCCOC(=O)c2ccc(-c3c4nc(c(-c5cc(S(=O)(=O)[O-])ccc5F)c5ccc([nH]5)c(-c5cc(S(=O)(=O)[O-])ccc5F)c5nc(c(-c6cc(S(=O)(=O)[O-])ccc6F)c6ccc3[nH]6)C=C5)C=C4)cc2)C1
REMARK SMILES IDX 20 1 19 2 17 3 18 4 16 5 15 6 11 7 12 8 88 9 13 10 14 11
REMARK SMILES IDX 9 12 10 13 8 14 4 15 5 16 6 17 7 18 2 19 1 20 3 21 21 22
REMARK SMILES IDX 22 23 23 24 24 25 25 26 26 27 87 28 27 29 86 30 28 31 29 32
REMARK SMILES IDX 30 33 80 34 31 35 85 36 79 37 81 38 32 39 84 40 78 41 77 42
REMARK SMILES IDX 33 44 65 45 45 46 64 47 46 48 49 49 63 50 82 51 47 52 48 53
REMARK SMILES IDX 62 55 83 56 50 57 34 58 35 59 43 60 36 61 42 62 44 63 41 64
REMARK SMILES IDX 37 65 38 66 39 67 40 68 66 69 67 70 75 71 68 72 74 73 76 74
REMARK SMILES IDX 73 75 69 76 70 77 71 78 72 79 51 80 52 81 60 82 53 83 59 84
REMARK SMILES IDX 61 85 58 86 54 87 55 88 56 89 57 90
REMARK H PARENT 81 43 49 54
REMARK Flexibility Score: inf
ROOT
ATOM      1  C   UNL A   1      31.543  29.598  25.365  1.00  0.00     0.274 C 
ENDROOT
BRANCH   1   2
ATOM      2  O   UNL A   1      32.144  28.303  25.549  1.00  0.00    -0.462 OA
BRANCH   2   3
ATOM      3  C   UNL A   1      31.391  27.396  26.207  1.00  0.00     0.308 C 
ATOM      4  O   UNL A   1      31.106  27.470  27.400  1.00  0.00    -0.252 OA
BRANCH   3   5
ATOM      5  C   UNL A   1      31.095  26.152  25.427  1.00  0.00     0.156 C 
BRANCH   5   6
ATOM      6  C   UNL A   1      30.728  26.129  23.938  1.00  0.00     0.149 C 
ATOM      7  N   UNL A   1      32.079  24.166  23.453  1.00  0.00    -0.320 N 
ATOM      8  C   UNL A   1      32.773  24.837  22.368  1.00  0.00     0.150 C 
ATOM      9  C   UNL A   1      30.697  24.651  23.520  1.00  0.00     0.154 C 
ATOM     10  C   UNL A   1      32.736  26.361  22.543  1.00  0.00     0.182 C 
ATOM     11  O   UNL A   1      31.494  26.902  23.007  1.00  0.00    -0.374 OA
BRANCH   7  12
ATOM     12  C   UNL A   1      32.259  22.821  23.650  1.00  0.00     0.320 C 
ATOM     13  O   UNL A   1      31.870  22.010  22.807  1.00  0.00    -0.248 OA
BRANCH  12  14
ATOM     14  N   UNL A   1      32.761  22.424  24.877  1.00  0.00    -0.321 N 
ATOM     15  C   UNL A   1      34.125  22.101  25.358  1.00  0.00     0.089 C 
ATOM     16  C   UNL A   1      33.896  21.736  26.839  1.00  0.00     0.027 C 
ATOM     17  C   UNL A   1      32.745  22.628  27.242  1.00  0.00     0.024 C 
ATOM     18  C   UNL A   1      31.855  22.572  26.013  1.00  0.00     0.122 C 
BRANCH  15  19
ATOM     19  C   UNL A   1      34.948  20.949  24.722  1.00  0.00     0.005 C 
ATOM     20  C   UNL A   1      36.366  20.757  25.256  1.00  0.00     0.009 C 
ATOM     21  C   UNL A   1      34.142  19.659  24.707  1.00  0.00     0.009 C 
ENDBRANCH  15  19
ENDBRANCH  12  14
ENDBRANCH   7  12
ENDBRANCH   5   6
ENDBRANCH   3   5
ENDBRANCH   2   3
ENDBRANCH   1   2
BRANCH   1  22
ATOM     22  C   UNL A   1      31.881  30.555  26.507  1.00  0.00     0.275 C 
BRANCH  22  23
ATOM     23  O   UNL A   1      33.252  30.424  26.906  1.00  0.00    -0.458 OA
BRANCH  23  24
ATOM     24  C   UNL A   1      33.793  31.543  27.448  1.00  0.00     0.338 C 
ATOM     25  O   UNL A   1      33.243  32.611  27.641  1.00  0.00    -0.246 OA
BRANCH  24  26
ATOM     26  C   UNL A   1      35.130  31.212  27.956  1.00  0.00     0.060 A 
ATOM     27  C   UNL A   1      35.370  29.898  28.377  1.00  0.00     0.016 A 
ATOM     28  C   UNL A   1      36.121  32.187  28.040  1.00  0.00     0.016 A 
ATOM     29  C   UNL A   1      36.618  29.540  28.866  1.00  0.00     0.010 A 
ATOM     30  C   UNL A   1      37.362  31.837  28.562  1.00  0.00     0.010 A 
ATOM     31  C   UNL A   1      37.609  30.517  28.983  1.00  0.00    -0.014 A 
BRANCH  31  32
ATOM     32  C   UNL A   1      38.863  30.220  29.701  1.00  0.00     0.031 A 
ATOM     33  C   UNL A   1      39.799  29.227  29.086  1.00  0.00     0.074 A 
ATOM     34  C   UNL A   1      39.127  30.802  30.881  1.00  0.00     0.049 A 
ATOM     35  N   UNL A   1      40.808  28.595  29.617  1.00  0.00    -0.248 NA
ATOM     36  C   UNL A   1      39.541  28.891  27.676  1.00  0.00     0.031 C 
ATOM     37  C   UNL A   1      38.326  31.857  31.502  1.00  0.00     0.029 A 
ATOM     38  N   UNL A   1      40.134  30.568  31.779  1.00  0.00    -0.354 N 
ATOM     39  C   UNL A   1      41.287  27.754  28.619  1.00  0.00     0.074 A 
ATOM     40  C   UNL A   1      40.448  27.952  27.456  1.00  0.00     0.031 C 
ATOM     41  C   UNL A   1      38.861  32.162  32.696  1.00  0.00     0.029 A 
ATOM     42  C   UNL A   1      39.993  31.274  32.950  1.00  0.00     0.049 A 
ATOM     43  H   UNL A   1      40.885  29.957  31.604  1.00  0.00     0.167 HD
ATOM     44  C   UNL A   1      42.327  26.889  28.684  1.00  0.00     0.034 A 
ATOM     45  C   UNL A   1      40.667  31.162  34.111  1.00  0.00     0.034 A 
ATOM     46  C   UNL A   1      43.124  26.716  29.874  1.00  0.00     0.049 A 
ATOM     47  C   UNL A   1      41.751  30.116  34.205  1.00  0.00     0.074 A 
ATOM     48  C   UNL A   1      44.183  25.856  30.094  1.00  0.00     0.029 A 
ATOM     49  N   UNL A   1      42.935  27.427  31.056  1.00  0.00    -0.354 N 
ATOM     50  N   UNL A   1      42.163  29.268  33.287  1.00  0.00    -0.248 NA
ATOM     51  C   UNL A   1      42.451  29.999  35.489  1.00  0.00     0.031 C 
ATOM     52  C   UNL A   1      44.597  26.005  31.424  1.00  0.00     0.029 A 
ATOM     53  C   UNL A   1      43.843  27.010  32.014  1.00  0.00     0.049 A 
ATOM     54  H   UNL A   1      42.254  28.125  31.191  1.00  0.00     0.167 HD
ATOM     55  C   UNL A   1      43.191  28.538  33.875  1.00  0.00     0.074 A 
ATOM     56  C   UNL A   1      43.335  29.046  35.226  1.00  0.00     0.031 C 
ATOM     57  C   UNL A   1      43.954  27.545  33.351  1.00  0.00     0.034 A 
BRANCH  44  58
ATOM     58  C   UNL A   1      42.580  26.026  27.472  1.00  0.00     0.023 A 
ATOM     59  C   UNL A   1      42.019  24.743  27.345  1.00  0.00     0.031 A 
ATOM     60  C   UNL A   1      43.466  26.457  26.469  1.00  0.00     0.131 A 
ATOM     61  C   UNL A   1      42.420  23.905  26.293  1.00  0.00     0.055 A 
ATOM     62  C   UNL A   1      43.794  25.650  25.377  1.00  0.00     0.041 A 
ATOM     63  F   UNL A   1      44.055  27.662  26.547  1.00  0.00    -0.206 F 
ATOM     64  C   UNL A   1      43.286  24.358  25.295  1.00  0.00     0.022 A 
BRANCH  61  65
ATOM     65  S   UNL A   1      41.931  22.158  26.344  1.00  0.00     0.124 S 
ATOM     66  O   UNL A   1      42.362  21.769  27.684  1.00  0.00    -0.237 OA
ATOM     67  O   UNL A   1      40.490  22.227  26.131  1.00  0.00    -0.237 OA
ATOM     68  O   UNL A   1      42.694  21.556  25.252  1.00  0.00    -0.744 OA
ENDBRANCH  61  65
ENDBRANCH  44  58
BRANCH  45  69
ATOM     69  C   UNL A   1      40.302  32.003  35.285  1.00  0.00     0.023 A 
ATOM     70  C   UNL A   1      39.300  31.598  36.179  1.00  0.00     0.031 A 
ATOM     71  C   UNL A   1      40.933  33.239  35.520  1.00  0.00     0.131 A 
ATOM     72  C   UNL A   1      38.935  32.432  37.248  1.00  0.00     0.055 A 
ATOM     73  C   UNL A   1      40.601  34.043  36.612  1.00  0.00     0.041 A 
ATOM     74  F   UNL A   1      41.897  33.677  34.695  1.00  0.00    -0.206 F 
ATOM     75  C   UNL A   1      39.589  33.645  37.478  1.00  0.00     0.022 A 
BRANCH  72  76
ATOM     76  S   UNL A   1      37.542  31.939  38.299  1.00  0.00     0.124 S 
ATOM     77  O   UNL A   1      37.297  30.572  37.849  1.00  0.00    -0.237 OA
ATOM     78  O   UNL A   1      38.105  32.083  39.637  1.00  0.00    -0.237 OA
ATOM     79  O   UNL A   1      36.499  32.905  37.958  1.00  0.00    -0.744 OA
ENDBRANCH  72  76
ENDBRANCH  45  69
BRANCH  57  80
ATOM     80  C   UNL A   1      45.053  27.001  34.225  1.00  0.00     0.023 A 
ATOM     81  C   UNL A   1      44.876  25.846  35.005  1.00  0.00     0.031 A 
ATOM     82  C   UNL A   1      46.301  27.646  34.259  1.00  0.00     0.131 A 
ATOM     83  C   UNL A   1      45.924  25.392  35.818  1.00  0.00     0.055 A 
ATOM     84  C   UNL A   1      47.356  27.161  35.031  1.00  0.00     0.041 A 
ATOM     85  F   UNL A   1      46.518  28.753  33.530  1.00  0.00    -0.206 F 
ATOM     86  C   UNL A   1      47.168  26.032  35.822  1.00  0.00     0.022 A 
BRANCH  83  87
ATOM     87  S   UNL A   1      45.629  23.979  36.915  1.00  0.00     0.124 S 
ATOM     88  O   UNL A   1      46.988  23.543  37.220  1.00  0.00    -0.237 OA
ATOM     89  O   UNL A   1      44.891  24.585  38.018  1.00  0.00    -0.237 OA
ATOM     90  O   UNL A   1      44.853  23.058  36.087  1.00  0.00    -0.744 OA
ENDBRANCH  83  87
ENDBRANCH  57  80
ENDBRANCH  31  32
ENDBRANCH  24  26
ENDBRANCH  23  24
ENDBRANCH  22  23
ENDBRANCH   1  22
TORSDOF 18
ENDMDL
