MODEL 1
REMARK VINA RESULT:      -9.3      0.000      0.000
REMARK SMILES COC(=O)c1ccc(C[N@@H+](CC(=O)OCCOC(=O)c2ccc(-c3c4nc(c(-c5cc(S(=O)(=O)[O-])ccc5F)c5ccc([nH]5)c(-c5cc(S(=O)(=O)[O-])ccc5F)c5nc(c(-c6cc(S(=O)(=O)[O-])ccc6F)c6ccc3[nH]6)C=C5)C=C4)cc2)C(C)(C)C)cc1
REMARK SMILES IDX 15 1 14 2 12 3 13 4 11 5 10 6 9 8 8 9 5 10 6 11 88 12 7 13
REMARK SMILES IDX 87 14 3 15 4 16 2 17 1 18 83 19 84 20 85 21 86 22 16 23
REMARK SMILES IDX 17 24 18 25 19 26 20 27 21 28 82 29 22 30 81 31 23 32 24 33
REMARK SMILES IDX 25 34 75 35 26 36 80 37 74 38 76 39 27 40 79 41 73 42 72 43
REMARK SMILES IDX 28 45 60 46 40 47 59 48 41 49 44 50 58 51 77 52 42 53 43 54
REMARK SMILES IDX 57 56 78 57 45 58 29 59 30 60 38 61 31 62 37 63 39 64 36 65
REMARK SMILES IDX 32 66 33 67 34 68 35 69 61 70 62 71 70 72 63 73 69 74 71 75
REMARK SMILES IDX 68 76 64 77 65 78 66 79 67 80 46 81 47 82 55 83 48 84 54 85
REMARK SMILES IDX 56 86 53 87 49 88 50 89 51 90 52 91
REMARK H PARENT 10 7 76 44 44 55
REMARK Flexibility Score: inf
ROOT
ATOM      1  C   UNL A   1      32.397  30.469  26.437  1.00  0.00     0.274 C 
ENDROOT
BRANCH   1   2
ATOM      2  O   UNL A   1      32.914  29.141  26.151  1.00  0.00    -0.458 OA
BRANCH   2   3
ATOM      3  C   UNL A   1      32.016  28.199  25.757  1.00  0.00     0.361 C 
ATOM      4  O   UNL A   1      31.129  28.433  24.935  1.00  0.00    -0.245 OA
BRANCH   3   5
ATOM      5  C   UNL A   1      32.136  26.802  26.396  1.00  0.00     0.387 C 
BRANCH   5   6
ATOM      6  N   UNL A   1      32.175  25.566  25.569  1.00  0.00    -0.318 N 
ATOM      7  H   UNL A   1      32.364  24.793  26.207  1.00  0.00     0.349 HD
BRANCH   6   8
ATOM      8  C   UNL A   1      33.321  25.592  24.656  1.00  0.00     0.299 C 
BRANCH   8   9
ATOM      9  C   UNL A   1      34.262  24.420  24.758  1.00  0.00     0.006 A 
ATOM     10  C   UNL A   1      36.242  22.466  25.015  1.00  0.00     0.060 A 
ATOM     11  C   UNL A   1      35.868  22.915  23.744  1.00  0.00     0.016 A 
ATOM     12  C   UNL A   1      35.594  22.959  26.154  1.00  0.00     0.016 A 
ATOM     13  C   UNL A   1      34.860  23.871  23.614  1.00  0.00     0.010 A 
ATOM     14  C   UNL A   1      34.606  23.930  26.024  1.00  0.00     0.010 A 
BRANCH  10  15
ATOM     15  C   UNL A   1      37.369  21.505  25.123  1.00  0.00     0.337 C 
ATOM     16  O   UNL A   1      38.528  21.824  25.283  1.00  0.00    -0.246 OA
BRANCH  15  17
ATOM     17  O   UNL A   1      36.894  20.239  24.972  1.00  0.00    -0.465 OA
ATOM     18  C   UNL A   1      37.908  19.240  24.912  1.00  0.00     0.282 C 
ENDBRANCH  15  17
ENDBRANCH  10  15
ENDBRANCH   8   9
ENDBRANCH   6   8
BRANCH   6  19
ATOM     19  C   UNL A   1      30.895  24.880  25.186  1.00  0.00     0.090 C 
ATOM     20  C   UNL A   1      30.609  24.816  23.661  1.00  0.00     0.078 C 
ATOM     21  C   UNL A   1      30.896  23.398  25.665  1.00  0.00     0.078 C 
ATOM     22  C   UNL A   1      29.655  25.434  25.941  1.00  0.00     0.078 C 
ENDBRANCH   6  19
ENDBRANCH   5   6
ENDBRANCH   3   5
ENDBRANCH   2   3
ENDBRANCH   1   2
BRANCH   1  23
ATOM     23  C   UNL A   1      33.423  31.346  27.191  1.00  0.00     0.275 C 
BRANCH  23  24
ATOM     24  O   UNL A   1      32.902  32.648  27.567  1.00  0.00    -0.458 OA
BRANCH  24  25
ATOM     25  C   UNL A   1      33.817  33.357  28.252  1.00  0.00     0.338 C 
ATOM     26  O   UNL A   1      33.665  34.513  28.599  1.00  0.00    -0.246 OA
BRANCH  25  27
ATOM     27  C   UNL A   1      35.058  32.717  28.659  1.00  0.00     0.060 A 
ATOM     28  C   UNL A   1      34.924  31.745  29.655  1.00  0.00     0.016 A 
ATOM     29  C   UNL A   1      36.283  33.343  28.427  1.00  0.00     0.016 A 
ATOM     30  C   UNL A   1      36.008  31.437  30.463  1.00  0.00     0.010 A 
ATOM     31  C   UNL A   1      37.397  32.956  29.180  1.00  0.00     0.010 A 
ATOM     32  C   UNL A   1      37.267  32.000  30.202  1.00  0.00    -0.014 A 
BRANCH  32  33
ATOM     33  C   UNL A   1      38.449  31.462  30.917  1.00  0.00     0.031 A 
ATOM     34  C   UNL A   1      39.353  30.430  30.308  1.00  0.00     0.074 A 
ATOM     35  C   UNL A   1      38.687  31.947  32.151  1.00  0.00     0.049 A 
ATOM     36  N   UNL A   1      40.344  29.780  30.861  1.00  0.00    -0.248 NA
ATOM     37  C   UNL A   1      39.111  30.075  28.903  1.00  0.00     0.031 C 
ATOM     38  C   UNL A   1      37.879  32.977  32.816  1.00  0.00     0.029 A 
ATOM     39  N   UNL A   1      39.664  31.657  33.065  1.00  0.00    -0.354 N 
ATOM     40  C   UNL A   1      40.835  28.919  29.885  1.00  0.00     0.074 A 
ATOM     41  C   UNL A   1      40.017  29.125  28.705  1.00  0.00     0.031 C 
ATOM     42  C   UNL A   1      38.413  33.257  34.009  1.00  0.00     0.029 A 
ATOM     43  C   UNL A   1      39.529  32.355  34.243  1.00  0.00     0.049 A 
ATOM     44  H   UNL A   1      40.390  31.014  32.897  1.00  0.00     0.167 HD
ATOM     45  C   UNL A   1      41.867  28.042  29.981  1.00  0.00     0.034 A 
ATOM     46  C   UNL A   1      40.190  32.245  35.408  1.00  0.00     0.034 A 
ATOM     47  C   UNL A   1      42.658  27.865  31.182  1.00  0.00     0.049 A 
ATOM     48  C   UNL A   1      41.292  31.232  35.501  1.00  0.00     0.074 A 
ATOM     49  C   UNL A   1      43.712  26.996  31.405  1.00  0.00     0.029 A 
ATOM     50  N   UNL A   1      42.479  28.575  32.366  1.00  0.00    -0.354 N 
ATOM     51  N   UNL A   1      41.712  30.387  34.587  1.00  0.00    -0.248 NA
ATOM     52  C   UNL A   1      42.011  31.158  36.775  1.00  0.00     0.031 C 
ATOM     53  C   UNL A   1      44.128  27.135  32.735  1.00  0.00     0.029 A 
ATOM     54  C   UNL A   1      43.390  28.149  33.323  1.00  0.00     0.049 A 
ATOM     55  H   UNL A   1      41.805  29.279  32.505  1.00  0.00     0.167 HD
ATOM     56  C   UNL A   1      42.761  29.692  35.173  1.00  0.00     0.074 A 
ATOM     57  C   UNL A   1      42.924  30.237  36.507  1.00  0.00     0.031 C 
ATOM     58  C   UNL A   1      43.523  28.695  34.656  1.00  0.00     0.034 A 
BRANCH  45  59
ATOM     59  C   UNL A   1      42.160  27.164  28.784  1.00  0.00     0.023 A 
ATOM     60  C   UNL A   1      41.542  25.913  28.605  1.00  0.00     0.031 A 
ATOM     61  C   UNL A   1      43.077  27.586  27.804  1.00  0.00     0.131 A 
ATOM     62  C   UNL A   1      41.894  25.107  27.508  1.00  0.00     0.055 A 
ATOM     63  C   UNL A   1      43.366  26.813  26.677  1.00  0.00     0.041 A 
ATOM     64  F   UNL A   1      43.715  28.760  27.927  1.00  0.00    -0.206 F 
ATOM     65  C   UNL A   1      42.782  25.559  26.530  1.00  0.00     0.022 A 
BRANCH  62  66
ATOM     66  S   UNL A   1      41.268  23.405  27.442  1.00  0.00     0.124 S 
ATOM     67  O   UNL A   1      41.770  22.958  26.145  1.00  0.00    -0.237 OA
ATOM     68  O   UNL A   1      41.887  22.795  28.613  1.00  0.00    -0.237 OA
ATOM     69  O   UNL A   1      39.817  23.570  27.518  1.00  0.00    -0.744 OA
ENDBRANCH  62  66
ENDBRANCH  45  59
BRANCH  46  70
ATOM     70  C   UNL A   1      39.778  33.071  36.576  1.00  0.00     0.023 A 
ATOM     71  C   UNL A   1      38.918  32.561  37.558  1.00  0.00     0.031 A 
ATOM     72  C   UNL A   1      40.244  34.391  36.727  1.00  0.00     0.131 A 
ATOM     73  C   UNL A   1      38.519  33.379  38.627  1.00  0.00     0.055 A 
ATOM     74  C   UNL A   1      39.896  35.178  37.823  1.00  0.00     0.041 A 
ATOM     75  F   UNL A   1      41.077  34.927  35.819  1.00  0.00    -0.206 F 
ATOM     76  C   UNL A   1      39.015  34.675  38.776  1.00  0.00     0.022 A 
BRANCH  73  77
ATOM     77  S   UNL A   1      37.266  32.749  39.775  1.00  0.00     0.124 S 
ATOM     78  O   UNL A   1      37.262  33.780  40.807  1.00  0.00    -0.237 OA
ATOM     79  O   UNL A   1      36.081  32.686  38.925  1.00  0.00    -0.237 OA
ATOM     80  O   UNL A   1      37.805  31.454  40.187  1.00  0.00    -0.744 OA
ENDBRANCH  73  77
ENDBRANCH  46  70
BRANCH  58  81
ATOM     81  C   UNL A   1      44.629  28.175  35.540  1.00  0.00     0.023 A 
ATOM     82  C   UNL A   1      45.923  28.722  35.503  1.00  0.00     0.031 A 
ATOM     83  C   UNL A   1      44.394  27.081  36.392  1.00  0.00     0.131 A 
ATOM     84  C   UNL A   1      46.952  28.128  36.247  1.00  0.00     0.055 A 
ATOM     85  C   UNL A   1      45.406  26.537  37.180  1.00  0.00     0.041 A 
ATOM     86  F   UNL A   1      43.178  26.518  36.461  1.00  0.00    -0.206 F 
ATOM     87  C   UNL A   1      46.698  27.049  37.098  1.00  0.00     0.022 A 
BRANCH  84  88
ATOM     88  S   UNL A   1      48.651  28.710  35.998  1.00  0.00     0.124 S 
ATOM     89  O   UNL A   1      48.437  30.041  35.436  1.00  0.00    -0.237 OA
ATOM     90  O   UNL A   1      49.197  28.669  37.351  1.00  0.00    -0.237 OA
ATOM     91  O   UNL A   1      49.218  27.730  35.072  1.00  0.00    -0.744 OA
ENDBRANCH  84  88
ENDBRANCH  58  81
ENDBRANCH  32  33
ENDBRANCH  25  27
ENDBRANCH  24  25
ENDBRANCH  23  24
ENDBRANCH   1  23
TORSDOF 20
ENDMDL
MODEL 2
REMARK VINA RESULT:      -9.3      1.722      2.082
REMARK SMILES COC(=O)c1ccc(C[N@@H+](CC(=O)OCCOC(=O)c2ccc(-c3c4nc(c(-c5cc(S(=O)(=O)[O-])ccc5F)c5ccc([nH]5)c(-c5cc(S(=O)(=O)[O-])ccc5F)c5nc(c(-c6cc(S(=O)(=O)[O-])ccc6F)c6ccc3[nH]6)C=C5)C=C4)cc2)C(C)(C)C)cc1
REMARK SMILES IDX 15 1 14 2 12 3 13 4 11 5 10 6 9 8 8 9 5 10 6 11 88 12 7 13
REMARK SMILES IDX 87 14 3 15 4 16 2 17 1 18 83 19 84 20 85 21 86 22 16 23
REMARK SMILES IDX 17 24 18 25 19 26 20 27 21 28 82 29 22 30 81 31 23 32 24 33
REMARK SMILES IDX 25 34 75 35 26 36 80 37 74 38 76 39 27 40 79 41 73 42 72 43
REMARK SMILES IDX 28 45 60 46 40 47 59 48 41 49 44 50 58 51 77 52 42 53 43 54
REMARK SMILES IDX 57 56 78 57 45 58 29 59 30 60 38 61 31 62 37 63 39 64 36 65
REMARK SMILES IDX 32 66 33 67 34 68 35 69 61 70 62 71 70 72 63 73 69 74 71 75
REMARK SMILES IDX 68 76 64 77 65 78 66 79 67 80 46 81 47 82 55 83 48 84 54 85
REMARK SMILES IDX 56 86 53 87 49 88 50 89 51 90 52 91
REMARK H PARENT 10 7 76 44 44 55
REMARK Flexibility Score: inf
ROOT
ATOM      1  C   UNL A   1      31.831  30.779  26.528  1.00  0.00     0.274 C 
ENDROOT
BRANCH   1   2
ATOM      2  O   UNL A   1      32.254  29.467  26.069  1.00  0.00    -0.458 OA
BRANCH   2   3
ATOM      3  C   UNL A   1      31.434  28.822  25.197  1.00  0.00     0.361 C 
ATOM      4  O   UNL A   1      30.566  29.409  24.546  1.00  0.00    -0.245 OA
BRANCH   3   5
ATOM      5  C   UNL A   1      31.616  27.300  25.053  1.00  0.00     0.387 C 
BRANCH   5   6
ATOM      6  N   UNL A   1      32.557  26.716  24.060  1.00  0.00    -0.318 N 
ATOM      7  H   UNL A   1      32.127  25.855  23.720  1.00  0.00     0.349 HD
BRANCH   6   8
ATOM      8  C   UNL A   1      33.797  26.287  24.712  1.00  0.00     0.299 C 
BRANCH   8   9
ATOM      9  C   UNL A   1      34.054  24.803  24.711  1.00  0.00     0.006 A 
ATOM     10  C   UNL A   1      34.815  22.119  24.860  1.00  0.00     0.060 A 
ATOM     11  C   UNL A   1      35.010  22.832  23.673  1.00  0.00     0.016 A 
ATOM     12  C   UNL A   1      34.197  22.732  25.956  1.00  0.00     0.016 A 
ATOM     13  C   UNL A   1      34.605  24.165  23.589  1.00  0.00     0.010 A 
ATOM     14  C   UNL A   1      33.816  24.068  25.880  1.00  0.00     0.010 A 
BRANCH  10  15
ATOM     15  C   UNL A   1      35.325  20.726  24.941  1.00  0.00     0.337 C 
ATOM     16  O   UNL A   1      36.478  20.432  25.170  1.00  0.00    -0.246 OA
BRANCH  15  17
ATOM     17  O   UNL A   1      34.309  19.861  24.677  1.00  0.00    -0.465 OA
ATOM     18  C   UNL A   1      34.693  18.489  24.695  1.00  0.00     0.282 C 
ENDBRANCH  15  17
ENDBRANCH  10  15
ENDBRANCH   8   9
ENDBRANCH   6   8
BRANCH   6  19
ATOM     19  C   UNL A   1      32.562  27.221  22.645  1.00  0.00     0.090 C 
ATOM     20  C   UNL A   1      33.085  26.214  21.584  1.00  0.00     0.078 C 
ATOM     21  C   UNL A   1      31.122  27.593  22.183  1.00  0.00     0.078 C 
ATOM     22  C   UNL A   1      33.285  28.588  22.488  1.00  0.00     0.078 C 
ENDBRANCH   6  19
ENDBRANCH   5   6
ENDBRANCH   3   5
ENDBRANCH   2   3
ENDBRANCH   1   2
BRANCH   1  23
ATOM     23  C   UNL A   1      32.983  31.565  27.194  1.00  0.00     0.275 C 
BRANCH  23  24
ATOM     24  O   UNL A   1      32.605  32.906  27.605  1.00  0.00    -0.458 OA
BRANCH  24  25
ATOM     25  C   UNL A   1      33.657  33.571  28.116  1.00  0.00     0.338 C 
ATOM     26  O   UNL A   1      33.657  34.763  28.361  1.00  0.00    -0.246 OA
BRANCH  25  27
ATOM     27  C   UNL A   1      34.869  32.841  28.451  1.00  0.00     0.060 A 
ATOM     28  C   UNL A   1      34.742  31.934  29.507  1.00  0.00     0.016 A 
ATOM     29  C   UNL A   1      36.118  33.343  28.081  1.00  0.00     0.016 A 
ATOM     30  C   UNL A   1      35.863  31.568  30.236  1.00  0.00     0.010 A 
ATOM     31  C   UNL A   1      37.257  32.892  28.756  1.00  0.00     0.010 A 
ATOM     32  C   UNL A   1      37.138  32.002  29.837  1.00  0.00    -0.014 A 
BRANCH  32  33
ATOM     33  C   UNL A   1      38.329  31.393  30.477  1.00  0.00     0.031 A 
ATOM     34  C   UNL A   1      39.158  30.345  29.795  1.00  0.00     0.074 A 
ATOM     35  C   UNL A   1      38.645  31.829  31.712  1.00  0.00     0.049 A 
ATOM     36  N   UNL A   1      40.146  29.638  30.280  1.00  0.00    -0.248 NA
ATOM     37  C   UNL A   1      38.835  30.044  28.394  1.00  0.00     0.031 C 
ATOM     38  C   UNL A   1      37.914  32.870  32.446  1.00  0.00     0.029 A 
ATOM     39  N   UNL A   1      39.651  31.471  32.568  1.00  0.00    -0.354 N 
ATOM     40  C   UNL A   1      40.553  28.789  29.256  1.00  0.00     0.074 A 
ATOM     41  C   UNL A   1      39.690  29.065  28.124  1.00  0.00     0.031 C 
ATOM     42  C   UNL A   1      38.516  33.090  33.619  1.00  0.00     0.029 A 
ATOM     43  C   UNL A   1      39.602  32.136  33.771  1.00  0.00     0.049 A 
ATOM     44  H   UNL A   1      40.341  30.804  32.347  1.00  0.00     0.167 HD
ATOM     45  C   UNL A   1      41.550  27.867  29.276  1.00  0.00     0.034 A 
ATOM     46  C   UNL A   1      40.312  31.963  34.900  1.00  0.00     0.034 A 
ATOM     47  C   UNL A   1      42.389  27.621  30.431  1.00  0.00     0.049 A 
ATOM     48  C   UNL A   1      41.374  30.903  34.909  1.00  0.00     0.074 A 
ATOM     49  C   UNL A   1      43.415  26.703  30.577  1.00  0.00     0.029 A 
ATOM     50  N   UNL A   1      42.297  28.299  31.643  1.00  0.00    -0.354 N 
ATOM     51  N   UNL A   1      41.713  30.071  33.951  1.00  0.00    -0.248 NA
ATOM     52  C   UNL A   1      42.148  30.760  36.144  1.00  0.00     0.031 C 
ATOM     53  C   UNL A   1      43.899  26.783  31.889  1.00  0.00     0.029 A 
ATOM     54  C   UNL A   1      43.234  27.807  32.542  1.00  0.00     0.049 A 
ATOM     55  H   UNL A   1      41.660  29.026  31.835  1.00  0.00     0.167 HD
ATOM     56  C   UNL A   1      42.759  29.316  34.464  1.00  0.00     0.074 A 
ATOM     57  C   UNL A   1      43.008  29.811  35.805  1.00  0.00     0.031 C 
ATOM     58  C   UNL A   1      43.453  28.304  33.882  1.00  0.00     0.034 A 
BRANCH  45  59
ATOM     59  C   UNL A   1      41.749  27.016  28.040  1.00  0.00     0.023 A 
ATOM     60  C   UNL A   1      41.283  25.691  27.962  1.00  0.00     0.031 A 
ATOM     61  C   UNL A   1      42.419  27.541  26.920  1.00  0.00     0.131 A 
ATOM     62  C   UNL A   1      41.546  24.921  26.816  1.00  0.00     0.055 A 
ATOM     63  C   UNL A   1      42.612  26.794  25.755  1.00  0.00     0.041 A 
ATOM     64  F   UNL A   1      42.905  28.791  26.939  1.00  0.00    -0.206 F 
ATOM     65  C   UNL A   1      42.185  25.471  25.703  1.00  0.00     0.022 A 
BRANCH  62  66
ATOM     66  S   UNL A   1      41.153  23.150  26.848  1.00  0.00     0.124 S 
ATOM     67  O   UNL A   1      39.694  23.172  26.778  1.00  0.00    -0.237 OA
ATOM     68  O   UNL A   1      41.844  22.652  25.664  1.00  0.00    -0.237 OA
ATOM     69  O   UNL A   1      41.702  22.699  28.126  1.00  0.00    -0.744 OA
ENDBRANCH  62  66
ENDBRANCH  45  59
BRANCH  46  70
ATOM     70  C   UNL A   1      39.992  32.767  36.110  1.00  0.00     0.023 A 
ATOM     71  C   UNL A   1      39.051  32.323  37.049  1.00  0.00     0.031 A 
ATOM     72  C   UNL A   1      40.628  34.001  36.346  1.00  0.00     0.131 A 
ATOM     73  C   UNL A   1      38.744  33.124  38.160  1.00  0.00     0.055 A 
ATOM     74  C   UNL A   1      40.367  34.763  37.484  1.00  0.00     0.041 A 
ATOM     75  F   UNL A   1      41.545  34.471  35.482  1.00  0.00    -0.206 F 
ATOM     76  C   UNL A   1      39.407  34.330  38.393  1.00  0.00     0.022 A 
BRANCH  73  77
ATOM     77  S   UNL A   1      37.395  32.604  39.252  1.00  0.00     0.124 S 
ATOM     78  O   UNL A   1      37.586  33.483  40.401  1.00  0.00    -0.237 OA
ATOM     79  O   UNL A   1      36.219  32.870  38.429  1.00  0.00    -0.237 OA
ATOM     80  O   UNL A   1      37.679  31.191  39.493  1.00  0.00    -0.744 OA
ENDBRANCH  73  77
ENDBRANCH  46  70
BRANCH  58  81
ATOM     81  C   UNL A   1      44.576  27.712  34.695  1.00  0.00     0.023 A 
ATOM     82  C   UNL A   1      44.338  26.752  35.694  1.00  0.00     0.031 A 
ATOM     83  C   UNL A   1      45.896  28.157  34.501  1.00  0.00     0.131 A 
ATOM     84  C   UNL A   1      45.393  26.322  36.511  1.00  0.00     0.055 A 
ATOM     85  C   UNL A   1      46.951  27.675  35.273  1.00  0.00     0.041 A 
ATOM     86  F   UNL A   1      46.176  29.077  33.565  1.00  0.00    -0.206 F 
ATOM     87  C   UNL A   1      46.701  26.765  36.297  1.00  0.00     0.022 A 
BRANCH  84  88
ATOM     88  S   UNL A   1      45.013  25.264  37.935  1.00  0.00     0.124 S 
ATOM     89  O   UNL A   1      43.717  24.705  37.560  1.00  0.00    -0.237 OA
ATOM     90  O   UNL A   1      46.133  24.329  37.937  1.00  0.00    -0.237 OA
ATOM     91  O   UNL A   1      44.983  26.199  39.059  1.00  0.00    -0.744 OA
ENDBRANCH  84  88
ENDBRANCH  58  81
ENDBRANCH  32  33
ENDBRANCH  25  27
ENDBRANCH  24  25
ENDBRANCH  23  24
ENDBRANCH   1  23
TORSDOF 20
ENDMDL
MODEL 3
REMARK VINA RESULT:      -9.3      8.149     13.751
REMARK SMILES COC(=O)c1ccc(C[N@@H+](CC(=O)OCCOC(=O)c2ccc(-c3c4nc(c(-c5cc(S(=O)(=O)[O-])ccc5F)c5ccc([nH]5)c(-c5cc(S(=O)(=O)[O-])ccc5F)c5nc(c(-c6cc(S(=O)(=O)[O-])ccc6F)c6ccc3[nH]6)C=C5)C=C4)cc2)C(C)(C)C)cc1
REMARK SMILES IDX 15 1 14 2 12 3 13 4 11 5 10 6 9 8 8 9 5 10 6 11 88 12 7 13
REMARK SMILES IDX 87 14 3 15 4 16 2 17 1 18 83 19 84 20 85 21 86 22 16 23
REMARK SMILES IDX 17 24 18 25 19 26 20 27 21 28 82 29 22 30 81 31 23 32 24 33
REMARK SMILES IDX 25 34 75 35 26 36 80 37 74 38 76 39 27 40 79 41 73 42 72 43
REMARK SMILES IDX 28 45 60 46 40 47 59 48 41 49 44 50 58 51 77 52 42 53 43 54
REMARK SMILES IDX 57 56 78 57 45 58 29 59 30 60 38 61 31 62 37 63 39 64 36 65
REMARK SMILES IDX 32 66 33 67 34 68 35 69 61 70 62 71 70 72 63 73 69 74 71 75
REMARK SMILES IDX 68 76 64 77 65 78 66 79 67 80 46 81 47 82 55 83 48 84 54 85
REMARK SMILES IDX 56 86 53 87 49 88 50 89 51 90 52 91
REMARK H PARENT 10 7 76 44 44 55
REMARK Flexibility Score: inf
ROOT
ATOM      1  C   UNL A   1      44.985  38.553  27.107  1.00  0.00     0.274 C 
ENDROOT
BRANCH   1   2
ATOM      2  O   UNL A   1      45.186  39.659  26.186  1.00  0.00    -0.458 OA
BRANCH   2   3
ATOM      3  C   UNL A   1      44.892  40.905  26.642  1.00  0.00     0.361 C 
ATOM      4  O   UNL A   1      43.735  41.290  26.822  1.00  0.00    -0.245 OA
BRANCH   3   5
ATOM      5  C   UNL A   1      46.076  41.851  26.919  1.00  0.00     0.387 C 
BRANCH   5   6
ATOM      6  N   UNL A   1      46.196  43.171  26.245  1.00  0.00    -0.318 N 
ATOM      7  H   UNL A   1      45.260  43.575  26.223  1.00  0.00     0.349 HD
BRANCH   6   8
ATOM      8  C   UNL A   1      46.566  43.000  24.836  1.00  0.00     0.299 C 
BRANCH   8   9
ATOM      9  C   UNL A   1      45.420  43.004  23.857  1.00  0.00     0.006 A 
ATOM     10  C   UNL A   1      43.409  43.305  21.942  1.00  0.00     0.060 A 
ATOM     11  C   UNL A   1      43.145  43.610  23.282  1.00  0.00     0.016 A 
ATOM     12  C   UNL A   1      44.661  42.804  21.568  1.00  0.00     0.016 A 
ATOM     13  C   UNL A   1      44.141  43.434  24.243  1.00  0.00     0.010 A 
ATOM     14  C   UNL A   1      45.661  42.652  22.523  1.00  0.00     0.010 A 
BRANCH  10  15
ATOM     15  C   UNL A   1      42.352  43.574  20.934  1.00  0.00     0.337 C 
ATOM     16  O   UNL A   1      41.162  43.488  21.151  1.00  0.00    -0.246 OA
BRANCH  15  17
ATOM     17  O   UNL A   1      42.935  43.885  19.745  1.00  0.00    -0.465 OA
ATOM     18  C   UNL A   1      42.304  43.290  18.615  1.00  0.00     0.282 C 
ENDBRANCH  15  17
ENDBRANCH  10  15
ENDBRANCH   8   9
ENDBRANCH   6   8
BRANCH   6  19
ATOM     19  C   UNL A   1      46.651  44.373  27.023  1.00  0.00     0.090 C 
ATOM     20  C   UNL A   1      47.449  45.426  26.208  1.00  0.00     0.078 C 
ATOM     21  C   UNL A   1      45.434  45.145  27.612  1.00  0.00     0.078 C 
ATOM     22  C   UNL A   1      47.422  44.002  28.321  1.00  0.00     0.078 C 
ENDBRANCH   6  19
ENDBRANCH   5   6
ENDBRANCH   3   5
ENDBRANCH   2   3
ENDBRANCH   1   2
BRANCH   1  23
ATOM     23  C   UNL A   1      45.948  38.616  28.315  1.00  0.00     0.275 C 
BRANCH  23  24
ATOM     24  O   UNL A   1      45.488  37.850  29.460  1.00  0.00    -0.458 OA
BRANCH  24  25
ATOM     25  C   UNL A   1      46.105  36.657  29.524  1.00  0.00     0.338 C 
ATOM     26  O   UNL A   1      47.290  36.512  29.756  1.00  0.00    -0.246 OA
BRANCH  25  27
ATOM     27  C   UNL A   1      45.326  35.440  29.355  1.00  0.00     0.060 A 
ATOM     28  C   UNL A   1      45.647  34.403  30.236  1.00  0.00     0.016 A 
ATOM     29  C   UNL A   1      44.678  35.181  28.147  1.00  0.00     0.016 A 
ATOM     30  C   UNL A   1      45.371  33.092  29.882  1.00  0.00     0.010 A 
ATOM     31  C   UNL A   1      44.312  33.866  27.841  1.00  0.00     0.010 A 
ATOM     32  C   UNL A   1      44.655  32.813  28.707  1.00  0.00    -0.014 A 
BRANCH  32  33
ATOM     33  C   UNL A   1      44.157  31.433  28.487  1.00  0.00     0.031 A 
ATOM     34  C   UNL A   1      44.934  30.415  27.706  1.00  0.00     0.074 A 
ATOM     35  C   UNL A   1      42.963  31.125  29.030  1.00  0.00     0.049 A 
ATOM     36  N   UNL A   1      44.567  29.218  27.328  1.00  0.00    -0.248 NA
ATOM     37  C   UNL A   1      46.291  30.788  27.286  1.00  0.00     0.031 C 
ATOM     38  C   UNL A   1      42.145  32.042  29.834  1.00  0.00     0.029 A 
ATOM     39  N   UNL A   1      42.227  29.971  29.002  1.00  0.00    -0.354 N 
ATOM     40  C   UNL A   1      45.634  28.695  26.606  1.00  0.00     0.074 A 
ATOM     41  C   UNL A   1      46.661  29.720  26.589  1.00  0.00     0.031 C 
ATOM     42  C   UNL A   1      41.047  31.406  30.251  1.00  0.00     0.029 A 
ATOM     43  C   UNL A   1      41.023  30.079  29.657  1.00  0.00     0.049 A 
ATOM     44  H   UNL A   1      42.529  29.146  28.558  1.00  0.00     0.167 HD
ATOM     45  C   UNL A   1      45.732  27.477  26.013  1.00  0.00     0.034 A 
ATOM     46  C   UNL A   1      39.982  29.231  29.728  1.00  0.00     0.034 A 
ATOM     47  C   UNL A   1      44.680  26.483  26.052  1.00  0.00     0.049 A 
ATOM     48  C   UNL A   1      40.098  27.913  29.022  1.00  0.00     0.074 A 
ATOM     49  C   UNL A   1      44.656  25.224  25.475  1.00  0.00     0.029 A 
ATOM     50  N   UNL A   1      43.462  26.635  26.708  1.00  0.00    -0.354 N 
ATOM     51  N   UNL A   1      41.093  27.453  28.298  1.00  0.00    -0.248 NA
ATOM     52  C   UNL A   1      38.959  27.000  29.143  1.00  0.00     0.031 C 
ATOM     53  C   UNL A   1      43.406  24.644  25.728  1.00  0.00     0.029 A 
ATOM     54  C   UNL A   1      42.677  25.503  26.532  1.00  0.00     0.049 A 
ATOM     55  H   UNL A   1      43.196  27.430  27.224  1.00  0.00     0.167 HD
ATOM     56  C   UNL A   1      40.705  26.183  27.892  1.00  0.00     0.074 A 
ATOM     57  C   UNL A   1      39.398  25.944  28.474  1.00  0.00     0.031 C 
ATOM     58  C   UNL A   1      41.367  25.293  27.109  1.00  0.00     0.034 A 
BRANCH  45  59
ATOM     59  C   UNL A   1      46.987  27.177  25.222  1.00  0.00     0.023 A 
ATOM     60  C   UNL A   1      47.226  27.739  23.956  1.00  0.00     0.031 A 
ATOM     61  C   UNL A   1      47.962  26.307  25.746  1.00  0.00     0.131 A 
ATOM     62  C   UNL A   1      48.377  27.381  23.234  1.00  0.00     0.055 A 
ATOM     63  C   UNL A   1      49.140  26.013  25.055  1.00  0.00     0.041 A 
ATOM     64  F   UNL A   1      47.784  25.721  26.940  1.00  0.00    -0.206 F 
ATOM     65  C   UNL A   1      49.347  26.542  23.785  1.00  0.00     0.022 A 
BRANCH  62  66
ATOM     66  S   UNL A   1      48.530  27.928  21.510  1.00  0.00     0.124 S 
ATOM     67  O   UNL A   1      47.505  28.966  21.439  1.00  0.00    -0.237 OA
ATOM     68  O   UNL A   1      49.913  28.387  21.446  1.00  0.00    -0.237 OA
ATOM     69  O   UNL A   1      48.238  26.720  20.740  1.00  0.00    -0.744 OA
ENDBRANCH  62  66
ENDBRANCH  45  59
BRANCH  46  70
ATOM     70  C   UNL A   1      38.739  29.637  30.438  1.00  0.00     0.023 A 
ATOM     71  C   UNL A   1      37.763  30.417  29.804  1.00  0.00     0.031 A 
ATOM     72  C   UNL A   1      38.509  29.246  31.772  1.00  0.00     0.131 A 
ATOM     73  C   UNL A   1      36.620  30.815  30.514  1.00  0.00     0.055 A 
ATOM     74  C   UNL A   1      37.343  29.591  32.452  1.00  0.00     0.041 A 
ATOM     75  F   UNL A   1      39.409  28.491  32.424  1.00  0.00    -0.206 F 
ATOM     76  C   UNL A   1      36.394  30.393  31.826  1.00  0.00     0.022 A 
BRANCH  73  77
ATOM     77  S   UNL A   1      35.470  31.971  29.723  1.00  0.00     0.124 S 
ATOM     78  O   UNL A   1      34.544  32.263  30.811  1.00  0.00    -0.237 OA
ATOM     79  O   UNL A   1      36.360  33.058  29.327  1.00  0.00    -0.237 OA
ATOM     80  O   UNL A   1      34.912  31.191  28.620  1.00  0.00    -0.744 OA
ENDBRANCH  73  77
ENDBRANCH  46  70
BRANCH  58  81
ATOM     81  C   UNL A   1      40.689  23.965  26.890  1.00  0.00     0.023 A 
ATOM     82  C   UNL A   1      39.481  23.860  26.178  1.00  0.00     0.031 A 
ATOM     83  C   UNL A   1      41.235  22.795  27.448  1.00  0.00     0.131 A 
ATOM     84  C   UNL A   1      38.819  22.626  26.106  1.00  0.00     0.055 A 
ATOM     85  C   UNL A   1      40.605  21.558  27.316  1.00  0.00     0.041 A 
ATOM     86  F   UNL A   1      42.383  22.841  28.141  1.00  0.00    -0.206 F 
ATOM     87  C   UNL A   1      39.382  21.471  26.657  1.00  0.00     0.022 A 
BRANCH  84  88
ATOM     88  S   UNL A   1      37.156  22.573  25.386  1.00  0.00     0.124 S 
ATOM     89  O   UNL A   1      36.418  23.481  26.260  1.00  0.00    -0.237 OA
ATOM     90  O   UNL A   1      37.390  23.048  24.026  1.00  0.00    -0.237 OA
ATOM     91  O   UNL A   1      36.779  21.165  25.494  1.00  0.00    -0.744 OA
ENDBRANCH  84  88
ENDBRANCH  58  81
ENDBRANCH  32  33
ENDBRANCH  25  27
ENDBRANCH  24  25
ENDBRANCH  23  24
ENDBRANCH   1  23
TORSDOF 20
ENDMDL
