MODEL 1
REMARK VINA RESULT:     -12.6      0.000      0.000
REMARK SMILES Cc1cc2c(c(C)c1Br)C=C(C(=O)OCCOC(=O)c1ccc(-c3c4nc(c(-c5cc(S(=O)(=O)[O-])ccc5F)c5ccc([nH]5)c(-c5cc(S(=O)(=O)[O-])ccc5F)c5nc(c(-c6cc(S(=O)(=O)[O-])ccc6F)c6ccc3[nH]6)C=C5)C=C4)cc1)[C@@H](C(F)(F)F)O2
REMARK SMILES IDX 16 1 15 2 14 3 12 4 13 5 11 6 1 7 2 8 3 9 8 10 4 11 6 12
REMARK SMILES IDX 9 13 5 14 88 15 7 16 10 17 83 18 84 19 85 20 86 21 87 22
REMARK SMILES IDX 17 23 18 24 19 25 20 26 21 27 82 28 22 29 81 30 23 31 24 32
REMARK SMILES IDX 25 33 75 34 26 35 80 36 74 37 76 38 27 39 79 40 73 41 72 42
REMARK SMILES IDX 28 44 60 45 40 46 59 47 41 48 44 49 58 50 77 51 42 52 43 53
REMARK SMILES IDX 57 55 78 56 45 57 29 58 30 59 38 60 31 61 37 62 39 63 36 64
REMARK SMILES IDX 32 65 33 66 34 67 35 68 61 69 62 70 70 71 63 72 69 73 71 74
REMARK SMILES IDX 68 75 64 76 65 77 66 78 67 79 46 80 47 81 55 82 48 83 54 84
REMARK SMILES IDX 56 85 53 86 49 87 50 88 51 89 52 90
REMARK H PARENT 76 43 44 54
REMARK Flexibility Score: inf
ROOT
ATOM      1  C   UNL A   1      36.286  20.975  25.251  1.00  0.00     0.275 C 
ENDROOT
BRANCH   1   2
ATOM      2  C   UNL A   1      35.127  21.722  24.594  1.00  0.00     0.275 C 
BRANCH   2   3
ATOM      3  O   UNL A   1      35.190  23.137  24.875  1.00  0.00    -0.459 OA
BRANCH   3   4
ATOM      4  C   UNL A   1      34.252  23.601  25.733  1.00  0.00     0.338 C 
ATOM      5  O   UNL A   1      33.999  23.159  26.843  1.00  0.00    -0.246 OA
BRANCH   4   6
ATOM      6  C   UNL A   1      33.533  24.746  25.143  1.00  0.00     0.087 C 
ATOM      7  C   UNL A   1      30.090  30.094  23.874  1.00  0.00     0.046 C 
ATOM      8  C   UNL A   1      31.085  29.081  24.374  1.00  0.00    -0.033 A 
ATOM      9  C   UNL A   1      31.140  27.836  23.730  1.00  0.00     0.051 A 
ATOM     10  C   UNL A   1      31.916  29.312  25.489  1.00  0.00     0.024 A 
ATOM     11  C   UNL A   1      31.989  26.830  24.182  1.00  0.00     0.128 A 
ATOM     12  C   UNL A   1      32.815  28.315  25.941  1.00  0.00    -0.026 A 
ATOM     13  Br  UNL A   1      31.770  30.986  26.406  1.00  0.00    -0.050 Br
ATOM     14  C   UNL A   1      32.819  27.053  25.284  1.00  0.00     0.021 A 
ATOM     15  O   UNL A   1      31.942  25.663  23.469  1.00  0.00    -0.475 OA
ATOM     16  C   UNL A   1      33.759  28.554  27.098  1.00  0.00     0.046 C 
ATOM     17  C   UNL A   1      33.640  25.936  25.746  1.00  0.00     0.027 C 
ATOM     18  C   UNL A   1      32.612  24.488  23.992  1.00  0.00     0.316 C 
BRANCH  18  19
ATOM     19  C   UNL A   1      31.557  23.425  24.341  1.00  0.00     0.430 C 
ATOM     20  F   UNL A   1      30.440  23.572  23.587  1.00  0.00    -0.167 F 
ATOM     21  F   UNL A   1      32.015  22.171  24.097  1.00  0.00    -0.167 F 
ATOM     22  F   UNL A   1      31.180  23.472  25.637  1.00  0.00    -0.167 F 
ENDBRANCH  18  19
ENDBRANCH   4   6
ENDBRANCH   3   4
ENDBRANCH   2   3
ENDBRANCH   1   2
BRANCH   1  23
ATOM     23  O   UNL A   1      37.534  21.605  24.915  1.00  0.00    -0.458 OA
BRANCH  23  24
ATOM     24  C   UNL A   1      38.590  21.244  25.681  1.00  0.00     0.338 C 
ATOM     25  O   UNL A   1      39.108  20.143  25.747  1.00  0.00    -0.246 OA
BRANCH  24  26
ATOM     26  C   UNL A   1      39.106  22.412  26.413  1.00  0.00     0.060 A 
ATOM     27  C   UNL A   1      38.586  23.667  26.123  1.00  0.00     0.016 A 
ATOM     28  C   UNL A   1      40.226  22.299  27.233  1.00  0.00     0.016 A 
ATOM     29  C   UNL A   1      39.279  24.809  26.507  1.00  0.00     0.010 A 
ATOM     30  C   UNL A   1      40.835  23.456  27.741  1.00  0.00     0.010 A 
ATOM     31  C   UNL A   1      40.412  24.734  27.329  1.00  0.00    -0.014 A 
BRANCH  31  32
ATOM     32  C   UNL A   1      41.175  25.975  27.689  1.00  0.00     0.031 A 
ATOM     33  C   UNL A   1      40.549  27.030  28.576  1.00  0.00     0.074 A 
ATOM     34  C   UNL A   1      42.454  26.145  27.284  1.00  0.00     0.049 A 
ATOM     35  N   UNL A   1      40.970  28.242  28.845  1.00  0.00    -0.248 NA
ATOM     36  C   UNL A   1      39.277  26.688  29.234  1.00  0.00     0.031 C 
ATOM     37  C   UNL A   1      43.228  25.191  26.485  1.00  0.00     0.029 A 
ATOM     38  N   UNL A   1      43.348  27.165  27.518  1.00  0.00    -0.354 N 
ATOM     39  C   UNL A   1      39.987  28.823  29.642  1.00  0.00     0.074 A 
ATOM     40  C   UNL A   1      38.943  27.836  29.806  1.00  0.00     0.031 C 
ATOM     41  C   UNL A   1      44.492  25.619  26.381  1.00  0.00     0.029 A 
ATOM     42  C   UNL A   1      44.596  26.946  26.976  1.00  0.00     0.049 A 
ATOM     43  H   UNL A   1      43.117  27.977  28.025  1.00  0.00     0.167 HD
ATOM     44  C   UNL A   1      39.962  30.063  30.191  1.00  0.00     0.034 A 
ATOM     45  C   UNL A   1      45.689  27.732  26.908  1.00  0.00     0.034 A 
ATOM     46  C   UNL A   1      41.042  31.012  30.089  1.00  0.00     0.049 A 
ATOM     47  C   UNL A   1      45.612  29.130  27.458  1.00  0.00     0.074 A 
ATOM     48  C   UNL A   1      41.116  32.291  30.614  1.00  0.00     0.029 A 
ATOM     49  N   UNL A   1      42.247  30.779  29.441  1.00  0.00    -0.354 N 
ATOM     50  N   UNL A   1      44.623  29.707  28.098  1.00  0.00    -0.248 NA
ATOM     51  C   UNL A   1      46.777  29.997  27.237  1.00  0.00     0.031 C 
ATOM     52  C   UNL A   1      42.339  32.852  30.237  1.00  0.00     0.029 A 
ATOM     53  C   UNL A   1      43.057  31.901  29.530  1.00  0.00     0.049 A 
ATOM     54  H   UNL A   1      42.490  29.942  28.984  1.00  0.00     0.167 HD
ATOM     55  C   UNL A   1      45.049  31.005  28.357  1.00  0.00     0.074 A 
ATOM     56  C   UNL A   1      46.389  31.123  27.821  1.00  0.00     0.031 C 
ATOM     57  C   UNL A   1      44.384  32.010  28.978  1.00  0.00     0.034 A 
BRANCH  44  58
ATOM     58  C   UNL A   1      38.711  30.493  30.918  1.00  0.00     0.023 A 
ATOM     59  C   UNL A   1      37.654  31.147  30.266  1.00  0.00     0.031 A 
ATOM     60  C   UNL A   1      38.566  30.205  32.288  1.00  0.00     0.131 A 
ATOM     61  C   UNL A   1      36.515  31.529  30.994  1.00  0.00     0.055 A 
ATOM     62  C   UNL A   1      37.404  30.528  32.991  1.00  0.00     0.041 A 
ATOM     63  F   UNL A   1      39.552  29.594  32.966  1.00  0.00    -0.206 F 
ATOM     64  C   UNL A   1      36.372  31.201  32.345  1.00  0.00     0.022 A 
BRANCH  61  65
ATOM     65  S   UNL A   1      35.251  32.534  30.170  1.00  0.00     0.124 S 
ATOM     66  O   UNL A   1      34.292  32.743  31.252  1.00  0.00    -0.237 OA
ATOM     67  O   UNL A   1      36.004  33.710  29.749  1.00  0.00    -0.237 OA
ATOM     68  O   UNL A   1      34.781  31.675  29.086  1.00  0.00    -0.744 OA
ENDBRANCH  61  65
ENDBRANCH  44  58
BRANCH  45  69
ATOM     69  C   UNL A   1      46.919  27.246  26.218  1.00  0.00     0.023 A 
ATOM     70  C   UNL A   1      47.173  27.573  24.877  1.00  0.00     0.031 A 
ATOM     71  C   UNL A   1      47.865  26.453  26.895  1.00  0.00     0.131 A 
ATOM     72  C   UNL A   1      48.341  27.104  24.255  1.00  0.00     0.055 A 
ATOM     73  C   UNL A   1      49.048  26.033  26.288  1.00  0.00     0.041 A 
ATOM     74  F   UNL A   1      47.666  26.108  28.178  1.00  0.00    -0.206 F 
ATOM     75  C   UNL A   1      49.289  26.354  24.957  1.00  0.00     0.022 A 
BRANCH  72  76
ATOM     76  S   UNL A   1      48.596  27.456  22.494  1.00  0.00     0.124 S 
ATOM     77  O   UNL A   1      49.851  28.199  22.520  1.00  0.00    -0.237 OA
ATOM     78  O   UNL A   1      48.654  26.116  21.919  1.00  0.00    -0.237 OA
ATOM     79  O   UNL A   1      47.416  28.237  22.128  1.00  0.00    -0.744 OA
ENDBRANCH  72  76
ENDBRANCH  45  69
BRANCH  57  80
ATOM     80  C   UNL A   1      45.096  33.327  29.125  1.00  0.00     0.023 A 
ATOM     81  C   UNL A   1      45.083  34.280  28.095  1.00  0.00     0.031 A 
ATOM     82  C   UNL A   1      45.743  33.651  30.329  1.00  0.00     0.131 A 
ATOM     83  C   UNL A   1      45.723  35.513  28.280  1.00  0.00     0.055 A 
ATOM     84  C   UNL A   1      46.343  34.896  30.524  1.00  0.00     0.041 A 
ATOM     85  F   UNL A   1      45.780  32.772  31.344  1.00  0.00    -0.206 F 
ATOM     86  C   UNL A   1      46.337  35.834  29.496  1.00  0.00     0.022 A 
BRANCH  83  87
ATOM     87  S   UNL A   1      45.761  36.693  26.905  1.00  0.00     0.124 S 
ATOM     88  O   UNL A   1      44.380  37.163  26.873  1.00  0.00    -0.237 OA
ATOM     89  O   UNL A   1      46.755  37.665  27.347  1.00  0.00    -0.237 OA
ATOM     90  O   UNL A   1      46.164  35.875  25.762  1.00  0.00    -0.744 OA
ENDBRANCH  83  87
ENDBRANCH  57  80
ENDBRANCH  31  32
ENDBRANCH  24  26
ENDBRANCH  23  24
ENDBRANCH   1  23
TORSDOF 15
ENDMDL
MODEL 2
REMARK VINA RESULT:     -12.5      1.362      1.677
REMARK SMILES Cc1cc2c(c(C)c1Br)C=C(C(=O)OCCOC(=O)c1ccc(-c3c4nc(c(-c5cc(S(=O)(=O)[O-])ccc5F)c5ccc([nH]5)c(-c5cc(S(=O)(=O)[O-])ccc5F)c5nc(c(-c6cc(S(=O)(=O)[O-])ccc6F)c6ccc3[nH]6)C=C5)C=C4)cc1)[C@@H](C(F)(F)F)O2
REMARK SMILES IDX 16 1 15 2 14 3 12 4 13 5 11 6 1 7 2 8 3 9 8 10 4 11 6 12
REMARK SMILES IDX 9 13 5 14 88 15 7 16 10 17 83 18 84 19 85 20 86 21 87 22
REMARK SMILES IDX 17 23 18 24 19 25 20 26 21 27 82 28 22 29 81 30 23 31 24 32
REMARK SMILES IDX 25 33 75 34 26 35 80 36 74 37 76 38 27 39 79 40 73 41 72 42
REMARK SMILES IDX 28 44 60 45 40 46 59 47 41 48 44 49 58 50 77 51 42 52 43 53
REMARK SMILES IDX 57 55 78 56 45 57 29 58 30 59 38 60 31 61 37 62 39 63 36 64
REMARK SMILES IDX 32 65 33 66 34 67 35 68 61 69 62 70 70 71 63 72 69 73 71 74
REMARK SMILES IDX 68 75 64 76 65 77 66 78 67 79 46 80 47 81 55 82 48 83 54 84
REMARK SMILES IDX 56 85 53 86 49 87 50 88 51 89 52 90
REMARK H PARENT 76 43 44 54
REMARK Flexibility Score: inf
ROOT
ATOM      1  C   UNL A   1      36.346  20.584  25.079  1.00  0.00     0.275 C 
ENDROOT
BRANCH   1   2
ATOM      2  C   UNL A   1      35.049  21.260  24.639  1.00  0.00     0.275 C 
BRANCH   2   3
ATOM      3  O   UNL A   1      35.175  22.698  24.659  1.00  0.00    -0.459 OA
BRANCH   3   4
ATOM      4  C   UNL A   1      34.454  23.331  25.613  1.00  0.00     0.338 C 
ATOM      5  O   UNL A   1      34.403  23.041  26.798  1.00  0.00    -0.246 OA
BRANCH   4   6
ATOM      6  C   UNL A   1      33.698  24.456  25.029  1.00  0.00     0.087 C 
ATOM      7  C   UNL A   1      30.115  29.717  23.789  1.00  0.00     0.046 C 
ATOM      8  C   UNL A   1      31.142  28.730  24.276  1.00  0.00    -0.033 A 
ATOM      9  C   UNL A   1      31.209  27.481  23.642  1.00  0.00     0.051 A 
ATOM     10  C   UNL A   1      31.992  28.989  25.370  1.00  0.00     0.024 A 
ATOM     11  C   UNL A   1      32.090  26.497  24.084  1.00  0.00     0.128 A 
ATOM     12  C   UNL A   1      32.921  28.015  25.811  1.00  0.00    -0.026 A 
ATOM     13  Br  UNL A   1      31.829  30.668  26.276  1.00  0.00    -0.050 Br
ATOM     14  C   UNL A   1      32.938  26.747  25.166  1.00  0.00     0.021 A 
ATOM     15  O   UNL A   1      32.052  25.323  23.382  1.00  0.00    -0.475 OA
ATOM     16  C   UNL A   1      33.885  28.286  26.946  1.00  0.00     0.046 C 
ATOM     17  C   UNL A   1      33.792  25.653  25.619  1.00  0.00     0.027 C 
ATOM     18  C   UNL A   1      32.758  24.167  23.901  1.00  0.00     0.316 C 
BRANCH  18  19
ATOM     19  C   UNL A   1      31.734  23.085  24.282  1.00  0.00     0.430 C 
ATOM     20  F   UNL A   1      32.138  21.857  23.873  1.00  0.00    -0.167 F 
ATOM     21  F   UNL A   1      31.575  23.002  25.626  1.00  0.00    -0.167 F 
ATOM     22  F   UNL A   1      30.516  23.310  23.743  1.00  0.00    -0.167 F 
ENDBRANCH  18  19
ENDBRANCH   4   6
ENDBRANCH   3   4
ENDBRANCH   2   3
ENDBRANCH   1   2
BRANCH   1  23
ATOM     23  O   UNL A   1      37.442  21.510  24.986  1.00  0.00    -0.458 OA
BRANCH  23  24
ATOM     24  C   UNL A   1      38.555  21.161  25.673  1.00  0.00     0.338 C 
ATOM     25  O   UNL A   1      39.111  20.076  25.669  1.00  0.00    -0.246 OA
BRANCH  24  26
ATOM     26  C   UNL A   1      39.079  22.323  26.409  1.00  0.00     0.060 A 
ATOM     27  C   UNL A   1      38.547  23.578  26.146  1.00  0.00     0.016 A 
ATOM     28  C   UNL A   1      40.215  22.205  27.208  1.00  0.00     0.016 A 
ATOM     29  C   UNL A   1      39.242  24.719  26.531  1.00  0.00     0.010 A 
ATOM     30  C   UNL A   1      40.827  23.359  27.718  1.00  0.00     0.010 A 
ATOM     31  C   UNL A   1      40.390  24.640  27.331  1.00  0.00    -0.014 A 
BRANCH  31  32
ATOM     32  C   UNL A   1      41.154  25.880  27.692  1.00  0.00     0.031 A 
ATOM     33  C   UNL A   1      40.528  26.933  28.582  1.00  0.00     0.074 A 
ATOM     34  C   UNL A   1      42.433  26.050  27.287  1.00  0.00     0.049 A 
ATOM     35  N   UNL A   1      40.949  28.144  28.852  1.00  0.00    -0.248 NA
ATOM     36  C   UNL A   1      39.256  26.590  29.239  1.00  0.00     0.031 C 
ATOM     37  C   UNL A   1      43.205  25.097  26.486  1.00  0.00     0.029 A 
ATOM     38  N   UNL A   1      43.327  27.069  27.522  1.00  0.00    -0.354 N 
ATOM     39  C   UNL A   1      39.967  28.725  29.650  1.00  0.00     0.074 A 
ATOM     40  C   UNL A   1      38.923  27.738  29.813  1.00  0.00     0.031 C 
ATOM     41  C   UNL A   1      44.470  25.525  26.383  1.00  0.00     0.029 A 
ATOM     42  C   UNL A   1      44.574  26.850  26.980  1.00  0.00     0.049 A 
ATOM     43  H   UNL A   1      43.096  27.880  28.031  1.00  0.00     0.167 HD
ATOM     44  C   UNL A   1      39.943  29.964  30.202  1.00  0.00     0.034 A 
ATOM     45  C   UNL A   1      45.667  27.637  26.913  1.00  0.00     0.034 A 
ATOM     46  C   UNL A   1      41.023  30.913  30.100  1.00  0.00     0.049 A 
ATOM     47  C   UNL A   1      45.591  29.034  27.464  1.00  0.00     0.074 A 
ATOM     48  C   UNL A   1      41.097  32.191  30.628  1.00  0.00     0.029 A 
ATOM     49  N   UNL A   1      42.227  30.681  29.451  1.00  0.00    -0.354 N 
ATOM     50  N   UNL A   1      44.603  29.610  28.106  1.00  0.00    -0.248 NA
ATOM     51  C   UNL A   1      46.757  29.900  27.245  1.00  0.00     0.031 C 
ATOM     52  C   UNL A   1      42.321  32.752  30.251  1.00  0.00     0.029 A 
ATOM     53  C   UNL A   1      43.038  31.802  29.542  1.00  0.00     0.049 A 
ATOM     54  H   UNL A   1      42.470  29.844  28.993  1.00  0.00     0.167 HD
ATOM     55  C   UNL A   1      45.029  30.908  28.367  1.00  0.00     0.074 A 
ATOM     56  C   UNL A   1      46.369  31.026  27.831  1.00  0.00     0.031 C 
ATOM     57  C   UNL A   1      44.365  31.911  28.990  1.00  0.00     0.034 A 
BRANCH  44  58
ATOM     58  C   UNL A   1      38.692  30.393  30.929  1.00  0.00     0.023 A 
ATOM     59  C   UNL A   1      37.646  31.071  30.285  1.00  0.00     0.031 A 
ATOM     60  C   UNL A   1      38.536  30.079  32.293  1.00  0.00     0.131 A 
ATOM     61  C   UNL A   1      36.508  31.452  31.013  1.00  0.00     0.055 A 
ATOM     62  C   UNL A   1      37.373  30.401  32.996  1.00  0.00     0.041 A 
ATOM     63  F   UNL A   1      39.511  29.444  32.964  1.00  0.00    -0.206 F 
ATOM     64  C   UNL A   1      36.353  31.098  32.357  1.00  0.00     0.022 A 
BRANCH  61  65
ATOM     65  S   UNL A   1      35.259  32.488  30.203  1.00  0.00     0.124 S 
ATOM     66  O   UNL A   1      36.063  33.625  29.763  1.00  0.00    -0.237 OA
ATOM     67  O   UNL A   1      34.757  31.614  29.149  1.00  0.00    -0.237 OA
ATOM     68  O   UNL A   1      34.309  32.781  31.274  1.00  0.00    -0.744 OA
ENDBRANCH  61  65
ENDBRANCH  44  58
BRANCH  45  69
ATOM     69  C   UNL A   1      46.897  27.151  26.221  1.00  0.00     0.023 A 
ATOM     70  C   UNL A   1      47.922  26.510  26.934  1.00  0.00     0.031 A 
ATOM     71  C   UNL A   1      47.059  27.312  24.832  1.00  0.00     0.131 A 
ATOM     72  C   UNL A   1      49.067  26.060  26.255  1.00  0.00     0.055 A 
ATOM     73  C   UNL A   1      48.174  26.818  24.156  1.00  0.00     0.041 A 
ATOM     74  F   UNL A   1      46.110  27.924  24.105  1.00  0.00    -0.206 F 
ATOM     75  C   UNL A   1      49.190  26.191  24.869  1.00  0.00     0.022 A 
BRANCH  72  76
ATOM     76  S   UNL A   1      50.420  25.326  27.215  1.00  0.00     0.124 S 
ATOM     77  O   UNL A   1      51.327  24.890  26.159  1.00  0.00    -0.237 OA
ATOM     78  O   UNL A   1      50.870  26.456  28.022  1.00  0.00    -0.237 OA
ATOM     79  O   UNL A   1      49.767  24.253  27.959  1.00  0.00    -0.744 OA
ENDBRANCH  72  76
ENDBRANCH  45  69
BRANCH  57  80
ATOM     80  C   UNL A   1      45.077  33.228  29.139  1.00  0.00     0.023 A 
ATOM     81  C   UNL A   1      44.863  34.277  28.232  1.00  0.00     0.031 A 
ATOM     82  C   UNL A   1      45.933  33.451  30.231  1.00  0.00     0.131 A 
ATOM     83  C   UNL A   1      45.513  35.505  28.422  1.00  0.00     0.055 A 
ATOM     84  C   UNL A   1      46.544  34.687  30.439  1.00  0.00     0.041 A 
ATOM     85  F   UNL A   1      46.166  32.477  31.126  1.00  0.00    -0.206 F 
ATOM     86  C   UNL A   1      46.337  35.722  29.531  1.00  0.00     0.022 A 
BRANCH  83  87
ATOM     87  S   UNL A   1      45.283  36.815  27.192  1.00  0.00     0.124 S 
ATOM     88  O   UNL A   1      45.416  38.019  28.006  1.00  0.00    -0.237 OA
ATOM     89  O   UNL A   1      46.367  36.561  26.249  1.00  0.00    -0.237 OA
ATOM     90  O   UNL A   1      43.941  36.565  26.670  1.00  0.00    -0.744 OA
ENDBRANCH  83  87
ENDBRANCH  57  80
ENDBRANCH  31  32
ENDBRANCH  24  26
ENDBRANCH  23  24
ENDBRANCH   1  23
TORSDOF 15
ENDMDL
MODEL 3
REMARK VINA RESULT:     -12.4      5.099     10.149
REMARK SMILES Cc1cc2c(c(C)c1Br)C=C(C(=O)OCCOC(=O)c1ccc(-c3c4nc(c(-c5cc(S(=O)(=O)[O-])ccc5F)c5ccc([nH]5)c(-c5cc(S(=O)(=O)[O-])ccc5F)c5nc(c(-c6cc(S(=O)(=O)[O-])ccc6F)c6ccc3[nH]6)C=C5)C=C4)cc1)[C@@H](C(F)(F)F)O2
REMARK SMILES IDX 16 1 15 2 14 3 12 4 13 5 11 6 1 7 2 8 3 9 8 10 4 11 6 12
REMARK SMILES IDX 9 13 5 14 88 15 7 16 10 17 83 18 84 19 85 20 86 21 87 22
REMARK SMILES IDX 17 23 18 24 19 25 20 26 21 27 82 28 22 29 81 30 23 31 24 32
REMARK SMILES IDX 25 33 75 34 26 35 80 36 74 37 76 38 27 39 79 40 73 41 72 42
REMARK SMILES IDX 28 44 60 45 40 46 59 47 41 48 44 49 58 50 77 51 42 52 43 53
REMARK SMILES IDX 57 55 78 56 45 57 29 58 30 59 38 60 31 61 37 62 39 63 36 64
REMARK SMILES IDX 32 65 33 66 34 67 35 68 61 69 62 70 70 71 63 72 69 73 71 74
REMARK SMILES IDX 68 75 64 76 65 77 66 78 67 79 46 80 47 81 55 82 48 83 54 84
REMARK SMILES IDX 56 85 53 86 49 87 50 88 51 89 52 90
REMARK H PARENT 76 43 44 54
REMARK Flexibility Score: inf
ROOT
ATOM      1  C   UNL A   1      31.615  30.324  25.857  1.00  0.00     0.275 C 
ENDROOT
BRANCH   1   2
ATOM      2  C   UNL A   1      31.717  29.155  24.879  1.00  0.00     0.275 C 
BRANCH   2   3
ATOM      3  O   UNL A   1      32.417  28.038  25.468  1.00  0.00    -0.459 OA
BRANCH   3   4
ATOM      4  C   UNL A   1      33.333  27.440  24.671  1.00  0.00     0.338 C 
ATOM      5  O   UNL A   1      34.107  27.997  23.909  1.00  0.00    -0.246 OA
BRANCH   4   6
ATOM      6  C   UNL A   1      33.280  25.974  24.831  1.00  0.00     0.087 C 
ATOM      7  C   UNL A   1      34.160  19.551  24.708  1.00  0.00     0.046 C 
ATOM      8  C   UNL A   1      34.300  21.042  24.855  1.00  0.00    -0.033 A 
ATOM      9  C   UNL A   1      33.135  21.821  24.818  1.00  0.00     0.051 A 
ATOM     10  C   UNL A   1      35.550  21.685  24.970  1.00  0.00     0.024 A 
ATOM     11  C   UNL A   1      33.197  23.211  24.880  1.00  0.00     0.128 A 
ATOM     12  C   UNL A   1      35.631  23.095  25.073  1.00  0.00    -0.026 A 
ATOM     13  Br  UNL A   1      37.136  20.612  24.936  1.00  0.00    -0.050 Br
ATOM     14  C   UNL A   1      34.431  23.855  24.998  1.00  0.00     0.021 A 
ATOM     15  O   UNL A   1      31.989  23.851  24.829  1.00  0.00    -0.475 OA
ATOM     16  C   UNL A   1      36.954  23.808  25.255  1.00  0.00     0.046 C 
ATOM     17  C   UNL A   1      34.432  25.316  24.996  1.00  0.00     0.027 C 
ATOM     18  C   UNL A   1      31.960  25.291  24.657  1.00  0.00     0.316 C 
BRANCH  18  19
ATOM     19  C   UNL A   1      31.329  25.619  23.294  1.00  0.00     0.430 C 
ATOM     20  F   UNL A   1      30.453  26.650  23.390  1.00  0.00    -0.167 F 
ATOM     21  F   UNL A   1      32.266  26.003  22.392  1.00  0.00    -0.167 F 
ATOM     22  F   UNL A   1      30.663  24.570  22.764  1.00  0.00    -0.167 F 
ENDBRANCH  18  19
ENDBRANCH   4   6
ENDBRANCH   3   4
ENDBRANCH   2   3
ENDBRANCH   1   2
BRANCH   1  23
ATOM     23  O   UNL A   1      32.600  30.186  26.895  1.00  0.00    -0.458 OA
BRANCH  23  24
ATOM     24  C   UNL A   1      33.251  31.324  27.230  1.00  0.00     0.338 C 
ATOM     25  O   UNL A   1      32.788  32.451  27.275  1.00  0.00    -0.246 OA
BRANCH  24  26
ATOM     26  C   UNL A   1      34.638  31.017  27.616  1.00  0.00     0.060 A 
ATOM     27  C   UNL A   1      35.002  29.692  27.810  1.00  0.00     0.016 A 
ATOM     28  C   UNL A   1      35.519  32.036  27.973  1.00  0.00     0.016 A 
ATOM     29  C   UNL A   1      36.161  29.387  28.515  1.00  0.00     0.010 A 
ATOM     30  C   UNL A   1      36.756  31.714  28.549  1.00  0.00     0.010 A 
ATOM     31  C   UNL A   1      37.069  30.386  28.893  1.00  0.00    -0.014 A 
BRANCH  31  32
ATOM     32  C   UNL A   1      38.288  30.042  29.698  1.00  0.00     0.031 A 
ATOM     33  C   UNL A   1      39.385  29.188  29.098  1.00  0.00     0.074 A 
ATOM     34  C   UNL A   1      38.460  30.538  30.943  1.00  0.00     0.049 A 
ATOM     35  N   UNL A   1      40.416  28.633  29.687  1.00  0.00    -0.248 NA
ATOM     36  C   UNL A   1      39.307  28.906  27.655  1.00  0.00     0.031 C 
ATOM     37  C   UNL A   1      37.531  31.434  31.639  1.00  0.00     0.029 A 
ATOM     38  N   UNL A   1      39.494  30.392  31.839  1.00  0.00    -0.354 N 
ATOM     39  C   UNL A   1      41.065  27.888  28.706  1.00  0.00     0.074 A 
ATOM     40  C   UNL A   1      40.306  28.052  27.485  1.00  0.00     0.031 C 
ATOM     41  C   UNL A   1      38.078  31.831  32.795  1.00  0.00     0.029 A 
ATOM     42  C   UNL A   1      39.328  31.112  33.002  1.00  0.00     0.049 A 
ATOM     43  H   UNL A   1      40.281  29.825  31.665  1.00  0.00     0.167 HD
ATOM     44  C   UNL A   1      42.192  27.141  28.812  1.00  0.00     0.034 A 
ATOM     45  C   UNL A   1      40.058  31.156  34.135  1.00  0.00     0.034 A 
ATOM     46  C   UNL A   1      42.986  27.046  30.011  1.00  0.00     0.049 A 
ATOM     47  C   UNL A   1      41.262  30.262  34.258  1.00  0.00     0.074 A 
ATOM     48  C   UNL A   1      44.148  26.322  30.219  1.00  0.00     0.029 A 
ATOM     49  N   UNL A   1      42.719  27.715  31.197  1.00  0.00    -0.354 N 
ATOM     50  N   UNL A   1      41.788  29.465  33.358  1.00  0.00    -0.248 NA
ATOM     51  C   UNL A   1      41.944  30.240  35.558  1.00  0.00     0.031 C 
ATOM     52  C   UNL A   1      44.551  26.507  31.544  1.00  0.00     0.029 A 
ATOM     53  C   UNL A   1      43.678  27.397  32.146  1.00  0.00     0.049 A 
ATOM     54  H   UNL A   1      41.960  28.324  31.343  1.00  0.00     0.167 HD
ATOM     55  C   UNL A   1      42.863  28.846  33.986  1.00  0.00     0.074 A 
ATOM     56  C   UNL A   1      42.924  29.374  35.333  1.00  0.00     0.031 C 
ATOM     57  C   UNL A   1      43.717  27.918  33.490  1.00  0.00     0.034 A 
BRANCH  44  58
ATOM     58  C   UNL A   1      42.619  26.326  27.616  1.00  0.00     0.023 A 
ATOM     59  C   UNL A   1      42.211  24.996  27.432  1.00  0.00     0.031 A 
ATOM     60  C   UNL A   1      43.427  26.913  26.623  1.00  0.00     0.131 A 
ATOM     61  C   UNL A   1      42.644  24.283  26.302  1.00  0.00     0.055 A 
ATOM     62  C   UNL A   1      43.799  26.220  25.470  1.00  0.00     0.041 A 
ATOM     63  F   UNL A   1      43.859  28.178  26.755  1.00  0.00    -0.206 F 
ATOM     64  C   UNL A   1      43.413  24.894  25.308  1.00  0.00     0.022 A 
BRANCH  61  65
ATOM     65  S   UNL A   1      42.255  22.515  26.184  1.00  0.00     0.124 S 
ATOM     66  O   UNL A   1      42.875  22.163  24.910  1.00  0.00    -0.237 OA
ATOM     67  O   UNL A   1      42.892  21.970  27.377  1.00  0.00    -0.237 OA
ATOM     68  O   UNL A   1      40.794  22.484  26.190  1.00  0.00    -0.744 OA
ENDBRANCH  61  65
ENDBRANCH  44  58
BRANCH  45  69
ATOM     69  C   UNL A   1      39.620  32.012  35.275  1.00  0.00     0.023 A 
ATOM     70  C   UNL A   1      38.800  31.499  36.292  1.00  0.00     0.031 A 
ATOM     71  C   UNL A   1      40.024  33.357  35.368  1.00  0.00     0.131 A 
ATOM     72  C   UNL A   1      38.405  32.328  37.354  1.00  0.00     0.055 A 
ATOM     73  C   UNL A   1      39.672  34.161  36.452  1.00  0.00     0.041 A 
ATOM     74  F   UNL A   1      40.804  33.899  34.419  1.00  0.00    -0.206 F 
ATOM     75  C   UNL A   1      38.853  33.649  37.452  1.00  0.00     0.022 A 
BRANCH  72  76
ATOM     76  S   UNL A   1      37.265  31.669  38.601  1.00  0.00     0.124 S 
ATOM     77  O   UNL A   1      36.130  32.576  38.471  1.00  0.00    -0.237 OA
ATOM     78  O   UNL A   1      37.053  30.304  38.131  1.00  0.00    -0.237 OA
ATOM     79  O   UNL A   1      38.017  31.786  39.848  1.00  0.00    -0.744 OA
ENDBRANCH  72  76
ENDBRANCH  45  69
BRANCH  57  80
ATOM     80  C   UNL A   1      44.804  27.418  34.402  1.00  0.00     0.023 A 
ATOM     81  C   UNL A   1      44.626  26.263  35.180  1.00  0.00     0.031 A 
ATOM     82  C   UNL A   1      46.048  28.070  34.447  1.00  0.00     0.131 A 
ATOM     83  C   UNL A   1      45.673  25.801  35.989  1.00  0.00     0.055 A 
ATOM     84  C   UNL A   1      47.101  27.583  35.221  1.00  0.00     0.041 A 
ATOM     85  F   UNL A   1      46.266  29.177  33.718  1.00  0.00    -0.206 F 
ATOM     86  C   UNL A   1      46.916  26.444  36.000  1.00  0.00     0.022 A 
BRANCH  83  87
ATOM     87  S   UNL A   1      45.390  24.356  37.045  1.00  0.00     0.124 S 
ATOM     88  O   UNL A   1      44.566  24.919  38.111  1.00  0.00    -0.237 OA
ATOM     89  O   UNL A   1      44.717  23.429  36.142  1.00  0.00    -0.237 OA
ATOM     90  O   UNL A   1      46.737  23.956  37.448  1.00  0.00    -0.744 OA
ENDBRANCH  83  87
ENDBRANCH  57  80
ENDBRANCH  31  32
ENDBRANCH  24  26
ENDBRANCH  23  24
ENDBRANCH   1  23
TORSDOF 15
ENDMDL
