MODEL 1
REMARK VINA RESULT:     -10.2      0.000      0.000
REMARK SMILES CC[C@H](C(=O)OCCOC(=O)c1ccc(-c2c3nc(c(-c4cc(S(=O)(=O)[O-])ccc4F)c4ccc([nH]4)c(-c4cc(S(=O)(=O)[O-])ccc4F)c4nc(c(-c5cc(S(=O)(=O)[O-])ccc5F)c5ccc2[nH]5)C=C4)C=C3)cc1)[N@@H+](C)Cc1cncn1C(C)C
REMARK SMILES IDX 7 1 6 2 4 3 5 4 3 5 2 6 1 7 75 8 76 9 77 11 78 12 79 13
REMARK SMILES IDX 82 14 80 15 81 16 83 17 84 18 85 19 8 20 9 21 10 22 11 23
REMARK SMILES IDX 12 24 13 25 74 26 14 27 73 28 15 29 16 30 17 31 67 32 18 33
REMARK SMILES IDX 72 34 66 35 68 36 19 37 71 38 65 39 64 40 20 42 52 43 32 44
REMARK SMILES IDX 51 45 33 46 36 47 50 48 69 49 34 50 35 51 49 53 70 54 37 55
REMARK SMILES IDX 21 56 22 57 30 58 23 59 29 60 31 61 28 62 24 63 25 64 26 65
REMARK SMILES IDX 27 66 53 67 54 68 62 69 55 70 61 71 63 72 60 73 56 74 57 75
REMARK SMILES IDX 58 76 59 77 38 78 39 79 47 80 40 81 46 82 48 83 45 84 41 85
REMARK SMILES IDX 42 86 43 87 44 88
REMARK H PARENT 75 10 68 41 36 52
REMARK Flexibility Score: inf
ROOT
ATOM      1  C   UNL A   1      36.342  22.472  23.730  1.00  0.00     0.274 C 
ENDROOT
BRANCH   1   2
ATOM      2  O   UNL A   1      35.053  22.615  24.355  1.00  0.00    -0.458 OA
BRANCH   2   3
ATOM      3  C   UNL A   1      34.238  23.597  23.861  1.00  0.00     0.365 C 
ATOM      4  O   UNL A   1      34.509  24.255  22.866  1.00  0.00    -0.245 OA
BRANCH   3   5
ATOM      5  C   UNL A   1      32.974  23.734  24.752  1.00  0.00     0.294 C 
BRANCH   5   6
ATOM      6  C   UNL A   1      33.240  24.040  26.244  1.00  0.00     0.074 C 
ATOM      7  C   UNL A   1      32.940  22.920  27.228  1.00  0.00     0.011 C 
ENDBRANCH   5   6
BRANCH   5   8
ATOM      8  N   UNL A   1      31.886  24.541  24.118  1.00  0.00    -0.321 N 
ATOM      9  C   UNL A   1      30.839  23.728  23.509  1.00  0.00     0.333 C 
ATOM     10  H   UNL A   1      32.422  24.990  23.375  1.00  0.00     0.348 HD
BRANCH   8  11
ATOM     11  C   UNL A   1      31.365  25.726  24.814  1.00  0.00     0.319 C 
BRANCH  11  12
ATOM     12  C   UNL A   1      30.939  26.849  23.931  1.00  0.00     0.093 A 
ATOM     13  C   UNL A   1      29.682  27.163  23.443  1.00  0.00     0.140 A 
ATOM     14  N   UNL A   1      31.729  27.884  23.476  1.00  0.00    -0.327 N 
ATOM     15  N   UNL A   1      29.731  28.195  22.548  1.00  0.00    -0.245 NA
ATOM     16  C   UNL A   1      30.982  28.590  22.566  1.00  0.00     0.200 A 
BRANCH  14  17
ATOM     17  C   UNL A   1      33.045  28.298  23.958  1.00  0.00     0.082 C 
ATOM     18  C   UNL A   1      34.003  28.618  22.813  1.00  0.00     0.031 C 
ATOM     19  C   UNL A   1      32.923  29.476  24.931  1.00  0.00     0.031 C 
ENDBRANCH  14  17
ENDBRANCH  11  12
ENDBRANCH   8  11
ENDBRANCH   5   8
ENDBRANCH   3   5
ENDBRANCH   2   3
ENDBRANCH   1   2
BRANCH   1  20
ATOM     20  C   UNL A   1      37.154  21.378  24.426  1.00  0.00     0.275 C 
BRANCH  20  21
ATOM     21  O   UNL A   1      37.496  21.747  25.775  1.00  0.00    -0.458 OA
BRANCH  21  22
ATOM     22  C   UNL A   1      38.780  21.496  26.123  1.00  0.00     0.338 C 
ATOM     23  O   UNL A   1      39.409  20.462  25.920  1.00  0.00    -0.246 OA
BRANCH  22  24
ATOM     24  C   UNL A   1      39.398  22.708  26.682  1.00  0.00     0.060 A 
ATOM     25  C   UNL A   1      39.001  23.939  26.155  1.00  0.00     0.016 A 
ATOM     26  C   UNL A   1      40.401  22.648  27.651  1.00  0.00     0.016 A 
ATOM     27  C   UNL A   1      39.589  25.120  26.598  1.00  0.00     0.010 A 
ATOM     28  C   UNL A   1      41.007  23.834  28.084  1.00  0.00     0.010 A 
ATOM     29  C   UNL A   1      40.608  25.075  27.555  1.00  0.00    -0.014 A 
BRANCH  29  30
ATOM     30  C   UNL A   1      41.309  26.327  27.930  1.00  0.00     0.031 A 
ATOM     31  C   UNL A   1      40.566  27.391  28.686  1.00  0.00     0.074 A 
ATOM     32  C   UNL A   1      42.611  26.489  27.633  1.00  0.00     0.049 A 
ATOM     33  N   UNL A   1      40.957  28.590  29.032  1.00  0.00    -0.248 NA
ATOM     34  C   UNL A   1      39.198  27.055  29.106  1.00  0.00     0.031 C 
ATOM     35  C   UNL A   1      43.454  25.493  26.969  1.00  0.00     0.029 A 
ATOM     36  N   UNL A   1      43.453  27.550  27.847  1.00  0.00    -0.354 N 
ATOM     37  C   UNL A   1      39.880  29.161  29.700  1.00  0.00     0.074 A 
ATOM     38  C   UNL A   1      38.813  28.180  29.690  1.00  0.00     0.031 C 
ATOM     39  C   UNL A   1      44.691  25.997  26.823  1.00  0.00     0.029 A 
ATOM     40  C   UNL A   1      44.715  27.365  27.333  1.00  0.00     0.049 A 
ATOM     41  H   UNL A   1      43.179  28.367  28.325  1.00  0.00     0.167 HD
ATOM     42  C   UNL A   1      39.791  30.390  30.267  1.00  0.00     0.034 A 
ATOM     43  C   UNL A   1      45.756  28.217  27.246  1.00  0.00     0.034 A 
ATOM     44  C   UNL A   1      40.863  31.356  30.259  1.00  0.00     0.049 A 
ATOM     45  C   UNL A   1      45.602  29.613  27.798  1.00  0.00     0.074 A 
ATOM     46  C   UNL A   1      40.880  32.633  30.794  1.00  0.00     0.029 A 
ATOM     47  N   UNL A   1      42.109  31.157  29.677  1.00  0.00    -0.354 N 
ATOM     48  N   UNL A   1      44.567  30.158  28.395  1.00  0.00    -0.248 NA
ATOM     49  C   UNL A   1      46.758  30.510  27.660  1.00  0.00     0.031 C 
ATOM     50  C   UNL A   1      42.110  33.225  30.481  1.00  0.00     0.029 A 
ATOM     51  C   UNL A   1      42.890  32.295  29.814  1.00  0.00     0.049 A 
ATOM     52  H   UNL A   1      42.397  30.327  29.233  1.00  0.00     0.167 HD
ATOM     53  C   UNL A   1      44.956  31.454  28.721  1.00  0.00     0.074 A 
ATOM     54  C   UNL A   1      46.324  31.603  28.269  1.00  0.00     0.031 C 
ATOM     55  C   UNL A   1      44.248  32.433  29.341  1.00  0.00     0.034 A 
BRANCH  42  56
ATOM     56  C   UNL A   1      38.465  30.773  30.877  1.00  0.00     0.023 A 
ATOM     57  C   UNL A   1      37.439  31.361  30.115  1.00  0.00     0.031 A 
ATOM     58  C   UNL A   1      38.240  30.586  32.252  1.00  0.00     0.131 A 
ATOM     59  C   UNL A   1      36.268  31.807  30.747  1.00  0.00     0.055 A 
ATOM     60  C   UNL A   1      37.042  30.964  32.861  1.00  0.00     0.041 A 
ATOM     61  F   UNL A   1      39.192  30.050  33.033  1.00  0.00    -0.206 F 
ATOM     62  C   UNL A   1      36.053  31.591  32.111  1.00  0.00     0.022 A 
BRANCH  59  63
ATOM     63  S   UNL A   1      35.089  32.800  29.790  1.00  0.00     0.124 S 
ATOM     64  O   UNL A   1      34.583  31.818  28.835  1.00  0.00    -0.237 OA
ATOM     65  O   UNL A   1      34.147  33.243  30.812  1.00  0.00    -0.237 OA
ATOM     66  O   UNL A   1      35.920  33.853  29.208  1.00  0.00    -0.744 OA
ENDBRANCH  59  63
ENDBRANCH  42  56
BRANCH  43  67
ATOM     67  C   UNL A   1      47.012  27.806  26.558  1.00  0.00     0.023 A 
ATOM     68  C   UNL A   1      47.157  27.934  25.168  1.00  0.00     0.031 A 
ATOM     69  C   UNL A   1      48.072  27.231  27.282  1.00  0.00     0.131 A 
ATOM     70  C   UNL A   1      48.321  27.460  24.541  1.00  0.00     0.055 A 
ATOM     71  C   UNL A   1      49.246  26.807  26.661  1.00  0.00     0.041 A 
ATOM     72  F   UNL A   1      47.983  27.084  28.614  1.00  0.00    -0.206 F 
ATOM     73  C   UNL A   1      49.371  26.910  25.279  1.00  0.00     0.022 A 
BRANCH  70  74
ATOM     74  S   UNL A   1      48.413  27.509  22.730  1.00  0.00     0.124 S 
ATOM     75  O   UNL A   1      48.444  26.090  22.394  1.00  0.00    -0.237 OA
ATOM     76  O   UNL A   1      47.187  28.223  22.385  1.00  0.00    -0.237 OA
ATOM     77  O   UNL A   1      49.650  28.242  22.472  1.00  0.00    -0.744 OA
ENDBRANCH  70  74
ENDBRANCH  43  67
BRANCH  55  78
ATOM     78  C   UNL A   1      44.966  33.735  29.598  1.00  0.00     0.023 A 
ATOM     79  C   UNL A   1      44.900  34.808  28.691  1.00  0.00     0.031 A 
ATOM     80  C   UNL A   1      45.739  33.897  30.761  1.00  0.00     0.131 A 
ATOM     81  C   UNL A   1      45.639  35.975  28.936  1.00  0.00     0.055 A 
ATOM     82  C   UNL A   1      46.427  35.081  31.027  1.00  0.00     0.041 A 
ATOM     83  F   UNL A   1      45.837  32.904  31.659  1.00  0.00    -0.206 F 
ATOM     84  C   UNL A   1      46.389  36.124  30.106  1.00  0.00     0.022 A 
BRANCH  81  85
ATOM     85  S   UNL A   1      45.674  37.269  27.664  1.00  0.00     0.124 S 
ATOM     86  O   UNL A   1      44.271  37.343  27.268  1.00  0.00    -0.237 OA
ATOM     87  O   UNL A   1      46.192  38.417  28.400  1.00  0.00    -0.237 OA
ATOM     88  O   UNL A   1      46.576  36.726  26.649  1.00  0.00    -0.744 OA
ENDBRANCH  81  85
ENDBRANCH  55  78
ENDBRANCH  29  30
ENDBRANCH  22  24
ENDBRANCH  21  22
ENDBRANCH  20  21
ENDBRANCH   1  20
TORSDOF 19
ENDMDL
MODEL 2
REMARK VINA RESULT:     -10.2      4.839      9.785
REMARK SMILES CC[C@H](C(=O)OCCOC(=O)c1ccc(-c2c3nc(c(-c4cc(S(=O)(=O)[O-])ccc4F)c4ccc([nH]4)c(-c4cc(S(=O)(=O)[O-])ccc4F)c4nc(c(-c5cc(S(=O)(=O)[O-])ccc5F)c5ccc2[nH]5)C=C4)C=C3)cc1)[N@@H+](C)Cc1cncn1C(C)C
REMARK SMILES IDX 7 1 6 2 4 3 5 4 3 5 2 6 1 7 75 8 76 9 77 11 78 12 79 13
REMARK SMILES IDX 82 14 80 15 81 16 83 17 84 18 85 19 8 20 9 21 10 22 11 23
REMARK SMILES IDX 12 24 13 25 74 26 14 27 73 28 15 29 16 30 17 31 67 32 18 33
REMARK SMILES IDX 72 34 66 35 68 36 19 37 71 38 65 39 64 40 20 42 52 43 32 44
REMARK SMILES IDX 51 45 33 46 36 47 50 48 69 49 34 50 35 51 49 53 70 54 37 55
REMARK SMILES IDX 21 56 22 57 30 58 23 59 29 60 31 61 28 62 24 63 25 64 26 65
REMARK SMILES IDX 27 66 53 67 54 68 62 69 55 70 61 71 63 72 60 73 56 74 57 75
REMARK SMILES IDX 58 76 59 77 38 78 39 79 47 80 40 81 46 82 48 83 45 84 41 85
REMARK SMILES IDX 42 86 43 87 44 88
REMARK H PARENT 75 10 68 41 36 52
REMARK Flexibility Score: inf
ROOT
ATOM      1  C   UNL A   1      31.790  28.675  26.984  1.00  0.00     0.274 C 
ENDROOT
BRANCH   1   2
ATOM      2  O   UNL A   1      31.554  27.987  25.742  1.00  0.00    -0.458 OA
BRANCH   2   3
ATOM      3  C   UNL A   1      30.921  26.775  25.824  1.00  0.00     0.365 C 
ATOM      4  O   UNL A   1      30.450  26.335  26.863  1.00  0.00    -0.245 OA
BRANCH   3   5
ATOM      5  C   UNL A   1      30.918  26.084  24.435  1.00  0.00     0.294 C 
BRANCH   5   6
ATOM      6  C   UNL A   1      31.516  26.915  23.275  1.00  0.00     0.074 C 
ATOM      7  C   UNL A   1      30.524  27.657  22.393  1.00  0.00     0.011 C 
ENDBRANCH   5   6
BRANCH   5   8
ATOM      8  N   UNL A   1      31.347  24.653  24.483  1.00  0.00    -0.321 N 
ATOM      9  C   UNL A   1      30.760  23.834  23.427  1.00  0.00     0.333 C 
ATOM     10  H   UNL A   1      30.928  24.382  25.373  1.00  0.00     0.348 HD
BRANCH   8  11
ATOM     11  C   UNL A   1      32.755  24.328  24.749  1.00  0.00     0.319 C 
BRANCH  11  12
ATOM     12  C   UNL A   1      33.006  23.546  25.993  1.00  0.00     0.093 A 
ATOM     13  C   UNL A   1      32.127  23.165  26.992  1.00  0.00     0.140 A 
ATOM     14  N   UNL A   1      34.194  22.955  26.368  1.00  0.00    -0.327 N 
ATOM     15  N   UNL A   1      32.777  22.575  28.039  1.00  0.00    -0.245 NA
ATOM     16  C   UNL A   1      34.026  22.489  27.647  1.00  0.00     0.200 A 
BRANCH  14  17
ATOM     17  C   UNL A   1      35.374  22.694  25.546  1.00  0.00     0.082 C 
ATOM     18  C   UNL A   1      36.611  23.425  26.065  1.00  0.00     0.031 C 
ATOM     19  C   UNL A   1      35.628  21.188  25.419  1.00  0.00     0.031 C 
ENDBRANCH  14  17
ENDBRANCH  11  12
ENDBRANCH   8  11
ENDBRANCH   5   8
ENDBRANCH   3   5
ENDBRANCH   2   3
ENDBRANCH   1   2
BRANCH   1  20
ATOM     20  C   UNL A   1      31.901  30.183  26.745  1.00  0.00     0.275 C 
BRANCH  20  21
ATOM     21  O   UNL A   1      33.265  30.584  26.515  1.00  0.00    -0.458 OA
BRANCH  21  22
ATOM     22  C   UNL A   1      33.712  31.568  27.331  1.00  0.00     0.338 C 
ATOM     23  O   UNL A   1      33.094  32.567  27.684  1.00  0.00    -0.246 OA
BRANCH  22  24
ATOM     24  C   UNL A   1      35.034  31.216  27.869  1.00  0.00     0.060 A 
ATOM     25  C   UNL A   1      35.218  29.913  28.335  1.00  0.00     0.016 A 
ATOM     26  C   UNL A   1      36.059  32.157  27.988  1.00  0.00     0.016 A 
ATOM     27  C   UNL A   1      36.427  29.532  28.909  1.00  0.00     0.010 A 
ATOM     28  C   UNL A   1      37.268  31.780  28.584  1.00  0.00     0.010 A 
ATOM     29  C   UNL A   1      37.456  30.467  29.053  1.00  0.00    -0.014 A 
BRANCH  29  30
ATOM     30  C   UNL A   1      38.693  30.083  29.775  1.00  0.00     0.031 A 
ATOM     31  C   UNL A   1      39.639  29.100  29.146  1.00  0.00     0.074 A 
ATOM     32  C   UNL A   1      38.985  30.642  30.963  1.00  0.00     0.049 A 
ATOM     33  N   UNL A   1      40.724  28.561  29.639  1.00  0.00    -0.248 NA
ATOM     34  C   UNL A   1      39.316  28.670  27.779  1.00  0.00     0.031 C 
ATOM     35  C   UNL A   1      38.179  31.663  31.634  1.00  0.00     0.029 A 
ATOM     36  N   UNL A   1      40.037  30.430  31.818  1.00  0.00    -0.354 N 
ATOM     37  C   UNL A   1      41.209  27.715  28.649  1.00  0.00     0.074 A 
ATOM     38  C   UNL A   1      40.285  27.800  27.536  1.00  0.00     0.031 C 
ATOM     39  C   UNL A   1      38.763  31.981  32.802  1.00  0.00     0.029 A 
ATOM     40  C   UNL A   1      39.951  31.151  32.985  1.00  0.00     0.049 A 
ATOM     41  H   UNL A   1      40.782  29.819  31.614  1.00  0.00     0.167 HD
ATOM     42  C   UNL A   1      42.322  26.939  28.668  1.00  0.00     0.034 A 
ATOM     43  C   UNL A   1      40.720  31.115  34.092  1.00  0.00     0.034 A 
ATOM     44  C   UNL A   1      43.226  26.862  29.791  1.00  0.00     0.049 A 
ATOM     45  C   UNL A   1      41.898  30.172  34.131  1.00  0.00     0.074 A 
ATOM     46  C   UNL A   1      44.377  26.103  29.924  1.00  0.00     0.029 A 
ATOM     47  N   UNL A   1      43.077  27.563  30.982  1.00  0.00    -0.354 N 
ATOM     48  N   UNL A   1      42.328  29.348  33.203  1.00  0.00    -0.248 NA
ATOM     49  C   UNL A   1      42.691  30.155  35.367  1.00  0.00     0.031 C 
ATOM     50  C   UNL A   1      44.886  26.298  31.214  1.00  0.00     0.029 A 
ATOM     51  C   UNL A   1      44.095  27.232  31.863  1.00  0.00     0.049 A 
ATOM     52  H   UNL A   1      42.353  28.202  31.172  1.00  0.00     0.167 HD
ATOM     53  C   UNL A   1      43.454  28.728  33.739  1.00  0.00     0.074 A 
ATOM     54  C   UNL A   1      43.645  29.287  35.062  1.00  0.00     0.031 C 
ATOM     55  C   UNL A   1      44.261  27.786  33.187  1.00  0.00     0.034 A 
BRANCH  42  56
ATOM     56  C   UNL A   1      42.573  26.065  27.464  1.00  0.00     0.023 A 
ATOM     57  C   UNL A   1      42.065  24.756  27.377  1.00  0.00     0.031 A 
ATOM     58  C   UNL A   1      43.372  26.533  26.407  1.00  0.00     0.131 A 
ATOM     59  C   UNL A   1      42.421  23.939  26.293  1.00  0.00     0.055 A 
ATOM     60  C   UNL A   1      43.661  25.740  25.294  1.00  0.00     0.041 A 
ATOM     61  F   UNL A   1      43.903  27.765  26.446  1.00  0.00    -0.206 F 
ATOM     62  C   UNL A   1      43.196  24.430  25.239  1.00  0.00     0.022 A 
BRANCH  59  63
ATOM     63  S   UNL A   1      41.974  22.181  26.347  1.00  0.00     0.124 S 
ATOM     64  O   UNL A   1      42.419  21.804  27.686  1.00  0.00    -0.237 OA
ATOM     65  O   UNL A   1      40.531  22.216  26.137  1.00  0.00    -0.237 OA
ATOM     66  O   UNL A   1      42.749  21.597  25.254  1.00  0.00    -0.744 OA
ENDBRANCH  59  63
ENDBRANCH  42  56
BRANCH  43  67
ATOM     67  C   UNL A   1      40.370  31.943  35.281  1.00  0.00     0.023 A 
ATOM     68  C   UNL A   1      39.355  31.554  36.167  1.00  0.00     0.031 A 
ATOM     69  C   UNL A   1      41.022  33.167  35.519  1.00  0.00     0.131 A 
ATOM     70  C   UNL A   1      38.995  32.398  37.231  1.00  0.00     0.055 A 
ATOM     71  C   UNL A   1      40.694  33.979  36.605  1.00  0.00     0.041 A 
ATOM     72  F   UNL A   1      41.999  33.586  34.700  1.00  0.00    -0.206 F 
ATOM     73  C   UNL A   1      39.666  33.601  37.462  1.00  0.00     0.022 A 
BRANCH  70  74
ATOM     74  S   UNL A   1      37.583  31.933  38.269  1.00  0.00     0.124 S 
ATOM     75  O   UNL A   1      38.143  32.059  39.610  1.00  0.00    -0.237 OA
ATOM     76  O   UNL A   1      36.588  32.933  37.892  1.00  0.00    -0.237 OA
ATOM     77  O   UNL A   1      37.281  30.569  37.842  1.00  0.00    -0.744 OA
ENDBRANCH  70  74
ENDBRANCH  43  67
BRANCH  55  78
ATOM     78  C   UNL A   1      45.445  27.337  34.008  1.00  0.00     0.023 A 
ATOM     79  C   UNL A   1      46.699  27.964  33.902  1.00  0.00     0.031 A 
ATOM     80  C   UNL A   1      45.318  26.254  34.896  1.00  0.00     0.131 A 
ATOM     81  C   UNL A   1      47.789  27.469  34.633  1.00  0.00     0.055 A 
ATOM     82  C   UNL A   1      46.392  25.802  35.662  1.00  0.00     0.041 A 
ATOM     83  F   UNL A   1      44.142  25.618  35.034  1.00  0.00    -0.206 F 
ATOM     84  C   UNL A   1      47.640  26.402  35.524  1.00  0.00     0.022 A 
BRANCH  81  85
ATOM     85  S   UNL A   1      49.431  28.186  34.343  1.00  0.00     0.124 S 
ATOM     86  O   UNL A   1      49.263  29.544  34.851  1.00  0.00    -0.237 OA
ATOM     87  O   UNL A   1      50.297  27.313  35.127  1.00  0.00    -0.237 OA
ATOM     88  O   UNL A   1      49.598  28.084  32.894  1.00  0.00    -0.744 OA
ENDBRANCH  81  85
ENDBRANCH  55  78
ENDBRANCH  29  30
ENDBRANCH  22  24
ENDBRANCH  21  22
ENDBRANCH  20  21
ENDBRANCH   1  20
TORSDOF 19
ENDMDL
MODEL 3
REMARK VINA RESULT:     -10.1      1.843      2.375
REMARK SMILES CC[C@H](C(=O)OCCOC(=O)c1ccc(-c2c3nc(c(-c4cc(S(=O)(=O)[O-])ccc4F)c4ccc([nH]4)c(-c4cc(S(=O)(=O)[O-])ccc4F)c4nc(c(-c5cc(S(=O)(=O)[O-])ccc5F)c5ccc2[nH]5)C=C4)C=C3)cc1)[N@@H+](C)Cc1cncn1C(C)C
REMARK SMILES IDX 7 1 6 2 4 3 5 4 3 5 2 6 1 7 75 8 76 9 77 11 78 12 79 13
REMARK SMILES IDX 82 14 80 15 81 16 83 17 84 18 85 19 8 20 9 21 10 22 11 23
REMARK SMILES IDX 12 24 13 25 74 26 14 27 73 28 15 29 16 30 17 31 67 32 18 33
REMARK SMILES IDX 72 34 66 35 68 36 19 37 71 38 65 39 64 40 20 42 52 43 32 44
REMARK SMILES IDX 51 45 33 46 36 47 50 48 69 49 34 50 35 51 49 53 70 54 37 55
REMARK SMILES IDX 21 56 22 57 30 58 23 59 29 60 31 61 28 62 24 63 25 64 26 65
REMARK SMILES IDX 27 66 53 67 54 68 62 69 55 70 61 71 63 72 60 73 56 74 57 75
REMARK SMILES IDX 58 76 59 77 38 78 39 79 47 80 40 81 46 82 48 83 45 84 41 85
REMARK SMILES IDX 42 86 43 87 44 88
REMARK H PARENT 75 10 68 41 36 52
REMARK Flexibility Score: inf
ROOT
ATOM      1  C   UNL A   1      35.714  20.532  24.950  1.00  0.00     0.274 C 
ENDROOT
BRANCH   1   2
ATOM      2  O   UNL A   1      35.251  21.243  26.112  1.00  0.00    -0.458 OA
BRANCH   2   3
ATOM      3  C   UNL A   1      33.911  21.518  26.170  1.00  0.00     0.365 C 
ATOM      4  O   UNL A   1      33.335  21.819  27.206  1.00  0.00    -0.245 OA
BRANCH   3   5
ATOM      5  C   UNL A   1      33.279  21.374  24.761  1.00  0.00     0.294 C 
BRANCH   5   6
ATOM      6  C   UNL A   1      32.175  20.298  24.632  1.00  0.00     0.074 C 
ATOM      7  C   UNL A   1      32.644  18.880  24.347  1.00  0.00     0.011 C 
ENDBRANCH   5   6
BRANCH   5   8
ATOM      8  N   UNL A   1      32.971  22.685  24.112  1.00  0.00    -0.321 N 
ATOM      9  C   UNL A   1      33.856  23.003  22.996  1.00  0.00     0.333 C 
ATOM     10  H   UNL A   1      33.190  23.311  24.887  1.00  0.00     0.348 HD
BRANCH   8  11
ATOM     11  C   UNL A   1      31.572  23.060  23.864  1.00  0.00     0.319 C 
BRANCH  11  12
ATOM     12  C   UNL A   1      31.009  24.082  24.791  1.00  0.00     0.093 A 
ATOM     13  C   UNL A   1      30.626  23.960  26.116  1.00  0.00     0.140 A 
ATOM     14  N   UNL A   1      30.828  25.423  24.526  1.00  0.00    -0.327 N 
ATOM     15  N   UNL A   1      30.025  25.098  26.575  1.00  0.00    -0.245 NA
ATOM     16  C   UNL A   1      30.135  25.952  25.585  1.00  0.00     0.200 A 
BRANCH  14  17
ATOM     17  C   UNL A   1      31.391  26.214  23.434  1.00  0.00     0.082 C 
ATOM     18  C   UNL A   1      30.421  27.284  22.938  1.00  0.00     0.031 C 
ATOM     19  C   UNL A   1      32.737  26.824  23.839  1.00  0.00     0.031 C 
ENDBRANCH  14  17
ENDBRANCH  11  12
ENDBRANCH   8  11
ENDBRANCH   5   8
ENDBRANCH   3   5
ENDBRANCH   2   3
ENDBRANCH   1   2
BRANCH   1  20
ATOM     20  C   UNL A   1      37.217  20.743  24.758  1.00  0.00     0.275 C 
BRANCH  20  21
ATOM     21  O   UNL A   1      37.759  21.635  25.751  1.00  0.00    -0.458 OA
BRANCH  21  22
ATOM     22  C   UNL A   1      39.013  21.332  26.161  1.00  0.00     0.338 C 
ATOM     23  O   UNL A   1      39.583  20.252  26.047  1.00  0.00    -0.246 OA
BRANCH  22  24
ATOM     24  C   UNL A   1      39.685  22.540  26.662  1.00  0.00     0.060 A 
ATOM     25  C   UNL A   1      39.318  23.765  26.103  1.00  0.00     0.016 A 
ATOM     26  C   UNL A   1      40.709  22.478  27.609  1.00  0.00     0.016 A 
ATOM     27  C   UNL A   1      39.957  24.939  26.491  1.00  0.00     0.010 A 
ATOM     28  C   UNL A   1      41.366  23.655  27.986  1.00  0.00     0.010 A 
ATOM     29  C   UNL A   1      40.996  24.892  27.424  1.00  0.00    -0.014 A 
BRANCH  29  30
ATOM     30  C   UNL A   1      41.750  26.130  27.739  1.00  0.00     0.031 A 
ATOM     31  C   UNL A   1      41.058  27.249  28.464  1.00  0.00     0.074 A 
ATOM     32  C   UNL A   1      43.051  26.232  27.415  1.00  0.00     0.049 A 
ATOM     33  N   UNL A   1      41.499  28.445  28.756  1.00  0.00    -0.248 NA
ATOM     34  C   UNL A   1      39.687  26.980  28.918  1.00  0.00     0.031 C 
ATOM     35  C   UNL A   1      43.845  25.180  26.778  1.00  0.00     0.029 A 
ATOM     36  N   UNL A   1      43.935  27.269  27.575  1.00  0.00    -0.354 N 
ATOM     37  C   UNL A   1      40.455  29.081  29.419  1.00  0.00     0.074 A 
ATOM     38  C   UNL A   1      39.353  28.141  29.463  1.00  0.00     0.031 C 
ATOM     39  C   UNL A   1      45.097  25.632  26.593  1.00  0.00     0.029 A 
ATOM     40  C   UNL A   1      45.180  27.017  27.049  1.00  0.00     0.049 A 
ATOM     41  H   UNL A   1      43.699  28.113  28.024  1.00  0.00     0.167 HD
ATOM     42  C   UNL A   1      40.420  30.333  29.939  1.00  0.00     0.034 A 
ATOM     43  C   UNL A   1      46.250  27.826  26.913  1.00  0.00     0.034 A 
ATOM     44  C   UNL A   1      41.527  31.258  29.876  1.00  0.00     0.049 A 
ATOM     45  C   UNL A   1      46.157  29.247  27.411  1.00  0.00     0.074 A 
ATOM     46  C   UNL A   1      41.599  32.553  30.360  1.00  0.00     0.029 A 
ATOM     47  N   UNL A   1      42.755  30.991  29.283  1.00  0.00    -0.354 N 
ATOM     48  N   UNL A   1      45.152  29.852  28.003  1.00  0.00    -0.248 NA
ATOM     49  C   UNL A   1      47.342  30.094  27.220  1.00  0.00     0.031 C 
ATOM     50  C   UNL A   1      42.845  33.087  30.005  1.00  0.00     0.029 A 
ATOM     51  C   UNL A   1      43.578  32.103  29.363  1.00  0.00     0.049 A 
ATOM     52  H   UNL A   1      43.005  30.134  28.867  1.00  0.00     0.167 HD
ATOM     53  C   UNL A   1      45.593  31.145  28.272  1.00  0.00     0.074 A 
ATOM     54  C   UNL A   1      46.959  31.226  27.793  1.00  0.00     0.031 C 
ATOM     55  C   UNL A   1      44.933  32.173  28.864  1.00  0.00     0.034 A 
BRANCH  42  56
ATOM     56  C   UNL A   1      39.120  30.788  30.553  1.00  0.00     0.023 A 
ATOM     57  C   UNL A   1      38.086  31.344  29.779  1.00  0.00     0.031 A 
ATOM     58  C   UNL A   1      38.929  30.704  31.943  1.00  0.00     0.131 A 
ATOM     59  C   UNL A   1      36.942  31.861  30.407  1.00  0.00     0.055 A 
ATOM     60  C   UNL A   1      37.756  31.152  32.555  1.00  0.00     0.041 A 
ATOM     61  F   UNL A   1      39.890  30.204  32.736  1.00  0.00    -0.206 F 
ATOM     62  C   UNL A   1      36.760  31.747  31.788  1.00  0.00     0.022 A 
BRANCH  59  63
ATOM     63  S   UNL A   1      35.758  32.810  29.412  1.00  0.00     0.124 S 
ATOM     64  O   UNL A   1      35.732  32.041  28.171  1.00  0.00    -0.237 OA
ATOM     65  O   UNL A   1      34.549  32.756  30.224  1.00  0.00    -0.237 OA
ATOM     66  O   UNL A   1      36.380  34.129  29.306  1.00  0.00    -0.744 OA
ENDBRANCH  59  63
ENDBRANCH  42  56
BRANCH  43  67
ATOM     67  C   UNL A   1      47.478  27.342  26.221  1.00  0.00     0.023 A 
ATOM     68  C   UNL A   1      48.442  26.579  26.897  1.00  0.00     0.031 A 
ATOM     69  C   UNL A   1      47.726  27.681  24.878  1.00  0.00     0.131 A 
ATOM     70  C   UNL A   1      49.626  26.209  26.238  1.00  0.00     0.055 A 
ATOM     71  C   UNL A   1      48.882  27.270  24.215  1.00  0.00     0.041 A 
ATOM     72  F   UNL A   1      46.836  28.411  24.187  1.00  0.00    -0.206 F 
ATOM     73  C   UNL A   1      49.847  26.539  24.899  1.00  0.00     0.022 A 
BRANCH  70  74
ATOM     74  S   UNL A   1      50.913  25.349  27.185  1.00  0.00     0.124 S 
ATOM     75  O   UNL A   1      50.137  24.337  27.892  1.00  0.00    -0.237 OA
ATOM     76  O   UNL A   1      51.791  24.860  26.125  1.00  0.00    -0.237 OA
ATOM     77  O   UNL A   1      51.481  26.402  28.022  1.00  0.00    -0.744 OA
ENDBRANCH  70  74
ENDBRANCH  43  67
BRANCH  55  78
ATOM     78  C   UNL A   1      45.702  33.456  29.058  1.00  0.00     0.023 A 
ATOM     79  C   UNL A   1      45.642  34.503  28.122  1.00  0.00     0.031 A 
ATOM     80  C   UNL A   1      46.518  33.625  30.190  1.00  0.00     0.131 A 
ATOM     81  C   UNL A   1      46.427  35.651  28.309  1.00  0.00     0.055 A 
ATOM     82  C   UNL A   1      47.253  34.792  30.399  1.00  0.00     0.041 A 
ATOM     83  F   UNL A   1      46.612  32.655  31.115  1.00  0.00    -0.206 F 
ATOM     84  C   UNL A   1      47.220  35.809  29.449  1.00  0.00     0.022 A 
BRANCH  81  85
ATOM     85  S   UNL A   1      46.463  36.905  26.998  1.00  0.00     0.124 S 
ATOM     86  O   UNL A   1      47.369  37.903  27.557  1.00  0.00    -0.237 OA
ATOM     87  O   UNL A   1      46.969  36.151  25.857  1.00  0.00    -0.237 OA
ATOM     88  O   UNL A   1      45.067  37.328  26.889  1.00  0.00    -0.744 OA
ENDBRANCH  81  85
ENDBRANCH  55  78
ENDBRANCH  29  30
ENDBRANCH  22  24
ENDBRANCH  21  22
ENDBRANCH  20  21
ENDBRANCH   1  20
TORSDOF 19
ENDMDL
