MODEL 1
REMARK VINA RESULT:     -11.6      0.000      0.000
REMARK SMILES CN(CCc1cccs1)C(=O)N[C@@H]1COC[C@H]1C(=O)OCCOC(=O)c1ccc(-c2c3nc(c(-c4cc(S(=O)(=O)[O-])ccc4F)c4ccc([nH]4)c(-c4cc(S(=O)(=O)[O-])ccc4F)c4nc(c(-c5cc(S(=O)(=O)[O-])ccc5F)c5ccc2[nH]5)C=C4)C=C3)cc1
REMARK SMILES IDX 21 1 20 2 18 3 19 4 17 5 13 6 14 7 15 8 16 9 12 10 10 11
REMARK SMILES IDX 11 12 2 14 1 15 3 16 4 17 5 18 6 19 9 20 7 21 8 22 22 23
REMARK SMILES IDX 23 24 24 25 25 26 26 27 27 28 88 29 28 30 87 31 29 32 30 33
REMARK SMILES IDX 31 34 81 35 32 36 86 37 80 38 82 39 33 40 85 41 79 42 78 43
REMARK SMILES IDX 34 45 66 46 46 47 65 48 47 49 50 50 64 51 83 52 48 53 49 54
REMARK SMILES IDX 63 56 84 57 51 58 35 59 36 60 44 61 37 62 43 63 45 64 42 65
REMARK SMILES IDX 38 66 39 67 40 68 41 69 67 70 68 71 76 72 69 73 75 74 77 75
REMARK SMILES IDX 74 76 70 77 71 78 72 79 73 80 52 81 53 82 61 83 54 84 60 85
REMARK SMILES IDX 62 86 59 87 55 88 56 89 57 90 58 91
REMARK H PARENT 12 13 82 44 50 55
REMARK Flexibility Score: inf
ROOT
ATOM      1  C   UNL A   1      36.723  21.568  25.755  1.00  0.00     0.274 C 
ENDROOT
BRANCH   1   2
ATOM      2  O   UNL A   1      35.638  20.735  25.335  1.00  0.00    -0.462 OA
BRANCH   2   3
ATOM      3  C   UNL A   1      34.431  21.265  25.009  1.00  0.00     0.313 C 
ATOM      4  O   UNL A   1      33.536  20.616  24.480  1.00  0.00    -0.252 OA
BRANCH   3   5
ATOM      5  C   UNL A   1      34.214  22.800  25.639  1.00  0.00     0.150 C 
ATOM      6  C   UNL A   1      33.109  24.699  25.105  1.00  0.00     0.126 C 
ATOM      7  C   UNL A   1      31.753  24.815  26.515  1.00  0.00     0.186 C 
ATOM      8  O   UNL A   1      31.827  23.363  27.539  1.00  0.00    -0.378 OA
ATOM      9  C   UNL A   1      33.151  22.201  27.211  1.00  0.00     0.177 C 
BRANCH   6  10
ATOM     10  N   UNL A   1      33.445  26.039  24.473  1.00  0.00    -0.332 N 
ATOM     11  C   UNL A   1      32.945  26.647  23.355  1.00  0.00     0.317 C 
ATOM     12  O   UNL A   1      33.602  27.606  22.938  1.00  0.00    -0.249 OA
ATOM     13  H   UNL A   1      34.135  26.556  24.948  1.00  0.00     0.165 HD
BRANCH  11  14
ATOM     14  N   UNL A   1      31.827  26.181  22.665  1.00  0.00    -0.328 N 
ATOM     15  C   UNL A   1      32.055  25.952  21.242  1.00  0.00     0.148 C 
BRANCH  14  16
ATOM     16  C   UNL A   1      30.437  25.909  23.122  1.00  0.00     0.126 C 
BRANCH  16  17
ATOM     17  C   UNL A   1      29.718  27.029  23.910  1.00  0.00     0.068 C 
BRANCH  17  18
ATOM     18  C   UNL A   1      29.412  28.173  22.997  1.00  0.00     0.006 A 
ATOM     19  C   UNL A   1      30.375  29.448  22.324  1.00  0.00     0.015 A 
ATOM     20  S   UNL A   1      27.286  28.784  23.188  1.00  0.00    -0.149 S 
ATOM     21  C   UNL A   1      29.125  31.150  22.144  1.00  0.00     0.012 A 
ATOM     22  C   UNL A   1      27.606  30.873  22.638  1.00  0.00     0.065 A 
ENDBRANCH  17  18
ENDBRANCH  16  17
ENDBRANCH  14  16
ENDBRANCH  11  14
ENDBRANCH   6  10
ENDBRANCH   3   5
ENDBRANCH   2   3
ENDBRANCH   1   2
BRANCH   1  23
ATOM     23  C   UNL A   1      38.007  20.809  25.364  1.00  0.00     0.275 C 
BRANCH  23  24
ATOM     24  O   UNL A   1      39.272  21.526  25.417  1.00  0.00    -0.458 OA
BRANCH  24  25
ATOM     25  C   UNL A   1      39.992  21.529  26.559  1.00  0.00     0.338 C 
ATOM     26  O   UNL A   1      40.411  20.547  27.150  1.00  0.00    -0.246 OA
BRANCH  25  27
ATOM     27  C   UNL A   1      40.091  22.887  27.145  1.00  0.00     0.060 A 
ATOM     28  C   UNL A   1      41.117  23.079  28.070  1.00  0.00     0.016 A 
ATOM     29  C   UNL A   1      39.267  23.964  26.813  1.00  0.00     0.016 A 
ATOM     30  C   UNL A   1      41.297  24.311  28.686  1.00  0.00     0.010 A 
ATOM     31  C   UNL A   1      39.578  25.251  27.301  1.00  0.00     0.010 A 
ATOM     32  C   UNL A   1      40.637  25.447  28.206  1.00  0.00    -0.014 A 
BRANCH  32  33
ATOM     33  C   UNL A   1      41.212  26.793  28.538  1.00  0.00     0.031 A 
ATOM     34  C   UNL A   1      40.409  27.873  29.213  1.00  0.00     0.074 A 
ATOM     35  C   UNL A   1      42.505  27.042  28.209  1.00  0.00     0.049 A 
ATOM     36  N   UNL A   1      40.738  29.122  29.435  1.00  0.00    -0.248 NA
ATOM     37  C   UNL A   1      39.068  27.513  29.691  1.00  0.00     0.031 C 
ATOM     38  C   UNL A   1      43.416  26.084  27.565  1.00  0.00     0.029 A 
ATOM     39  N   UNL A   1      43.299  28.152  28.380  1.00  0.00    -0.354 N 
ATOM     40  C   UNL A   1      39.634  29.709  30.047  1.00  0.00     0.074 A 
ATOM     41  C   UNL A   1      38.619  28.679  30.138  1.00  0.00     0.031 C 
ATOM     42  C   UNL A   1      44.643  26.606  27.485  1.00  0.00     0.029 A 
ATOM     43  C   UNL A   1      44.583  27.993  27.906  1.00  0.00     0.049 A 
ATOM     44  H   UNL A   1      42.978  28.983  28.802  1.00  0.00     0.167 HD
ATOM     45  C   UNL A   1      39.491  30.985  30.491  1.00  0.00     0.034 A 
ATOM     46  C   UNL A   1      45.596  28.866  27.747  1.00  0.00     0.034 A 
ATOM     47  C   UNL A   1      40.522  31.994  30.396  1.00  0.00     0.049 A 
ATOM     48  C   UNL A   1      45.368  30.295  28.144  1.00  0.00     0.074 A 
ATOM     49  C   UNL A   1      40.477  33.313  30.819  1.00  0.00     0.029 A 
ATOM     50  N   UNL A   1      41.781  31.807  29.837  1.00  0.00    -0.354 N 
ATOM     51  N   UNL A   1      44.301  30.836  28.683  1.00  0.00    -0.248 NA
ATOM     52  C   UNL A   1      46.470  31.232  27.905  1.00  0.00     0.031 C 
ATOM     53  C   UNL A   1      41.662  33.943  30.430  1.00  0.00     0.029 A 
ATOM     54  C   UNL A   1      42.498  32.994  29.868  1.00  0.00     0.049 A 
ATOM     55  H   UNL A   1      42.114  30.955  29.471  1.00  0.00     0.167 HD
ATOM     56  C   UNL A   1      44.622  32.173  28.885  1.00  0.00     0.074 A 
ATOM     57  C   UNL A   1      45.986  32.347  28.427  1.00  0.00     0.031 C 
ATOM     58  C   UNL A   1      43.856  33.164  29.406  1.00  0.00     0.034 A 
BRANCH  45  59
ATOM     59  C   UNL A   1      38.153  31.385  31.070  1.00  0.00     0.023 A 
ATOM     60  C   UNL A   1      37.125  31.912  30.271  1.00  0.00     0.031 A 
ATOM     61  C   UNL A   1      37.902  31.237  32.447  1.00  0.00     0.131 A 
ATOM     62  C   UNL A   1      35.926  32.337  30.865  1.00  0.00     0.055 A 
ATOM     63  C   UNL A   1      36.672  31.575  33.016  1.00  0.00     0.041 A 
ATOM     64  F   UNL A   1      38.852  30.760  33.268  1.00  0.00    -0.206 F 
ATOM     65  C   UNL A   1      35.680  32.144  32.226  1.00  0.00     0.022 A 
BRANCH  62  66
ATOM     66  S   UNL A   1      34.762  33.299  29.861  1.00  0.00     0.124 S 
ATOM     67  O   UNL A   1      34.157  32.255  29.038  1.00  0.00    -0.237 OA
ATOM     68  O   UNL A   1      33.898  33.901  30.869  1.00  0.00    -0.237 OA
ATOM     69  O   UNL A   1      35.624  34.233  29.138  1.00  0.00    -0.744 OA
ENDBRANCH  62  66
ENDBRANCH  45  59
BRANCH  46  70
ATOM     70  C   UNL A   1      46.885  28.440  27.119  1.00  0.00     0.023 A 
ATOM     71  C   UNL A   1      46.999  28.316  25.727  1.00  0.00     0.031 A 
ATOM     72  C   UNL A   1      48.000  28.085  27.902  1.00  0.00     0.131 A 
ATOM     73  C   UNL A   1      48.172  27.787  25.166  1.00  0.00     0.055 A 
ATOM     74  C   UNL A   1      49.197  27.646  27.334  1.00  0.00     0.041 A 
ATOM     75  F   UNL A   1      47.949  28.170  29.241  1.00  0.00    -0.206 F 
ATOM     76  C   UNL A   1      49.280  27.475  25.956  1.00  0.00     0.022 A 
BRANCH  73  77
ATOM     77  S   UNL A   1      48.168  27.367  23.403  1.00  0.00     0.124 S 
ATOM     78  O   UNL A   1      49.489  27.828  22.990  1.00  0.00    -0.237 OA
ATOM     79  O   UNL A   1      47.974  25.921  23.436  1.00  0.00    -0.237 OA
ATOM     80  O   UNL A   1      47.044  28.135  22.873  1.00  0.00    -0.744 OA
ENDBRANCH  73  77
ENDBRANCH  46  70
BRANCH  58  81
ATOM     81  C   UNL A   1      44.509  34.513  29.575  1.00  0.00     0.023 A 
ATOM     82  C   UNL A   1      44.443  35.501  28.577  1.00  0.00     0.031 A 
ATOM     83  C   UNL A   1      45.238  34.801  30.743  1.00  0.00     0.131 A 
ATOM     84  C   UNL A   1      45.159  36.697  28.733  1.00  0.00     0.055 A 
ATOM     85  C   UNL A   1      45.870  36.029  30.932  1.00  0.00     0.041 A 
ATOM     86  F   UNL A   1      45.348  33.889  31.723  1.00  0.00    -0.206 F 
ATOM     87  C   UNL A   1      45.848  36.979  29.916  1.00  0.00     0.022 A 
BRANCH  84  88
ATOM     88  S   UNL A   1      45.295  37.814  27.313  1.00  0.00     0.124 S 
ATOM     89  O   UNL A   1      43.908  37.910  26.870  1.00  0.00    -0.237 OA
ATOM     90  O   UNL A   1      45.857  39.019  27.915  1.00  0.00    -0.237 OA
ATOM     91  O   UNL A   1      46.190  37.101  26.402  1.00  0.00    -0.744 OA
ENDBRANCH  84  88
ENDBRANCH  58  81
ENDBRANCH  32  33
ENDBRANCH  25  27
ENDBRANCH  24  25
ENDBRANCH  23  24
ENDBRANCH   1  23
TORSDOF 19
ENDMDL
MODEL 2
REMARK VINA RESULT:     -11.5      1.797      2.293
REMARK SMILES CN(CCc1cccs1)C(=O)N[C@@H]1COC[C@H]1C(=O)OCCOC(=O)c1ccc(-c2c3nc(c(-c4cc(S(=O)(=O)[O-])ccc4F)c4ccc([nH]4)c(-c4cc(S(=O)(=O)[O-])ccc4F)c4nc(c(-c5cc(S(=O)(=O)[O-])ccc5F)c5ccc2[nH]5)C=C4)C=C3)cc1
REMARK SMILES IDX 21 1 20 2 18 3 19 4 17 5 13 6 14 7 15 8 16 9 12 10 10 11
REMARK SMILES IDX 11 12 2 14 1 15 3 16 4 17 5 18 6 19 9 20 7 21 8 22 22 23
REMARK SMILES IDX 23 24 24 25 25 26 26 27 27 28 88 29 28 30 87 31 29 32 30 33
REMARK SMILES IDX 31 34 81 35 32 36 86 37 80 38 82 39 33 40 85 41 79 42 78 43
REMARK SMILES IDX 34 45 66 46 46 47 65 48 47 49 50 50 64 51 83 52 48 53 49 54
REMARK SMILES IDX 63 56 84 57 51 58 35 59 36 60 44 61 37 62 43 63 45 64 42 65
REMARK SMILES IDX 38 66 39 67 40 68 41 69 67 70 68 71 76 72 69 73 75 74 77 75
REMARK SMILES IDX 74 76 70 77 71 78 72 79 73 80 52 81 53 82 61 83 54 84 60 85
REMARK SMILES IDX 62 86 59 87 55 88 56 89 57 90 58 91
REMARK H PARENT 12 13 82 44 50 55
REMARK Flexibility Score: inf
ROOT
ATOM      1  C   UNL A   1      35.897  21.127  24.718  1.00  0.00     0.274 C 
ENDROOT
BRANCH   1   2
ATOM      2  O   UNL A   1      35.540  21.492  26.055  1.00  0.00    -0.462 OA
BRANCH   2   3
ATOM      3  C   UNL A   1      34.241  21.629  26.423  1.00  0.00     0.313 C 
ATOM      4  O   UNL A   1      33.770  21.103  27.426  1.00  0.00    -0.252 OA
BRANCH   3   5
ATOM      5  C   UNL A   1      33.438  22.787  25.522  1.00  0.00     0.150 C 
ATOM      6  C   UNL A   1      33.947  24.433  24.057  1.00  0.00     0.126 C 
ATOM      7  C   UNL A   1      33.174  23.770  22.383  1.00  0.00     0.186 C 
ATOM      8  O   UNL A   1      32.526  22.133  22.630  1.00  0.00    -0.378 OA
ATOM      9  C   UNL A   1      32.556  21.487  24.301  1.00  0.00     0.177 C 
BRANCH   6  10
ATOM     10  N   UNL A   1      34.109  25.944  24.096  1.00  0.00    -0.332 N 
ATOM     11  C   UNL A   1      33.174  26.938  24.168  1.00  0.00     0.317 C 
ATOM     12  O   UNL A   1      33.589  28.072  23.908  1.00  0.00    -0.249 OA
ATOM     13  H   UNL A   1      35.041  26.258  24.066  1.00  0.00     0.165 HD
BRANCH  11  14
ATOM     14  N   UNL A   1      31.824  26.703  24.424  1.00  0.00    -0.328 N 
ATOM     15  C   UNL A   1      31.475  26.707  25.841  1.00  0.00     0.148 C 
BRANCH  14  16
ATOM     16  C   UNL A   1      30.687  26.416  23.508  1.00  0.00     0.126 C 
BRANCH  16  17
ATOM     17  C   UNL A   1      30.301  27.516  22.492  1.00  0.00     0.068 C 
BRANCH  17  18
ATOM     18  C   UNL A   1      29.389  28.506  23.141  1.00  0.00     0.006 A 
ATOM     19  C   UNL A   1      27.753  28.996  22.836  1.00  0.00     0.015 A 
ATOM     20  S   UNL A   1      30.552  30.137  24.100  1.00  0.00    -0.149 S 
ATOM     21  C   UNL A   1      27.608  31.048  23.341  1.00  0.00     0.012 A 
ATOM     22  C   UNL A   1      29.001  31.662  23.898  1.00  0.00     0.065 A 
ENDBRANCH  17  18
ENDBRANCH  16  17
ENDBRANCH  14  16
ENDBRANCH  11  14
ENDBRANCH   6  10
ENDBRANCH   3   5
ENDBRANCH   2   3
ENDBRANCH   1   2
BRANCH   1  23
ATOM     23  C   UNL A   1      37.426  20.932  24.733  1.00  0.00     0.275 C 
BRANCH  23  24
ATOM     24  O   UNL A   1      38.084  20.757  26.019  1.00  0.00    -0.458 OA
BRANCH  24  25
ATOM     25  C   UNL A   1      39.409  20.989  26.131  1.00  0.00     0.338 C 
ATOM     26  O   UNL A   1      40.302  20.181  25.934  1.00  0.00    -0.246 OA
BRANCH  25  27
ATOM     27  C   UNL A   1      39.688  22.329  26.701  1.00  0.00     0.060 A 
ATOM     28  C   UNL A   1      40.722  22.392  27.634  1.00  0.00     0.016 A 
ATOM     29  C   UNL A   1      39.021  23.504  26.347  1.00  0.00     0.016 A 
ATOM     30  C   UNL A   1      41.064  23.596  28.237  1.00  0.00     0.010 A 
ATOM     31  C   UNL A   1      39.501  24.743  26.822  1.00  0.00     0.010 A 
ATOM     32  C   UNL A   1      40.569  24.805  27.736  1.00  0.00    -0.014 A 
BRANCH  32  33
ATOM     33  C   UNL A   1      41.320  26.064  28.057  1.00  0.00     0.031 A 
ATOM     34  C   UNL A   1      40.705  27.198  28.835  1.00  0.00     0.074 A 
ATOM     35  C   UNL A   1      42.599  26.182  27.622  1.00  0.00     0.049 A 
ATOM     36  N   UNL A   1      41.192  28.392  29.065  1.00  0.00    -0.248 NA
ATOM     37  C   UNL A   1      39.378  26.969  29.420  1.00  0.00     0.031 C 
ATOM     38  C   UNL A   1      43.337  25.157  26.869  1.00  0.00     0.029 A 
ATOM     39  N   UNL A   1      43.526  27.190  27.756  1.00  0.00    -0.354 N 
ATOM     40  C   UNL A   1      40.219  29.072  29.792  1.00  0.00     0.074 A 
ATOM     41  C   UNL A   1      39.104  28.159  29.941  1.00  0.00     0.031 C 
ATOM     42  C   UNL A   1      44.604  25.542  26.696  1.00  0.00     0.029 A 
ATOM     43  C   UNL A   1      44.739  26.909  27.163  1.00  0.00     0.049 A 
ATOM     44  H   UNL A   1      43.340  28.033  28.230  1.00  0.00     0.167 HD
ATOM     45  C   UNL A   1      40.260  30.337  30.287  1.00  0.00     0.034 A 
ATOM     46  C   UNL A   1      45.828  27.670  26.942  1.00  0.00     0.034 A 
ATOM     47  C   UNL A   1      41.388  31.229  30.132  1.00  0.00     0.049 A 
ATOM     48  C   UNL A   1      45.798  29.099  27.402  1.00  0.00     0.074 A 
ATOM     49  C   UNL A   1      41.529  32.526  30.598  1.00  0.00     0.029 A 
ATOM     50  N   UNL A   1      42.565  30.926  29.457  1.00  0.00    -0.354 N 
ATOM     51  N   UNL A   1      44.850  29.731  28.052  1.00  0.00    -0.248 NA
ATOM     52  C   UNL A   1      46.976  29.917  27.095  1.00  0.00     0.031 C 
ATOM     53  C   UNL A   1      42.740  33.036  30.125  1.00  0.00     0.029 A 
ATOM     54  C   UNL A   1      43.412  32.024  29.460  1.00  0.00     0.049 A 
ATOM     55  H   UNL A   1      42.766  30.058  29.036  1.00  0.00     0.167 HD
ATOM     56  C   UNL A   1      45.337  31.015  28.266  1.00  0.00     0.074 A 
ATOM     57  C   UNL A   1      46.668  31.056  27.694  1.00  0.00     0.031 C 
ATOM     58  C   UNL A   1      44.736  32.062  28.884  1.00  0.00     0.034 A 
BRANCH  45  59
ATOM     59  C   UNL A   1      39.032  30.859  30.996  1.00  0.00     0.023 A 
ATOM     60  C   UNL A   1      38.003  31.522  30.308  1.00  0.00     0.031 A 
ATOM     61  C   UNL A   1      38.887  30.688  32.386  1.00  0.00     0.131 A 
ATOM     62  C   UNL A   1      36.915  32.053  31.019  1.00  0.00     0.055 A 
ATOM     63  C   UNL A   1      37.757  31.136  33.073  1.00  0.00     0.041 A 
ATOM     64  F   UNL A   1      39.846  30.081  33.104  1.00  0.00    -0.206 F 
ATOM     65  C   UNL A   1      36.769  31.838  32.392  1.00  0.00     0.022 A 
BRANCH  62  66
ATOM     66  S   UNL A   1      35.782  33.172  30.151  1.00  0.00     0.124 S 
ATOM     67  O   UNL A   1      35.532  34.184  31.174  1.00  0.00    -0.237 OA
ATOM     68  O   UNL A   1      36.577  33.601  29.007  1.00  0.00    -0.237 OA
ATOM     69  O   UNL A   1      34.637  32.320  29.834  1.00  0.00    -0.744 OA
ENDBRANCH  62  66
ENDBRANCH  45  59
BRANCH  46  70
ATOM     70  C   UNL A   1      47.001  27.131  26.188  1.00  0.00     0.023 A 
ATOM     71  C   UNL A   1      48.012  26.417  26.848  1.00  0.00     0.031 A 
ATOM     72  C   UNL A   1      47.166  27.380  24.812  1.00  0.00     0.131 A 
ATOM     73  C   UNL A   1      49.169  26.037  26.150  1.00  0.00     0.055 A 
ATOM     74  C   UNL A   1      48.276  26.919  24.102  1.00  0.00     0.041 A 
ATOM     75  F   UNL A   1      46.239  28.069  24.127  1.00  0.00    -0.206 F 
ATOM     76  C   UNL A   1      49.297  26.261  24.778  1.00  0.00     0.022 A 
BRANCH  73  77
ATOM     77  S   UNL A   1      50.570  25.385  27.098  1.00  0.00     0.124 S 
ATOM     78  O   UNL A   1      49.942  24.294  27.833  1.00  0.00    -0.237 OA
ATOM     79  O   UNL A   1      51.497  24.997  26.040  1.00  0.00    -0.237 OA
ATOM     80  O   UNL A   1      50.992  26.525  27.908  1.00  0.00    -0.744 OA
ENDBRANCH  73  77
ENDBRANCH  46  70
BRANCH  58  81
ATOM     81  C   UNL A   1      45.551  33.323  29.036  1.00  0.00     0.023 A 
ATOM     82  C   UNL A   1      45.452  34.386  28.123  1.00  0.00     0.031 A 
ATOM     83  C   UNL A   1      46.466  33.445  30.097  1.00  0.00     0.131 A 
ATOM     84  C   UNL A   1      46.309  35.490  28.243  1.00  0.00     0.055 A 
ATOM     85  C   UNL A   1      47.249  34.586  30.264  1.00  0.00     0.041 A 
ATOM     86  F   UNL A   1      46.614  32.454  30.991  1.00  0.00    -0.206 F 
ATOM     87  C   UNL A   1      47.187  35.610  29.324  1.00  0.00     0.022 A 
BRANCH  84  88
ATOM     88  S   UNL A   1      46.363  36.695  26.890  1.00  0.00     0.124 S 
ATOM     89  O   UNL A   1      47.464  37.560  27.301  1.00  0.00    -0.237 OA
ATOM     90  O   UNL A   1      46.616  35.850  25.728  1.00  0.00    -0.237 OA
ATOM     91  O   UNL A   1      45.039  37.313  26.931  1.00  0.00    -0.744 OA
ENDBRANCH  84  88
ENDBRANCH  58  81
ENDBRANCH  32  33
ENDBRANCH  25  27
ENDBRANCH  24  25
ENDBRANCH  23  24
ENDBRANCH   1  23
TORSDOF 19
ENDMDL
MODEL 3
REMARK VINA RESULT:     -11.2      0.858      7.568
REMARK SMILES CN(CCc1cccs1)C(=O)N[C@@H]1COC[C@H]1C(=O)OCCOC(=O)c1ccc(-c2c3nc(c(-c4cc(S(=O)(=O)[O-])ccc4F)c4ccc([nH]4)c(-c4cc(S(=O)(=O)[O-])ccc4F)c4nc(c(-c5cc(S(=O)(=O)[O-])ccc5F)c5ccc2[nH]5)C=C4)C=C3)cc1
REMARK SMILES IDX 21 1 20 2 18 3 19 4 17 5 13 6 14 7 15 8 16 9 12 10 10 11
REMARK SMILES IDX 11 12 2 14 1 15 3 16 4 17 5 18 6 19 9 20 7 21 8 22 22 23
REMARK SMILES IDX 23 24 24 25 25 26 26 27 27 28 88 29 28 30 87 31 29 32 30 33
REMARK SMILES IDX 31 34 81 35 32 36 86 37 80 38 82 39 33 40 85 41 79 42 78 43
REMARK SMILES IDX 34 45 66 46 46 47 65 48 47 49 50 50 64 51 83 52 48 53 49 54
REMARK SMILES IDX 63 56 84 57 51 58 35 59 36 60 44 61 37 62 43 63 45 64 42 65
REMARK SMILES IDX 38 66 39 67 40 68 41 69 67 70 68 71 76 72 69 73 75 74 77 75
REMARK SMILES IDX 74 76 70 77 71 78 72 79 73 80 52 81 53 82 61 83 54 84 60 85
REMARK SMILES IDX 62 86 59 87 55 88 56 89 57 90 58 91
REMARK H PARENT 12 13 82 44 50 55
REMARK Flexibility Score: inf
ROOT
ATOM      1  C   UNL A   1      36.300  21.358  25.486  1.00  0.00     0.274 C 
ENDROOT
BRANCH   1   2
ATOM      2  O   UNL A   1      35.237  20.762  24.734  1.00  0.00    -0.462 OA
BRANCH   2   3
ATOM      3  C   UNL A   1      34.030  21.372  24.620  1.00  0.00     0.313 C 
ATOM      4  O   UNL A   1      33.035  20.809  24.176  1.00  0.00    -0.252 OA
BRANCH   3   5
ATOM      5  C   UNL A   1      33.989  22.860  25.383  1.00  0.00     0.150 C 
ATOM      6  C   UNL A   1      33.078  24.902  25.045  1.00  0.00     0.126 C 
ATOM      7  C   UNL A   1      31.773  25.034  26.501  1.00  0.00     0.186 C 
ATOM      8  O   UNL A   1      31.718  23.499  27.397  1.00  0.00    -0.378 OA
ATOM      9  C   UNL A   1      32.904  22.240  26.931  1.00  0.00     0.177 C 
BRANCH   6  10
ATOM     10  N   UNL A   1      33.539  26.251  24.517  1.00  0.00    -0.332 N 
ATOM     11  C   UNL A   1      33.287  26.875  23.327  1.00  0.00     0.317 C 
ATOM     12  O   UNL A   1      34.017  27.838  23.073  1.00  0.00    -0.249 OA
ATOM     13  H   UNL A   1      34.111  26.760  25.135  1.00  0.00     0.165 HD
BRANCH  11  14
ATOM     14  N   UNL A   1      32.342  26.420  22.409  1.00  0.00    -0.328 N 
ATOM     15  C   UNL A   1      32.904  25.651  21.304  1.00  0.00     0.148 C 
BRANCH  14  16
ATOM     16  C   UNL A   1      30.868  26.611  22.345  1.00  0.00     0.126 C 
BRANCH  16  17
ATOM     17  C   UNL A   1      30.098  26.646  23.686  1.00  0.00     0.068 C 
BRANCH  17  18
ATOM     18  C   UNL A   1      29.239  27.867  23.744  1.00  0.00     0.006 A 
ATOM     19  C   UNL A   1      27.661  28.243  23.131  1.00  0.00     0.015 A 
ATOM     20  S   UNL A   1      30.485  29.696  23.934  1.00  0.00    -0.149 S 
ATOM     21  C   UNL A   1      27.656  30.302  22.631  1.00  0.00     0.012 A 
ATOM     22  C   UNL A   1      29.067  31.033  22.946  1.00  0.00     0.065 A 
ENDBRANCH  17  18
ENDBRANCH  16  17
ENDBRANCH  14  16
ENDBRANCH  11  14
ENDBRANCH   6  10
ENDBRANCH   3   5
ENDBRANCH   2   3
ENDBRANCH   1   2
BRANCH   1  23
ATOM     23  C   UNL A   1      37.522  20.441  25.278  1.00  0.00     0.275 C 
BRANCH  23  24
ATOM     24  O   UNL A   1      38.836  21.060  25.185  1.00  0.00    -0.458 OA
BRANCH  24  25
ATOM     25  C   UNL A   1      39.640  21.090  26.269  1.00  0.00     0.338 C 
ATOM     26  O   UNL A   1      40.081  20.123  26.867  1.00  0.00    -0.246 OA
BRANCH  25  27
ATOM     27  C   UNL A   1      39.811  22.468  26.790  1.00  0.00     0.060 A 
ATOM     28  C   UNL A   1      40.920  22.678  27.607  1.00  0.00     0.016 A 
ATOM     29  C   UNL A   1      38.973  23.545  26.494  1.00  0.00     0.016 A 
ATOM     30  C   UNL A   1      41.173  23.929  28.156  1.00  0.00     0.010 A 
ATOM     31  C   UNL A   1      39.345  24.844  26.900  1.00  0.00     0.010 A 
ATOM     32  C   UNL A   1      40.486  25.057  27.694  1.00  0.00    -0.014 A 
BRANCH  32  33
ATOM     33  C   UNL A   1      41.107  26.405  27.919  1.00  0.00     0.031 A 
ATOM     34  C   UNL A   1      42.516  26.728  27.495  1.00  0.00     0.074 A 
ATOM     35  C   UNL A   1      40.368  27.363  28.532  1.00  0.00     0.049 A 
ATOM     36  N   UNL A   1      43.221  27.802  27.748  1.00  0.00    -0.248 NA
ATOM     37  C   UNL A   1      43.226  25.719  26.699  1.00  0.00     0.031 C 
ATOM     38  C   UNL A   1      38.979  27.202  28.985  1.00  0.00     0.029 A 
ATOM     39  N   UNL A   1      40.651  28.666  28.869  1.00  0.00    -0.354 N 
ATOM     40  C   UNL A   1      44.471  27.589  27.172  1.00  0.00     0.074 A 
ATOM     41  C   UNL A   1      44.428  26.267  26.579  1.00  0.00     0.031 C 
ATOM     42  C   UNL A   1      38.511  28.367  29.443  1.00  0.00     0.029 A 
ATOM     43  C   UNL A   1      39.605  29.318  29.486  1.00  0.00     0.049 A 
ATOM     44  H   UNL A   1      41.521  29.093  28.687  1.00  0.00     0.167 HD
ATOM     45  C   UNL A   1      45.544  28.421  27.143  1.00  0.00     0.034 A 
ATOM     46  C   UNL A   1      39.527  30.518  30.092  1.00  0.00     0.034 A 
ATOM     47  C   UNL A   1      45.560  29.740  27.737  1.00  0.00     0.049 A 
ATOM     48  C   UNL A   1      40.764  31.368  30.142  1.00  0.00     0.074 A 
ATOM     49  C   UNL A   1      46.595  30.660  27.759  1.00  0.00     0.029 A 
ATOM     50  N   UNL A   1      44.501  30.327  28.419  1.00  0.00    -0.354 N 
ATOM     51  N   UNL A   1      41.945  31.127  29.625  1.00  0.00    -0.248 NA
ATOM     52  C   UNL A   1      40.662  32.643  30.858  1.00  0.00     0.031 C 
ATOM     53  C   UNL A   1      46.198  31.754  28.531  1.00  0.00     0.029 A 
ATOM     54  C   UNL A   1      44.875  31.574  28.898  1.00  0.00     0.049 A 
ATOM     55  H   UNL A   1      43.614  29.916  28.544  1.00  0.00     0.167 HD
ATOM     56  C   UNL A   1      42.718  32.243  29.923  1.00  0.00     0.074 A 
ATOM     57  C   UNL A   1      41.861  33.161  30.645  1.00  0.00     0.031 C 
ATOM     58  C   UNL A   1      44.018  32.484  29.621  1.00  0.00     0.034 A 
BRANCH  45  59
ATOM     59  C   UNL A   1      46.813  27.915  26.497  1.00  0.00     0.023 A 
ATOM     60  C   UNL A   1      47.075  28.100  25.130  1.00  0.00     0.031 A 
ATOM     61  C   UNL A   1      47.779  27.235  27.264  1.00  0.00     0.131 A 
ATOM     62  C   UNL A   1      48.234  27.549  24.559  1.00  0.00     0.055 A 
ATOM     63  C   UNL A   1      48.973  26.772  26.708  1.00  0.00     0.041 A 
ATOM     64  F   UNL A   1      47.577  27.008  28.572  1.00  0.00    -0.206 F 
ATOM     65  C   UNL A   1      49.199  26.913  25.343  1.00  0.00     0.022 A 
BRANCH  62  66
ATOM     66  S   UNL A   1      48.377  27.528  22.751  1.00  0.00     0.124 S 
ATOM     67  O   UNL A   1      48.353  26.095  22.474  1.00  0.00    -0.237 OA
ATOM     68  O   UNL A   1      47.200  28.281  22.334  1.00  0.00    -0.237 OA
ATOM     69  O   UNL A   1      49.659  28.184  22.503  1.00  0.00    -0.744 OA
ENDBRANCH  62  66
ENDBRANCH  45  59
BRANCH  46  70
ATOM     70  C   UNL A   1      38.267  30.958  30.767  1.00  0.00     0.023 A 
ATOM     71  C   UNL A   1      37.223  31.538  30.032  1.00  0.00     0.031 A 
ATOM     72  C   UNL A   1      38.114  30.869  32.164  1.00  0.00     0.131 A 
ATOM     73  C   UNL A   1      36.108  32.066  30.699  1.00  0.00     0.055 A 
ATOM     74  C   UNL A   1      36.962  31.312  32.814  1.00  0.00     0.041 A 
ATOM     75  F   UNL A   1      39.083  30.335  32.925  1.00  0.00    -0.206 F 
ATOM     76  C   UNL A   1      35.957  31.936  32.081  1.00  0.00     0.022 A 
BRANCH  73  77
ATOM     77  S   UNL A   1      34.930  33.064  29.749  1.00  0.00     0.124 S 
ATOM     78  O   UNL A   1      34.385  32.075  28.827  1.00  0.00    -0.237 OA
ATOM     79  O   UNL A   1      34.025  33.539  30.791  1.00  0.00    -0.237 OA
ATOM     80  O   UNL A   1      35.771  34.092  29.140  1.00  0.00    -0.744 OA
ENDBRANCH  73  77
ENDBRANCH  46  70
BRANCH  58  81
ATOM     81  C   UNL A   1      44.569  33.833  30.012  1.00  0.00     0.023 A 
ATOM     82  C   UNL A   1      44.531  34.934  29.139  1.00  0.00     0.031 A 
ATOM     83  C   UNL A   1      45.173  34.008  31.271  1.00  0.00     0.131 A 
ATOM     84  C   UNL A   1      45.154  36.135  29.506  1.00  0.00     0.055 A 
ATOM     85  C   UNL A   1      45.709  35.232  31.665  1.00  0.00     0.041 A 
ATOM     86  F   UNL A   1      45.252  32.986  32.139  1.00  0.00    -0.206 F 
ATOM     87  C   UNL A   1      45.718  36.301  30.774  1.00  0.00     0.022 A 
BRANCH  84  88
ATOM     88  S   UNL A   1      45.347  37.428  28.250  1.00  0.00     0.124 S 
ATOM     89  O   UNL A   1      44.757  36.796  27.074  1.00  0.00    -0.237 OA
ATOM     90  O   UNL A   1      44.593  38.537  28.824  1.00  0.00    -0.237 OA
ATOM     91  O   UNL A   1      46.794  37.629  28.186  1.00  0.00    -0.744 OA
ENDBRANCH  84  88
ENDBRANCH  58  81
ENDBRANCH  32  33
ENDBRANCH  25  27
ENDBRANCH  24  25
ENDBRANCH  23  24
ENDBRANCH   1  23
TORSDOF 19
ENDMDL
