MODEL 1
REMARK VINA RESULT:     -11.1      0.000      0.000
REMARK SMILES CC[C@]1(C(=O)OCCOC(=O)c2ccc(-c3c4nc(c(-c5cc(S(=O)(=O)[O-])ccc5F)c5ccc([nH]5)c(-c5cc(S(=O)(=O)[O-])ccc5F)c5nc(c(-c6cc(S(=O)(=O)[O-])ccc6F)c6ccc3[nH]6)C=C5)C=C4)cc2)CC[N@@H+](Cc2nc(C)ccc2O)C1
REMARK SMILES IDX 7 1 6 2 4 3 5 4 3 5 75 6 87 7 76 8 77 9 2 11 1 12 78 13
REMARK SMILES IDX 79 14 80 15 85 16 81 17 84 18 82 19 83 20 86 21 8 23 9 24
REMARK SMILES IDX 10 25 11 26 12 27 13 28 74 29 14 30 73 31 15 32 16 33 17 34
REMARK SMILES IDX 67 35 18 36 72 37 66 38 68 39 19 40 71 41 65 42 64 43 20 45
REMARK SMILES IDX 52 46 32 47 51 48 33 49 36 50 50 51 69 52 34 53 35 54 49 56
REMARK SMILES IDX 70 57 37 58 21 59 22 60 30 61 23 62 29 63 31 64 28 65 24 66
REMARK SMILES IDX 25 67 26 68 27 69 53 70 54 71 62 72 55 73 61 74 63 75 60 76
REMARK SMILES IDX 56 77 57 78 58 79 59 80 38 81 39 82 47 83 40 84 46 85 48 86
REMARK SMILES IDX 45 87 41 88 42 89 43 90 44 91
REMARK H PARENT 77 10 86 22 68 44 36 55
REMARK Flexibility Score: inf
ROOT
ATOM      1  C   UNL A   1      31.119  31.489  26.066  1.00  0.00     0.274 C 
ENDROOT
BRANCH   1   2
ATOM      2  O   UNL A   1      32.167  30.544  25.798  1.00  0.00    -0.461 OA
BRANCH   2   3
ATOM      3  C   UNL A   1      31.799  29.240  25.730  1.00  0.00     0.318 C 
ATOM      4  O   UNL A   1      31.418  28.603  26.706  1.00  0.00    -0.251 OA
BRANCH   3   5
ATOM      5  C   UNL A   1      31.883  28.693  24.302  1.00  0.00     0.122 C 
ATOM      6  C   UNL A   1      33.257  28.952  23.639  1.00  0.00     0.086 C 
ATOM      7  C   UNL A   1      31.849  27.142  24.387  1.00  0.00     0.281 C 
ATOM      8  C   UNL A   1      33.564  27.681  22.871  1.00  0.00     0.264 C 
ATOM      9  N   UNL A   1      33.033  26.603  23.700  1.00  0.00    -0.329 N 
ATOM     10  H   UNL A   1      32.761  25.814  23.115  1.00  0.00     0.348 HD
BRANCH   5  11
ATOM     11  C   UNL A   1      30.744  29.238  23.381  1.00  0.00     0.021 C 
ATOM     12  C   UNL A   1      29.559  28.312  23.134  1.00  0.00     0.005 C 
ENDBRANCH   5  11
BRANCH   9  13
ATOM     13  C   UNL A   1      34.032  25.972  24.596  1.00  0.00     0.323 C 
BRANCH  13  14
ATOM     14  C   UNL A   1      34.047  24.458  24.741  1.00  0.00     0.136 A 
ATOM     15  N   UNL A   1      34.047  23.969  26.015  1.00  0.00    -0.248 NA
ATOM     16  C   UNL A   1      34.014  23.607  23.636  1.00  0.00     0.142 A 
ATOM     17  C   UNL A   1      33.970  22.630  26.197  1.00  0.00     0.038 A 
ATOM     18  C   UNL A   1      33.919  22.236  23.835  1.00  0.00     0.050 A 
ATOM     19  C   UNL A   1      34.051  22.133  27.609  1.00  0.00     0.067 C 
ATOM     20  C   UNL A   1      33.895  21.737  25.135  1.00  0.00     0.027 A 
BRANCH  16  21
ATOM     21  O   UNL A   1      34.089  24.105  22.370  1.00  0.00    -0.506 OA
ATOM     22  H   UNL A   1      34.163  23.522  21.640  1.00  0.00     0.293 HD
ENDBRANCH  16  21
ENDBRANCH  13  14
ENDBRANCH   9  13
ENDBRANCH   3   5
ENDBRANCH   2   3
ENDBRANCH   1   2
BRANCH   1  23
ATOM     23  C   UNL A   1      31.538  32.365  27.247  1.00  0.00     0.275 C 
BRANCH  23  24
ATOM     24  O   UNL A   1      32.737  33.073  26.892  1.00  0.00    -0.458 OA
BRANCH  24  25
ATOM     25  C   UNL A   1      33.267  33.820  27.896  1.00  0.00     0.338 C 
ATOM     26  O   UNL A   1      32.745  34.777  28.445  1.00  0.00    -0.246 OA
BRANCH  25  27
ATOM     27  C   UNL A   1      34.497  33.157  28.381  1.00  0.00     0.060 A 
ATOM     28  C   UNL A   1      34.361  31.910  28.998  1.00  0.00     0.016 A 
ATOM     29  C   UNL A   1      35.766  33.717  28.200  1.00  0.00     0.016 A 
ATOM     30  C   UNL A   1      35.486  31.205  29.410  1.00  0.00     0.010 A 
ATOM     31  C   UNL A   1      36.895  33.029  28.651  1.00  0.00     0.010 A 
ATOM     32  C   UNL A   1      36.755  31.774  29.263  1.00  0.00    -0.014 A 
BRANCH  32  33
ATOM     33  C   UNL A   1      37.903  31.127  29.931  1.00  0.00     0.031 A 
ATOM     34  C   UNL A   1      38.203  31.522  31.347  1.00  0.00     0.074 A 
ATOM     35  C   UNL A   1      38.623  30.179  29.306  1.00  0.00     0.049 A 
ATOM     36  N   UNL A   1      39.106  31.058  32.167  1.00  0.00    -0.248 NA
ATOM     37  C   UNL A   1      37.353  32.582  31.916  1.00  0.00     0.031 C 
ATOM     38  C   UNL A   1      38.378  29.691  27.949  1.00  0.00     0.029 A 
ATOM     39  N   UNL A   1      39.704  29.455  29.734  1.00  0.00    -0.354 N 
ATOM     40  C   UNL A   1      38.913  31.741  33.362  1.00  0.00     0.074 A 
ATOM     41  C   UNL A   1      37.833  32.680  33.145  1.00  0.00     0.031 C 
ATOM     42  C   UNL A   1      39.295  28.753  27.652  1.00  0.00     0.029 A 
ATOM     43  C   UNL A   1      40.205  28.594  28.785  1.00  0.00     0.049 A 
ATOM     44  H   UNL A   1      40.088  29.543  30.636  1.00  0.00     0.167 HD
ATOM     45  C   UNL A   1      39.577  31.597  34.533  1.00  0.00     0.034 A 
ATOM     46  C   UNL A   1      41.284  27.788  28.829  1.00  0.00     0.034 A 
ATOM     47  C   UNL A   1      40.706  30.716  34.698  1.00  0.00     0.049 A 
ATOM     48  C   UNL A   1      42.091  27.737  30.106  1.00  0.00     0.074 A 
ATOM     49  C   UNL A   1      41.496  30.522  35.816  1.00  0.00     0.029 A 
ATOM     50  N   UNL A   1      41.227  29.904  33.696  1.00  0.00    -0.354 N 
ATOM     51  N   UNL A   1      41.889  28.372  31.240  1.00  0.00    -0.248 NA
ATOM     52  C   UNL A   1      43.263  26.853  30.114  1.00  0.00     0.031 C 
ATOM     53  C   UNL A   1      42.538  29.655  35.468  1.00  0.00     0.029 A 
ATOM     54  C   UNL A   1      42.352  29.238  34.158  1.00  0.00     0.049 A 
ATOM     55  H   UNL A   1      40.853  29.816  32.791  1.00  0.00     0.167 HD
ATOM     56  C   UNL A   1      42.892  27.939  32.104  1.00  0.00     0.074 A 
ATOM     57  C   UNL A   1      43.686  26.979  31.363  1.00  0.00     0.031 C 
ATOM     58  C   UNL A   1      43.135  28.295  33.393  1.00  0.00     0.034 A 
BRANCH  45  59
ATOM     59  C   UNL A   1      39.139  32.481  35.674  1.00  0.00     0.023 A 
ATOM     60  C   UNL A   1      39.585  33.812  35.788  1.00  0.00     0.031 A 
ATOM     61  C   UNL A   1      38.338  31.964  36.706  1.00  0.00     0.131 A 
ATOM     62  C   UNL A   1      39.293  34.550  36.945  1.00  0.00     0.055 A 
ATOM     63  C   UNL A   1      37.984  32.731  37.818  1.00  0.00     0.041 A 
ATOM     64  F   UNL A   1      37.910  30.692  36.667  1.00  0.00    -0.206 F 
ATOM     65  C   UNL A   1      38.477  34.025  37.951  1.00  0.00     0.022 A 
BRANCH  62  66
ATOM     66  S   UNL A   1      40.131  36.140  37.196  1.00  0.00     0.124 S 
ATOM     67  O   UNL A   1      39.973  36.767  35.886  1.00  0.00    -0.237 OA
ATOM     68  O   UNL A   1      39.363  36.732  38.286  1.00  0.00    -0.237 OA
ATOM     69  O   UNL A   1      41.501  35.757  37.534  1.00  0.00    -0.744 OA
ENDBRANCH  62  66
ENDBRANCH  45  59
BRANCH  46  70
ATOM     70  C   UNL A   1      41.698  27.002  27.629  1.00  0.00     0.023 A 
ATOM     71  C   UNL A   1      41.450  25.623  27.532  1.00  0.00     0.031 A 
ATOM     72  C   UNL A   1      42.411  27.616  26.582  1.00  0.00     0.131 A 
ATOM     73  C   UNL A   1      41.949  24.897  26.438  1.00  0.00     0.055 A 
ATOM     74  C   UNL A   1      42.859  26.900  25.471  1.00  0.00     0.041 A 
ATOM     75  F   UNL A   1      42.681  28.931  26.624  1.00  0.00    -0.206 F 
ATOM     76  C   UNL A   1      42.641  25.528  25.401  1.00  0.00     0.022 A 
BRANCH  73  77
ATOM     77  S   UNL A   1      41.760  23.092  26.427  1.00  0.00     0.124 S 
ATOM     78  O   UNL A   1      40.311  22.945  26.504  1.00  0.00    -0.237 OA
ATOM     79  O   UNL A   1      42.376  22.731  25.155  1.00  0.00    -0.237 OA
ATOM     80  O   UNL A   1      42.494  22.665  27.617  1.00  0.00    -0.744 OA
ENDBRANCH  73  77
ENDBRANCH  46  70
BRANCH  58  81
ATOM     81  C   UNL A   1      44.285  27.604  34.088  1.00  0.00     0.023 A 
ATOM     82  C   UNL A   1      44.120  26.381  34.760  1.00  0.00     0.031 A 
ATOM     83  C   UNL A   1      45.565  28.187  34.081  1.00  0.00     0.131 A 
ATOM     84  C   UNL A   1      45.202  25.810  35.448  1.00  0.00     0.055 A 
ATOM     85  C   UNL A   1      46.653  27.582  34.710  1.00  0.00     0.041 A 
ATOM     86  F   UNL A   1      45.781  29.356  33.454  1.00  0.00    -0.206 F 
ATOM     87  C   UNL A   1      46.471  26.394  35.411  1.00  0.00     0.022 A 
BRANCH  84  88
ATOM     88  S   UNL A   1      44.906  24.344  36.473  1.00  0.00     0.124 S 
ATOM     89  O   UNL A   1      44.057  23.534  35.606  1.00  0.00    -0.237 OA
ATOM     90  O   UNL A   1      46.257  23.840  36.695  1.00  0.00    -0.237 OA
ATOM     91  O   UNL A   1      44.244  24.883  37.660  1.00  0.00    -0.744 OA
ENDBRANCH  84  88
ENDBRANCH  58  81
ENDBRANCH  32  33
ENDBRANCH  25  27
ENDBRANCH  24  25
ENDBRANCH  23  24
ENDBRANCH   1  23
TORSDOF 18
ENDMDL
MODEL 2
REMARK VINA RESULT:     -11.0      4.949      8.248
REMARK SMILES CC[C@]1(C(=O)OCCOC(=O)c2ccc(-c3c4nc(c(-c5cc(S(=O)(=O)[O-])ccc5F)c5ccc([nH]5)c(-c5cc(S(=O)(=O)[O-])ccc5F)c5nc(c(-c6cc(S(=O)(=O)[O-])ccc6F)c6ccc3[nH]6)C=C5)C=C4)cc2)CC[N@@H+](Cc2nc(C)ccc2O)C1
REMARK SMILES IDX 7 1 6 2 4 3 5 4 3 5 75 6 87 7 76 8 77 9 2 11 1 12 78 13
REMARK SMILES IDX 79 14 80 15 85 16 81 17 84 18 82 19 83 20 86 21 8 23 9 24
REMARK SMILES IDX 10 25 11 26 12 27 13 28 74 29 14 30 73 31 15 32 16 33 17 34
REMARK SMILES IDX 67 35 18 36 72 37 66 38 68 39 19 40 71 41 65 42 64 43 20 45
REMARK SMILES IDX 52 46 32 47 51 48 33 49 36 50 50 51 69 52 34 53 35 54 49 56
REMARK SMILES IDX 70 57 37 58 21 59 22 60 30 61 23 62 29 63 31 64 28 65 24 66
REMARK SMILES IDX 25 67 26 68 27 69 53 70 54 71 62 72 55 73 61 74 63 75 60 76
REMARK SMILES IDX 56 77 57 78 58 79 59 80 38 81 39 82 47 83 40 84 46 85 48 86
REMARK SMILES IDX 45 87 41 88 42 89 43 90 44 91
REMARK H PARENT 77 10 86 22 68 44 36 55
REMARK Flexibility Score: inf
ROOT
ATOM      1  C   UNL A   1      35.913  20.751  24.992  1.00  0.00     0.274 C 
ENDROOT
BRANCH   1   2
ATOM      2  O   UNL A   1      35.515  22.132  24.994  1.00  0.00    -0.461 OA
BRANCH   2   3
ATOM      3  C   UNL A   1      35.100  22.640  23.807  1.00  0.00     0.318 C 
ATOM      4  O   UNL A   1      35.872  22.927  22.898  1.00  0.00    -0.251 OA
BRANCH   3   5
ATOM      5  C   UNL A   1      33.575  22.770  23.738  1.00  0.00     0.122 C 
ATOM      6  C   UNL A   1      32.975  23.463  24.983  1.00  0.00     0.086 C 
ATOM      7  C   UNL A   1      33.238  23.779  22.607  1.00  0.00     0.281 C 
ATOM      8  C   UNL A   1      31.884  24.364  24.438  1.00  0.00     0.264 C 
ATOM      9  N   UNL A   1      32.402  24.854  23.164  1.00  0.00    -0.329 N 
ATOM     10  H   UNL A   1      31.631  25.054  22.528  1.00  0.00     0.348 HD
BRANCH   5  11
ATOM     11  C   UNL A   1      32.866  21.397  23.507  1.00  0.00     0.021 C 
ATOM     12  C   UNL A   1      32.266  20.720  24.735  1.00  0.00     0.005 C 
ENDBRANCH   5  11
BRANCH   9  13
ATOM     13  C   UNL A   1      33.068  26.176  23.243  1.00  0.00     0.323 C 
BRANCH  13  14
ATOM     14  C   UNL A   1      32.261  27.389  23.679  1.00  0.00     0.136 A 
ATOM     15  N   UNL A   1      32.522  27.876  24.927  1.00  0.00    -0.248 NA
ATOM     16  C   UNL A   1      31.335  28.005  22.837  1.00  0.00     0.142 A 
ATOM     17  C   UNL A   1      31.894  29.006  25.328  1.00  0.00     0.038 A 
ATOM     18  C   UNL A   1      30.709  29.173  23.254  1.00  0.00     0.050 A 
ATOM     19  C   UNL A   1      32.152  29.462  26.733  1.00  0.00     0.067 C 
ATOM     20  C   UNL A   1      30.993  29.685  24.517  1.00  0.00     0.027 A 
BRANCH  16  21
ATOM     21  O   UNL A   1      31.029  27.467  21.625  1.00  0.00    -0.506 OA
ATOM     22  H   UNL A   1      30.902  26.542  21.540  1.00  0.00     0.293 HD
ENDBRANCH  16  21
ENDBRANCH  13  14
ENDBRANCH   9  13
ENDBRANCH   3   5
ENDBRANCH   2   3
ENDBRANCH   1   2
BRANCH   1  23
ATOM     23  C   UNL A   1      37.440  20.681  24.949  1.00  0.00     0.275 C 
BRANCH  23  24
ATOM     24  O   UNL A   1      37.973  21.747  25.751  1.00  0.00    -0.458 OA
BRANCH  24  25
ATOM     25  C   UNL A   1      39.221  21.513  26.238  1.00  0.00     0.338 C 
ATOM     26  O   UNL A   1      39.857  20.477  26.144  1.00  0.00    -0.246 OA
BRANCH  25  27
ATOM     27  C   UNL A   1      39.787  22.792  26.718  1.00  0.00     0.060 A 
ATOM     28  C   UNL A   1      39.334  23.969  26.115  1.00  0.00     0.016 A 
ATOM     29  C   UNL A   1      40.712  22.852  27.766  1.00  0.00     0.016 A 
ATOM     30  C   UNL A   1      39.776  25.207  26.570  1.00  0.00     0.010 A 
ATOM     31  C   UNL A   1      41.189  24.091  28.197  1.00  0.00     0.010 A 
ATOM     32  C   UNL A   1      40.726  25.270  27.595  1.00  0.00    -0.014 A 
BRANCH  32  33
ATOM     33  C   UNL A   1      41.365  26.571  27.887  1.00  0.00     0.031 A 
ATOM     34  C   UNL A   1      40.536  27.621  28.565  1.00  0.00     0.074 A 
ATOM     35  C   UNL A   1      42.661  26.784  27.600  1.00  0.00     0.049 A 
ATOM     36  N   UNL A   1      40.879  28.809  28.984  1.00  0.00    -0.248 NA
ATOM     37  C   UNL A   1      39.127  27.272  28.814  1.00  0.00     0.031 C 
ATOM     38  C   UNL A   1      43.561  25.808  26.987  1.00  0.00     0.029 A 
ATOM     39  N   UNL A   1      43.444  27.892  27.789  1.00  0.00    -0.354 N 
ATOM     40  C   UNL A   1      39.740  29.339  29.579  1.00  0.00     0.074 A 
ATOM     41  C   UNL A   1      38.687  28.358  29.429  1.00  0.00     0.031 C 
ATOM     42  C   UNL A   1      44.775  26.368  26.840  1.00  0.00     0.029 A 
ATOM     43  C   UNL A   1      44.730  27.747  27.323  1.00  0.00     0.049 A 
ATOM     44  H   UNL A   1      43.117  28.716  28.218  1.00  0.00     0.167 HD
ATOM     45  C   UNL A   1      39.588  30.536  30.194  1.00  0.00     0.034 A 
ATOM     46  C   UNL A   1      45.742  28.637  27.279  1.00  0.00     0.034 A 
ATOM     47  C   UNL A   1      40.629  31.531  30.254  1.00  0.00     0.049 A 
ATOM     48  C   UNL A   1      45.512  30.015  27.857  1.00  0.00     0.074 A 
ATOM     49  C   UNL A   1      40.582  32.801  30.799  1.00  0.00     0.029 A 
ATOM     50  N   UNL A   1      41.902  31.376  29.715  1.00  0.00    -0.354 N 
ATOM     51  N   UNL A   1      44.437  30.502  28.437  1.00  0.00    -0.248 NA
ATOM     52  C   UNL A   1      46.634  30.959  27.785  1.00  0.00     0.031 C 
ATOM     53  C   UNL A   1      41.797  33.439  30.521  1.00  0.00     0.029 A 
ATOM     54  C   UNL A   1      42.635  32.540  29.879  1.00  0.00     0.049 A 
ATOM     55  H   UNL A   1      42.234  30.558  29.279  1.00  0.00     0.167 HD
ATOM     56  C   UNL A   1      44.765  31.798  28.825  1.00  0.00     0.074 A 
ATOM     57  C   UNL A   1      46.143  32.010  28.427  1.00  0.00     0.031 C 
ATOM     58  C   UNL A   1      44.005  32.730  29.458  1.00  0.00     0.034 A 
BRANCH  45  59
ATOM     59  C   UNL A   1      38.223  30.840  30.758  1.00  0.00     0.023 A 
ATOM     60  C   UNL A   1      37.227  31.464  29.982  1.00  0.00     0.031 A 
ATOM     61  C   UNL A   1      37.940  30.584  32.110  1.00  0.00     0.131 A 
ATOM     62  C   UNL A   1      36.031  31.882  30.584  1.00  0.00     0.055 A 
ATOM     63  C   UNL A   1      36.715  30.930  32.684  1.00  0.00     0.041 A 
ATOM     64  F   UNL A   1      38.862  30.020  32.907  1.00  0.00    -0.206 F 
ATOM     65  C   UNL A   1      35.759  31.599  31.925  1.00  0.00     0.022 A 
BRANCH  62  66
ATOM     66  S   UNL A   1      34.907  32.946  29.637  1.00  0.00     0.124 S 
ATOM     67  O   UNL A   1      34.024  33.450  30.686  1.00  0.00    -0.237 OA
ATOM     68  O   UNL A   1      35.818  33.918  29.044  1.00  0.00    -0.237 OA
ATOM     69  O   UNL A   1      34.276  32.024  28.692  1.00  0.00    -0.744 OA
ENDBRANCH  62  66
ENDBRANCH  45  59
BRANCH  46  70
ATOM     70  C   UNL A   1      47.040  28.284  26.633  1.00  0.00     0.023 A 
ATOM     71  C   UNL A   1      47.164  28.188  25.238  1.00  0.00     0.031 A 
ATOM     72  C   UNL A   1      48.168  27.975  27.415  1.00  0.00     0.131 A 
ATOM     73  C   UNL A   1      48.372  27.748  24.671  1.00  0.00     0.055 A 
ATOM     74  C   UNL A   1      49.383  27.590  26.845  1.00  0.00     0.041 A 
ATOM     75  F   UNL A   1      48.106  28.046  28.755  1.00  0.00    -0.206 F 
ATOM     76  C   UNL A   1      49.486  27.461  25.464  1.00  0.00     0.022 A 
BRANCH  73  77
ATOM     77  S   UNL A   1      48.446  27.470  22.879  1.00  0.00     0.124 S 
ATOM     78  O   UNL A   1      47.279  28.211  22.415  1.00  0.00    -0.237 OA
ATOM     79  O   UNL A   1      49.746  28.039  22.538  1.00  0.00    -0.237 OA
ATOM     80  O   UNL A   1      48.352  26.017  22.755  1.00  0.00    -0.744 OA
ENDBRANCH  73  77
ENDBRANCH  46  70
BRANCH  58  81
ATOM     81  C   UNL A   1      44.671  34.045  29.792  1.00  0.00     0.023 A 
ATOM     82  C   UNL A   1      44.657  35.131  28.900  1.00  0.00     0.031 A 
ATOM     83  C   UNL A   1      45.334  34.207  31.022  1.00  0.00     0.131 A 
ATOM     84  C   UNL A   1      45.345  36.310  29.225  1.00  0.00     0.055 A 
ATOM     85  C   UNL A   1      45.959  35.405  31.368  1.00  0.00     0.041 A 
ATOM     86  F   UNL A   1      45.378  33.202  31.912  1.00  0.00    -0.206 F 
ATOM     87  C   UNL A   1      45.980  36.460  30.461  1.00  0.00     0.022 A 
BRANCH  84  88
ATOM     88  S   UNL A   1      45.483  37.612  27.971  1.00  0.00     0.124 S 
ATOM     89  O   UNL A   1      44.341  38.463  28.290  1.00  0.00    -0.237 OA
ATOM     90  O   UNL A   1      46.798  38.178  28.250  1.00  0.00    -0.237 OA
ATOM     91  O   UNL A   1      45.378  36.884  26.707  1.00  0.00    -0.744 OA
ENDBRANCH  84  88
ENDBRANCH  58  81
ENDBRANCH  32  33
ENDBRANCH  25  27
ENDBRANCH  24  25
ENDBRANCH  23  24
ENDBRANCH   1  23
TORSDOF 18
ENDMDL
MODEL 3
REMARK VINA RESULT:     -11.0      4.864     10.261
REMARK SMILES CC[C@]1(C(=O)OCCOC(=O)c2ccc(-c3c4nc(c(-c5cc(S(=O)(=O)[O-])ccc5F)c5ccc([nH]5)c(-c5cc(S(=O)(=O)[O-])ccc5F)c5nc(c(-c6cc(S(=O)(=O)[O-])ccc6F)c6ccc3[nH]6)C=C5)C=C4)cc2)CC[N@@H+](Cc2nc(C)ccc2O)C1
REMARK SMILES IDX 7 1 6 2 4 3 5 4 3 5 75 6 87 7 76 8 77 9 2 11 1 12 78 13
REMARK SMILES IDX 79 14 80 15 85 16 81 17 84 18 82 19 83 20 86 21 8 23 9 24
REMARK SMILES IDX 10 25 11 26 12 27 13 28 74 29 14 30 73 31 15 32 16 33 17 34
REMARK SMILES IDX 67 35 18 36 72 37 66 38 68 39 19 40 71 41 65 42 64 43 20 45
REMARK SMILES IDX 52 46 32 47 51 48 33 49 36 50 50 51 69 52 34 53 35 54 49 56
REMARK SMILES IDX 70 57 37 58 21 59 22 60 30 61 23 62 29 63 31 64 28 65 24 66
REMARK SMILES IDX 25 67 26 68 27 69 53 70 54 71 62 72 55 73 61 74 63 75 60 76
REMARK SMILES IDX 56 77 57 78 58 79 59 80 38 81 39 82 47 83 40 84 46 85 48 86
REMARK SMILES IDX 45 87 41 88 42 89 43 90 44 91
REMARK H PARENT 77 10 86 22 68 44 36 55
REMARK Flexibility Score: inf
ROOT
ATOM      1  C   UNL A   1      36.609  22.573  23.900  1.00  0.00     0.274 C 
ENDROOT
BRANCH   1   2
ATOM      2  O   UNL A   1      35.215  22.226  23.885  1.00  0.00    -0.461 OA
BRANCH   2   3
ATOM      3  C   UNL A   1      34.433  22.837  24.809  1.00  0.00     0.318 C 
ATOM      4  O   UNL A   1      34.868  23.649  25.618  1.00  0.00    -0.251 OA
BRANCH   3   5
ATOM      5  C   UNL A   1      32.964  22.418  24.687  1.00  0.00     0.122 C 
ATOM      6  C   UNL A   1      32.301  22.150  26.058  1.00  0.00     0.086 C 
ATOM      7  C   UNL A   1      32.164  23.646  24.172  1.00  0.00     0.281 C 
ATOM      8  C   UNL A   1      30.907  22.733  25.937  1.00  0.00     0.264 C 
ATOM      9  N   UNL A   1      31.069  23.927  25.113  1.00  0.00    -0.329 N 
ATOM     10  H   UNL A   1      30.210  24.114  24.595  1.00  0.00     0.348 HD
BRANCH   5  11
ATOM     11  C   UNL A   1      32.768  21.178  23.756  1.00  0.00     0.021 C 
ATOM     12  C   UNL A   1      32.643  19.821  24.440  1.00  0.00     0.005 C 
ENDBRANCH   5  11
BRANCH   9  13
ATOM     13  C   UNL A   1      31.226  25.184  25.883  1.00  0.00     0.323 C 
BRANCH  13  14
ATOM     14  C   UNL A   1      30.911  26.511  25.209  1.00  0.00     0.136 A 
ATOM     15  N   UNL A   1      31.662  27.583  25.597  1.00  0.00    -0.248 NA
ATOM     16  C   UNL A   1      29.941  26.625  24.213  1.00  0.00     0.142 A 
ATOM     17  C   UNL A   1      31.481  28.766  24.964  1.00  0.00     0.038 A 
ATOM     18  C   UNL A   1      29.777  27.840  23.560  1.00  0.00     0.050 A 
ATOM     19  C   UNL A   1      32.271  29.934  25.474  1.00  0.00     0.067 C 
ATOM     20  C   UNL A   1      30.558  28.928  23.938  1.00  0.00     0.027 A 
BRANCH  16  21
ATOM     21  O   UNL A   1      29.149  25.567  23.888  1.00  0.00    -0.506 OA
ATOM     22  H   UNL A   1      28.324  25.448  24.317  1.00  0.00     0.293 HD
ENDBRANCH  16  21
ENDBRANCH  13  14
ENDBRANCH   9  13
ENDBRANCH   3   5
ENDBRANCH   2   3
ENDBRANCH   1   2
BRANCH   1  23
ATOM     23  C   UNL A   1      37.397  21.410  24.505  1.00  0.00     0.275 C 
BRANCH  23  24
ATOM     24  O   UNL A   1      37.757  21.750  25.854  1.00  0.00    -0.458 OA
BRANCH  24  25
ATOM     25  C   UNL A   1      39.075  21.586  26.143  1.00  0.00     0.338 C 
ATOM     26  O   UNL A   1      39.778  20.641  25.826  1.00  0.00    -0.246 OA
BRANCH  25  27
ATOM     27  C   UNL A   1      39.592  22.846  26.720  1.00  0.00     0.060 A 
ATOM     28  C   UNL A   1      38.943  24.034  26.369  1.00  0.00     0.016 A 
ATOM     29  C   UNL A   1      40.661  22.869  27.621  1.00  0.00     0.016 A 
ATOM     30  C   UNL A   1      39.338  25.242  26.934  1.00  0.00     0.010 A 
ATOM     31  C   UNL A   1      41.086  24.086  28.158  1.00  0.00     0.010 A 
ATOM     32  C   UNL A   1      40.428  25.276  27.810  1.00  0.00    -0.014 A 
BRANCH  32  33
ATOM     33  C   UNL A   1      40.985  26.589  28.196  1.00  0.00     0.031 A 
ATOM     34  C   UNL A   1      42.430  26.854  27.890  1.00  0.00     0.074 A 
ATOM     35  C   UNL A   1      40.208  27.532  28.757  1.00  0.00     0.049 A 
ATOM     36  N   UNL A   1      43.131  27.940  28.068  1.00  0.00    -0.248 NA
ATOM     37  C   UNL A   1      43.178  25.738  27.289  1.00  0.00     0.031 C 
ATOM     38  C   UNL A   1      38.781  27.387  29.047  1.00  0.00     0.029 A 
ATOM     39  N   UNL A   1      40.510  28.800  29.179  1.00  0.00    -0.354 N 
ATOM     40  C   UNL A   1      44.397  27.653  27.568  1.00  0.00     0.074 A 
ATOM     41  C   UNL A   1      44.374  26.278  27.119  1.00  0.00     0.031 C 
ATOM     42  C   UNL A   1      38.335  28.522  29.613  1.00  0.00     0.029 A 
ATOM     43  C   UNL A   1      39.447  29.461  29.749  1.00  0.00     0.049 A 
ATOM     44  H   UNL A   1      41.405  29.200  29.085  1.00  0.00     0.167 HD
ATOM     45  C   UNL A   1      45.478  28.465  27.492  1.00  0.00     0.034 A 
ATOM     46  C   UNL A   1      39.392  30.678  30.326  1.00  0.00     0.034 A 
ATOM     47  C   UNL A   1      45.500  29.803  28.026  1.00  0.00     0.049 A 
ATOM     48  C   UNL A   1      40.647  31.521  30.346  1.00  0.00     0.074 A 
ATOM     49  C   UNL A   1      46.548  30.705  28.061  1.00  0.00     0.029 A 
ATOM     50  N   UNL A   1      44.423  30.421  28.655  1.00  0.00    -0.354 N 
ATOM     51  N   UNL A   1      41.835  31.250  29.852  1.00  0.00    -0.248 NA
ATOM     52  C   UNL A   1      40.551  32.837  30.990  1.00  0.00     0.031 C 
ATOM     53  C   UNL A   1      46.130  31.833  28.776  1.00  0.00     0.029 A 
ATOM     54  C   UNL A   1      44.794  31.675  29.115  1.00  0.00     0.049 A 
ATOM     55  H   UNL A   1      43.529  30.025  28.758  1.00  0.00     0.167 HD
ATOM     56  C   UNL A   1      42.618  32.375  30.100  1.00  0.00     0.074 A 
ATOM     57  C   UNL A   1      41.761  33.332  30.773  1.00  0.00     0.031 C 
ATOM     58  C   UNL A   1      43.922  32.605  29.797  1.00  0.00     0.034 A 
BRANCH  45  59
ATOM     59  C   UNL A   1      46.728  27.875  26.889  1.00  0.00     0.023 A 
ATOM     60  C   UNL A   1      47.051  28.064  25.531  1.00  0.00     0.031 A 
ATOM     61  C   UNL A   1      47.560  27.041  27.654  1.00  0.00     0.131 A 
ATOM     62  C   UNL A   1      48.127  27.366  24.965  1.00  0.00     0.055 A 
ATOM     63  C   UNL A   1      48.678  26.411  27.102  1.00  0.00     0.041 A 
ATOM     64  F   UNL A   1      47.284  26.797  28.944  1.00  0.00    -0.206 F 
ATOM     65  C   UNL A   1      48.957  26.557  25.747  1.00  0.00     0.022 A 
BRANCH  62  66
ATOM     66  S   UNL A   1      48.329  27.394  23.161  1.00  0.00     0.124 S 
ATOM     67  O   UNL A   1      49.621  28.062  23.019  1.00  0.00    -0.237 OA
ATOM     68  O   UNL A   1      48.300  25.977  22.818  1.00  0.00    -0.237 OA
ATOM     69  O   UNL A   1      47.180  28.172  22.699  1.00  0.00    -0.744 OA
ENDBRANCH  62  66
ENDBRANCH  45  59
BRANCH  46  70
ATOM     70  C   UNL A   1      38.135  31.160  30.972  1.00  0.00     0.023 A 
ATOM     71  C   UNL A   1      37.134  31.811  30.235  1.00  0.00     0.031 A 
ATOM     72  C   UNL A   1      37.949  31.029  32.361  1.00  0.00     0.131 A 
ATOM     73  C   UNL A   1      36.014  32.345  30.895  1.00  0.00     0.055 A 
ATOM     74  C   UNL A   1      36.810  31.515  33.005  1.00  0.00     0.041 A 
ATOM     75  F   UNL A   1      38.876  30.419  33.117  1.00  0.00    -0.206 F 
ATOM     76  C   UNL A   1      35.840  32.191  32.273  1.00  0.00     0.022 A 
BRANCH  73  77
ATOM     77  S   UNL A   1      34.824  33.328  29.940  1.00  0.00     0.124 S 
ATOM     78  O   UNL A   1      34.193  32.307  29.111  1.00  0.00    -0.237 OA
ATOM     79  O   UNL A   1      33.994  33.904  30.993  1.00  0.00    -0.237 OA
ATOM     80  O   UNL A   1      35.667  34.282  29.222  1.00  0.00    -0.744 OA
ENDBRANCH  73  77
ENDBRANCH  46  70
BRANCH  58  81
ATOM     81  C   UNL A   1      44.481  33.961  30.157  1.00  0.00     0.023 A 
ATOM     82  C   UNL A   1      44.394  35.057  29.280  1.00  0.00     0.031 A 
ATOM     83  C   UNL A   1      45.114  34.156  31.398  1.00  0.00     0.131 A 
ATOM     84  C   UNL A   1      44.986  36.280  29.630  1.00  0.00     0.055 A 
ATOM     85  C   UNL A   1      45.642  35.393  31.768  1.00  0.00     0.041 A 
ATOM     86  F   UNL A   1      45.225  33.144  32.274  1.00  0.00    -0.206 F 
ATOM     87  C   UNL A   1      45.593  36.459  30.876  1.00  0.00     0.022 A 
BRANCH  84  88
ATOM     88  S   UNL A   1      45.038  37.607  28.396  1.00  0.00     0.124 S 
ATOM     89  O   UNL A   1      46.026  37.101  27.448  1.00  0.00    -0.237 OA
ATOM     90  O   UNL A   1      43.660  37.646  27.920  1.00  0.00    -0.237 OA
ATOM     91  O   UNL A   1      45.461  38.776  29.166  1.00  0.00    -0.744 OA
ENDBRANCH  84  88
ENDBRANCH  58  81
ENDBRANCH  32  33
ENDBRANCH  25  27
ENDBRANCH  24  25
ENDBRANCH  23  24
ENDBRANCH   1  23
TORSDOF 18
ENDMDL
