MODEL 1
REMARK VINA RESULT:     -11.8      0.000      0.000
REMARK SMILES O=C(OCCOC(=O)[C@@H]1c2[nH]cnc2CCN1C(=O)CCCc1c[nH]c2ccccc12)c1ccc(-c2c3nc(c(-c4cc(S(=O)(=O)[O-])ccc4F)c4ccc([nH]4)c(-c4cc(S(=O)(=O)[O-])ccc4F)c4nc(c(-c5cc(S(=O)(=O)[O-])ccc5F)c5ccc2[nH]5)C=C4)C=C3)cc1
REMARK SMILES IDX 5 1 4 2 3 3 2 4 1 5 32 6 33 7 94 8 34 9 93 10 35 11 36 12
REMARK SMILES IDX 37 13 87 14 38 15 92 16 86 17 88 18 39 19 91 20 85 21 84 22
REMARK SMILES IDX 40 24 72 25 52 26 71 27 53 28 56 29 70 30 89 31 54 32 55 33
REMARK SMILES IDX 69 35 90 36 57 37 41 38 42 39 50 40 43 41 49 42 51 43 48 44
REMARK SMILES IDX 44 45 45 46 46 47 47 48 73 49 74 50 82 51 75 52 81 53 83 54
REMARK SMILES IDX 80 55 76 56 77 57 78 58 79 59 58 60 59 61 67 62 60 63 66 64
REMARK SMILES IDX 68 65 65 66 61 67 62 68 63 69 64 70 6 71 7 72 8 73 9 74
REMARK SMILES IDX 10 75 17 76 11 77 14 78 16 79 12 80 13 82 15 83 18 84 19 85
REMARK SMILES IDX 20 86 21 87 22 88 23 89 24 90 31 91 25 92 26 93 30 94 27 96
REMARK SMILES IDX 29 97 28 98
REMARK H PARENT 88 23 56 34 11 81 25 95
REMARK Flexibility Score: inf
ROOT
ATOM      1  C   UNL A   1      37.252  20.882  24.583  1.00  0.00     0.274 C 
ENDROOT
BRANCH   1   2
ATOM      2  C   UNL A   1      38.148  21.069  25.811  1.00  0.00     0.275 C 
BRANCH   2   3
ATOM      3  O   UNL A   1      39.055  22.193  25.852  1.00  0.00    -0.458 OA
BRANCH   3   4
ATOM      4  C   UNL A   1      39.923  22.320  26.867  1.00  0.00     0.338 C 
ATOM      5  O   UNL A   1      40.570  21.397  27.363  1.00  0.00    -0.246 OA
BRANCH   4   6
ATOM      6  C   UNL A   1      40.086  23.721  27.302  1.00  0.00     0.060 A 
ATOM      7  C   UNL A   1      39.089  24.689  27.150  1.00  0.00     0.016 A 
ATOM      8  C   UNL A   1      41.255  24.040  27.995  1.00  0.00     0.016 A 
ATOM      9  C   UNL A   1      39.288  25.972  27.669  1.00  0.00     0.010 A 
ATOM     10  C   UNL A   1      41.408  25.287  28.583  1.00  0.00     0.010 A 
ATOM     11  C   UNL A   1      40.459  26.286  28.379  1.00  0.00    -0.014 A 
BRANCH  11  12
ATOM     12  C   UNL A   1      40.660  27.645  28.911  1.00  0.00     0.031 A 
ATOM     13  C   UNL A   1      41.708  28.474  28.249  1.00  0.00     0.074 A 
ATOM     14  C   UNL A   1      39.925  28.214  29.896  1.00  0.00     0.049 A 
ATOM     15  N   UNL A   1      42.904  28.719  28.675  1.00  0.00    -0.248 NA
ATOM     16  C   UNL A   1      41.445  29.007  26.908  1.00  0.00     0.031 C 
ATOM     17  C   UNL A   1      38.711  27.712  30.549  1.00  0.00     0.029 A 
ATOM     18  N   UNL A   1      40.099  29.431  30.493  1.00  0.00    -0.354 N 
ATOM     19  C   UNL A   1      43.474  29.622  27.778  1.00  0.00     0.074 A 
ATOM     20  C   UNL A   1      42.600  29.622  26.632  1.00  0.00     0.031 C 
ATOM     21  C   UNL A   1      38.143  28.696  31.283  1.00  0.00     0.029 A 
ATOM     22  C   UNL A   1      39.048  29.830  31.314  1.00  0.00     0.049 A 
ATOM     23  H   UNL A   1      40.903  29.982  30.354  1.00  0.00     0.167 HD
ATOM     24  C   UNL A   1      44.515  30.428  28.146  1.00  0.00     0.034 A 
ATOM     25  C   UNL A   1      38.928  30.981  32.025  1.00  0.00     0.034 A 
ATOM     26  C   UNL A   1      45.083  29.991  29.404  1.00  0.00     0.049 A 
ATOM     27  C   UNL A   1      40.305  31.459  32.283  1.00  0.00     0.074 A 
ATOM     28  C   UNL A   1      45.676  28.828  29.855  1.00  0.00     0.029 A 
ATOM     29  N   UNL A   1      44.749  30.693  30.542  1.00  0.00    -0.354 N 
ATOM     30  N   UNL A   1      41.158  30.805  33.024  1.00  0.00    -0.248 NA
ATOM     31  C   UNL A   1      40.892  32.410  31.353  1.00  0.00     0.031 C 
ATOM     32  C   UNL A   1      45.180  28.660  31.182  1.00  0.00     0.029 A 
ATOM     33  C   UNL A   1      44.387  29.769  31.489  1.00  0.00     0.049 A 
ATOM     34  H   UNL A   1      44.767  31.671  30.654  1.00  0.00     0.167 HD
ATOM     35  C   UNL A   1      42.370  30.929  32.366  1.00  0.00     0.074 A 
ATOM     36  C   UNL A   1      42.165  32.010  31.401  1.00  0.00     0.031 C 
ATOM     37  C   UNL A   1      43.342  29.976  32.474  1.00  0.00     0.034 A 
BRANCH  24  38
ATOM     38  C   UNL A   1      44.845  31.800  27.586  1.00  0.00     0.023 A 
ATOM     39  C   UNL A   1      44.124  32.900  28.102  1.00  0.00     0.031 A 
ATOM     40  C   UNL A   1      45.588  32.059  26.417  1.00  0.00     0.131 A 
ATOM     41  C   UNL A   1      44.058  34.123  27.411  1.00  0.00     0.055 A 
ATOM     42  C   UNL A   1      45.573  33.298  25.765  1.00  0.00     0.041 A 
ATOM     43  F   UNL A   1      46.298  31.115  25.790  1.00  0.00    -0.206 F 
ATOM     44  C   UNL A   1      44.777  34.328  26.238  1.00  0.00     0.022 A 
BRANCH  41  45
ATOM     45  S   UNL A   1      42.867  35.369  27.970  1.00  0.00     0.124 S 
ATOM     46  O   UNL A   1      42.111  34.626  28.971  1.00  0.00    -0.237 OA
ATOM     47  O   UNL A   1      43.748  36.419  28.475  1.00  0.00    -0.237 OA
ATOM     48  O   UNL A   1      42.131  35.706  26.754  1.00  0.00    -0.744 OA
ENDBRANCH  41  45
ENDBRANCH  24  38
BRANCH  25  49
ATOM     49  C   UNL A   1      37.706  31.817  32.178  1.00  0.00     0.023 A 
ATOM     50  C   UNL A   1      36.969  32.322  31.085  1.00  0.00     0.031 A 
ATOM     51  C   UNL A   1      37.103  31.925  33.452  1.00  0.00     0.131 A 
ATOM     52  C   UNL A   1      35.690  32.895  31.292  1.00  0.00     0.055 A 
ATOM     53  C   UNL A   1      35.840  32.488  33.650  1.00  0.00     0.041 A 
ATOM     54  F   UNL A   1      37.691  31.406  34.541  1.00  0.00    -0.206 F 
ATOM     55  C   UNL A   1      35.122  32.968  32.567  1.00  0.00     0.022 A 
BRANCH  52  56
ATOM     56  S   UNL A   1      34.696  33.486  29.880  1.00  0.00     0.124 S 
ATOM     57  O   UNL A   1      34.329  32.239  29.217  1.00  0.00    -0.237 OA
ATOM     58  O   UNL A   1      33.617  34.213  30.539  1.00  0.00    -0.237 OA
ATOM     59  O   UNL A   1      35.630  34.327  29.131  1.00  0.00    -0.744 OA
ENDBRANCH  52  56
ENDBRANCH  25  49
BRANCH  37  60
ATOM     60  C   UNL A   1      43.227  28.928  33.561  1.00  0.00     0.023 A 
ATOM     61  C   UNL A   1      43.870  28.985  34.818  1.00  0.00     0.031 A 
ATOM     62  C   UNL A   1      42.286  27.902  33.353  1.00  0.00     0.131 A 
ATOM     63  C   UNL A   1      43.553  28.035  35.812  1.00  0.00     0.055 A 
ATOM     64  C   UNL A   1      41.962  26.978  34.345  1.00  0.00     0.041 A 
ATOM     65  F   UNL A   1      41.624  27.812  32.188  1.00  0.00    -0.206 F 
ATOM     66  C   UNL A   1      42.596  27.041  35.579  1.00  0.00     0.022 A 
BRANCH  63  67
ATOM     67  S   UNL A   1      44.372  28.079  37.441  1.00  0.00     0.124 S 
ATOM     68  O   UNL A   1      45.773  27.827  37.124  1.00  0.00    -0.237 OA
ATOM     69  O   UNL A   1      44.055  29.422  37.921  1.00  0.00    -0.237 OA
ATOM     70  O   UNL A   1      43.713  27.002  38.184  1.00  0.00    -0.744 OA
ENDBRANCH  63  67
ENDBRANCH  37  60
ENDBRANCH  11  12
ENDBRANCH   4   6
ENDBRANCH   3   4
ENDBRANCH   2   3
ENDBRANCH   1   2
BRANCH   1  71
ATOM     71  O   UNL A   1      35.892  20.736  25.012  1.00  0.00    -0.460 OA
BRANCH  71  72
ATOM     72  C   UNL A   1      35.238  21.876  25.412  1.00  0.00     0.335 C 
ATOM     73  O   UNL A   1      35.425  22.458  26.473  1.00  0.00    -0.249 OA
BRANCH  72  74
ATOM     74  C   UNL A   1      34.322  22.322  24.260  1.00  0.00     0.244 C 
ATOM     75  C   UNL A   1      34.094  23.790  24.170  1.00  0.00     0.072 A 
ATOM     76  N   UNL A   1      33.016  21.704  23.962  1.00  0.00    -0.323 N 
ATOM     77  N   UNL A   1      34.711  24.818  24.819  1.00  0.00    -0.346 N 
ATOM     78  C   UNL A   1      33.216  24.381  23.292  1.00  0.00     0.066 A 
ATOM     79  C   UNL A   1      32.528  22.080  22.620  1.00  0.00     0.127 C 
ATOM     80  C   UNL A   1      34.245  25.973  24.240  1.00  0.00     0.197 A 
ATOM     81  H   UNL A   1      35.361  24.746  25.555  1.00  0.00     0.167 HD
ATOM     82  N   UNL A   1      33.312  25.738  23.338  1.00  0.00    -0.242 NA
ATOM     83  C   UNL A   1      32.273  23.604  22.451  1.00  0.00     0.080 C 
BRANCH  76  84
ATOM     84  C   UNL A   1      32.290  21.139  24.988  1.00  0.00     0.223 C 
ATOM     85  O   UNL A   1      31.984  19.942  24.954  1.00  0.00    -0.275 OA
BRANCH  84  86
ATOM     86  C   UNL A   1      31.654  21.964  26.103  1.00  0.00     0.100 C 
BRANCH  86  87
ATOM     87  C   UNL A   1      30.614  23.047  25.836  1.00  0.00     0.015 C 
BRANCH  87  88
ATOM     88  C   UNL A   1      30.703  24.455  26.431  1.00  0.00     0.038 C 
BRANCH  88  89
ATOM     89  C   UNL A   1      30.498  25.697  25.599  1.00  0.00    -0.023 A 
ATOM     90  C   UNL A   1      29.969  25.860  24.330  1.00  0.00     0.087 A 
ATOM     91  C   UNL A   1      30.975  27.007  25.970  1.00  0.00     0.003 A 
ATOM     92  N   UNL A   1      30.415  27.051  23.822  1.00  0.00    -0.361 N 
ATOM     93  C   UNL A   1      31.006  27.784  24.812  1.00  0.00     0.046 A 
ATOM     94  C   UNL A   1      31.436  27.588  27.168  1.00  0.00     0.010 A 
ATOM     95  H   UNL A   1      30.324  27.337  22.885  1.00  0.00     0.166 HD
ATOM     96  C   UNL A   1      31.551  29.067  24.760  1.00  0.00     0.026 A 
ATOM     97  C   UNL A   1      31.847  28.928  27.162  1.00  0.00     0.001 A 
ATOM     98  C   UNL A   1      31.930  29.645  25.970  1.00  0.00     0.002 A 
ENDBRANCH  88  89
ENDBRANCH  87  88
ENDBRANCH  86  87
ENDBRANCH  84  86
ENDBRANCH  76  84
ENDBRANCH  72  74
ENDBRANCH  71  72
ENDBRANCH   1  71
TORSDOF 19
ENDMDL
MODEL 2
REMARK VINA RESULT:     -11.7      3.268      8.829
REMARK SMILES O=C(OCCOC(=O)[C@@H]1c2[nH]cnc2CCN1C(=O)CCCc1c[nH]c2ccccc12)c1ccc(-c2c3nc(c(-c4cc(S(=O)(=O)[O-])ccc4F)c4ccc([nH]4)c(-c4cc(S(=O)(=O)[O-])ccc4F)c4nc(c(-c5cc(S(=O)(=O)[O-])ccc5F)c5ccc2[nH]5)C=C4)C=C3)cc1
REMARK SMILES IDX 5 1 4 2 3 3 2 4 1 5 32 6 33 7 94 8 34 9 93 10 35 11 36 12
REMARK SMILES IDX 37 13 87 14 38 15 92 16 86 17 88 18 39 19 91 20 85 21 84 22
REMARK SMILES IDX 40 24 72 25 52 26 71 27 53 28 56 29 70 30 89 31 54 32 55 33
REMARK SMILES IDX 69 35 90 36 57 37 41 38 42 39 50 40 43 41 49 42 51 43 48 44
REMARK SMILES IDX 44 45 45 46 46 47 47 48 73 49 74 50 82 51 75 52 81 53 83 54
REMARK SMILES IDX 80 55 76 56 77 57 78 58 79 59 58 60 59 61 67 62 60 63 66 64
REMARK SMILES IDX 68 65 65 66 61 67 62 68 63 69 64 70 6 71 7 72 8 73 9 74
REMARK SMILES IDX 10 75 17 76 11 77 14 78 16 79 12 80 13 82 15 83 18 84 19 85
REMARK SMILES IDX 20 86 21 87 22 88 23 89 24 90 31 91 25 92 26 93 30 94 27 96
REMARK SMILES IDX 29 97 28 98
REMARK H PARENT 88 23 56 34 11 81 25 95
REMARK Flexibility Score: inf
ROOT
ATOM      1  C   UNL A   1      42.954  24.194  27.044  1.00  0.00     0.274 C 
ENDROOT
BRANCH   1   2
ATOM      2  C   UNL A   1      42.401  25.554  26.605  1.00  0.00     0.275 C 
BRANCH   2   3
ATOM      3  O   UNL A   1      41.156  25.601  25.875  1.00  0.00    -0.458 OA
BRANCH   3   4
ATOM      4  C   UNL A   1      39.988  25.561  26.535  1.00  0.00     0.338 C 
ATOM      5  O   UNL A   1      39.084  24.752  26.327  1.00  0.00    -0.246 OA
BRANCH   4   6
ATOM      6  C   UNL A   1      39.914  26.567  27.615  1.00  0.00     0.060 A 
ATOM      7  C   UNL A   1      39.657  26.236  28.949  1.00  0.00     0.016 A 
ATOM      8  C   UNL A   1      40.229  27.884  27.280  1.00  0.00     0.016 A 
ATOM      9  C   UNL A   1      39.692  27.236  29.926  1.00  0.00     0.010 A 
ATOM     10  C   UNL A   1      40.348  28.853  28.266  1.00  0.00     0.010 A 
ATOM     11  C   UNL A   1      40.023  28.559  29.588  1.00  0.00    -0.014 A 
BRANCH  11  12
ATOM     12  C   UNL A   1      40.045  29.604  30.626  1.00  0.00     0.031 A 
ATOM     13  C   UNL A   1      38.762  30.319  30.881  1.00  0.00     0.074 A 
ATOM     14  C   UNL A   1      41.111  29.909  31.404  1.00  0.00     0.049 A 
ATOM     15  N   UNL A   1      38.421  31.498  30.473  1.00  0.00    -0.248 NA
ATOM     16  C   UNL A   1      37.683  29.610  31.578  1.00  0.00     0.031 C 
ATOM     17  C   UNL A   1      42.401  29.221  31.514  1.00  0.00     0.029 A 
ATOM     18  N   UNL A   1      41.231  30.910  32.327  1.00  0.00    -0.354 N 
ATOM     19  C   UNL A   1      37.182  31.781  31.046  1.00  0.00     0.074 A 
ATOM     20  C   UNL A   1      36.707  30.524  31.565  1.00  0.00     0.031 C 
ATOM     21  C   UNL A   1      43.079  29.682  32.589  1.00  0.00     0.029 A 
ATOM     22  C   UNL A   1      42.369  30.828  33.125  1.00  0.00     0.049 A 
ATOM     23  H   UNL A   1      40.567  31.631  32.420  1.00  0.00     0.167 HD
ATOM     24  C   UNL A   1      36.750  33.068  31.204  1.00  0.00     0.034 A 
ATOM     25  C   UNL A   1      42.753  31.662  34.127  1.00  0.00     0.034 A 
ATOM     26  C   UNL A   1      37.577  33.984  30.447  1.00  0.00     0.049 A 
ATOM     27  C   UNL A   1      42.128  32.973  33.844  1.00  0.00     0.074 A 
ATOM     28  C   UNL A   1      37.895  34.136  29.112  1.00  0.00     0.029 A 
ATOM     29  N   UNL A   1      38.526  34.713  31.131  1.00  0.00    -0.354 N 
ATOM     30  N   UNL A   1      42.431  33.695  32.800  1.00  0.00    -0.248 NA
ATOM     31  C   UNL A   1      40.842  33.271  34.453  1.00  0.00     0.031 C 
ATOM     32  C   UNL A   1      39.281  34.475  29.106  1.00  0.00     0.029 A 
ATOM     33  C   UNL A   1      39.701  34.594  30.433  1.00  0.00     0.049 A 
ATOM     34  H   UNL A   1      38.386  35.224  31.961  1.00  0.00     0.167 HD
ATOM     35  C   UNL A   1      41.222  34.213  32.362  1.00  0.00     0.074 A 
ATOM     36  C   UNL A   1      40.298  34.001  33.476  1.00  0.00     0.031 C 
ATOM     37  C   UNL A   1      41.013  34.524  31.049  1.00  0.00     0.034 A 
BRANCH  24  38
ATOM     38  C   UNL A   1      35.808  33.586  32.275  1.00  0.00     0.023 A 
ATOM     39  C   UNL A   1      34.615  34.209  31.843  1.00  0.00     0.031 A 
ATOM     40  C   UNL A   1      36.123  33.762  33.638  1.00  0.00     0.131 A 
ATOM     41  C   UNL A   1      33.878  35.051  32.694  1.00  0.00     0.055 A 
ATOM     42  C   UNL A   1      35.350  34.550  34.501  1.00  0.00     0.041 A 
ATOM     43  F   UNL A   1      37.231  33.262  34.193  1.00  0.00    -0.206 F 
ATOM     44  C   UNL A   1      34.243  35.230  34.024  1.00  0.00     0.022 A 
BRANCH  41  45
ATOM     45  S   UNL A   1      32.550  36.055  31.978  1.00  0.00     0.124 S 
ATOM     46  O   UNL A   1      31.362  35.362  32.465  1.00  0.00    -0.237 OA
ATOM     47  O   UNL A   1      32.817  37.366  32.563  1.00  0.00    -0.237 OA
ATOM     48  O   UNL A   1      32.786  35.954  30.539  1.00  0.00    -0.744 OA
ENDBRANCH  41  45
ENDBRANCH  24  38
BRANCH  25  49
ATOM     49  C   UNL A   1      43.336  31.275  35.441  1.00  0.00     0.023 A 
ATOM     50  C   UNL A   1      43.452  29.937  35.875  1.00  0.00     0.031 A 
ATOM     51  C   UNL A   1      44.026  32.248  36.200  1.00  0.00     0.131 A 
ATOM     52  C   UNL A   1      44.233  29.621  37.014  1.00  0.00     0.055 A 
ATOM     53  C   UNL A   1      44.798  31.931  37.320  1.00  0.00     0.041 A 
ATOM     54  F   UNL A   1      44.040  33.536  35.822  1.00  0.00    -0.206 F 
ATOM     55  C   UNL A   1      44.913  30.613  37.727  1.00  0.00     0.022 A 
BRANCH  52  56
ATOM     56  S   UNL A   1      44.449  27.889  37.543  1.00  0.00     0.124 S 
ATOM     57  O   UNL A   1      45.427  27.391  36.583  1.00  0.00    -0.237 OA
ATOM     58  O   UNL A   1      44.908  28.037  38.920  1.00  0.00    -0.237 OA
ATOM     59  O   UNL A   1      43.108  27.318  37.406  1.00  0.00    -0.744 OA
ENDBRANCH  52  56
ENDBRANCH  25  49
BRANCH  37  60
ATOM     60  C   UNL A   1      42.200  34.599  30.112  1.00  0.00     0.023 A 
ATOM     61  C   UNL A   1      43.013  35.739  29.918  1.00  0.00     0.031 A 
ATOM     62  C   UNL A   1      42.607  33.394  29.510  1.00  0.00     0.131 A 
ATOM     63  C   UNL A   1      44.190  35.637  29.147  1.00  0.00     0.055 A 
ATOM     64  C   UNL A   1      43.781  33.294  28.766  1.00  0.00     0.041 A 
ATOM     65  F   UNL A   1      41.888  32.272  29.680  1.00  0.00    -0.206 F 
ATOM     66  C   UNL A   1      44.577  34.418  28.581  1.00  0.00     0.022 A 
BRANCH  63  67
ATOM     67  S   UNL A   1      45.255  37.092  28.874  1.00  0.00     0.124 S 
ATOM     68  O   UNL A   1      44.319  38.122  28.440  1.00  0.00    -0.237 OA
ATOM     69  O   UNL A   1      45.865  37.292  30.187  1.00  0.00    -0.237 OA
ATOM     70  O   UNL A   1      46.188  36.642  27.839  1.00  0.00    -0.744 OA
ENDBRANCH  63  67
ENDBRANCH  37  60
ENDBRANCH  11  12
ENDBRANCH   4   6
ENDBRANCH   3   4
ENDBRANCH   2   3
ENDBRANCH   1   2
BRANCH   1  71
ATOM     71  O   UNL A   1      42.048  23.164  26.633  1.00  0.00    -0.460 OA
BRANCH  71  72
ATOM     72  C   UNL A   1      42.466  22.329  25.625  1.00  0.00     0.335 C 
ATOM     73  O   UNL A   1      42.661  22.669  24.465  1.00  0.00    -0.249 OA
BRANCH  72  74
ATOM     74  C   UNL A   1      42.731  20.945  26.241  1.00  0.00     0.244 C 
ATOM     75  C   UNL A   1      43.657  20.076  25.464  1.00  0.00     0.072 A 
ATOM     76  N   UNL A   1      41.667  20.044  26.728  1.00  0.00    -0.323 N 
ATOM     77  N   UNL A   1      44.455  20.373  24.400  1.00  0.00    -0.346 N 
ATOM     78  C   UNL A   1      43.928  18.765  25.775  1.00  0.00     0.066 A 
ATOM     79  C   UNL A   1      42.212  18.964  27.574  1.00  0.00     0.127 C 
ATOM     80  C   UNL A   1      45.233  19.261  24.181  1.00  0.00     0.197 A 
ATOM     81  H   UNL A   1      44.473  21.216  23.891  1.00  0.00     0.167 HD
ATOM     82  N   UNL A   1      44.909  18.261  24.976  1.00  0.00    -0.242 NA
ATOM     83  C   UNL A   1      43.195  18.020  26.827  1.00  0.00     0.080 C 
BRANCH  76  84
ATOM     84  C   UNL A   1      40.419  20.104  26.147  1.00  0.00     0.223 C 
ATOM     85  O   UNL A   1      40.003  19.166  25.457  1.00  0.00    -0.275 OA
BRANCH  84  86
ATOM     86  C   UNL A   1      39.571  21.372  26.139  1.00  0.00     0.100 C 
BRANCH  86  87
ATOM     87  C   UNL A   1      38.292  21.504  25.319  1.00  0.00     0.015 C 
BRANCH  87  88
ATOM     88  C   UNL A   1      36.939  21.873  25.934  1.00  0.00     0.038 C 
BRANCH  88  89
ATOM     89  C   UNL A   1      35.634  21.621  25.222  1.00  0.00    -0.023 A 
ATOM     90  C   UNL A   1      34.610  22.486  24.875  1.00  0.00     0.087 A 
ATOM     91  C   UNL A   1      35.143  20.311  24.870  1.00  0.00     0.003 A 
ATOM     92  N   UNL A   1      33.468  21.755  24.686  1.00  0.00    -0.361 N 
ATOM     93  C   UNL A   1      33.771  20.424  24.648  1.00  0.00     0.046 A 
ATOM     94  C   UNL A   1      35.724  19.031  24.776  1.00  0.00     0.010 A 
ATOM     95  H   UNL A   1      32.563  22.132  24.592  1.00  0.00     0.166 HD
ATOM     96  C   UNL A   1      32.933  19.329  24.429  1.00  0.00     0.026 A 
ATOM     97  C   UNL A   1      34.922  17.943  24.407  1.00  0.00     0.001 A 
ATOM     98  C   UNL A   1      33.543  18.087  24.265  1.00  0.00     0.002 A 
ENDBRANCH  88  89
ENDBRANCH  87  88
ENDBRANCH  86  87
ENDBRANCH  84  86
ENDBRANCH  76  84
ENDBRANCH  72  74
ENDBRANCH  71  72
ENDBRANCH   1  71
TORSDOF 19
ENDMDL
MODEL 3
REMARK VINA RESULT:     -11.7      5.372     11.813
REMARK SMILES O=C(OCCOC(=O)[C@@H]1c2[nH]cnc2CCN1C(=O)CCCc1c[nH]c2ccccc12)c1ccc(-c2c3nc(c(-c4cc(S(=O)(=O)[O-])ccc4F)c4ccc([nH]4)c(-c4cc(S(=O)(=O)[O-])ccc4F)c4nc(c(-c5cc(S(=O)(=O)[O-])ccc5F)c5ccc2[nH]5)C=C4)C=C3)cc1
REMARK SMILES IDX 5 1 4 2 3 3 2 4 1 5 32 6 33 7 94 8 34 9 93 10 35 11 36 12
REMARK SMILES IDX 37 13 87 14 38 15 92 16 86 17 88 18 39 19 91 20 85 21 84 22
REMARK SMILES IDX 40 24 72 25 52 26 71 27 53 28 56 29 70 30 89 31 54 32 55 33
REMARK SMILES IDX 69 35 90 36 57 37 41 38 42 39 50 40 43 41 49 42 51 43 48 44
REMARK SMILES IDX 44 45 45 46 46 47 47 48 73 49 74 50 82 51 75 52 81 53 83 54
REMARK SMILES IDX 80 55 76 56 77 57 78 58 79 59 58 60 59 61 67 62 60 63 66 64
REMARK SMILES IDX 68 65 65 66 61 67 62 68 63 69 64 70 6 71 7 72 8 73 9 74
REMARK SMILES IDX 10 75 17 76 11 77 14 78 16 79 12 80 13 82 15 83 18 84 19 85
REMARK SMILES IDX 20 86 21 87 22 88 23 89 24 90 31 91 25 92 26 93 30 94 27 96
REMARK SMILES IDX 29 97 28 98
REMARK H PARENT 88 23 56 34 11 81 25 95
REMARK Flexibility Score: inf
ROOT
ATOM      1  C   UNL A   1      34.809  33.661  32.259  1.00  0.00     0.274 C 
ENDROOT
BRANCH   1   2
ATOM      2  C   UNL A   1      34.761  32.815  30.983  1.00  0.00     0.275 C 
BRANCH   2   3
ATOM      3  O   UNL A   1      34.958  33.462  29.706  1.00  0.00    -0.458 OA
BRANCH   3   4
ATOM      4  C   UNL A   1      35.233  32.728  28.617  1.00  0.00     0.338 C 
ATOM      5  O   UNL A   1      34.622  32.789  27.549  1.00  0.00    -0.246 OA
BRANCH   4   6
ATOM      6  C   UNL A   1      36.415  31.862  28.801  1.00  0.00     0.060 A 
ATOM      7  C   UNL A   1      37.652  32.342  29.244  1.00  0.00     0.016 A 
ATOM      8  C   UNL A   1      36.232  30.490  28.626  1.00  0.00     0.016 A 
ATOM      9  C   UNL A   1      38.696  31.443  29.478  1.00  0.00     0.010 A 
ATOM     10  C   UNL A   1      37.245  29.596  28.943  1.00  0.00     0.010 A 
ATOM     11  C   UNL A   1      38.505  30.060  29.314  1.00  0.00    -0.014 A 
BRANCH  11  12
ATOM     12  C   UNL A   1      39.618  29.126  29.554  1.00  0.00     0.031 A 
ATOM     13  C   UNL A   1      39.957  28.842  30.979  1.00  0.00     0.074 A 
ATOM     14  C   UNL A   1      40.300  28.460  28.592  1.00  0.00     0.049 A 
ATOM     15  N   UNL A   1      40.937  29.330  31.668  1.00  0.00    -0.248 NA
ATOM     16  C   UNL A   1      39.047  28.006  31.769  1.00  0.00     0.031 C 
ATOM     17  C   UNL A   1      40.027  28.383  27.153  1.00  0.00     0.029 A 
ATOM     18  N   UNL A   1      41.387  27.643  28.730  1.00  0.00    -0.354 N 
ATOM     19  C   UNL A   1      40.912  28.695  32.909  1.00  0.00     0.074 A 
ATOM     20  C   UNL A   1      39.635  28.030  32.970  1.00  0.00     0.031 C 
ATOM     21  C   UNL A   1      40.778  27.407  26.593  1.00  0.00     0.029 A 
ATOM     22  C   UNL A   1      41.722  26.927  27.585  1.00  0.00     0.049 A 
ATOM     23  H   UNL A   1      41.892  27.567  29.572  1.00  0.00     0.167 HD
ATOM     24  C   UNL A   1      42.030  28.623  33.693  1.00  0.00     0.034 A 
ATOM     25  C   UNL A   1      42.735  26.036  27.418  1.00  0.00     0.034 A 
ATOM     26  C   UNL A   1      43.057  29.519  33.206  1.00  0.00     0.049 A 
ATOM     27  C   UNL A   1      43.772  26.390  28.413  1.00  0.00     0.074 A 
ATOM     28  C   UNL A   1      43.148  30.882  33.005  1.00  0.00     0.029 A 
ATOM     29  N   UNL A   1      44.098  28.977  32.484  1.00  0.00    -0.354 N 
ATOM     30  N   UNL A   1      44.433  27.515  28.382  1.00  0.00    -0.248 NA
ATOM     31  C   UNL A   1      43.751  25.717  29.701  1.00  0.00     0.031 C 
ATOM     32  C   UNL A   1      43.868  31.022  31.782  1.00  0.00     0.029 A 
ATOM     33  C   UNL A   1      44.246  29.745  31.357  1.00  0.00     0.049 A 
ATOM     34  H   UNL A   1      44.633  28.188  32.730  1.00  0.00     0.167 HD
ATOM     35  C   UNL A   1      44.531  27.907  29.707  1.00  0.00     0.074 A 
ATOM     36  C   UNL A   1      44.184  26.714  30.479  1.00  0.00     0.031 C 
ATOM     37  C   UNL A   1      44.624  29.224  30.057  1.00  0.00     0.034 A 
BRANCH  24  38
ATOM     38  C   UNL A   1      42.367  27.536  34.697  1.00  0.00     0.023 A 
ATOM     39  C   UNL A   1      43.226  26.500  34.267  1.00  0.00     0.031 A 
ATOM     40  C   UNL A   1      41.698  27.301  35.916  1.00  0.00     0.131 A 
ATOM     41  C   UNL A   1      43.293  25.273  34.950  1.00  0.00     0.055 A 
ATOM     42  C   UNL A   1      41.819  26.101  36.629  1.00  0.00     0.041 A 
ATOM     43  F   UNL A   1      40.830  28.170  36.442  1.00  0.00    -0.206 F 
ATOM     44  C   UNL A   1      42.588  25.064  36.130  1.00  0.00     0.022 A 
BRANCH  41  45
ATOM     45  S   UNL A   1      44.168  23.894  34.163  1.00  0.00     0.124 S 
ATOM     46  O   UNL A   1      45.472  23.964  34.812  1.00  0.00    -0.237 OA
ATOM     47  O   UNL A   1      43.326  22.758  34.529  1.00  0.00    -0.237 OA
ATOM     48  O   UNL A   1      44.155  24.247  32.745  1.00  0.00    -0.744 OA
ENDBRANCH  41  45
ENDBRANCH  24  38
BRANCH  25  49
ATOM     49  C   UNL A   1      42.677  24.739  26.689  1.00  0.00     0.023 A 
ATOM     50  C   UNL A   1      43.748  24.231  25.923  1.00  0.00     0.031 A 
ATOM     51  C   UNL A   1      41.610  23.850  26.953  1.00  0.00     0.131 A 
ATOM     52  C   UNL A   1      43.723  22.891  25.463  1.00  0.00     0.055 A 
ATOM     53  C   UNL A   1      41.592  22.529  26.501  1.00  0.00     0.041 A 
ATOM     54  F   UNL A   1      40.583  24.216  27.737  1.00  0.00    -0.206 F 
ATOM     55  C   UNL A   1      42.655  22.040  25.760  1.00  0.00     0.022 A 
BRANCH  52  56
ATOM     56  S   UNL A   1      45.132  22.200  24.534  1.00  0.00     0.124 S 
ATOM     57  O   UNL A   1      46.095  21.920  25.594  1.00  0.00    -0.237 OA
ATOM     58  O   UNL A   1      44.537  21.043  23.875  1.00  0.00    -0.237 OA
ATOM     59  O   UNL A   1      45.513  23.287  23.630  1.00  0.00    -0.744 OA
ENDBRANCH  52  56
ENDBRANCH  25  49
BRANCH  37  60
ATOM     60  C   UNL A   1      44.935  30.249  28.987  1.00  0.00     0.023 A 
ATOM     61  C   UNL A   1      46.232  30.677  28.622  1.00  0.00     0.031 A 
ATOM     62  C   UNL A   1      43.855  30.689  28.199  1.00  0.00     0.131 A 
ATOM     63  C   UNL A   1      46.405  31.511  27.497  1.00  0.00     0.055 A 
ATOM     64  C   UNL A   1      44.033  31.496  27.077  1.00  0.00     0.041 A 
ATOM     65  F   UNL A   1      42.602  30.295  28.482  1.00  0.00    -0.206 F 
ATOM     66  C   UNL A   1      45.310  31.911  26.722  1.00  0.00     0.022 A 
BRANCH  63  67
ATOM     67  S   UNL A   1      48.065  32.084  27.006  1.00  0.00     0.124 S 
ATOM     68  O   UNL A   1      48.618  32.621  28.244  1.00  0.00    -0.237 OA
ATOM     69  O   UNL A   1      48.688  30.862  26.502  1.00  0.00    -0.237 OA
ATOM     70  O   UNL A   1      47.789  33.089  25.977  1.00  0.00    -0.744 OA
ENDBRANCH  63  67
ENDBRANCH  37  60
ENDBRANCH  11  12
ENDBRANCH   4   6
ENDBRANCH   3   4
ENDBRANCH   2   3
ENDBRANCH   1   2
BRANCH   1  71
ATOM     71  O   UNL A   1      35.589  32.976  33.247  1.00  0.00    -0.460 OA
BRANCH  71  72
ATOM     72  C   UNL A   1      36.412  33.743  34.036  1.00  0.00     0.335 C 
ATOM     73  O   UNL A   1      36.208  34.913  34.335  1.00  0.00    -0.249 OA
BRANCH  72  74
ATOM     74  C   UNL A   1      37.555  32.845  34.537  1.00  0.00     0.244 C 
ATOM     75  C   UNL A   1      37.769  32.861  36.009  1.00  0.00     0.072 A 
ATOM     76  N   UNL A   1      38.907  32.828  33.945  1.00  0.00    -0.323 N 
ATOM     77  N   UNL A   1      37.002  33.390  37.004  1.00  0.00    -0.346 N 
ATOM     78  C   UNL A   1      38.811  32.226  36.643  1.00  0.00     0.066 A 
ATOM     79  C   UNL A   1      39.677  31.646  34.378  1.00  0.00     0.127 C 
ATOM     80  C   UNL A   1      37.564  32.972  38.186  1.00  0.00     0.197 A 
ATOM     81  H   UNL A   1      36.204  33.956  36.897  1.00  0.00     0.167 HD
ATOM     82  N   UNL A   1      38.680  32.297  37.997  1.00  0.00    -0.242 NA
ATOM     83  C   UNL A   1      39.934  31.593  35.910  1.00  0.00     0.080 C 
BRANCH  76  84
ATOM     84  C   UNL A   1      39.393  33.971  33.348  1.00  0.00     0.223 C 
ATOM     85  O   UNL A   1      39.378  35.049  33.954  1.00  0.00    -0.275 OA
BRANCH  84  86
ATOM     86  C   UNL A   1      39.780  34.034  31.874  1.00  0.00     0.100 C 
BRANCH  86  87
ATOM     87  C   UNL A   1      41.208  33.815  31.386  1.00  0.00     0.015 C 
BRANCH  87  88
ATOM     88  C   UNL A   1      41.579  33.714  29.904  1.00  0.00     0.038 C 
BRANCH  88  89
ATOM     89  C   UNL A   1      42.839  34.325  29.344  1.00  0.00    -0.023 A 
ATOM     90  C   UNL A   1      44.170  34.072  29.624  1.00  0.00     0.087 A 
ATOM     91  C   UNL A   1      42.860  35.453  28.445  1.00  0.00     0.003 A 
ATOM     92  N   UNL A   1      44.910  35.160  29.245  1.00  0.00    -0.361 N 
ATOM     93  C   UNL A   1      44.140  36.005  28.496  1.00  0.00     0.046 A 
ATOM     94  C   UNL A   1      41.899  36.092  27.637  1.00  0.00     0.010 A 
ATOM     95  H   UNL A   1      45.855  35.312  29.477  1.00  0.00     0.166 HD
ATOM     96  C   UNL A   1      44.491  37.199  27.865  1.00  0.00     0.026 A 
ATOM     97  C   UNL A   1      42.277  37.207  26.877  1.00  0.00     0.001 A 
ATOM     98  C   UNL A   1      43.546  37.768  27.014  1.00  0.00     0.002 A 
ENDBRANCH  88  89
ENDBRANCH  87  88
ENDBRANCH  86  87
ENDBRANCH  84  86
ENDBRANCH  76  84
ENDBRANCH  72  74
ENDBRANCH  71  72
ENDBRANCH   1  71
TORSDOF 19
ENDMDL
