MODEL 1
REMARK VINA RESULT:     -12.2      0.000      0.000
REMARK SMILES O=C(C[C@@H](NS(=O)(=O)c1ccc(Cl)cc1)c1ccc(F)cc1)OCCOC(=O)c1ccc(-c2c3nc(c(-c4cc(S(=O)(=O)[O-])ccc4F)c4ccc([nH]4)c(-c4cc(S(=O)(=O)[O-])ccc4F)c4nc(c(-c5cc(S(=O)(=O)[O-])ccc5F)c5ccc2[nH]5)C=C4)C=C3)cc1
REMARK SMILES IDX 24 1 23 2 2 3 1 4 3 5 4 6 5 7 6 9 7 10 8 11 9 12 10 13 15 14
REMARK SMILES IDX 11 15 14 16 12 17 13 18 16 19 17 20 22 21 18 22 21 23 19 24
REMARK SMILES IDX 20 25 25 26 26 27 27 28 28 29 29 30 30 31 91 32 31 33 90 34
REMARK SMILES IDX 32 35 33 36 34 37 84 38 35 39 89 40 83 41 85 42 36 43 88 44
REMARK SMILES IDX 82 45 81 46 37 48 69 49 49 50 68 51 50 52 53 53 67 54 86 55
REMARK SMILES IDX 51 56 52 57 66 59 87 60 54 61 38 62 39 63 47 64 40 65 46 66
REMARK SMILES IDX 48 67 45 68 41 69 42 70 43 71 44 72 70 73 71 74 79 75 72 76
REMARK SMILES IDX 78 77 80 78 77 79 73 80 74 81 75 82 76 83 55 84 56 85 64 86
REMARK SMILES IDX 57 87 63 88 65 89 62 90 58 91 59 92 60 93 61 94
REMARK H PARENT 5 8 85 47 53 58
REMARK Flexibility Score: inf
ROOT
ATOM      1  C   UNL A   1      36.424  20.341  24.972  1.00  0.00     0.274 C 
ENDROOT
BRANCH   1   2
ATOM      2  O   UNL A   1      35.919  21.656  24.633  1.00  0.00    -0.462 OA
BRANCH   2   3
ATOM      3  C   UNL A   1      34.931  22.293  25.314  1.00  0.00     0.307 C 
ATOM      4  O   UNL A   1      35.189  22.981  26.298  1.00  0.00    -0.252 OA
BRANCH   3   5
ATOM      5  C   UNL A   1      33.520  22.099  24.841  1.00  0.00     0.147 C 
BRANCH   5   6
ATOM      6  C   UNL A   1      32.677  21.181  25.742  1.00  0.00     0.111 C 
BRANCH   6   7
ATOM      7  N   UNL A   1      31.265  21.653  25.761  1.00  0.00    -0.203 NA
ATOM      8  H   UNL A   1      30.698  20.877  26.102  1.00  0.00     0.142 HD
BRANCH   7   9
ATOM      9  S   UNL A   1      30.852  23.006  26.682  1.00  0.00     0.241 S 
ATOM     10  O   UNL A   1      29.575  22.738  27.308  1.00  0.00    -0.207 OA
ATOM     11  O   UNL A   1      32.030  23.302  27.463  1.00  0.00    -0.207 OA
BRANCH   9  12
ATOM     12  C   UNL A   1      30.667  24.329  25.524  1.00  0.00     0.082 A 
ATOM     13  C   UNL A   1      30.712  24.039  24.157  1.00  0.00     0.023 A 
ATOM     14  C   UNL A   1      30.541  25.648  25.974  1.00  0.00     0.023 A 
ATOM     15  C   UNL A   1      30.662  25.080  23.231  1.00  0.00     0.022 A 
ATOM     16  C   UNL A   1      30.506  26.687  25.042  1.00  0.00     0.022 A 
ATOM     17  C   UNL A   1      30.572  26.400  23.677  1.00  0.00     0.041 A 
ATOM     18  Cl  UNL A   1      30.551  27.684  22.534  1.00  0.00    -0.084 Cl
ENDBRANCH   9  12
ENDBRANCH   7   9
ENDBRANCH   6   7
BRANCH   6  19
ATOM     19  C   UNL A   1      32.792  19.743  25.231  1.00  0.00    -0.029 A 
ATOM     20  C   UNL A   1      32.782  19.439  23.852  1.00  0.00     0.008 A 
ATOM     21  C   UNL A   1      32.865  18.676  26.141  1.00  0.00     0.008 A 
ATOM     22  C   UNL A   1      32.861  18.119  23.402  1.00  0.00     0.039 A 
ATOM     23  C   UNL A   1      32.919  17.353  25.689  1.00  0.00     0.039 A 
ATOM     24  C   UNL A   1      32.919  17.088  24.326  1.00  0.00     0.123 A 
ATOM     25  F   UNL A   1      32.947  15.821  23.894  1.00  0.00    -0.207 F 
ENDBRANCH   6  19
ENDBRANCH   5   6
ENDBRANCH   3   5
ENDBRANCH   2   3
ENDBRANCH   1   2
BRANCH   1  26
ATOM     26  C   UNL A   1      37.946  20.297  25.086  1.00  0.00     0.275 C 
BRANCH  26  27
ATOM     27  O   UNL A   1      38.422  21.461  25.783  1.00  0.00    -0.458 OA
BRANCH  27  28
ATOM     28  C   UNL A   1      39.642  21.320  26.361  1.00  0.00     0.338 C 
ATOM     29  O   UNL A   1      40.362  20.339  26.288  1.00  0.00    -0.246 OA
BRANCH  28  30
ATOM     30  C   UNL A   1      40.076  22.616  26.935  1.00  0.00     0.060 A 
ATOM     31  C   UNL A   1      39.463  23.773  26.441  1.00  0.00     0.016 A 
ATOM     32  C   UNL A   1      41.033  22.711  27.954  1.00  0.00     0.016 A 
ATOM     33  C   UNL A   1      39.830  25.024  26.931  1.00  0.00     0.010 A 
ATOM     34  C   UNL A   1      41.394  23.967  28.452  1.00  0.00     0.010 A 
ATOM     35  C   UNL A   1      40.817  25.132  27.920  1.00  0.00    -0.014 A 
BRANCH  35  36
ATOM     36  C   UNL A   1      41.343  26.474  28.268  1.00  0.00     0.031 A 
ATOM     37  C   UNL A   1      42.743  26.832  27.850  1.00  0.00     0.074 A 
ATOM     38  C   UNL A   1      40.570  27.382  28.890  1.00  0.00     0.049 A 
ATOM     39  N   UNL A   1      43.382  27.966  27.978  1.00  0.00    -0.248 NA
ATOM     40  C   UNL A   1      43.528  25.768  27.204  1.00  0.00     0.031 C 
ATOM     41  C   UNL A   1      39.194  27.160  29.334  1.00  0.00     0.029 A 
ATOM     42  N   UNL A   1      40.834  28.682  29.242  1.00  0.00    -0.354 N 
ATOM     43  C   UNL A   1      44.638  27.755  27.421  1.00  0.00     0.074 A 
ATOM     44  C   UNL A   1      44.687  26.373  26.998  1.00  0.00     0.031 C 
ATOM     45  C   UNL A   1      38.730  28.294  29.889  1.00  0.00     0.029 A 
ATOM     46  C   UNL A   1      39.778  29.313  29.854  1.00  0.00     0.049 A 
ATOM     47  H   UNL A   1      41.698  29.120  29.072  1.00  0.00     0.167 HD
ATOM     48  C   UNL A   1      45.653  28.638  27.259  1.00  0.00     0.034 A 
ATOM     49  C   UNL A   1      39.670  30.569  30.333  1.00  0.00     0.034 A 
ATOM     50  C   UNL A   1      45.601  30.013  27.681  1.00  0.00     0.049 A 
ATOM     51  C   UNL A   1      40.835  31.518  30.204  1.00  0.00     0.074 A 
ATOM     52  C   UNL A   1      46.558  30.998  27.522  1.00  0.00     0.029 A 
ATOM     53  N   UNL A   1      44.539  30.594  28.360  1.00  0.00    -0.354 N 
ATOM     54  N   UNL A   1      42.009  31.312  29.655  1.00  0.00    -0.248 NA
ATOM     55  C   UNL A   1      40.659  32.868  30.758  1.00  0.00     0.031 C 
ATOM     56  C   UNL A   1      46.103  32.158  28.159  1.00  0.00     0.029 A 
ATOM     57  C   UNL A   1      44.834  31.913  28.660  1.00  0.00     0.049 A 
ATOM     58  H   UNL A   1      43.699  30.136  28.593  1.00  0.00     0.167 HD
ATOM     59  C   UNL A   1      42.704  32.511  29.782  1.00  0.00     0.074 A 
ATOM     60  C   UNL A   1      41.822  33.436  30.462  1.00  0.00     0.031 C 
ATOM     61  C   UNL A   1      43.956  32.819  29.359  1.00  0.00     0.034 A 
BRANCH  48  62
ATOM     62  C   UNL A   1      46.917  28.124  26.626  1.00  0.00     0.023 A 
ATOM     63  C   UNL A   1      47.115  28.175  25.237  1.00  0.00     0.031 A 
ATOM     64  C   UNL A   1      47.926  27.554  27.422  1.00  0.00     0.131 A 
ATOM     65  C   UNL A   1      48.271  27.611  24.677  1.00  0.00     0.055 A 
ATOM     66  C   UNL A   1      49.104  27.055  26.865  1.00  0.00     0.041 A 
ATOM     67  F   UNL A   1      47.775  27.462  28.752  1.00  0.00    -0.206 F 
ATOM     68  C   UNL A   1      49.277  27.072  25.483  1.00  0.00     0.022 A 
BRANCH  65  69
ATOM     69  S   UNL A   1      48.394  27.495  22.872  1.00  0.00     0.124 S 
ATOM     70  O   UNL A   1      47.243  28.290  22.448  1.00  0.00    -0.237 OA
ATOM     71  O   UNL A   1      49.704  28.077  22.605  1.00  0.00    -0.237 OA
ATOM     72  O   UNL A   1      48.283  26.062  22.612  1.00  0.00    -0.744 OA
ENDBRANCH  65  69
ENDBRANCH  48  62
BRANCH  49  73
ATOM     73  C   UNL A   1      38.414  30.996  31.004  1.00  0.00     0.023 A 
ATOM     74  C   UNL A   1      37.407  31.674  30.301  1.00  0.00     0.031 A 
ATOM     75  C   UNL A   1      38.207  30.723  32.367  1.00  0.00     0.131 A 
ATOM     76  C   UNL A   1      36.239  32.071  30.971  1.00  0.00     0.055 A 
ATOM     77  C   UNL A   1      37.033  31.095  33.021  1.00  0.00     0.041 A 
ATOM     78  F   UNL A   1      39.142  30.070  33.076  1.00  0.00    -0.206 F 
ATOM     79  C   UNL A   1      36.041  31.777  32.323  1.00  0.00     0.022 A 
BRANCH  76  80
ATOM     80  S   UNL A   1      34.968  32.983  30.052  1.00  0.00     0.124 S 
ATOM     81  O   UNL A   1      34.076  33.409  31.124  1.00  0.00    -0.237 OA
ATOM     82  O   UNL A   1      35.749  34.036  29.409  1.00  0.00    -0.237 OA
ATOM     83  O   UNL A   1      34.421  31.978  29.142  1.00  0.00    -0.744 OA
ENDBRANCH  76  80
ENDBRANCH  49  73
BRANCH  61  84
ATOM     84  C   UNL A   1      44.451  34.221  29.594  1.00  0.00     0.023 A 
ATOM     85  C   UNL A   1      44.207  35.250  28.671  1.00  0.00     0.031 A 
ATOM     86  C   UNL A   1      45.107  34.541  30.795  1.00  0.00     0.131 A 
ATOM     87  C   UNL A   1      44.632  36.557  28.959  1.00  0.00     0.055 A 
ATOM     88  C   UNL A   1      45.494  35.848  31.092  1.00  0.00     0.041 A 
ATOM     89  F   UNL A   1      45.356  33.590  31.710  1.00  0.00    -0.206 F 
ATOM     90  C   UNL A   1      45.258  36.864  30.171  1.00  0.00     0.022 A 
BRANCH  87  91
ATOM     91  S   UNL A   1      44.356  37.862  27.730  1.00  0.00     0.124 S 
ATOM     92  O   UNL A   1      45.691  38.030  27.164  1.00  0.00    -0.237 OA
ATOM     93  O   UNL A   1      43.360  37.264  26.847  1.00  0.00    -0.237 OA
ATOM     94  O   UNL A   1      43.874  38.988  28.529  1.00  0.00    -0.744 OA
ENDBRANCH  87  91
ENDBRANCH  61  84
ENDBRANCH  35  36
ENDBRANCH  28  30
ENDBRANCH  27  28
ENDBRANCH  26  27
ENDBRANCH   1  26
TORSDOF 19
ENDMDL
MODEL 2
REMARK VINA RESULT:     -12.1      2.517      3.679
REMARK SMILES O=C(C[C@@H](NS(=O)(=O)c1ccc(Cl)cc1)c1ccc(F)cc1)OCCOC(=O)c1ccc(-c2c3nc(c(-c4cc(S(=O)(=O)[O-])ccc4F)c4ccc([nH]4)c(-c4cc(S(=O)(=O)[O-])ccc4F)c4nc(c(-c5cc(S(=O)(=O)[O-])ccc5F)c5ccc2[nH]5)C=C4)C=C3)cc1
REMARK SMILES IDX 24 1 23 2 2 3 1 4 3 5 4 6 5 7 6 9 7 10 8 11 9 12 10 13 15 14
REMARK SMILES IDX 11 15 14 16 12 17 13 18 16 19 17 20 22 21 18 22 21 23 19 24
REMARK SMILES IDX 20 25 25 26 26 27 27 28 28 29 29 30 30 31 91 32 31 33 90 34
REMARK SMILES IDX 32 35 33 36 34 37 84 38 35 39 89 40 83 41 85 42 36 43 88 44
REMARK SMILES IDX 82 45 81 46 37 48 69 49 49 50 68 51 50 52 53 53 67 54 86 55
REMARK SMILES IDX 51 56 52 57 66 59 87 60 54 61 38 62 39 63 47 64 40 65 46 66
REMARK SMILES IDX 48 67 45 68 41 69 42 70 43 71 44 72 70 73 71 74 79 75 72 76
REMARK SMILES IDX 78 77 80 78 77 79 73 80 74 81 75 82 76 83 55 84 56 85 64 86
REMARK SMILES IDX 57 87 63 88 65 89 62 90 58 91 59 92 60 93 61 94
REMARK H PARENT 5 8 85 47 53 58
REMARK Flexibility Score: inf
ROOT
ATOM      1  C   UNL A   1      35.328  20.948  25.242  1.00  0.00     0.274 C 
ENDROOT
BRANCH   1   2
ATOM      2  O   UNL A   1      35.178  22.379  25.070  1.00  0.00    -0.462 OA
BRANCH   2   3
ATOM      3  C   UNL A   1      34.391  23.162  25.852  1.00  0.00     0.307 C 
ATOM      4  O   UNL A   1      33.395  22.702  26.401  1.00  0.00    -0.252 OA
BRANCH   3   5
ATOM      5  C   UNL A   1      34.767  24.609  25.992  1.00  0.00     0.147 C 
BRANCH   5   6
ATOM      6  C   UNL A   1      34.246  25.505  24.856  1.00  0.00     0.111 C 
BRANCH   6   7
ATOM      7  N   UNL A   1      33.402  24.703  23.929  1.00  0.00    -0.203 NA
ATOM      8  H   UNL A   1      32.541  24.481  24.429  1.00  0.00     0.142 HD
BRANCH   7   9
ATOM      9  S   UNL A   1      32.949  25.356  22.438  1.00  0.00     0.241 S 
ATOM     10  O   UNL A   1      34.027  26.209  21.987  1.00  0.00    -0.207 OA
ATOM     11  O   UNL A   1      32.500  24.227  21.657  1.00  0.00    -0.207 OA
BRANCH   9  12
ATOM     12  C   UNL A   1      31.522  26.344  22.767  1.00  0.00     0.082 A 
ATOM     13  C   UNL A   1      30.416  25.747  23.381  1.00  0.00     0.023 A 
ATOM     14  C   UNL A   1      31.480  27.681  22.360  1.00  0.00     0.023 A 
ATOM     15  C   UNL A   1      29.248  26.486  23.564  1.00  0.00     0.022 A 
ATOM     16  C   UNL A   1      30.303  28.412  22.531  1.00  0.00     0.022 A 
ATOM     17  C   UNL A   1      29.192  27.810  23.127  1.00  0.00     0.041 A 
ATOM     18  Cl  UNL A   1      27.737  28.707  23.316  1.00  0.00    -0.084 Cl
ENDBRANCH   9  12
ENDBRANCH   7   9
ENDBRANCH   6   7
BRANCH   6  19
ATOM     19  C   UNL A   1      33.473  26.678  25.463  1.00  0.00    -0.029 A 
ATOM     20  C   UNL A   1      33.848  28.019  25.229  1.00  0.00     0.008 A 
ATOM     21  C   UNL A   1      32.384  26.437  26.316  1.00  0.00     0.008 A 
ATOM     22  C   UNL A   1      33.149  29.078  25.811  1.00  0.00     0.039 A 
ATOM     23  C   UNL A   1      31.699  27.499  26.918  1.00  0.00     0.039 A 
ATOM     24  C   UNL A   1      32.086  28.807  26.658  1.00  0.00     0.123 A 
ATOM     25  F   UNL A   1      31.446  29.821  27.253  1.00  0.00    -0.207 F 
ENDBRANCH   6  19
ENDBRANCH   5   6
ENDBRANCH   3   5
ENDBRANCH   2   3
ENDBRANCH   1   2
BRANCH   1  26
ATOM     26  C   UNL A   1      36.757  20.465  25.001  1.00  0.00     0.275 C 
BRANCH  26  27
ATOM     27  O   UNL A   1      37.682  21.550  25.185  1.00  0.00    -0.458 OA
BRANCH  27  28
ATOM     28  C   UNL A   1      38.806  21.229  25.876  1.00  0.00     0.338 C 
ATOM     29  O   UNL A   1      39.369  20.148  25.869  1.00  0.00    -0.246 OA
BRANCH  28  30
ATOM     30  C   UNL A   1      39.379  22.449  26.492  1.00  0.00     0.060 A 
ATOM     31  C   UNL A   1      38.817  23.677  26.124  1.00  0.00     0.016 A 
ATOM     32  C   UNL A   1      40.418  22.408  27.430  1.00  0.00     0.016 A 
ATOM     33  C   UNL A   1      39.313  24.864  26.659  1.00  0.00     0.010 A 
ATOM     34  C   UNL A   1      40.911  23.599  27.974  1.00  0.00     0.010 A 
ATOM     35  C   UNL A   1      40.382  24.835  27.567  1.00  0.00    -0.014 A 
BRANCH  35  36
ATOM     36  C   UNL A   1      41.032  26.110  27.952  1.00  0.00     0.031 A 
ATOM     37  C   UNL A   1      42.450  26.360  27.516  1.00  0.00     0.074 A 
ATOM     38  C   UNL A   1      40.355  27.058  28.625  1.00  0.00     0.049 A 
ATOM     39  N   UNL A   1      43.189  27.427  27.671  1.00  0.00    -0.248 NA
ATOM     40  C   UNL A   1      43.123  25.256  26.812  1.00  0.00     0.031 C 
ATOM     41  C   UNL A   1      38.974  26.941  29.092  1.00  0.00     0.029 A 
ATOM     42  N   UNL A   1      40.741  28.314  29.021  1.00  0.00    -0.354 N 
ATOM     43  C   UNL A   1      44.411  27.128  27.078  1.00  0.00     0.074 A 
ATOM     44  C   UNL A   1      44.328  25.764  26.603  1.00  0.00     0.031 C 
ATOM     45  C   UNL A   1      38.623  28.088  29.700  1.00  0.00     0.029 A 
ATOM     46  C   UNL A   1      39.758  29.012  29.680  1.00  0.00     0.049 A 
ATOM     47  H   UNL A   1      41.637  28.681  28.847  1.00  0.00     0.167 HD
ATOM     48  C   UNL A   1      45.497  27.923  26.926  1.00  0.00     0.034 A 
ATOM     49  C   UNL A   1      39.771  30.253  30.208  1.00  0.00     0.034 A 
ATOM     50  C   UNL A   1      45.576  29.280  27.400  1.00  0.00     0.049 A 
ATOM     51  C   UNL A   1      41.013  31.099  30.088  1.00  0.00     0.074 A 
ATOM     52  C   UNL A   1      46.614  30.182  27.257  1.00  0.00     0.029 A 
ATOM     53  N   UNL A   1      44.583  29.925  28.125  1.00  0.00    -0.354 N 
ATOM     54  N   UNL A   1      42.153  30.812  29.504  1.00  0.00    -0.248 NA
ATOM     55  C   UNL A   1      40.970  32.436  30.696  1.00  0.00     0.031 C 
ATOM     56  C   UNL A   1      46.276  31.351  27.947  1.00  0.00     0.029 A 
ATOM     57  C   UNL A   1      45.001  31.200  28.468  1.00  0.00     0.049 A 
ATOM     58  H   UNL A   1      43.711  29.535  28.360  1.00  0.00     0.167 HD
ATOM     59  C   UNL A   1      42.955  31.939  29.660  1.00  0.00     0.074 A 
ATOM     60  C   UNL A   1      42.173  32.911  30.395  1.00  0.00     0.031 C 
ATOM     61  C   UNL A   1      44.221  32.152  29.221  1.00  0.00     0.034 A 
BRANCH  48  62
ATOM     62  C   UNL A   1      46.697  27.325  26.246  1.00  0.00     0.023 A 
ATOM     63  C   UNL A   1      47.769  26.792  26.981  1.00  0.00     0.031 A 
ATOM     64  C   UNL A   1      46.781  27.309  24.843  1.00  0.00     0.131 A 
ATOM     65  C   UNL A   1      48.906  26.318  26.312  1.00  0.00     0.055 A 
ATOM     66  C   UNL A   1      47.887  26.775  24.181  1.00  0.00     0.041 A 
ATOM     67  F   UNL A   1      45.793  27.826  24.095  1.00  0.00    -0.206 F 
ATOM     68  C   UNL A   1      48.963  26.285  24.916  1.00  0.00     0.022 A 
BRANCH  65  69
ATOM     69  S   UNL A   1      50.356  25.843  27.292  1.00  0.00     0.124 S 
ATOM     70  O   UNL A   1      50.285  26.795  28.399  1.00  0.00    -0.237 OA
ATOM     71  O   UNL A   1      50.071  24.453  27.626  1.00  0.00    -0.237 OA
ATOM     72  O   UNL A   1      51.473  26.049  26.372  1.00  0.00    -0.744 OA
ENDBRANCH  65  69
ENDBRANCH  48  62
BRANCH  49  73
ATOM     73  C   UNL A   1      38.572  30.762  30.924  1.00  0.00     0.023 A 
ATOM     74  C   UNL A   1      37.535  31.411  30.236  1.00  0.00     0.031 A 
ATOM     75  C   UNL A   1      38.450  30.598  32.314  1.00  0.00     0.131 A 
ATOM     76  C   UNL A   1      36.423  31.889  30.947  1.00  0.00     0.055 A 
ATOM     77  C   UNL A   1      37.330  31.050  33.012  1.00  0.00     0.041 A 
ATOM     78  F   UNL A   1      39.415  29.976  33.010  1.00  0.00    -0.206 F 
ATOM     79  C   UNL A   1      36.308  31.703  32.328  1.00  0.00     0.022 A 
BRANCH  76  80
ATOM     80  S   UNL A   1      35.114  32.762  30.044  1.00  0.00     0.124 S 
ATOM     81  O   UNL A   1      34.090  32.905  31.072  1.00  0.00    -0.237 OA
ATOM     82  O   UNL A   1      35.789  33.989  29.634  1.00  0.00    -0.237 OA
ATOM     83  O   UNL A   1      34.785  31.845  28.954  1.00  0.00    -0.744 OA
ENDBRANCH  76  80
ENDBRANCH  49  73
BRANCH  61  84
ATOM     84  C   UNL A   1      44.843  33.494  29.497  1.00  0.00     0.023 A 
ATOM     85  C   UNL A   1      44.673  34.577  28.620  1.00  0.00     0.031 A 
ATOM     86  C   UNL A   1      45.551  33.706  30.693  1.00  0.00     0.131 A 
ATOM     87  C   UNL A   1      45.219  35.829  28.947  1.00  0.00     0.055 A 
ATOM     88  C   UNL A   1      46.058  34.962  31.030  1.00  0.00     0.041 A 
ATOM     89  F   UNL A   1      45.732  32.702  31.565  1.00  0.00    -0.206 F 
ATOM     90  C   UNL A   1      45.895  36.030  30.154  1.00  0.00     0.022 A 
BRANCH  87  91
ATOM     91  S   UNL A   1      45.034  37.201  27.775  1.00  0.00     0.124 S 
ATOM     92  O   UNL A   1      46.008  36.851  26.746  1.00  0.00    -0.237 OA
ATOM     93  O   UNL A   1      43.632  37.102  27.385  1.00  0.00    -0.237 OA
ATOM     94  O   UNL A   1      45.369  38.379  28.573  1.00  0.00    -0.744 OA
ENDBRANCH  87  91
ENDBRANCH  61  84
ENDBRANCH  35  36
ENDBRANCH  28  30
ENDBRANCH  27  28
ENDBRANCH  26  27
ENDBRANCH   1  26
TORSDOF 19
ENDMDL
MODEL 3
REMARK VINA RESULT:     -12.0      2.103      2.847
REMARK SMILES O=C(C[C@@H](NS(=O)(=O)c1ccc(Cl)cc1)c1ccc(F)cc1)OCCOC(=O)c1ccc(-c2c3nc(c(-c4cc(S(=O)(=O)[O-])ccc4F)c4ccc([nH]4)c(-c4cc(S(=O)(=O)[O-])ccc4F)c4nc(c(-c5cc(S(=O)(=O)[O-])ccc5F)c5ccc2[nH]5)C=C4)C=C3)cc1
REMARK SMILES IDX 24 1 23 2 2 3 1 4 3 5 4 6 5 7 6 9 7 10 8 11 9 12 10 13 15 14
REMARK SMILES IDX 11 15 14 16 12 17 13 18 16 19 17 20 22 21 18 22 21 23 19 24
REMARK SMILES IDX 20 25 25 26 26 27 27 28 28 29 29 30 30 31 91 32 31 33 90 34
REMARK SMILES IDX 32 35 33 36 34 37 84 38 35 39 89 40 83 41 85 42 36 43 88 44
REMARK SMILES IDX 82 45 81 46 37 48 69 49 49 50 68 51 50 52 53 53 67 54 86 55
REMARK SMILES IDX 51 56 52 57 66 59 87 60 54 61 38 62 39 63 47 64 40 65 46 66
REMARK SMILES IDX 48 67 45 68 41 69 42 70 43 71 44 72 70 73 71 74 79 75 72 76
REMARK SMILES IDX 78 77 80 78 77 79 73 80 74 81 75 82 76 83 55 84 56 85 64 86
REMARK SMILES IDX 57 87 63 88 65 89 62 90 58 91 59 92 60 93 61 94
REMARK H PARENT 5 8 85 47 53 58
REMARK Flexibility Score: inf
ROOT
ATOM      1  C   UNL A   1      35.580  20.221  25.368  1.00  0.00     0.274 C 
ENDROOT
BRANCH   1   2
ATOM      2  O   UNL A   1      34.555  19.738  24.465  1.00  0.00    -0.462 OA
BRANCH   2   3
ATOM      3  C   UNL A   1      33.276  19.472  24.835  1.00  0.00     0.307 C 
ATOM      4  O   UNL A   1      33.034  18.647  25.712  1.00  0.00    -0.252 OA
BRANCH   3   5
ATOM      5  C   UNL A   1      32.176  20.196  24.115  1.00  0.00     0.147 C 
BRANCH   5   6
ATOM      6  C   UNL A   1      31.759  21.520  24.776  1.00  0.00     0.111 C 
BRANCH   6   7
ATOM      7  N   UNL A   1      32.498  21.699  26.056  1.00  0.00    -0.203 NA
ATOM      8  H   UNL A   1      33.461  21.927  25.813  1.00  0.00     0.142 HD
BRANCH   7   9
ATOM      9  S   UNL A   1      31.980  22.866  27.162  1.00  0.00     0.241 S 
ATOM     10  O   UNL A   1      30.533  22.870  27.150  1.00  0.00    -0.207 OA
ATOM     11  O   UNL A   1      32.726  22.594  28.369  1.00  0.00    -0.207 OA
BRANCH   9  12
ATOM     12  C   UNL A   1      32.573  24.408  26.536  1.00  0.00     0.082 A 
ATOM     13  C   UNL A   1      31.683  25.483  26.439  1.00  0.00     0.023 A 
ATOM     14  C   UNL A   1      33.892  24.528  26.088  1.00  0.00     0.023 A 
ATOM     15  C   UNL A   1      32.108  26.678  25.862  1.00  0.00     0.022 A 
ATOM     16  C   UNL A   1      34.308  25.722  25.497  1.00  0.00     0.022 A 
ATOM     17  C   UNL A   1      33.414  26.789  25.382  1.00  0.00     0.041 A 
ATOM     18  Cl  UNL A   1      33.924  28.251  24.634  1.00  0.00    -0.084 Cl
ENDBRANCH   9  12
ENDBRANCH   7   9
ENDBRANCH   6   7
BRANCH   6  19
ATOM     19  C   UNL A   1      32.025  22.668  23.799  1.00  0.00    -0.029 A 
ATOM     20  C   UNL A   1      33.267  22.819  23.146  1.00  0.00     0.008 A 
ATOM     21  C   UNL A   1      31.034  23.636  23.564  1.00  0.00     0.008 A 
ATOM     22  C   UNL A   1      33.503  23.886  22.277  1.00  0.00     0.039 A 
ATOM     23  C   UNL A   1      31.281  24.718  22.712  1.00  0.00     0.039 A 
ATOM     24  C   UNL A   1      32.510  24.832  22.076  1.00  0.00     0.123 A 
ATOM     25  F   UNL A   1      32.754  25.880  21.280  1.00  0.00    -0.207 F 
ENDBRANCH   6  19
ENDBRANCH   5   6
ENDBRANCH   3   5
ENDBRANCH   2   3
ENDBRANCH   1   2
BRANCH   1  26
ATOM     26  C   UNL A   1      36.884  20.575  24.655  1.00  0.00     0.275 C 
BRANCH  26  27
ATOM     27  O   UNL A   1      37.546  21.650  25.344  1.00  0.00    -0.458 OA
BRANCH  27  28
ATOM     28  C   UNL A   1      38.735  21.319  25.907  1.00  0.00     0.338 C 
ATOM     29  O   UNL A   1      39.318  20.256  25.781  1.00  0.00    -0.246 OA
BRANCH  28  30
ATOM     30  C   UNL A   1      39.336  22.514  26.545  1.00  0.00     0.060 A 
ATOM     31  C   UNL A   1      38.770  23.757  26.236  1.00  0.00     0.016 A 
ATOM     32  C   UNL A   1      40.405  22.436  27.447  1.00  0.00     0.016 A 
ATOM     33  C   UNL A   1      39.292  24.922  26.794  1.00  0.00     0.010 A 
ATOM     34  C   UNL A   1      40.923  23.605  28.014  1.00  0.00     0.010 A 
ATOM     35  C   UNL A   1      40.389  24.857  27.665  1.00  0.00    -0.014 A 
BRANCH  35  36
ATOM     36  C   UNL A   1      41.060  26.115  28.071  1.00  0.00     0.031 A 
ATOM     37  C   UNL A   1      42.480  26.351  27.633  1.00  0.00     0.074 A 
ATOM     38  C   UNL A   1      40.401  27.059  28.765  1.00  0.00     0.049 A 
ATOM     39  N   UNL A   1      43.236  27.404  27.805  1.00  0.00    -0.248 NA
ATOM     40  C   UNL A   1      43.133  25.251  26.906  1.00  0.00     0.031 C 
ATOM     41  C   UNL A   1      39.020  26.955  29.236  1.00  0.00     0.029 A 
ATOM     42  N   UNL A   1      40.807  28.303  29.182  1.00  0.00    -0.354 N 
ATOM     43  C   UNL A   1      44.450  27.098  27.201  1.00  0.00     0.074 A 
ATOM     44  C   UNL A   1      44.345  25.745  26.701  1.00  0.00     0.031 C 
ATOM     45  C   UNL A   1      38.690  28.096  29.867  1.00  0.00     0.029 A 
ATOM     46  C   UNL A   1      39.838  29.003  29.859  1.00  0.00     0.049 A 
ATOM     47  H   UNL A   1      41.708  28.659  29.011  1.00  0.00     0.167 HD
ATOM     48  C   UNL A   1      45.548  27.879  27.059  1.00  0.00     0.034 A 
ATOM     49  C   UNL A   1      39.872  30.233  30.410  1.00  0.00     0.034 A 
ATOM     50  C   UNL A   1      45.649  29.225  27.558  1.00  0.00     0.049 A 
ATOM     51  C   UNL A   1      41.126  31.062  30.299  1.00  0.00     0.074 A 
ATOM     52  C   UNL A   1      46.701  30.115  27.427  1.00  0.00     0.029 A 
ATOM     53  N   UNL A   1      44.670  29.872  28.299  1.00  0.00    -0.354 N 
ATOM     54  N   UNL A   1      42.260  30.769  29.706  1.00  0.00    -0.248 NA
ATOM     55  C   UNL A   1      41.106  32.389  30.933  1.00  0.00     0.031 C 
ATOM     56  C   UNL A   1      46.383  31.275  28.140  1.00  0.00     0.029 A 
ATOM     57  C   UNL A   1      45.108  31.134  28.663  1.00  0.00     0.049 A 
ATOM     58  H   UNL A   1      43.793  29.490  28.531  1.00  0.00     0.167 HD
ATOM     59  C   UNL A   1      43.079  31.881  29.879  1.00  0.00     0.074 A 
ATOM     60  C   UNL A   1      42.315  32.851  30.635  1.00  0.00     0.031 C 
ATOM     61  C   UNL A   1      44.346  32.083  29.438  1.00  0.00     0.034 A 
BRANCH  48  62
ATOM     62  C   UNL A   1      46.736  27.276  26.362  1.00  0.00     0.023 A 
ATOM     63  C   UNL A   1      47.791  26.691  27.082  1.00  0.00     0.031 A 
ATOM     64  C   UNL A   1      46.825  27.307  24.959  1.00  0.00     0.131 A 
ATOM     65  C   UNL A   1      48.919  26.213  26.400  1.00  0.00     0.055 A 
ATOM     66  C   UNL A   1      47.920  26.770  24.283  1.00  0.00     0.041 A 
ATOM     67  F   UNL A   1      45.854  27.874  24.227  1.00  0.00    -0.206 F 
ATOM     68  C   UNL A   1      48.981  26.227  25.004  1.00  0.00     0.022 A 
BRANCH  65  69
ATOM     69  S   UNL A   1      50.353  25.669  27.367  1.00  0.00     0.124 S 
ATOM     70  O   UNL A   1      50.294  26.575  28.513  1.00  0.00    -0.237 OA
ATOM     71  O   UNL A   1      50.038  24.272  27.642  1.00  0.00    -0.237 OA
ATOM     72  O   UNL A   1      51.479  25.889  26.463  1.00  0.00    -0.744 OA
ENDBRANCH  65  69
ENDBRANCH  48  62
BRANCH  49  73
ATOM     73  C   UNL A   1      38.684  30.746  31.140  1.00  0.00     0.023 A 
ATOM     74  C   UNL A   1      37.642  31.402  30.466  1.00  0.00     0.031 A 
ATOM     75  C   UNL A   1      38.577  30.580  32.532  1.00  0.00     0.131 A 
ATOM     76  C   UNL A   1      36.541  31.884  31.191  1.00  0.00     0.055 A 
ATOM     77  C   UNL A   1      37.468  31.036  33.243  1.00  0.00     0.041 A 
ATOM     78  F   UNL A   1      39.547  29.952  33.215  1.00  0.00    -0.206 F 
ATOM     79  C   UNL A   1      36.442  31.696  32.573  1.00  0.00     0.022 A 
BRANCH  76  80
ATOM     80  S   UNL A   1      35.226  32.765  30.305  1.00  0.00     0.124 S 
ATOM     81  O   UNL A   1      35.922  33.967  29.861  1.00  0.00    -0.237 OA
ATOM     82  O   UNL A   1      34.863  31.810  29.262  1.00  0.00    -0.237 OA
ATOM     83  O   UNL A   1      34.207  32.974  31.332  1.00  0.00    -0.744 OA
ENDBRANCH  76  80
ENDBRANCH  49  73
BRANCH  61  84
ATOM     84  C   UNL A   1      44.990  33.410  29.736  1.00  0.00     0.023 A 
ATOM     85  C   UNL A   1      44.862  34.501  28.862  1.00  0.00     0.031 A 
ATOM     86  C   UNL A   1      45.674  33.601  30.949  1.00  0.00     0.131 A 
ATOM     87  C   UNL A   1      45.426  35.739  29.209  1.00  0.00     0.055 A 
ATOM     88  C   UNL A   1      46.200  34.843  31.306  1.00  0.00     0.041 A 
ATOM     89  F   UNL A   1      45.815  32.588  31.819  1.00  0.00    -0.206 F 
ATOM     90  C   UNL A   1      46.079  35.920  30.433  1.00  0.00     0.022 A 
BRANCH  87  91
ATOM     91  S   UNL A   1      45.297  37.122  28.042  1.00  0.00     0.124 S 
ATOM     92  O   UNL A   1      43.886  37.478  28.152  1.00  0.00    -0.237 OA
ATOM     93  O   UNL A   1      46.242  38.090  28.588  1.00  0.00    -0.237 OA
ATOM     94  O   UNL A   1      45.691  36.530  26.765  1.00  0.00    -0.744 OA
ENDBRANCH  87  91
ENDBRANCH  61  84
ENDBRANCH  35  36
ENDBRANCH  28  30
ENDBRANCH  27  28
ENDBRANCH  26  27
ENDBRANCH   1  26
TORSDOF 19
ENDMDL
