MODEL 1
REMARK VINA RESULT:     -12.6      0.000      0.000
REMARK SMILES Cc1ccc(C(=O)OCCOC(=O)c2ccc(-c3c4nc(c(-c5cc(S(=O)(=O)[O-])ccc5F)c5ccc([nH]5)c(-c5cc(S(=O)(=O)[O-])ccc5F)c5nc(c(-c6cc(S(=O)(=O)[O-])ccc6F)c6ccc3[nH]6)C=C5)C=C4)cc2)cc1S(=O)(=O)N(C)[C@H]1CCSC1
REMARK SMILES IDX 9 1 8 2 6 3 7 4 5 5 1 6 2 7 3 8 78 9 4 10 77 11 79 12 80 13
REMARK SMILES IDX 81 14 82 15 83 16 84 17 85 18 88 19 86 20 87 21 10 22 11 23
REMARK SMILES IDX 12 24 13 25 14 26 15 27 76 28 16 29 75 30 17 31 18 32 19 33
REMARK SMILES IDX 69 34 20 35 74 36 68 37 70 38 21 39 73 40 67 41 66 42 22 44
REMARK SMILES IDX 54 45 34 46 53 47 35 48 38 49 52 50 71 51 36 52 37 53 51 55
REMARK SMILES IDX 72 56 39 57 23 58 24 59 32 60 25 61 31 62 33 63 30 64 26 65
REMARK SMILES IDX 27 66 28 67 29 68 55 69 56 70 64 71 57 72 63 73 65 74 62 75
REMARK SMILES IDX 58 76 59 77 60 78 61 79 40 80 41 81 49 82 42 83 48 84 50 85
REMARK SMILES IDX 47 86 43 87 44 88 45 89 46 90
REMARK H PARENT 70 43 38 54
REMARK Flexibility Score: inf
ROOT
ATOM      1  C   UNL A   1      32.802  31.010  26.858  1.00  0.00     0.275 C 
ENDROOT
BRANCH   1   2
ATOM      2  O   UNL A   1      32.473  29.809  27.565  1.00  0.00    -0.458 OA
BRANCH   2   3
ATOM      3  C   UNL A   1      33.118  28.731  27.066  1.00  0.00     0.338 C 
ATOM      4  O   UNL A   1      34.326  28.541  27.092  1.00  0.00    -0.246 OA
BRANCH   3   5
ATOM      5  C   UNL A   1      32.222  27.806  26.352  1.00  0.00     0.061 A 
ATOM      6  C   UNL A   1      30.302  24.861  23.860  1.00  0.00     0.046 C 
ATOM      7  C   UNL A   1      30.863  26.010  24.638  1.00  0.00    -0.031 A 
ATOM      8  C   UNL A   1      31.077  25.722  26.006  1.00  0.00     0.006 A 
ATOM      9  C   UNL A   1      31.269  27.273  24.170  1.00  0.00     0.086 A 
ATOM     10  C   UNL A   1      31.695  26.634  26.868  1.00  0.00     0.016 A 
ATOM     11  C   UNL A   1      31.986  28.125  25.023  1.00  0.00     0.037 A 
BRANCH   9  12
ATOM     12  S   UNL A   1      30.948  28.088  22.619  1.00  0.00     0.243 S 
ATOM     13  O   UNL A   1      31.936  29.134  22.510  1.00  0.00    -0.207 OA
ATOM     14  O   UNL A   1      30.871  27.036  21.616  1.00  0.00    -0.207 OA
BRANCH  12  15
ATOM     15  N   UNL A   1      29.437  28.804  22.677  1.00  0.00    -0.197 NA
ATOM     16  C   UNL A   1      28.326  27.981  23.151  1.00  0.00     0.125 C 
BRANCH  15  17
ATOM     17  C   UNL A   1      29.313  30.194  22.192  1.00  0.00     0.083 C 
ATOM     18  C   UNL A   1      28.140  30.468  21.260  1.00  0.00     0.032 C 
ATOM     19  C   UNL A   1      29.168  31.193  23.346  1.00  0.00     0.089 C 
ATOM     20  C   UNL A   1      28.227  31.955  20.956  1.00  0.00     0.071 C 
ATOM     21  S   UNL A   1      28.500  32.707  22.582  1.00  0.00    -0.160 SA
ENDBRANCH  15  17
ENDBRANCH  12  15
ENDBRANCH   9  12
ENDBRANCH   3   5
ENDBRANCH   2   3
ENDBRANCH   1   2
BRANCH   1  22
ATOM     22  C   UNL A   1      31.935  32.206  27.280  1.00  0.00     0.275 C 
BRANCH  22  23
ATOM     23  O   UNL A   1      32.384  33.568  27.061  1.00  0.00    -0.458 OA
BRANCH  23  24
ATOM     24  C   UNL A   1      32.784  34.331  28.111  1.00  0.00     0.338 C 
ATOM     25  O   UNL A   1      32.086  35.182  28.640  1.00  0.00    -0.246 OA
BRANCH  24  26
ATOM     26  C   UNL A   1      34.062  33.832  28.673  1.00  0.00     0.060 A 
ATOM     27  C   UNL A   1      34.035  32.992  29.798  1.00  0.00     0.016 A 
ATOM     28  C   UNL A   1      35.221  33.967  27.910  1.00  0.00     0.016 A 
ATOM     29  C   UNL A   1      35.126  32.190  30.094  1.00  0.00     0.010 A 
ATOM     30  C   UNL A   1      36.236  33.072  28.092  1.00  0.00     0.010 A 
ATOM     31  C   UNL A   1      36.208  32.243  29.223  1.00  0.00    -0.014 A 
BRANCH  31  32
ATOM     32  C   UNL A   1      37.545  31.866  29.630  1.00  0.00     0.031 A 
ATOM     33  C   UNL A   1      38.115  30.580  29.219  1.00  0.00     0.074 A 
ATOM     34  C   UNL A   1      38.153  32.942  30.179  1.00  0.00     0.049 A 
ATOM     35  N   UNL A   1      39.065  29.973  29.835  1.00  0.00    -0.248 NA
ATOM     36  C   UNL A   1      37.592  29.796  28.096  1.00  0.00     0.031 C 
ATOM     37  C   UNL A   1      39.539  33.305  30.377  1.00  0.00     0.029 A 
ATOM     38  N   UNL A   1      37.467  33.983  30.807  1.00  0.00    -0.354 N 
ATOM     39  C   UNL A   1      39.566  29.047  28.938  1.00  0.00     0.074 A 
ATOM     40  C   UNL A   1      38.494  28.811  28.007  1.00  0.00     0.031 C 
ATOM     41  C   UNL A   1      39.594  34.285  31.307  1.00  0.00     0.029 A 
ATOM     42  C   UNL A   1      38.243  34.483  31.833  1.00  0.00     0.049 A 
ATOM     43  H   UNL A   1      36.572  34.309  30.557  1.00  0.00     0.167 HD
ATOM     44  C   UNL A   1      40.914  28.839  28.905  1.00  0.00     0.034 A 
ATOM     45  C   UNL A   1      37.822  34.182  33.100  1.00  0.00     0.034 A 
ATOM     46  C   UNL A   1      41.557  29.695  29.905  1.00  0.00     0.049 A 
ATOM     47  C   UNL A   1      38.766  33.167  33.704  1.00  0.00     0.074 A 
ATOM     48  C   UNL A   1      42.190  30.921  29.786  1.00  0.00     0.029 A 
ATOM     49  N   UNL A   1      41.247  29.536  31.250  1.00  0.00    -0.354 N 
ATOM     50  N   UNL A   1      39.359  32.213  33.033  1.00  0.00    -0.248 NA
ATOM     51  C   UNL A   1      39.215  33.264  35.085  1.00  0.00     0.031 C 
ATOM     52  C   UNL A   1      42.173  31.541  31.063  1.00  0.00     0.029 A 
ATOM     53  C   UNL A   1      41.516  30.699  31.945  1.00  0.00     0.049 A 
ATOM     54  H   UNL A   1      40.886  28.713  31.650  1.00  0.00     0.167 HD
ATOM     55  C   UNL A   1      40.343  31.670  33.818  1.00  0.00     0.074 A 
ATOM     56  C   UNL A   1      40.186  32.337  35.103  1.00  0.00     0.031 C 
ATOM     57  C   UNL A   1      41.270  30.767  33.371  1.00  0.00     0.034 A 
BRANCH  44  58
ATOM     58  C   UNL A   1      41.694  28.222  27.761  1.00  0.00     0.023 A 
ATOM     59  C   UNL A   1      42.658  27.233  28.066  1.00  0.00     0.031 A 
ATOM     60  C   UNL A   1      41.584  28.545  26.396  1.00  0.00     0.131 A 
ATOM     61  C   UNL A   1      43.507  26.688  27.089  1.00  0.00     0.055 A 
ATOM     62  C   UNL A   1      42.443  28.013  25.418  1.00  0.00     0.041 A 
ATOM     63  F   UNL A   1      40.618  29.352  25.938  1.00  0.00    -0.206 F 
ATOM     64  C   UNL A   1      43.419  27.088  25.763  1.00  0.00     0.022 A 
BRANCH  61  65
ATOM     65  S   UNL A   1      44.729  25.447  27.598  1.00  0.00     0.124 S 
ATOM     66  O   UNL A   1      43.941  24.579  28.468  1.00  0.00    -0.237 OA
ATOM     67  O   UNL A   1      45.144  24.875  26.322  1.00  0.00    -0.237 OA
ATOM     68  O   UNL A   1      45.753  26.238  28.280  1.00  0.00    -0.744 OA
ENDBRANCH  61  65
ENDBRANCH  44  58
BRANCH  45  69
ATOM     69  C   UNL A   1      36.323  34.216  33.284  1.00  0.00     0.023 A 
ATOM     70  C   UNL A   1      35.656  35.448  33.068  1.00  0.00     0.031 A 
ATOM     71  C   UNL A   1      35.515  33.074  33.387  1.00  0.00     0.131 A 
ATOM     72  C   UNL A   1      34.271  35.498  32.833  1.00  0.00     0.055 A 
ATOM     73  C   UNL A   1      34.118  33.137  33.215  1.00  0.00     0.041 A 
ATOM     74  F   UNL A   1      36.057  31.862  33.569  1.00  0.00    -0.206 F 
ATOM     75  C   UNL A   1      33.491  34.347  32.912  1.00  0.00     0.022 A 
BRANCH  72  76
ATOM     76  S   UNL A   1      33.564  37.040  32.173  1.00  0.00     0.124 S 
ATOM     77  O   UNL A   1      33.674  36.836  30.733  1.00  0.00    -0.237 OA
ATOM     78  O   UNL A   1      32.209  37.016  32.721  1.00  0.00    -0.237 OA
ATOM     79  O   UNL A   1      34.429  38.076  32.727  1.00  0.00    -0.744 OA
ENDBRANCH  72  76
ENDBRANCH  45  69
BRANCH  57  80
ATOM     80  C   UNL A   1      42.129  29.917  34.268  1.00  0.00     0.023 A 
ATOM     81  C   UNL A   1      41.717  28.655  34.698  1.00  0.00     0.031 A 
ATOM     82  C   UNL A   1      43.447  30.296  34.621  1.00  0.00     0.131 A 
ATOM     83  C   UNL A   1      42.525  27.884  35.540  1.00  0.00     0.055 A 
ATOM     84  C   UNL A   1      44.300  29.470  35.352  1.00  0.00     0.041 A 
ATOM     85  F   UNL A   1      43.973  31.476  34.262  1.00  0.00    -0.206 F 
ATOM     86  C   UNL A   1      43.830  28.262  35.843  1.00  0.00     0.022 A 
BRANCH  83  87
ATOM     87  S   UNL A   1      41.766  26.445  36.321  1.00  0.00     0.124 S 
ATOM     88  O   UNL A   1      40.937  27.069  37.349  1.00  0.00    -0.237 OA
ATOM     89  O   UNL A   1      41.042  25.830  35.213  1.00  0.00    -0.237 OA
ATOM     90  O   UNL A   1      42.908  25.683  36.821  1.00  0.00    -0.744 OA
ENDBRANCH  83  87
ENDBRANCH  57  80
ENDBRANCH  31  32
ENDBRANCH  24  26
ENDBRANCH  23  24
ENDBRANCH  22  23
ENDBRANCH   1  22
TORSDOF 17
ENDMDL
MODEL 2
REMARK VINA RESULT:     -12.5      2.256      3.511
REMARK SMILES Cc1ccc(C(=O)OCCOC(=O)c2ccc(-c3c4nc(c(-c5cc(S(=O)(=O)[O-])ccc5F)c5ccc([nH]5)c(-c5cc(S(=O)(=O)[O-])ccc5F)c5nc(c(-c6cc(S(=O)(=O)[O-])ccc6F)c6ccc3[nH]6)C=C5)C=C4)cc2)cc1S(=O)(=O)N(C)[C@H]1CCSC1
REMARK SMILES IDX 9 1 8 2 6 3 7 4 5 5 1 6 2 7 3 8 78 9 4 10 77 11 79 12 80 13
REMARK SMILES IDX 81 14 82 15 83 16 84 17 85 18 88 19 86 20 87 21 10 22 11 23
REMARK SMILES IDX 12 24 13 25 14 26 15 27 76 28 16 29 75 30 17 31 18 32 19 33
REMARK SMILES IDX 69 34 20 35 74 36 68 37 70 38 21 39 73 40 67 41 66 42 22 44
REMARK SMILES IDX 54 45 34 46 53 47 35 48 38 49 52 50 71 51 36 52 37 53 51 55
REMARK SMILES IDX 72 56 39 57 23 58 24 59 32 60 25 61 31 62 33 63 30 64 26 65
REMARK SMILES IDX 27 66 28 67 29 68 55 69 56 70 64 71 57 72 63 73 65 74 62 75
REMARK SMILES IDX 58 76 59 77 60 78 61 79 40 80 41 81 49 82 42 83 48 84 50 85
REMARK SMILES IDX 47 86 43 87 44 88 45 89 46 90
REMARK H PARENT 70 43 38 54
REMARK Flexibility Score: inf
ROOT
ATOM      1  C   UNL A   1      32.528  30.692  27.122  1.00  0.00     0.275 C 
ENDROOT
BRANCH   1   2
ATOM      2  O   UNL A   1      32.560  29.956  25.894  1.00  0.00    -0.458 OA
BRANCH   2   3
ATOM      3  C   UNL A   1      33.569  29.059  25.864  1.00  0.00     0.338 C 
ATOM      4  O   UNL A   1      34.455  28.945  26.700  1.00  0.00    -0.246 OA
BRANCH   3   5
ATOM      5  C   UNL A   1      33.589  28.259  24.628  1.00  0.00     0.061 A 
ATOM      6  C   UNL A   1      32.926  25.591  21.308  1.00  0.00     0.046 C 
ATOM      7  C   UNL A   1      33.311  26.420  22.494  1.00  0.00    -0.031 A 
ATOM      8  C   UNL A   1      33.075  27.804  22.325  1.00  0.00     0.006 A 
ATOM      9  C   UNL A   1      33.785  25.991  23.747  1.00  0.00     0.086 A 
ATOM     10  C   UNL A   1      33.269  28.721  23.362  1.00  0.00     0.016 A 
ATOM     11  C   UNL A   1      33.865  26.911  24.804  1.00  0.00     0.037 A 
BRANCH   9  12
ATOM     12  S   UNL A   1      34.430  24.412  24.261  1.00  0.00     0.243 S 
ATOM     13  O   UNL A   1      35.305  23.977  23.199  1.00  0.00    -0.207 OA
ATOM     14  O   UNL A   1      34.941  24.602  25.610  1.00  0.00    -0.207 OA
BRANCH  12  15
ATOM     15  N   UNL A   1      33.169  23.317  24.377  1.00  0.00    -0.197 NA
ATOM     16  C   UNL A   1      31.859  23.844  24.753  1.00  0.00     0.125 C 
BRANCH  15  17
ATOM     17  C   UNL A   1      33.474  21.888  24.151  1.00  0.00     0.083 C 
ATOM     18  C   UNL A   1      33.908  21.101  25.381  1.00  0.00     0.032 C 
ATOM     19  C   UNL A   1      32.271  21.130  23.577  1.00  0.00     0.089 C 
ATOM     20  C   UNL A   1      34.110  19.681  24.879  1.00  0.00     0.071 C 
ATOM     21  S   UNL A   1      32.635  19.369  23.875  1.00  0.00    -0.160 SA
ENDBRANCH  15  17
ENDBRANCH  12  15
ENDBRANCH   9  12
ENDBRANCH   3   5
ENDBRANCH   2   3
ENDBRANCH   1   2
BRANCH   1  22
ATOM     22  C   UNL A   1      32.997  32.146  26.958  1.00  0.00     0.275 C 
BRANCH  22  23
ATOM     23  O   UNL A   1      32.267  33.239  27.570  1.00  0.00    -0.458 OA
BRANCH  23  24
ATOM     24  C   UNL A   1      32.937  34.256  28.171  1.00  0.00     0.338 C 
ATOM     25  O   UNL A   1      32.473  35.373  28.339  1.00  0.00    -0.246 OA
BRANCH  24  26
ATOM     26  C   UNL A   1      34.186  33.767  28.804  1.00  0.00     0.060 A 
ATOM     27  C   UNL A   1      34.112  32.762  29.782  1.00  0.00     0.016 A 
ATOM     28  C   UNL A   1      35.404  34.103  28.215  1.00  0.00     0.016 A 
ATOM     29  C   UNL A   1      35.231  32.004  30.085  1.00  0.00     0.010 A 
ATOM     30  C   UNL A   1      36.470  33.265  28.385  1.00  0.00     0.010 A 
ATOM     31  C   UNL A   1      36.393  32.270  29.369  1.00  0.00    -0.014 A 
BRANCH  31  32
ATOM     32  C   UNL A   1      37.706  31.930  29.875  1.00  0.00     0.031 A 
ATOM     33  C   UNL A   1      38.338  30.658  29.514  1.00  0.00     0.074 A 
ATOM     34  C   UNL A   1      38.243  33.024  30.462  1.00  0.00     0.049 A 
ATOM     35  N   UNL A   1      39.256  30.079  30.201  1.00  0.00    -0.248 NA
ATOM     36  C   UNL A   1      37.919  29.857  28.360  1.00  0.00     0.031 C 
ATOM     37  C   UNL A   1      39.600  33.425  30.758  1.00  0.00     0.029 A 
ATOM     38  N   UNL A   1      37.485  34.049  31.032  1.00  0.00    -0.354 N 
ATOM     39  C   UNL A   1      39.845  29.164  29.348  1.00  0.00     0.074 A 
ATOM     40  C   UNL A   1      38.851  28.896  28.342  1.00  0.00     0.031 C 
ATOM     41  C   UNL A   1      39.562  34.409  31.685  1.00  0.00     0.029 A 
ATOM     42  C   UNL A   1      38.171  34.573  32.109  1.00  0.00     0.049 A 
ATOM     43  H   UNL A   1      36.603  34.350  30.715  1.00  0.00     0.167 HD
ATOM     44  C   UNL A   1      41.198  28.992  29.415  1.00  0.00     0.034 A 
ATOM     45  C   UNL A   1      37.666  34.264  33.344  1.00  0.00     0.034 A 
ATOM     46  C   UNL A   1      41.743  29.868  30.455  1.00  0.00     0.049 A 
ATOM     47  C   UNL A   1      38.590  33.277  34.020  1.00  0.00     0.074 A 
ATOM     48  C   UNL A   1      42.350  31.111  30.375  1.00  0.00     0.029 A 
ATOM     49  N   UNL A   1      41.339  29.706  31.774  1.00  0.00    -0.354 N 
ATOM     50  N   UNL A   1      39.256  32.337  33.400  1.00  0.00    -0.248 NA
ATOM     51  C   UNL A   1      38.934  33.391  35.430  1.00  0.00     0.031 C 
ATOM     52  C   UNL A   1      42.223  31.734  31.645  1.00  0.00     0.029 A 
ATOM     53  C   UNL A   1      41.526  30.878  32.481  1.00  0.00     0.049 A 
ATOM     54  H   UNL A   1      40.972  28.875  32.151  1.00  0.00     0.167 HD
ATOM     55  C   UNL A   1      40.194  31.824  34.257  1.00  0.00     0.074 A 
ATOM     56  C   UNL A   1      39.925  32.491  35.524  1.00  0.00     0.031 C 
ATOM     57  C   UNL A   1      41.175  30.944  33.885  1.00  0.00     0.034 A 
BRANCH  44  58
ATOM     58  C   UNL A   1      42.076  28.393  28.334  1.00  0.00     0.023 A 
ATOM     59  C   UNL A   1      42.184  26.985  28.266  1.00  0.00     0.031 A 
ATOM     60  C   UNL A   1      42.834  29.095  27.380  1.00  0.00     0.131 A 
ATOM     61  C   UNL A   1      43.059  26.342  27.375  1.00  0.00     0.055 A 
ATOM     62  C   UNL A   1      43.724  28.456  26.497  1.00  0.00     0.041 A 
ATOM     63  F   UNL A   1      42.720  30.420  27.224  1.00  0.00    -0.206 F 
ATOM     64  C   UNL A   1      43.849  27.074  26.498  1.00  0.00     0.022 A 
BRANCH  61  65
ATOM     65  S   UNL A   1      43.140  24.530  27.394  1.00  0.00     0.124 S 
ATOM     66  O   UNL A   1      42.485  24.180  26.137  1.00  0.00    -0.237 OA
ATOM     67  O   UNL A   1      44.575  24.280  27.464  1.00  0.00    -0.237 OA
ATOM     68  O   UNL A   1      42.394  24.170  28.600  1.00  0.00    -0.744 OA
ENDBRANCH  61  65
ENDBRANCH  44  58
BRANCH  45  69
ATOM     69  C   UNL A   1      36.157  34.259  33.417  1.00  0.00     0.023 A 
ATOM     70  C   UNL A   1      35.480  35.492  33.244  1.00  0.00     0.031 A 
ATOM     71  C   UNL A   1      35.370  33.099  33.374  1.00  0.00     0.131 A 
ATOM     72  C   UNL A   1      34.115  35.537  32.911  1.00  0.00     0.055 A 
ATOM     73  C   UNL A   1      33.988  33.151  33.105  1.00  0.00     0.041 A 
ATOM     74  F   UNL A   1      35.925  31.886  33.506  1.00  0.00    -0.206 F 
ATOM     75  C   UNL A   1      33.358  34.369  32.846  1.00  0.00     0.022 A 
BRANCH  72  76
ATOM     76  S   UNL A   1      33.424  37.112  32.316  1.00  0.00     0.124 S 
ATOM     77  O   UNL A   1      33.657  37.026  30.880  1.00  0.00    -0.237 OA
ATOM     78  O   UNL A   1      32.029  37.016  32.746  1.00  0.00    -0.237 OA
ATOM     79  O   UNL A   1      34.213  38.117  33.020  1.00  0.00    -0.744 OA
ENDBRANCH  72  76
ENDBRANCH  45  69
BRANCH  57  80
ATOM     80  C   UNL A   1      41.988  30.121  34.846  1.00  0.00     0.023 A 
ATOM     81  C   UNL A   1      41.706  28.774  35.079  1.00  0.00     0.031 A 
ATOM     82  C   UNL A   1      43.153  30.631  35.469  1.00  0.00     0.131 A 
ATOM     83  C   UNL A   1      42.467  28.028  35.985  1.00  0.00     0.055 A 
ATOM     84  C   UNL A   1      43.984  29.848  36.270  1.00  0.00     0.041 A 
ATOM     85  F   UNL A   1      43.546  31.904  35.319  1.00  0.00    -0.206 F 
ATOM     86  C   UNL A   1      43.628  28.540  36.557  1.00  0.00     0.022 A 
BRANCH  83  87
ATOM     87  S   UNL A   1      41.815  26.420  36.482  1.00  0.00     0.124 S 
ATOM     88  O   UNL A   1      41.172  25.968  35.249  1.00  0.00    -0.237 OA
ATOM     89  O   UNL A   1      43.021  25.695  36.867  1.00  0.00    -0.237 OA
ATOM     90  O   UNL A   1      40.903  26.743  37.576  1.00  0.00    -0.744 OA
ENDBRANCH  83  87
ENDBRANCH  57  80
ENDBRANCH  31  32
ENDBRANCH  24  26
ENDBRANCH  23  24
ENDBRANCH  22  23
ENDBRANCH   1  22
TORSDOF 17
ENDMDL
MODEL 3
REMARK VINA RESULT:     -12.3      3.717      9.681
REMARK SMILES Cc1ccc(C(=O)OCCOC(=O)c2ccc(-c3c4nc(c(-c5cc(S(=O)(=O)[O-])ccc5F)c5ccc([nH]5)c(-c5cc(S(=O)(=O)[O-])ccc5F)c5nc(c(-c6cc(S(=O)(=O)[O-])ccc6F)c6ccc3[nH]6)C=C5)C=C4)cc2)cc1S(=O)(=O)N(C)[C@H]1CCSC1
REMARK SMILES IDX 9 1 8 2 6 3 7 4 5 5 1 6 2 7 3 8 78 9 4 10 77 11 79 12 80 13
REMARK SMILES IDX 81 14 82 15 83 16 84 17 85 18 88 19 86 20 87 21 10 22 11 23
REMARK SMILES IDX 12 24 13 25 14 26 15 27 76 28 16 29 75 30 17 31 18 32 19 33
REMARK SMILES IDX 69 34 20 35 74 36 68 37 70 38 21 39 73 40 67 41 66 42 22 44
REMARK SMILES IDX 54 45 34 46 53 47 35 48 38 49 52 50 71 51 36 52 37 53 51 55
REMARK SMILES IDX 72 56 39 57 23 58 24 59 32 60 25 61 31 62 33 63 30 64 26 65
REMARK SMILES IDX 27 66 28 67 29 68 55 69 56 70 64 71 57 72 63 73 65 74 62 75
REMARK SMILES IDX 58 76 59 77 60 78 61 79 40 80 41 81 49 82 42 83 48 84 50 85
REMARK SMILES IDX 47 86 43 87 44 88 45 89 46 90
REMARK H PARENT 70 43 38 54
REMARK Flexibility Score: inf
ROOT
ATOM      1  C   UNL A   1      37.315  21.500  24.801  1.00  0.00     0.275 C 
ENDROOT
BRANCH   1   2
ATOM      2  O   UNL A   1      36.451  22.641  24.853  1.00  0.00    -0.458 OA
BRANCH   2   3
ATOM      3  C   UNL A   1      35.891  22.911  23.653  1.00  0.00     0.338 C 
ATOM      4  O   UNL A   1      36.478  22.956  22.580  1.00  0.00    -0.246 OA
BRANCH   3   5
ATOM      5  C   UNL A   1      34.468  23.276  23.753  1.00  0.00     0.061 A 
ATOM      6  C   UNL A   1      30.249  24.015  23.269  1.00  0.00     0.046 C 
ATOM      7  C   UNL A   1      31.734  23.943  23.447  1.00  0.00    -0.031 A 
ATOM      8  C   UNL A   1      32.158  22.890  24.290  1.00  0.00     0.006 A 
ATOM      9  C   UNL A   1      32.731  24.720  22.829  1.00  0.00     0.086 A 
ATOM     10  C   UNL A   1      33.510  22.597  24.489  1.00  0.00     0.016 A 
ATOM     11  C   UNL A   1      34.076  24.339  22.953  1.00  0.00     0.037 A 
BRANCH   9  12
ATOM     12  S   UNL A   1      32.610  26.251  21.927  1.00  0.00     0.243 S 
ATOM     13  O   UNL A   1      33.967  26.657  21.650  1.00  0.00    -0.207 OA
ATOM     14  O   UNL A   1      31.674  26.007  20.839  1.00  0.00    -0.207 OA
BRANCH  12  15
ATOM     15  N   UNL A   1      31.909  27.412  22.908  1.00  0.00    -0.197 NA
ATOM     16  C   UNL A   1      32.607  27.747  24.148  1.00  0.00     0.125 C 
BRANCH  15  17
ATOM     17  C   UNL A   1      30.609  27.976  22.489  1.00  0.00     0.083 C 
ATOM     18  C   UNL A   1      29.504  27.939  23.537  1.00  0.00     0.032 C 
ATOM     19  C   UNL A   1      30.732  29.444  22.066  1.00  0.00     0.089 C 
ATOM     20  C   UNL A   1      28.314  28.609  22.867  1.00  0.00     0.071 C 
ATOM     21  S   UNL A   1      29.029  30.095  22.117  1.00  0.00    -0.160 SA
ENDBRANCH  15  17
ENDBRANCH  12  15
ENDBRANCH   9  12
ENDBRANCH   3   5
ENDBRANCH   2   3
ENDBRANCH   1   2
BRANCH   1  22
ATOM     22  C   UNL A   1      38.556  21.651  25.695  1.00  0.00     0.275 C 
BRANCH  22  23
ATOM     23  O   UNL A   1      38.984  22.955  26.164  1.00  0.00    -0.458 OA
BRANCH  23  24
ATOM     24  C   UNL A   1      40.294  23.188  26.433  1.00  0.00     0.338 C 
ATOM     25  O   UNL A   1      41.206  22.472  26.048  1.00  0.00    -0.246 OA
BRANCH  24  26
ATOM     26  C   UNL A   1      40.483  24.532  27.029  1.00  0.00     0.060 A 
ATOM     27  C   UNL A   1      40.798  25.616  26.194  1.00  0.00     0.016 A 
ATOM     28  C   UNL A   1      40.064  24.740  28.342  1.00  0.00     0.016 A 
ATOM     29  C   UNL A   1      40.576  26.914  26.625  1.00  0.00     0.010 A 
ATOM     30  C   UNL A   1      39.691  25.998  28.722  1.00  0.00     0.010 A 
ATOM     31  C   UNL A   1      40.017  27.077  27.888  1.00  0.00    -0.014 A 
BRANCH  31  32
ATOM     32  C   UNL A   1      40.170  28.300  28.647  1.00  0.00     0.031 A 
ATOM     33  C   UNL A   1      39.154  29.354  28.577  1.00  0.00     0.074 A 
ATOM     34  C   UNL A   1      41.195  28.147  29.516  1.00  0.00     0.049 A 
ATOM     35  N   UNL A   1      39.368  30.592  28.845  1.00  0.00    -0.248 NA
ATOM     36  C   UNL A   1      37.789  29.117  28.100  1.00  0.00     0.031 C 
ATOM     37  C   UNL A   1      41.551  28.801  30.756  1.00  0.00     0.029 A 
ATOM     38  N   UNL A   1      42.270  27.283  29.302  1.00  0.00    -0.354 N 
ATOM     39  C   UNL A   1      38.121  31.154  29.050  1.00  0.00     0.074 A 
ATOM     40  C   UNL A   1      37.202  30.294  28.352  1.00  0.00     0.031 C 
ATOM     41  C   UNL A   1      42.853  28.546  31.015  1.00  0.00     0.029 A 
ATOM     42  C   UNL A   1      43.406  27.825  29.867  1.00  0.00     0.049 A 
ATOM     43  H   UNL A   1      42.225  26.423  28.824  1.00  0.00     0.167 HD
ATOM     44  C   UNL A   1      37.985  32.085  30.040  1.00  0.00     0.034 A 
ATOM     45  C   UNL A   1      44.337  28.310  28.988  1.00  0.00     0.034 A 
ATOM     46  C   UNL A   1      39.283  32.292  30.687  1.00  0.00     0.049 A 
ATOM     47  C   UNL A   1      44.330  29.820  29.046  1.00  0.00     0.074 A 
ATOM     48  C   UNL A   1      39.813  31.772  31.857  1.00  0.00     0.029 A 
ATOM     49  N   UNL A   1      40.353  32.775  29.946  1.00  0.00    -0.354 N 
ATOM     50  N   UNL A   1      43.263  30.552  29.244  1.00  0.00    -0.248 NA
ATOM     51  C   UNL A   1      45.563  30.594  29.036  1.00  0.00     0.031 C 
ATOM     52  C   UNL A   1      41.226  31.866  31.768  1.00  0.00     0.029 A 
ATOM     53  C   UNL A   1      41.548  32.423  30.541  1.00  0.00     0.049 A 
ATOM     54  H   UNL A   1      40.272  33.295  29.114  1.00  0.00     0.167 HD
ATOM     55  C   UNL A   1      43.654  31.836  29.520  1.00  0.00     0.074 A 
ATOM     56  C   UNL A   1      45.100  31.816  29.339  1.00  0.00     0.031 C 
ATOM     57  C   UNL A   1      42.805  32.823  29.943  1.00  0.00     0.034 A 
BRANCH  44  58
ATOM     58  C   UNL A   1      36.686  32.497  30.704  1.00  0.00     0.023 A 
ATOM     59  C   UNL A   1      35.846  33.406  30.021  1.00  0.00     0.031 A 
ATOM     60  C   UNL A   1      36.218  32.087  31.965  1.00  0.00     0.131 A 
ATOM     61  C   UNL A   1      34.681  33.934  30.602  1.00  0.00     0.055 A 
ATOM     62  C   UNL A   1      35.061  32.625  32.558  1.00  0.00     0.041 A 
ATOM     63  F   UNL A   1      36.827  31.120  32.664  1.00  0.00    -0.206 F 
ATOM     64  C   UNL A   1      34.291  33.561  31.882  1.00  0.00     0.022 A 
BRANCH  61  65
ATOM     65  S   UNL A   1      33.694  35.117  29.646  1.00  0.00     0.124 S 
ATOM     66  O   UNL A   1      34.626  35.519  28.597  1.00  0.00    -0.237 OA
ATOM     67  O   UNL A   1      32.557  34.308  29.223  1.00  0.00    -0.237 OA
ATOM     68  O   UNL A   1      33.377  36.161  30.621  1.00  0.00    -0.744 OA
ENDBRANCH  61  65
ENDBRANCH  44  58
BRANCH  45  69
ATOM     69  C   UNL A   1      44.513  27.473  27.742  1.00  0.00     0.023 A 
ATOM     70  C   UNL A   1      45.089  26.185  27.884  1.00  0.00     0.031 A 
ATOM     71  C   UNL A   1      43.910  27.758  26.509  1.00  0.00     0.131 A 
ATOM     72  C   UNL A   1      44.942  25.204  26.889  1.00  0.00     0.055 A 
ATOM     73  C   UNL A   1      43.820  26.792  25.487  1.00  0.00     0.041 A 
ATOM     74  F   UNL A   1      43.320  28.941  26.289  1.00  0.00    -0.206 F 
ATOM     75  C   UNL A   1      44.313  25.501  25.682  1.00  0.00     0.022 A 
BRANCH  72  76
ATOM     76  S   UNL A   1      45.351  23.481  27.309  1.00  0.00     0.124 S 
ATOM     77  O   UNL A   1      46.768  23.411  26.971  1.00  0.00    -0.237 OA
ATOM     78  O   UNL A   1      45.029  23.428  28.734  1.00  0.00    -0.237 OA
ATOM     79  O   UNL A   1      44.464  22.702  26.452  1.00  0.00    -0.744 OA
ENDBRANCH  72  76
ENDBRANCH  45  69
BRANCH  57  80
ATOM     80  C   UNL A   1      43.134  34.291  29.928  1.00  0.00     0.023 A 
ATOM     81  C   UNL A   1      43.069  35.046  28.755  1.00  0.00     0.031 A 
ATOM     82  C   UNL A   1      43.406  35.009  31.117  1.00  0.00     0.131 A 
ATOM     83  C   UNL A   1      43.389  36.407  28.759  1.00  0.00     0.055 A 
ATOM     84  C   UNL A   1      43.597  36.391  31.137  1.00  0.00     0.041 A 
ATOM     85  F   UNL A   1      43.484  34.409  32.314  1.00  0.00    -0.206 F 
ATOM     86  C   UNL A   1      43.617  37.098  29.946  1.00  0.00     0.022 A 
BRANCH  83  87
ATOM     87  S   UNL A   1      43.620  37.204  27.157  1.00  0.00     0.124 S 
ATOM     88  O   UNL A   1      42.566  36.579  26.361  1.00  0.00    -0.237 OA
ATOM     89  O   UNL A   1      43.420  38.614  27.474  1.00  0.00    -0.237 OA
ATOM     90  O   UNL A   1      44.983  36.834  26.782  1.00  0.00    -0.744 OA
ENDBRANCH  83  87
ENDBRANCH  57  80
ENDBRANCH  31  32
ENDBRANCH  24  26
ENDBRANCH  23  24
ENDBRANCH  22  23
ENDBRANCH   1  22
TORSDOF 17
ENDMDL
