MODEL 1
REMARK VINA RESULT:     -10.3      0.000      0.000
REMARK SMILES O=C(OCCOC(=O)[C@H]1C[C@H]1c1ccc(C2CC2)cc1)c1ccc(-c2c3nc(c(-c4cc(S(=O)(=O)[O-])ccc4F)c4ccc([nH]4)c(-c4cc(S(=O)(=O)[O-])ccc4F)c4nc(c(-c5cc(S(=O)(=O)[O-])ccc5F)c5ccc2[nH]5)C=C4)C=C3)cc1
REMARK SMILES IDX 4 1 3 2 2 3 1 4 21 5 22 6 83 7 23 8 82 9 24 10 25 11 26 12
REMARK SMILES IDX 76 13 27 14 81 15 75 16 77 17 28 18 80 19 74 20 73 21 29 23
REMARK SMILES IDX 61 24 41 25 60 26 42 27 45 28 59 29 78 30 43 31 44 32 58 34
REMARK SMILES IDX 79 35 46 36 30 37 31 38 39 39 32 40 38 41 40 42 37 43 33 44
REMARK SMILES IDX 34 45 35 46 36 47 62 48 63 49 71 50 64 51 70 52 72 53 69 54
REMARK SMILES IDX 65 55 66 56 67 57 68 58 47 59 48 60 56 61 49 62 55 63 57 64
REMARK SMILES IDX 54 65 50 66 51 67 52 68 53 69 5 70 6 71 7 72 8 73 9 74 10 75
REMARK SMILES IDX 11 76 12 77 13 78 20 79 14 80 19 81 15 82 16 83 17 84 18 85
REMARK H PARENT 77 22 45 33
REMARK Flexibility Score: inf
ROOT
ATOM      1  C   UNL A   1      33.497  33.832  28.026  1.00  0.00     0.275 C 
ENDROOT
BRANCH   1   2
ATOM      2  O   UNL A   1      34.512  32.884  27.640  1.00  0.00    -0.458 OA
BRANCH   2   3
ATOM      3  C   UNL A   1      34.566  31.540  27.817  1.00  0.00     0.338 C 
ATOM      4  O   UNL A   1      33.539  30.886  27.637  1.00  0.00    -0.246 OA
BRANCH   3   5
ATOM      5  C   UNL A   1      35.765  30.816  28.342  1.00  0.00     0.060 A 
ATOM      6  C   UNL A   1      35.798  30.007  29.480  1.00  0.00     0.016 A 
ATOM      7  C   UNL A   1      36.969  31.008  27.637  1.00  0.00     0.016 A 
ATOM      8  C   UNL A   1      36.964  29.325  29.849  1.00  0.00     0.010 A 
ATOM      9  C   UNL A   1      38.143  30.344  28.014  1.00  0.00     0.010 A 
ATOM     10  C   UNL A   1      38.143  29.483  29.116  1.00  0.00    -0.014 A 
BRANCH  10  11
ATOM     11  C   UNL A   1      39.403  28.877  29.610  1.00  0.00     0.031 A 
ATOM     12  C   UNL A   1      40.031  29.461  30.841  1.00  0.00     0.074 A 
ATOM     13  C   UNL A   1      39.953  27.809  29.002  1.00  0.00     0.049 A 
ATOM     14  N   UNL A   1      41.054  29.033  31.532  1.00  0.00    -0.248 NA
ATOM     15  C   UNL A   1      39.411  30.686  31.369  1.00  0.00     0.031 C 
ATOM     16  C   UNL A   1      39.418  27.139  27.819  1.00  0.00     0.029 A 
ATOM     17  N   UNL A   1      41.089  27.096  29.295  1.00  0.00    -0.354 N 
ATOM     18  C   UNL A   1      41.165  29.904  32.608  1.00  0.00     0.074 A 
ATOM     19  C   UNL A   1      40.171  30.939  32.421  1.00  0.00     0.031 C 
ATOM     20  C   UNL A   1      40.241  26.139  27.462  1.00  0.00     0.029 A 
ATOM     21  C   UNL A   1      41.353  26.080  28.406  1.00  0.00     0.049 A 
ATOM     22  H   UNL A   1      41.663  27.295  30.070  1.00  0.00     0.167 HD
ATOM     23  C   UNL A   1      41.989  29.824  33.680  1.00  0.00     0.034 A 
ATOM     24  C   UNL A   1      42.366  25.192  28.370  1.00  0.00     0.034 A 
ATOM     25  C   UNL A   1      43.014  28.823  33.818  1.00  0.00     0.049 A 
ATOM     26  C   UNL A   1      43.359  25.195  29.506  1.00  0.00     0.074 A 
ATOM     27  C   UNL A   1      43.929  28.649  34.839  1.00  0.00     0.029 A 
ATOM     28  N   UNL A   1      43.278  27.833  32.876  1.00  0.00    -0.354 N 
ATOM     29  N   UNL A   1      43.402  25.976  30.562  1.00  0.00    -0.248 NA
ATOM     30  C   UNL A   1      44.411  24.173  29.467  1.00  0.00     0.031 C 
ATOM     31  C   UNL A   1      44.780  27.592  34.488  1.00  0.00     0.029 A 
ATOM     32  C   UNL A   1      44.358  27.066  33.277  1.00  0.00     0.049 A 
ATOM     33  H   UNL A   1      42.769  27.698  32.044  1.00  0.00     0.167 HD
ATOM     34  C   UNL A   1      44.452  25.499  31.343  1.00  0.00     0.074 A 
ATOM     35  C   UNL A   1      45.015  24.370  30.630  1.00  0.00     0.031 C 
ATOM     36  C   UNL A   1      44.898  25.941  32.548  1.00  0.00     0.034 A 
BRANCH  23  37
ATOM     37  C   UNL A   1      41.808  30.882  34.739  1.00  0.00     0.023 A 
ATOM     38  C   UNL A   1      40.660  30.900  35.553  1.00  0.00     0.031 A 
ATOM     39  C   UNL A   1      42.717  31.945  34.856  1.00  0.00     0.131 A 
ATOM     40  C   UNL A   1      40.398  32.009  36.370  1.00  0.00     0.055 A 
ATOM     41  C   UNL A   1      42.491  33.009  35.734  1.00  0.00     0.041 A 
ATOM     42  F   UNL A   1      43.814  31.994  34.086  1.00  0.00    -0.206 F 
ATOM     43  C   UNL A   1      41.316  33.056  36.480  1.00  0.00     0.022 A 
BRANCH  40  44
ATOM     44  S   UNL A   1      38.760  32.150  37.139  1.00  0.00     0.124 S 
ATOM     45  O   UNL A   1      38.188  30.835  36.858  1.00  0.00    -0.237 OA
ATOM     46  O   UNL A   1      39.088  32.419  38.534  1.00  0.00    -0.237 OA
ATOM     47  O   UNL A   1      38.136  33.259  36.419  1.00  0.00    -0.744 OA
ENDBRANCH  40  44
ENDBRANCH  23  37
BRANCH  24  48
ATOM     48  C   UNL A   1      42.488  24.219  27.246  1.00  0.00     0.023 A 
ATOM     49  C   UNL A   1      41.882  22.953  27.303  1.00  0.00     0.031 A 
ATOM     50  C   UNL A   1      43.258  24.529  26.110  1.00  0.00     0.131 A 
ATOM     51  C   UNL A   1      42.093  22.027  26.266  1.00  0.00     0.055 A 
ATOM     52  C   UNL A   1      43.434  23.620  25.065  1.00  0.00     0.041 A 
ATOM     53  F   UNL A   1      43.851  25.729  26.000  1.00  0.00    -0.206 F 
ATOM     54  C   UNL A   1      42.860  22.355  25.145  1.00  0.00     0.022 A 
BRANCH  51  55
ATOM     55  S   UNL A   1      41.407  20.356  26.436  1.00  0.00     0.124 S 
ATOM     56  O   UNL A   1      41.770  20.021  27.808  1.00  0.00    -0.237 OA
ATOM     57  O   UNL A   1      39.988  20.587  26.185  1.00  0.00    -0.237 OA
ATOM     58  O   UNL A   1      42.105  19.595  25.403  1.00  0.00    -0.744 OA
ENDBRANCH  51  55
ENDBRANCH  24  48
BRANCH  36  59
ATOM     59  C   UNL A   1      46.009  25.151  33.189  1.00  0.00     0.023 A 
ATOM     60  C   UNL A   1      45.751  24.017  33.978  1.00  0.00     0.031 A 
ATOM     61  C   UNL A   1      47.345  25.555  33.022  1.00  0.00     0.131 A 
ATOM     62  C   UNL A   1      46.811  23.361  34.621  1.00  0.00     0.055 A 
ATOM     63  C   UNL A   1      48.401  24.863  33.615  1.00  0.00     0.041 A 
ATOM     64  F   UNL A   1      47.645  26.633  32.278  1.00  0.00    -0.206 F 
ATOM     65  C   UNL A   1      48.135  23.767  34.432  1.00  0.00     0.022 A 
BRANCH  62  66
ATOM     66  S   UNL A   1      46.426  22.024  35.784  1.00  0.00     0.124 S 
ATOM     67  O   UNL A   1      47.461  22.198  36.798  1.00  0.00    -0.237 OA
ATOM     68  O   UNL A   1      45.067  22.354  36.198  1.00  0.00    -0.237 OA
ATOM     69  O   UNL A   1      46.551  20.816  34.971  1.00  0.00    -0.744 OA
ENDBRANCH  62  66
ENDBRANCH  36  59
ENDBRANCH  10  11
ENDBRANCH   3   5
ENDBRANCH   2   3
ENDBRANCH   1   2
BRANCH   1  70
ATOM     70  C   UNL A   1      33.906  34.783  29.151  1.00  0.00     0.274 C 
BRANCH  70  71
ATOM     71  O   UNL A   1      33.355  34.384  30.410  1.00  0.00    -0.462 OA
BRANCH  71  72
ATOM     72  C   UNL A   1      34.031  34.805  31.515  1.00  0.00     0.309 C 
ATOM     73  O   UNL A   1      34.260  35.968  31.821  1.00  0.00    -0.252 OA
BRANCH  72  74
ATOM     74  C   UNL A   1      34.344  33.693  32.438  1.00  0.00     0.107 C 
ATOM     75  C   UNL A   1      34.770  32.341  31.947  1.00  0.00     0.025 C 
ATOM     76  C   UNL A   1      35.751  33.198  32.695  1.00  0.00     0.034 C 
BRANCH  76  77
ATOM     77  C   UNL A   1      36.982  33.631  31.951  1.00  0.00    -0.044 A 
ATOM     78  C   UNL A   1      37.115  33.371  30.578  1.00  0.00     0.004 A 
ATOM     79  C   UNL A   1      38.063  34.230  32.598  1.00  0.00     0.004 A 
ATOM     80  C   UNL A   1      38.293  33.677  29.892  1.00  0.00     0.004 A 
ATOM     81  C   UNL A   1      39.237  34.546  31.906  1.00  0.00     0.004 A 
ATOM     82  C   UNL A   1      39.392  34.256  30.542  1.00  0.00    -0.045 A 
BRANCH  82  83
ATOM     83  C   UNL A   1      40.668  34.503  29.771  1.00  0.00     0.019 C 
ATOM     84  C   UNL A   1      41.995  34.812  30.418  1.00  0.00     0.009 C 
ATOM     85  C   UNL A   1      41.749  33.446  29.852  1.00  0.00     0.009 C 
ENDBRANCH  82  83
ENDBRANCH  76  77
ENDBRANCH  72  74
ENDBRANCH  71  72
ENDBRANCH  70  71
ENDBRANCH   1  70
TORSDOF 16
ENDMDL
MODEL 2
REMARK VINA RESULT:     -10.1      4.378     11.997
REMARK SMILES O=C(OCCOC(=O)[C@H]1C[C@H]1c1ccc(C2CC2)cc1)c1ccc(-c2c3nc(c(-c4cc(S(=O)(=O)[O-])ccc4F)c4ccc([nH]4)c(-c4cc(S(=O)(=O)[O-])ccc4F)c4nc(c(-c5cc(S(=O)(=O)[O-])ccc5F)c5ccc2[nH]5)C=C4)C=C3)cc1
REMARK SMILES IDX 4 1 3 2 2 3 1 4 21 5 22 6 83 7 23 8 82 9 24 10 25 11 26 12
REMARK SMILES IDX 76 13 27 14 81 15 75 16 77 17 28 18 80 19 74 20 73 21 29 23
REMARK SMILES IDX 61 24 41 25 60 26 42 27 45 28 59 29 78 30 43 31 44 32 58 34
REMARK SMILES IDX 79 35 46 36 30 37 31 38 39 39 32 40 38 41 40 42 37 43 33 44
REMARK SMILES IDX 34 45 35 46 36 47 62 48 63 49 71 50 64 51 70 52 72 53 69 54
REMARK SMILES IDX 65 55 66 56 67 57 68 58 47 59 48 60 56 61 49 62 55 63 57 64
REMARK SMILES IDX 54 65 50 66 51 67 52 68 53 69 5 70 6 71 7 72 8 73 9 74 10 75
REMARK SMILES IDX 11 76 12 77 13 78 20 79 14 80 19 81 15 82 16 83 17 84 18 85
REMARK H PARENT 77 22 45 33
REMARK Flexibility Score: inf
ROOT
ATOM      1  C   UNL A   1      41.107  21.001  27.223  1.00  0.00     0.275 C 
ENDROOT
BRANCH   1   2
ATOM      2  O   UNL A   1      40.137  21.518  26.290  1.00  0.00    -0.458 OA
BRANCH   2   3
ATOM      3  C   UNL A   1      39.236  22.522  26.432  1.00  0.00     0.338 C 
ATOM      4  O   UNL A   1      38.063  22.300  26.136  1.00  0.00    -0.246 OA
BRANCH   3   5
ATOM      5  C   UNL A   1      39.603  23.924  26.804  1.00  0.00     0.060 A 
ATOM      6  C   UNL A   1      40.160  24.878  25.949  1.00  0.00     0.016 A 
ATOM      7  C   UNL A   1      39.397  24.287  28.149  1.00  0.00     0.016 A 
ATOM      8  C   UNL A   1      40.408  26.184  26.387  1.00  0.00     0.010 A 
ATOM      9  C   UNL A   1      39.664  25.586  28.597  1.00  0.00     0.010 A 
ATOM     10  C   UNL A   1      40.157  26.551  27.712  1.00  0.00    -0.014 A 
BRANCH  10  11
ATOM     11  C   UNL A   1      40.571  27.890  28.196  1.00  0.00     0.031 A 
ATOM     12  C   UNL A   1      42.029  28.239  28.144  1.00  0.00     0.074 A 
ATOM     13  C   UNL A   1      39.667  28.787  28.634  1.00  0.00     0.049 A 
ATOM     14  N   UNL A   1      42.617  29.380  28.389  1.00  0.00    -0.248 NA
ATOM     15  C   UNL A   1      42.943  27.157  27.747  1.00  0.00     0.031 C 
ATOM     16  C   UNL A   1      38.224  28.571  28.703  1.00  0.00     0.029 A 
ATOM     17  N   UNL A   1      39.829  30.065  29.107  1.00  0.00    -0.354 N 
ATOM     18  C   UNL A   1      43.963  29.168  28.122  1.00  0.00     0.074 A 
ATOM     19  C   UNL A   1      44.116  27.767  27.795  1.00  0.00     0.031 C 
ATOM     20  C   UNL A   1      37.635  29.660  29.224  1.00  0.00     0.029 A 
ATOM     21  C   UNL A   1      38.656  30.664  29.506  1.00  0.00     0.049 A 
ATOM     22  H   UNL A   1      40.705  30.513  29.157  1.00  0.00     0.167 HD
ATOM     23  C   UNL A   1      44.975  30.069  28.105  1.00  0.00     0.034 A 
ATOM     24  C   UNL A   1      38.431  31.889  30.021  1.00  0.00     0.034 A 
ATOM     25  C   UNL A   1      44.815  31.445  28.494  1.00  0.00     0.049 A 
ATOM     26  C   UNL A   1      39.594  32.846  30.121  1.00  0.00     0.074 A 
ATOM     27  C   UNL A   1      45.763  32.450  28.546  1.00  0.00     0.029 A 
ATOM     28  N   UNL A   1      43.619  32.005  28.931  1.00  0.00    -0.354 N 
ATOM     29  N   UNL A   1      40.850  32.655  29.785  1.00  0.00    -0.248 NA
ATOM     30  C   UNL A   1      39.300  34.192  30.626  1.00  0.00     0.031 C 
ATOM     31  C   UNL A   1      45.154  33.599  29.068  1.00  0.00     0.029 A 
ATOM     32  C   UNL A   1      43.811  33.331  29.283  1.00  0.00     0.049 A 
ATOM     33  H   UNL A   1      42.760  31.528  28.983  1.00  0.00     0.167 HD
ATOM     34  C   UNL A   1      41.485  33.878  29.985  1.00  0.00     0.074 A 
ATOM     35  C   UNL A   1      40.471  34.793  30.475  1.00  0.00     0.031 C 
ATOM     36  C   UNL A   1      42.781  34.222  29.766  1.00  0.00     0.034 A 
BRANCH  23  37
ATOM     37  C   UNL A   1      46.324  29.545  27.684  1.00  0.00     0.023 A 
ATOM     38  C   UNL A   1      46.564  29.152  26.354  1.00  0.00     0.031 A 
ATOM     39  C   UNL A   1      47.336  29.320  28.631  1.00  0.00     0.131 A 
ATOM     40  C   UNL A   1      47.740  28.461  26.029  1.00  0.00     0.055 A 
ATOM     41  C   UNL A   1      48.541  28.705  28.284  1.00  0.00     0.041 A 
ATOM     42  F   UNL A   1      47.152  29.651  29.918  1.00  0.00    -0.206 F 
ATOM     43  C   UNL A   1      48.740  28.252  26.982  1.00  0.00     0.022 A 
BRANCH  40  44
ATOM     44  S   UNL A   1      47.861  27.679  24.395  1.00  0.00     0.124 S 
ATOM     45  O   UNL A   1      49.279  27.854  24.088  1.00  0.00    -0.237 OA
ATOM     46  O   UNL A   1      47.431  26.312  24.666  1.00  0.00    -0.237 OA
ATOM     47  O   UNL A   1      46.950  28.468  23.569  1.00  0.00    -0.744 OA
ENDBRANCH  40  44
ENDBRANCH  23  37
BRANCH  24  48
ATOM     48  C   UNL A   1      37.065  32.292  30.461  1.00  0.00     0.023 A 
ATOM     49  C   UNL A   1      36.160  32.903  29.576  1.00  0.00     0.031 A 
ATOM     50  C   UNL A   1      36.659  32.112  31.795  1.00  0.00     0.131 A 
ATOM     51  C   UNL A   1      34.914  33.352  30.047  1.00  0.00     0.055 A 
ATOM     52  C   UNL A   1      35.405  32.527  32.251  1.00  0.00     0.041 A 
ATOM     53  F   UNL A   1      37.481  31.526  32.681  1.00  0.00    -0.206 F 
ATOM     54  C   UNL A   1      34.529  33.163  31.376  1.00  0.00     0.022 A 
BRANCH  51  55
ATOM     55  S   UNL A   1      33.826  34.256  28.910  1.00  0.00     0.124 S 
ATOM     56  O   UNL A   1      32.723  34.633  29.786  1.00  0.00    -0.237 OA
ATOM     57  O   UNL A   1      34.693  35.343  28.466  1.00  0.00    -0.237 OA
ATOM     58  O   UNL A   1      33.502  33.264  27.889  1.00  0.00    -0.744 OA
ENDBRANCH  51  55
ENDBRANCH  24  48
BRANCH  36  59
ATOM     59  C   UNL A   1      43.147  35.665  29.995  1.00  0.00     0.023 A 
ATOM     60  C   UNL A   1      42.941  36.646  29.011  1.00  0.00     0.031 A 
ATOM     61  C   UNL A   1      43.730  36.056  31.213  1.00  0.00     0.131 A 
ATOM     62  C   UNL A   1      43.371  37.962  29.240  1.00  0.00     0.055 A 
ATOM     63  C   UNL A   1      44.102  37.378  31.458  1.00  0.00     0.041 A 
ATOM     64  F   UNL A   1      43.949  35.157  32.186  1.00  0.00    -0.206 F 
ATOM     65  C   UNL A   1      43.936  38.337  30.462  1.00  0.00     0.022 A 
BRANCH  62  66
ATOM     66  S   UNL A   1      43.268  39.157  27.879  1.00  0.00     0.124 S 
ATOM     67  O   UNL A   1      43.127  38.284  26.719  1.00  0.00    -0.237 OA
ATOM     68  O   UNL A   1      42.088  39.936  28.238  1.00  0.00    -0.237 OA
ATOM     69  O   UNL A   1      44.536  39.880  27.963  1.00  0.00    -0.744 OA
ENDBRANCH  62  66
ENDBRANCH  36  59
ENDBRANCH  10  11
ENDBRANCH   3   5
ENDBRANCH   2   3
ENDBRANCH   1   2
BRANCH   1  70
ATOM     70  C   UNL A   1      42.352  20.393  26.578  1.00  0.00     0.274 C 
BRANCH  70  71
ATOM     71  O   UNL A   1      42.722  21.084  25.381  1.00  0.00    -0.462 OA
BRANCH  71  72
ATOM     72  C   UNL A   1      44.057  21.274  25.193  1.00  0.00     0.309 C 
ATOM     73  O   UNL A   1      44.934  20.436  25.356  1.00  0.00    -0.252 OA
BRANCH  72  74
ATOM     74  C   UNL A   1      44.358  22.593  24.596  1.00  0.00     0.107 C 
ATOM     75  C   UNL A   1      43.398  23.744  24.673  1.00  0.00     0.025 C 
ATOM     76  C   UNL A   1      44.701  23.817  25.416  1.00  0.00     0.034 C 
BRANCH  76  77
ATOM     77  C   UNL A   1      44.626  23.918  26.913  1.00  0.00    -0.044 A 
ATOM     78  C   UNL A   1      43.403  23.747  27.581  1.00  0.00     0.004 A 
ATOM     79  C   UNL A   1      45.735  24.260  27.687  1.00  0.00     0.004 A 
ATOM     80  C   UNL A   1      43.295  23.935  28.960  1.00  0.00     0.004 A 
ATOM     81  C   UNL A   1      45.628  24.436  29.070  1.00  0.00     0.004 A 
ATOM     82  C   UNL A   1      44.401  24.303  29.739  1.00  0.00    -0.045 A 
BRANCH  82  83
ATOM     83  C   UNL A   1      44.219  24.564  31.217  1.00  0.00     0.019 C 
ATOM     84  C   UNL A   1      45.343  24.931  32.152  1.00  0.00     0.009 C 
ATOM     85  C   UNL A   1      44.382  25.989  31.701  1.00  0.00     0.009 C 
ENDBRANCH  82  83
ENDBRANCH  76  77
ENDBRANCH  72  74
ENDBRANCH  71  72
ENDBRANCH  70  71
ENDBRANCH   1  70
TORSDOF 16
ENDMDL
MODEL 3
REMARK VINA RESULT:      -9.9      2.786      5.146
REMARK SMILES O=C(OCCOC(=O)[C@H]1C[C@H]1c1ccc(C2CC2)cc1)c1ccc(-c2c3nc(c(-c4cc(S(=O)(=O)[O-])ccc4F)c4ccc([nH]4)c(-c4cc(S(=O)(=O)[O-])ccc4F)c4nc(c(-c5cc(S(=O)(=O)[O-])ccc5F)c5ccc2[nH]5)C=C4)C=C3)cc1
REMARK SMILES IDX 4 1 3 2 2 3 1 4 21 5 22 6 83 7 23 8 82 9 24 10 25 11 26 12
REMARK SMILES IDX 76 13 27 14 81 15 75 16 77 17 28 18 80 19 74 20 73 21 29 23
REMARK SMILES IDX 61 24 41 25 60 26 42 27 45 28 59 29 78 30 43 31 44 32 58 34
REMARK SMILES IDX 79 35 46 36 30 37 31 38 39 39 32 40 38 41 40 42 37 43 33 44
REMARK SMILES IDX 34 45 35 46 36 47 62 48 63 49 71 50 64 51 70 52 72 53 69 54
REMARK SMILES IDX 65 55 66 56 67 57 68 58 47 59 48 60 56 61 49 62 55 63 57 64
REMARK SMILES IDX 54 65 50 66 51 67 52 68 53 69 5 70 6 71 7 72 8 73 9 74 10 75
REMARK SMILES IDX 11 76 12 77 13 78 20 79 14 80 19 81 15 82 16 83 17 84 18 85
REMARK H PARENT 77 22 45 33
REMARK Flexibility Score: inf
ROOT
ATOM      1  C   UNL A   1      32.744  29.954  25.530  1.00  0.00     0.275 C 
ENDROOT
BRANCH   1   2
ATOM      2  O   UNL A   1      33.317  29.874  26.850  1.00  0.00    -0.458 OA
BRANCH   2   3
ATOM      3  C   UNL A   1      34.240  30.664  27.452  1.00  0.00     0.338 C 
ATOM      4  O   UNL A   1      34.019  31.873  27.519  1.00  0.00    -0.246 OA
BRANCH   3   5
ATOM      5  C   UNL A   1      35.572  30.177  27.926  1.00  0.00     0.060 A 
ATOM      6  C   UNL A   1      36.741  30.119  27.163  1.00  0.00     0.016 A 
ATOM      7  C   UNL A   1      35.628  29.701  29.250  1.00  0.00     0.016 A 
ATOM      8  C   UNL A   1      37.953  29.701  27.727  1.00  0.00     0.010 A 
ATOM      9  C   UNL A   1      36.833  29.262  29.812  1.00  0.00     0.010 A 
ATOM     10  C   UNL A   1      38.010  29.275  29.056  1.00  0.00    -0.014 A 
BRANCH  10  11
ATOM     11  C   UNL A   1      39.265  28.691  29.588  1.00  0.00     0.031 A 
ATOM     12  C   UNL A   1      39.823  29.259  30.860  1.00  0.00     0.074 A 
ATOM     13  C   UNL A   1      39.870  27.654  28.978  1.00  0.00     0.049 A 
ATOM     14  N   UNL A   1      40.827  28.840  31.583  1.00  0.00    -0.248 NA
ATOM     15  C   UNL A   1      39.146  30.452  31.391  1.00  0.00     0.031 C 
ATOM     16  C   UNL A   1      39.404  27.002  27.757  1.00  0.00     0.029 A 
ATOM     17  N   UNL A   1      41.012  26.965  29.302  1.00  0.00    -0.354 N 
ATOM     18  C   UNL A   1      40.867  29.685  32.685  1.00  0.00     0.074 A 
ATOM     19  C   UNL A   1      39.854  30.697  32.482  1.00  0.00     0.031 C 
ATOM     20  C   UNL A   1      40.270  26.034  27.410  1.00  0.00     0.029 A 
ATOM     21  C   UNL A   1      41.342  25.981  28.399  1.00  0.00     0.049 A 
ATOM     22  H   UNL A   1      41.546  27.159  30.106  1.00  0.00     0.167 HD
ATOM     23  C   UNL A   1      41.647  29.598  33.790  1.00  0.00     0.034 A 
ATOM     24  C   UNL A   1      42.381  25.121  28.384  1.00  0.00     0.034 A 
ATOM     25  C   UNL A   1      42.693  28.622  33.946  1.00  0.00     0.049 A 
ATOM     26  C   UNL A   1      43.324  25.121  29.562  1.00  0.00     0.074 A 
ATOM     27  C   UNL A   1      43.569  28.446  35.001  1.00  0.00     0.029 A 
ATOM     28  N   UNL A   1      43.024  27.665  32.992  1.00  0.00    -0.354 N 
ATOM     29  N   UNL A   1      43.299  25.874  30.639  1.00  0.00    -0.248 NA
ATOM     30  C   UNL A   1      44.405  24.129  29.543  1.00  0.00     0.031 C 
ATOM     31  C   UNL A   1      44.463  27.423  34.661  1.00  0.00     0.029 A 
ATOM     32  C   UNL A   1      44.108  26.917  33.420  1.00  0.00     0.049 A 
ATOM     33  H   UNL A   1      42.555  27.539  32.135  1.00  0.00     0.167 HD
ATOM     34  C   UNL A   1      44.328  25.406  31.452  1.00  0.00     0.074 A 
ATOM     35  C   UNL A   1      44.953  24.311  30.736  1.00  0.00     0.031 C 
ATOM     36  C   UNL A   1      44.710  25.827  32.686  1.00  0.00     0.034 A 
BRANCH  23  37
ATOM     37  C   UNL A   1      41.391  30.623  34.866  1.00  0.00     0.023 A 
ATOM     38  C   UNL A   1      40.170  30.646  35.565  1.00  0.00     0.031 A 
ATOM     39  C   UNL A   1      42.312  31.653  35.111  1.00  0.00     0.131 A 
ATOM     40  C   UNL A   1      39.859  31.733  36.395  1.00  0.00     0.055 A 
ATOM     41  C   UNL A   1      42.030  32.691  36.004  1.00  0.00     0.041 A 
ATOM     42  F   UNL A   1      43.481  31.696  34.454  1.00  0.00    -0.206 F 
ATOM     43  C   UNL A   1      40.789  32.747  36.634  1.00  0.00     0.022 A 
BRANCH  40  44
ATOM     44  S   UNL A   1      38.158  31.895  37.007  1.00  0.00     0.124 S 
ATOM     45  O   UNL A   1      38.342  32.768  38.164  1.00  0.00    -0.237 OA
ATOM     46  O   UNL A   1      37.466  32.485  35.866  1.00  0.00    -0.237 OA
ATOM     47  O   UNL A   1      37.775  30.522  37.327  1.00  0.00    -0.744 OA
ENDBRANCH  40  44
ENDBRANCH  23  37
BRANCH  24  48
ATOM     48  C   UNL A   1      42.578  24.182  27.243  1.00  0.00     0.023 A 
ATOM     49  C   UNL A   1      42.031  22.888  27.254  1.00  0.00     0.031 A 
ATOM     50  C   UNL A   1      43.361  24.555  26.135  1.00  0.00     0.131 A 
ATOM     51  C   UNL A   1      42.313  21.999  26.203  1.00  0.00     0.055 A 
ATOM     52  C   UNL A   1      43.607  23.681  25.075  1.00  0.00     0.041 A 
ATOM     53  F   UNL A   1      43.899  25.784  26.069  1.00  0.00    -0.206 F 
ATOM     54  C   UNL A   1      43.091  22.388  25.111  1.00  0.00     0.022 A 
BRANCH  51  55
ATOM     55  S   UNL A   1      41.703  20.293  26.317  1.00  0.00     0.124 S 
ATOM     56  O   UNL A   1      42.124  19.913  27.660  1.00  0.00    -0.237 OA
ATOM     57  O   UNL A   1      40.268  20.474  26.121  1.00  0.00    -0.237 OA
ATOM     58  O   UNL A   1      42.397  19.611  25.228  1.00  0.00    -0.744 OA
ENDBRANCH  51  55
ENDBRANCH  24  48
BRANCH  36  59
ATOM     59  C   UNL A   1      45.814  25.051  33.354  1.00  0.00     0.023 A 
ATOM     60  C   UNL A   1      45.550  23.921  34.146  1.00  0.00     0.031 A 
ATOM     61  C   UNL A   1      47.150  25.465  33.211  1.00  0.00     0.131 A 
ATOM     62  C   UNL A   1      46.602  23.277  34.814  1.00  0.00     0.055 A 
ATOM     63  C   UNL A   1      48.199  24.786  33.830  1.00  0.00     0.041 A 
ATOM     64  F   UNL A   1      47.456  26.540  32.466  1.00  0.00    -0.206 F 
ATOM     65  C   UNL A   1      47.927  23.693  34.649  1.00  0.00     0.022 A 
BRANCH  62  66
ATOM     66  S   UNL A   1      46.206  21.945  35.979  1.00  0.00     0.124 S 
ATOM     67  O   UNL A   1      47.532  21.492  36.384  1.00  0.00    -0.237 OA
ATOM     68  O   UNL A   1      45.432  22.645  36.999  1.00  0.00    -0.237 OA
ATOM     69  O   UNL A   1      45.446  20.996  35.168  1.00  0.00    -0.744 OA
ENDBRANCH  62  66
ENDBRANCH  36  59
ENDBRANCH  10  11
ENDBRANCH   3   5
ENDBRANCH   2   3
ENDBRANCH   1   2
BRANCH   1  70
ATOM     70  C   UNL A   1      31.404  29.235  25.371  1.00  0.00     0.274 C 
BRANCH  70  71
ATOM     71  O   UNL A   1      31.571  27.817  25.270  1.00  0.00    -0.462 OA
BRANCH  71  72
ATOM     72  C   UNL A   1      31.132  27.089  26.333  1.00  0.00     0.309 C 
ATOM     73  O   UNL A   1      31.163  27.437  27.506  1.00  0.00    -0.252 OA
BRANCH  72  74
ATOM     74  C   UNL A   1      30.439  25.850  25.918  1.00  0.00     0.107 C 
ATOM     75  C   UNL A   1      30.489  25.340  24.508  1.00  0.00     0.025 C 
ATOM     76  C   UNL A   1      31.163  24.560  25.601  1.00  0.00     0.034 C 
BRANCH  76  77
ATOM     77  C   UNL A   1      32.652  24.393  25.499  1.00  0.00    -0.044 A 
ATOM     78  C   UNL A   1      33.349  24.863  24.374  1.00  0.00     0.004 A 
ATOM     79  C   UNL A   1      33.386  23.705  26.465  1.00  0.00     0.004 A 
ATOM     80  C   UNL A   1      34.717  24.630  24.217  1.00  0.00     0.004 A 
ATOM     81  C   UNL A   1      34.759  23.482  26.311  1.00  0.00     0.004 A 
ATOM     82  C   UNL A   1      35.454  23.916  25.172  1.00  0.00    -0.045 A 
BRANCH  82  83
ATOM     83  C   UNL A   1      36.917  23.628  24.922  1.00  0.00     0.019 C 
ATOM     84  C   UNL A   1      37.836  22.996  25.937  1.00  0.00     0.009 C 
ATOM     85  C   UNL A   1      37.331  22.178  24.786  1.00  0.00     0.009 C 
ENDBRANCH  82  83
ENDBRANCH  76  77
ENDBRANCH  72  74
ENDBRANCH  71  72
ENDBRANCH  70  71
ENDBRANCH   1  70
TORSDOF 16
ENDMDL
