MODEL 1
REMARK VINA RESULT:     -12.9      0.000      0.000
REMARK SMILES Cc1ccc(NC(=O)[C@H]2CC=CC[C@H]2C(=O)OCCOC(=O)c2ccc(-c3c4nc(c(-c5cc(S(=O)(=O)[O-])ccc5F)c5ccc([nH]5)c(-c5cc(S(=O)(=O)[O-])ccc5F)c5nc(c(-c6cc(S(=O)(=O)[O-])ccc6F)c6ccc3[nH]6)C=C5)C=C4)cc2)cc1F
REMARK SMILES IDX 19 1 18 2 17 3 15 4 16 5 14 6 9 7 10 8 11 9 13 10 12 11 7 12
REMARK SMILES IDX 6 13 8 15 5 16 1 17 2 18 3 19 87 20 4 21 86 22 88 23 20 24
REMARK SMILES IDX 21 25 22 26 23 27 24 28 85 29 25 30 84 31 26 32 27 33 28 34
REMARK SMILES IDX 78 35 29 36 83 37 77 38 79 39 30 40 82 41 76 42 75 43 31 45
REMARK SMILES IDX 63 46 43 47 62 48 44 49 47 50 61 51 80 52 45 53 46 54 60 56
REMARK SMILES IDX 81 57 48 58 32 59 33 60 41 61 34 62 40 63 42 64 39 65 35 66
REMARK SMILES IDX 36 67 37 68 38 69 64 70 65 71 73 72 66 73 72 74 74 75 71 76
REMARK SMILES IDX 67 77 68 78 69 79 70 80 49 81 50 82 58 83 51 84 57 85 59 86
REMARK SMILES IDX 56 87 52 88 53 89 54 90 55 91
REMARK H PARENT 6 14 79 44 47 55
REMARK Flexibility Score: inf
ROOT
ATOM      1  C   UNL A   1      32.182  31.134  26.645  1.00  0.00     0.275 C 
ENDROOT
BRANCH   1   2
ATOM      2  C   UNL A   1      31.730  30.098  25.606  1.00  0.00     0.274 C 
BRANCH   2   3
ATOM      3  O   UNL A   1      32.818  29.712  24.745  1.00  0.00    -0.462 OA
BRANCH   3   4
ATOM      4  C   UNL A   1      33.033  28.377  24.609  1.00  0.00     0.310 C 
ATOM      5  O   UNL A   1      34.061  27.907  24.123  1.00  0.00    -0.252 OA
BRANCH   4   6
ATOM      6  C   UNL A   1      31.927  27.500  25.204  1.00  0.00     0.116 C 
ATOM      7  C   UNL A   1      30.686  27.151  24.346  1.00  0.00     0.097 C 
ATOM      8  C   UNL A   1      29.861  25.978  24.942  1.00  0.00     0.041 C 
ATOM      9  C   UNL A   1      30.502  25.087  25.956  1.00  0.00    -0.030 C 
ATOM     10  C   UNL A   1      32.641  26.319  25.874  1.00  0.00     0.043 C 
ATOM     11  C   UNL A   1      31.754  25.241  26.386  1.00  0.00    -0.030 C 
BRANCH   7  12
ATOM     12  C   UNL A   1      30.931  26.909  22.850  1.00  0.00     0.228 C 
ATOM     13  N   UNL A   1      31.622  25.857  22.295  1.00  0.00    -0.326 N 
ATOM     14  H   UNL A   1      31.617  25.897  21.311  1.00  0.00     0.169 HD
ATOM     15  O   UNL A   1      30.444  27.701  22.027  1.00  0.00    -0.274 OA
BRANCH  13  16
ATOM     16  C   UNL A   1      32.337  24.735  22.764  1.00  0.00     0.044 A 
ATOM     17  C   UNL A   1      34.344  21.321  24.592  1.00  0.00     0.047 C 
ATOM     18  C   UNL A   1      33.600  22.425  23.897  1.00  0.00    -0.015 A 
ATOM     19  C   UNL A   1      32.237  22.415  23.652  1.00  0.00     0.008 A 
ATOM     20  C   UNL A   1      34.270  23.578  23.524  1.00  0.00     0.128 A 
ATOM     21  C   UNL A   1      31.619  23.551  23.071  1.00  0.00     0.026 A 
ATOM     22  C   UNL A   1      33.690  24.707  22.967  1.00  0.00     0.065 A 
ATOM     23  F   UNL A   1      35.567  23.659  23.724  1.00  0.00    -0.207 F 
ENDBRANCH  13  16
ENDBRANCH   7  12
ENDBRANCH   4   6
ENDBRANCH   3   4
ENDBRANCH   2   3
ENDBRANCH   1   2
BRANCH   1  24
ATOM     24  O   UNL A   1      33.104  30.737  27.687  1.00  0.00    -0.458 OA
BRANCH  24  25
ATOM     25  C   UNL A   1      34.022  31.648  28.070  1.00  0.00     0.338 C 
ATOM     26  O   UNL A   1      33.784  32.815  28.362  1.00  0.00    -0.246 OA
BRANCH  25  27
ATOM     27  C   UNL A   1      35.418  31.246  27.886  1.00  0.00     0.060 A 
ATOM     28  C   UNL A   1      35.675  29.858  27.940  1.00  0.00     0.016 A 
ATOM     29  C   UNL A   1      36.439  32.174  28.061  1.00  0.00     0.016 A 
ATOM     30  C   UNL A   1      36.889  29.391  28.415  1.00  0.00     0.010 A 
ATOM     31  C   UNL A   1      37.653  31.703  28.525  1.00  0.00     0.010 A 
ATOM     32  C   UNL A   1      37.828  30.328  28.810  1.00  0.00    -0.014 A 
BRANCH  32  33
ATOM     33  C   UNL A   1      39.054  29.986  29.518  1.00  0.00     0.031 A 
ATOM     34  C   UNL A   1      39.720  28.768  29.040  1.00  0.00     0.074 A 
ATOM     35  C   UNL A   1      39.693  30.834  30.367  1.00  0.00     0.049 A 
ATOM     36  N   UNL A   1      40.729  28.227  29.620  1.00  0.00    -0.248 NA
ATOM     37  C   UNL A   1      39.239  28.011  27.882  1.00  0.00     0.031 C 
ATOM     38  C   UNL A   1      41.139  30.941  30.532  1.00  0.00     0.029 A 
ATOM     39  N   UNL A   1      39.207  31.749  31.306  1.00  0.00    -0.354 N 
ATOM     40  C   UNL A   1      41.245  27.321  28.729  1.00  0.00     0.074 A 
ATOM     41  C   UNL A   1      40.199  27.092  27.764  1.00  0.00     0.031 C 
ATOM     42  C   UNL A   1      41.418  31.702  31.601  1.00  0.00     0.029 A 
ATOM     43  C   UNL A   1      40.171  31.954  32.298  1.00  0.00     0.049 A 
ATOM     44  H   UNL A   1      38.324  32.183  31.273  1.00  0.00     0.167 HD
ATOM     45  C   UNL A   1      42.569  27.032  28.806  1.00  0.00     0.034 A 
ATOM     46  C   UNL A   1      39.984  31.820  33.645  1.00  0.00     0.034 A 
ATOM     47  C   UNL A   1      43.152  27.592  30.031  1.00  0.00     0.049 A 
ATOM     48  C   UNL A   1      40.859  30.742  34.239  1.00  0.00     0.074 A 
ATOM     49  C   UNL A   1      43.939  28.703  30.277  1.00  0.00     0.029 A 
ATOM     50  N   UNL A   1      42.670  27.170  31.270  1.00  0.00    -0.354 N 
ATOM     51  N   UNL A   1      41.646  29.993  33.526  1.00  0.00    -0.248 NA
ATOM     52  C   UNL A   1      40.839  30.343  35.644  1.00  0.00     0.031 C 
ATOM     53  C   UNL A   1      43.860  28.993  31.667  1.00  0.00     0.029 A 
ATOM     54  C   UNL A   1      43.062  28.039  32.278  1.00  0.00     0.049 A 
ATOM     55  H   UNL A   1      42.125  26.364  31.410  1.00  0.00     0.167 HD
ATOM     56  C   UNL A   1      42.047  28.920  34.264  1.00  0.00     0.074 A 
ATOM     57  C   UNL A   1      41.612  29.244  35.610  1.00  0.00     0.031 C 
ATOM     58  C   UNL A   1      42.622  27.835  33.665  1.00  0.00     0.034 A 
BRANCH  45  59
ATOM     59  C   UNL A   1      43.381  26.469  27.659  1.00  0.00     0.023 A 
ATOM     60  C   UNL A   1      43.415  25.104  27.290  1.00  0.00     0.031 A 
ATOM     61  C   UNL A   1      44.095  27.336  26.809  1.00  0.00     0.131 A 
ATOM     62  C   UNL A   1      44.133  24.648  26.170  1.00  0.00     0.055 A 
ATOM     63  C   UNL A   1      44.794  26.888  25.680  1.00  0.00     0.041 A 
ATOM     64  F   UNL A   1      44.109  28.661  27.014  1.00  0.00    -0.206 F 
ATOM     65  C   UNL A   1      44.822  25.539  25.357  1.00  0.00     0.022 A 
BRANCH  62  66
ATOM     66  S   UNL A   1      44.163  22.884  25.728  1.00  0.00     0.124 S 
ATOM     67  O   UNL A   1      45.596  22.612  25.636  1.00  0.00    -0.237 OA
ATOM     68  O   UNL A   1      43.482  22.265  26.861  1.00  0.00    -0.237 OA
ATOM     69  O   UNL A   1      43.441  22.823  24.460  1.00  0.00    -0.744 OA
ENDBRANCH  62  66
ENDBRANCH  45  59
BRANCH  46  70
ATOM     70  C   UNL A   1      38.597  32.058  34.099  1.00  0.00     0.023 A 
ATOM     71  C   UNL A   1      37.552  31.769  33.210  1.00  0.00     0.031 A 
ATOM     72  C   UNL A   1      38.382  32.958  35.159  1.00  0.00     0.131 A 
ATOM     73  C   UNL A   1      36.393  32.536  33.274  1.00  0.00     0.055 A 
ATOM     74  C   UNL A   1      37.199  33.678  35.254  1.00  0.00     0.041 A 
ATOM     75  F   UNL A   1      39.362  33.230  36.034  1.00  0.00    -0.206 F 
ATOM     76  C   UNL A   1      36.225  33.496  34.280  1.00  0.00     0.022 A 
BRANCH  73  77
ATOM     77  S   UNL A   1      35.222  32.517  31.886  1.00  0.00     0.124 S 
ATOM     78  O   UNL A   1      35.463  31.198  31.314  1.00  0.00    -0.237 OA
ATOM     79  O   UNL A   1      33.947  32.690  32.577  1.00  0.00    -0.237 OA
ATOM     80  O   UNL A   1      35.631  33.654  31.072  1.00  0.00    -0.744 OA
ENDBRANCH  73  77
ENDBRANCH  46  70
BRANCH  58  81
ATOM     81  C   UNL A   1      42.874  26.510  34.344  1.00  0.00     0.023 A 
ATOM     82  C   UNL A   1      44.166  25.947  34.250  1.00  0.00     0.031 A 
ATOM     83  C   UNL A   1      41.904  25.720  34.987  1.00  0.00     0.131 A 
ATOM     84  C   UNL A   1      44.456  24.690  34.793  1.00  0.00     0.055 A 
ATOM     85  C   UNL A   1      42.218  24.510  35.615  1.00  0.00     0.041 A 
ATOM     86  F   UNL A   1      40.605  26.046  34.987  1.00  0.00    -0.206 F 
ATOM     87  C   UNL A   1      43.498  23.987  35.517  1.00  0.00     0.022 A 
BRANCH  84  88
ATOM     88  S   UNL A   1      46.038  23.879  34.446  1.00  0.00     0.124 S 
ATOM     89  O   UNL A   1      46.600  24.755  33.421  1.00  0.00    -0.237 OA
ATOM     90  O   UNL A   1      46.703  23.931  35.747  1.00  0.00    -0.237 OA
ATOM     91  O   UNL A   1      45.655  22.545  34.002  1.00  0.00    -0.744 OA
ENDBRANCH  84  88
ENDBRANCH  58  81
ENDBRANCH  32  33
ENDBRANCH  25  27
ENDBRANCH  24  25
ENDBRANCH   1  24
TORSDOF 16
ENDMDL
MODEL 2
REMARK VINA RESULT:     -12.9      2.240      3.007
REMARK SMILES Cc1ccc(NC(=O)[C@H]2CC=CC[C@H]2C(=O)OCCOC(=O)c2ccc(-c3c4nc(c(-c5cc(S(=O)(=O)[O-])ccc5F)c5ccc([nH]5)c(-c5cc(S(=O)(=O)[O-])ccc5F)c5nc(c(-c6cc(S(=O)(=O)[O-])ccc6F)c6ccc3[nH]6)C=C5)C=C4)cc2)cc1F
REMARK SMILES IDX 19 1 18 2 17 3 15 4 16 5 14 6 9 7 10 8 11 9 13 10 12 11 7 12
REMARK SMILES IDX 6 13 8 15 5 16 1 17 2 18 3 19 87 20 4 21 86 22 88 23 20 24
REMARK SMILES IDX 21 25 22 26 23 27 24 28 85 29 25 30 84 31 26 32 27 33 28 34
REMARK SMILES IDX 78 35 29 36 83 37 77 38 79 39 30 40 82 41 76 42 75 43 31 45
REMARK SMILES IDX 63 46 43 47 62 48 44 49 47 50 61 51 80 52 45 53 46 54 60 56
REMARK SMILES IDX 81 57 48 58 32 59 33 60 41 61 34 62 40 63 42 64 39 65 35 66
REMARK SMILES IDX 36 67 37 68 38 69 64 70 65 71 73 72 66 73 72 74 74 75 71 76
REMARK SMILES IDX 67 77 68 78 69 79 70 80 49 81 50 82 58 83 51 84 57 85 59 86
REMARK SMILES IDX 56 87 52 88 53 89 54 90 55 91
REMARK H PARENT 6 14 79 44 47 55
REMARK Flexibility Score: inf
ROOT
ATOM      1  C   UNL A   1      33.368  30.290  27.246  1.00  0.00     0.275 C 
ENDROOT
BRANCH   1   2
ATOM      2  C   UNL A   1      31.957  30.613  26.734  1.00  0.00     0.274 C 
BRANCH   2   3
ATOM      3  O   UNL A   1      31.836  30.340  25.325  1.00  0.00    -0.462 OA
BRANCH   3   4
ATOM      4  C   UNL A   1      32.246  29.111  24.915  1.00  0.00     0.310 C 
ATOM      5  O   UNL A   1      33.320  28.915  24.347  1.00  0.00    -0.252 OA
BRANCH   4   6
ATOM      6  C   UNL A   1      31.301  27.971  25.306  1.00  0.00     0.116 C 
ATOM      7  C   UNL A   1      30.323  27.395  24.251  1.00  0.00     0.097 C 
ATOM      8  C   UNL A   1      29.717  26.032  24.682  1.00  0.00     0.041 C 
ATOM      9  C   UNL A   1      30.387  25.256  25.770  1.00  0.00    -0.030 C 
ATOM     10  C   UNL A   1      32.162  26.950  26.060  1.00  0.00     0.043 C 
ATOM     11  C   UNL A   1      31.487  25.670  26.400  1.00  0.00    -0.030 C 
BRANCH   7  12
ATOM     12  C   UNL A   1      30.845  27.301  22.810  1.00  0.00     0.228 C 
ATOM     13  N   UNL A   1      31.732  26.370  22.322  1.00  0.00    -0.326 N 
ATOM     14  H   UNL A   1      31.891  26.490  21.357  1.00  0.00     0.169 HD
ATOM     15  O   UNL A   1      30.421  28.106  21.965  1.00  0.00    -0.274 OA
BRANCH  13  16
ATOM     16  C   UNL A   1      32.476  25.288  22.839  1.00  0.00     0.044 A 
ATOM     17  C   UNL A   1      35.066  22.023  24.125  1.00  0.00     0.047 C 
ATOM     18  C   UNL A   1      34.199  23.199  23.776  1.00  0.00    -0.015 A 
ATOM     19  C   UNL A   1      34.594  24.521  23.889  1.00  0.00     0.008 A 
ATOM     20  C   UNL A   1      32.940  22.991  23.237  1.00  0.00     0.128 A 
ATOM     21  C   UNL A   1      33.730  25.553  23.444  1.00  0.00     0.026 A 
ATOM     22  C   UNL A   1      32.081  23.979  22.783  1.00  0.00     0.065 A 
ATOM     23  F   UNL A   1      32.496  21.761  23.102  1.00  0.00    -0.207 F 
ENDBRANCH  13  16
ENDBRANCH   7  12
ENDBRANCH   4   6
ENDBRANCH   3   4
ENDBRANCH   2   3
ENDBRANCH   1   2
BRANCH   1  24
ATOM     24  O   UNL A   1      34.301  31.371  27.484  1.00  0.00    -0.458 OA
BRANCH  24  25
ATOM     25  C   UNL A   1      35.082  31.274  28.578  1.00  0.00     0.338 C 
ATOM     26  O   UNL A   1      35.171  32.116  29.464  1.00  0.00    -0.246 OA
BRANCH  25  27
ATOM     27  C   UNL A   1      36.056  30.179  28.558  1.00  0.00     0.060 A 
ATOM     28  C   UNL A   1      36.355  29.594  29.808  1.00  0.00     0.016 A 
ATOM     29  C   UNL A   1      36.905  30.022  27.468  1.00  0.00     0.016 A 
ATOM     30  C   UNL A   1      37.613  29.067  30.048  1.00  0.00     0.010 A 
ATOM     31  C   UNL A   1      38.157  29.487  27.710  1.00  0.00     0.010 A 
ATOM     32  C   UNL A   1      38.541  29.124  29.023  1.00  0.00    -0.014 A 
BRANCH  32  33
ATOM     33  C   UNL A   1      39.950  28.804  29.196  1.00  0.00     0.031 A 
ATOM     34  C   UNL A   1      40.294  27.394  28.966  1.00  0.00     0.074 A 
ATOM     35  C   UNL A   1      40.927  29.744  29.300  1.00  0.00     0.049 A 
ATOM     36  N   UNL A   1      41.449  26.889  29.204  1.00  0.00    -0.248 NA
ATOM     37  C   UNL A   1      39.310  26.411  28.507  1.00  0.00     0.031 C 
ATOM     38  C   UNL A   1      42.281  29.625  28.766  1.00  0.00     0.029 A 
ATOM     39  N   UNL A   1      40.957  30.985  29.941  1.00  0.00    -0.354 N 
ATOM     40  C   UNL A   1      41.468  25.665  28.585  1.00  0.00     0.074 A 
ATOM     41  C   UNL A   1      40.087  25.340  28.334  1.00  0.00     0.031 C 
ATOM     42  C   UNL A   1      43.044  30.622  29.239  1.00  0.00     0.029 A 
ATOM     43  C   UNL A   1      42.279  31.313  30.259  1.00  0.00     0.049 A 
ATOM     44  H   UNL A   1      40.170  31.543  30.138  1.00  0.00     0.167 HD
ATOM     45  C   UNL A   1      42.667  25.174  28.179  1.00  0.00     0.034 A 
ATOM     46  C   UNL A   1      42.750  31.656  31.495  1.00  0.00     0.034 A 
ATOM     47  C   UNL A   1      43.768  25.977  28.722  1.00  0.00     0.049 A 
ATOM     48  C   UNL A   1      43.787  30.682  32.001  1.00  0.00     0.074 A 
ATOM     49  C   UNL A   1      44.593  26.940  28.169  1.00  0.00     0.029 A 
ATOM     50  N   UNL A   1      43.925  26.073  30.104  1.00  0.00    -0.354 N 
ATOM     51  N   UNL A   1      44.132  29.609  31.353  1.00  0.00    -0.248 NA
ATOM     52  C   UNL A   1      44.430  30.765  33.311  1.00  0.00     0.031 C 
ATOM     53  C   UNL A   1      45.187  27.670  29.235  1.00  0.00     0.029 A 
ATOM     54  C   UNL A   1      44.760  27.130  30.438  1.00  0.00     0.049 A 
ATOM     55  H   UNL A   1      43.500  25.472  30.756  1.00  0.00     0.167 HD
ATOM     56  C   UNL A   1      44.820  28.775  32.182  1.00  0.00     0.074 A 
ATOM     57  C   UNL A   1      45.079  29.589  33.355  1.00  0.00     0.031 C 
ATOM     58  C   UNL A   1      45.027  27.468  31.843  1.00  0.00     0.034 A 
BRANCH  45  59
ATOM     59  C   UNL A   1      42.829  24.131  27.094  1.00  0.00     0.023 A 
ATOM     60  C   UNL A   1      42.374  22.795  27.185  1.00  0.00     0.031 A 
ATOM     61  C   UNL A   1      43.383  24.489  25.849  1.00  0.00     0.131 A 
ATOM     62  C   UNL A   1      42.491  21.888  26.116  1.00  0.00     0.055 A 
ATOM     63  C   UNL A   1      43.482  23.595  24.775  1.00  0.00     0.041 A 
ATOM     64  F   UNL A   1      43.812  25.737  25.608  1.00  0.00    -0.206 F 
ATOM     65  C   UNL A   1      43.041  22.285  24.905  1.00  0.00     0.022 A 
BRANCH  62  66
ATOM     66  S   UNL A   1      41.901  20.174  26.270  1.00  0.00     0.124 S 
ATOM     67  O   UNL A   1      40.459  20.325  26.085  1.00  0.00    -0.237 OA
ATOM     68  O   UNL A   1      42.603  19.501  25.180  1.00  0.00    -0.237 OA
ATOM     69  O   UNL A   1      42.313  19.776  27.614  1.00  0.00    -0.744 OA
ENDBRANCH  62  66
ENDBRANCH  45  59
BRANCH  46  70
ATOM     70  C   UNL A   1      41.748  32.282  32.383  1.00  0.00     0.023 A 
ATOM     71  C   UNL A   1      40.903  31.443  33.121  1.00  0.00     0.031 A 
ATOM     72  C   UNL A   1      41.362  33.611  32.127  1.00  0.00     0.131 A 
ATOM     73  C   UNL A   1      39.613  31.880  33.405  1.00  0.00     0.055 A 
ATOM     74  C   UNL A   1      40.093  34.062  32.466  1.00  0.00     0.041 A 
ATOM     75  F   UNL A   1      42.167  34.438  31.443  1.00  0.00    -0.206 F 
ATOM     76  C   UNL A   1      39.206  33.176  33.065  1.00  0.00     0.022 A 
BRANCH  73  77
ATOM     77  S   UNL A   1      38.354  30.685  33.941  1.00  0.00     0.124 S 
ATOM     78  O   UNL A   1      37.236  31.021  33.067  1.00  0.00    -0.237 OA
ATOM     79  O   UNL A   1      39.020  29.415  33.665  1.00  0.00    -0.237 OA
ATOM     80  O   UNL A   1      38.175  30.983  35.356  1.00  0.00    -0.744 OA
ENDBRANCH  73  77
ENDBRANCH  46  70
BRANCH  58  81
ATOM     81  C   UNL A   1      45.551  26.408  32.782  1.00  0.00     0.023 A 
ATOM     82  C   UNL A   1      44.621  25.695  33.570  1.00  0.00     0.031 A 
ATOM     83  C   UNL A   1      46.908  26.125  33.024  1.00  0.00     0.131 A 
ATOM     84  C   UNL A   1      45.038  24.748  34.513  1.00  0.00     0.055 A 
ATOM     85  C   UNL A   1      47.318  25.109  33.894  1.00  0.00     0.041 A 
ATOM     86  F   UNL A   1      47.895  26.851  32.483  1.00  0.00    -0.206 F 
ATOM     87  C   UNL A   1      46.383  24.417  34.647  1.00  0.00     0.022 A 
BRANCH  84  88
ATOM     88  S   UNL A   1      43.855  24.032  35.683  1.00  0.00     0.124 S 
ATOM     89  O   UNL A   1      43.809  22.640  35.244  1.00  0.00    -0.237 OA
ATOM     90  O   UNL A   1      44.515  24.262  36.968  1.00  0.00    -0.237 OA
ATOM     91  O   UNL A   1      42.639  24.807  35.468  1.00  0.00    -0.744 OA
ENDBRANCH  84  88
ENDBRANCH  58  81
ENDBRANCH  32  33
ENDBRANCH  25  27
ENDBRANCH  24  25
ENDBRANCH   1  24
TORSDOF 16
ENDMDL
MODEL 3
REMARK VINA RESULT:     -12.7      5.412      9.707
REMARK SMILES Cc1ccc(NC(=O)[C@H]2CC=CC[C@H]2C(=O)OCCOC(=O)c2ccc(-c3c4nc(c(-c5cc(S(=O)(=O)[O-])ccc5F)c5ccc([nH]5)c(-c5cc(S(=O)(=O)[O-])ccc5F)c5nc(c(-c6cc(S(=O)(=O)[O-])ccc6F)c6ccc3[nH]6)C=C5)C=C4)cc2)cc1F
REMARK SMILES IDX 19 1 18 2 17 3 15 4 16 5 14 6 9 7 10 8 11 9 13 10 12 11 7 12
REMARK SMILES IDX 6 13 8 15 5 16 1 17 2 18 3 19 87 20 4 21 86 22 88 23 20 24
REMARK SMILES IDX 21 25 22 26 23 27 24 28 85 29 25 30 84 31 26 32 27 33 28 34
REMARK SMILES IDX 78 35 29 36 83 37 77 38 79 39 30 40 82 41 76 42 75 43 31 45
REMARK SMILES IDX 63 46 43 47 62 48 44 49 47 50 61 51 80 52 45 53 46 54 60 56
REMARK SMILES IDX 81 57 48 58 32 59 33 60 41 61 34 62 40 63 42 64 39 65 35 66
REMARK SMILES IDX 36 67 37 68 38 69 64 70 65 71 73 72 66 73 72 74 74 75 71 76
REMARK SMILES IDX 67 77 68 78 69 79 70 80 49 81 50 82 58 83 51 84 57 85 59 86
REMARK SMILES IDX 56 87 52 88 53 89 54 90 55 91
REMARK H PARENT 6 14 79 44 47 55
REMARK Flexibility Score: inf
ROOT
ATOM      1  C   UNL A   1      34.072  31.205  27.289  1.00  0.00     0.275 C 
ENDROOT
BRANCH   1   2
ATOM      2  C   UNL A   1      32.781  30.374  27.237  1.00  0.00     0.274 C 
BRANCH   2   3
ATOM      3  O   UNL A   1      32.389  30.103  25.878  1.00  0.00    -0.462 OA
BRANCH   3   4
ATOM      4  C   UNL A   1      32.708  28.873  25.394  1.00  0.00     0.310 C 
ATOM      5  O   UNL A   1      33.789  28.618  24.864  1.00  0.00    -0.252 OA
BRANCH   4   6
ATOM      6  C   UNL A   1      31.645  27.801  25.654  1.00  0.00     0.116 C 
ATOM      7  C   UNL A   1      30.613  27.467  24.548  1.00  0.00     0.097 C 
ATOM      8  C   UNL A   1      29.863  26.134  24.817  1.00  0.00     0.041 C 
ATOM      9  C   UNL A   1      30.443  25.164  25.795  1.00  0.00    -0.030 C 
ATOM     10  C   UNL A   1      32.390  26.610  26.269  1.00  0.00     0.043 C 
ATOM     11  C   UNL A   1      31.580  25.377  26.459  1.00  0.00    -0.030 C 
BRANCH   7  12
ATOM     12  C   UNL A   1      31.124  27.494  23.101  1.00  0.00     0.228 C 
ATOM     13  N   UNL A   1      31.968  26.579  22.516  1.00  0.00    -0.326 N 
ATOM     14  H   UNL A   1      32.128  26.787  21.566  1.00  0.00     0.169 HD
ATOM     15  O   UNL A   1      30.733  28.396  22.343  1.00  0.00    -0.274 OA
BRANCH  13  16
ATOM     16  C   UNL A   1      32.666  25.421  22.916  1.00  0.00     0.044 A 
ATOM     17  C   UNL A   1      34.521  21.786  24.458  1.00  0.00     0.047 C 
ATOM     18  C   UNL A   1      33.859  22.982  23.835  1.00  0.00    -0.015 A 
ATOM     19  C   UNL A   1      32.631  22.951  23.197  1.00  0.00     0.008 A 
ATOM     20  C   UNL A   1      34.450  24.231  23.943  1.00  0.00     0.128 A 
ATOM     21  C   UNL A   1      32.054  24.157  22.724  1.00  0.00     0.026 A 
ATOM     22  C   UNL A   1      33.903  25.425  23.503  1.00  0.00     0.065 A 
ATOM     23  F   UNL A   1      35.619  24.337  24.535  1.00  0.00    -0.207 F 
ENDBRANCH  13  16
ENDBRANCH   7  12
ENDBRANCH   4   6
ENDBRANCH   3   4
ENDBRANCH   2   3
ENDBRANCH   1   2
BRANCH   1  24
ATOM     24  O   UNL A   1      34.020  32.564  27.782  1.00  0.00    -0.458 OA
BRANCH  24  25
ATOM     25  C   UNL A   1      34.433  32.771  29.048  1.00  0.00     0.338 C 
ATOM     26  O   UNL A   1      33.752  33.249  29.948  1.00  0.00    -0.246 OA
BRANCH  25  27
ATOM     27  C   UNL A   1      35.874  32.622  29.270  1.00  0.00     0.060 A 
ATOM     28  C   UNL A   1      36.258  31.613  30.181  1.00  0.00     0.016 A 
ATOM     29  C   UNL A   1      36.742  33.653  28.930  1.00  0.00     0.016 A 
ATOM     30  C   UNL A   1      37.403  31.763  30.945  1.00  0.00     0.010 A 
ATOM     31  C   UNL A   1      37.889  33.794  29.689  1.00  0.00     0.010 A 
ATOM     32  C   UNL A   1      38.149  32.916  30.767  1.00  0.00    -0.014 A 
BRANCH  32  33
ATOM     33  C   UNL A   1      39.248  33.303  31.639  1.00  0.00     0.031 A 
ATOM     34  C   UNL A   1      38.838  33.899  32.917  1.00  0.00     0.074 A 
ATOM     35  C   UNL A   1      40.538  32.922  31.438  1.00  0.00     0.049 A 
ATOM     36  N   UNL A   1      39.652  34.430  33.755  1.00  0.00    -0.248 NA
ATOM     37  C   UNL A   1      37.434  34.008  33.320  1.00  0.00     0.031 C 
ATOM     38  C   UNL A   1      41.504  32.606  32.486  1.00  0.00     0.029 A 
ATOM     39  N   UNL A   1      41.292  32.780  30.270  1.00  0.00    -0.354 N 
ATOM     40  C   UNL A   1      38.953  34.584  34.926  1.00  0.00     0.074 A 
ATOM     41  C   UNL A   1      37.563  34.486  34.558  1.00  0.00     0.031 C 
ATOM     42  C   UNL A   1      42.729  32.492  31.953  1.00  0.00     0.029 A 
ATOM     43  C   UNL A   1      42.650  32.929  30.572  1.00  0.00     0.049 A 
ATOM     44  H   UNL A   1      40.926  32.601  29.374  1.00  0.00     0.167 HD
ATOM     45  C   UNL A   1      39.649  34.572  36.091  1.00  0.00     0.034 A 
ATOM     46  C   UNL A   1      43.519  33.796  29.973  1.00  0.00     0.034 A 
ATOM     47  C   UNL A   1      41.092  34.638  35.835  1.00  0.00     0.049 A 
ATOM     48  C   UNL A   1      44.084  34.803  30.946  1.00  0.00     0.074 A 
ATOM     49  C   UNL A   1      42.097  33.689  35.861  1.00  0.00     0.029 A 
ATOM     50  N   UNL A   1      41.616  35.748  35.174  1.00  0.00    -0.354 N 
ATOM     51  N   UNL A   1      43.725  34.864  32.194  1.00  0.00    -0.248 NA
ATOM     52  C   UNL A   1      45.000  35.882  30.581  1.00  0.00     0.031 C 
ATOM     53  C   UNL A   1      43.205  34.208  35.136  1.00  0.00     0.029 A 
ATOM     54  C   UNL A   1      42.896  35.489  34.704  1.00  0.00     0.049 A 
ATOM     55  H   UNL A   1      41.142  36.602  35.055  1.00  0.00     0.167 HD
ATOM     56  C   UNL A   1      44.138  36.047  32.731  1.00  0.00     0.074 A 
ATOM     57  C   UNL A   1      45.026  36.593  31.721  1.00  0.00     0.031 C 
ATOM     58  C   UNL A   1      43.631  36.490  33.919  1.00  0.00     0.034 A 
BRANCH  45  59
ATOM     59  C   UNL A   1      39.037  34.244  37.437  1.00  0.00     0.023 A 
ATOM     60  C   UNL A   1      38.306  33.068  37.726  1.00  0.00     0.031 A 
ATOM     61  C   UNL A   1      39.262  35.093  38.538  1.00  0.00     0.131 A 
ATOM     62  C   UNL A   1      37.821  32.785  39.015  1.00  0.00     0.055 A 
ATOM     63  C   UNL A   1      38.798  34.804  39.829  1.00  0.00     0.041 A 
ATOM     64  F   UNL A   1      39.981  36.219  38.418  1.00  0.00    -0.206 F 
ATOM     65  C   UNL A   1      38.069  33.649  40.073  1.00  0.00     0.022 A 
BRANCH  62  66
ATOM     66  S   UNL A   1      36.878  31.265  39.350  1.00  0.00     0.124 S 
ATOM     67  O   UNL A   1      35.510  31.769  39.464  1.00  0.00    -0.237 OA
ATOM     68  O   UNL A   1      37.149  30.459  38.163  1.00  0.00    -0.237 OA
ATOM     69  O   UNL A   1      37.453  30.757  40.592  1.00  0.00    -0.744 OA
ENDBRANCH  62  66
ENDBRANCH  45  59
BRANCH  46  70
ATOM     70  C   UNL A   1      43.174  34.147  28.579  1.00  0.00     0.023 A 
ATOM     71  C   UNL A   1      44.035  33.721  27.558  1.00  0.00     0.031 A 
ATOM     72  C   UNL A   1      42.309  35.234  28.354  1.00  0.00     0.131 A 
ATOM     73  C   UNL A   1      44.162  34.513  26.421  1.00  0.00     0.055 A 
ATOM     74  C   UNL A   1      42.397  35.986  27.190  1.00  0.00     0.041 A 
ATOM     75  F   UNL A   1      41.460  35.641  29.309  1.00  0.00    -0.206 F 
ATOM     76  C   UNL A   1      43.359  35.647  26.246  1.00  0.00     0.022 A 
BRANCH  73  77
ATOM     77  S   UNL A   1      45.569  34.262  25.300  1.00  0.00     0.124 S 
ATOM     78  O   UNL A   1      46.378  35.444  25.571  1.00  0.00    -0.237 OA
ATOM     79  O   UNL A   1      46.107  32.994  25.786  1.00  0.00    -0.237 OA
ATOM     80  O   UNL A   1      44.953  34.195  23.981  1.00  0.00    -0.744 OA
ENDBRANCH  73  77
ENDBRANCH  46  70
BRANCH  58  81
ATOM     81  C   UNL A   1      43.829  37.879  34.475  1.00  0.00     0.023 A 
ATOM     82  C   UNL A   1      43.213  38.960  33.806  1.00  0.00     0.031 A 
ATOM     83  C   UNL A   1      44.663  38.219  35.556  1.00  0.00     0.131 A 
ATOM     84  C   UNL A   1      43.408  40.283  34.222  1.00  0.00     0.055 A 
ATOM     85  C   UNL A   1      44.777  39.531  36.031  1.00  0.00     0.041 A 
ATOM     86  F   UNL A   1      45.448  37.319  36.162  1.00  0.00    -0.206 F 
ATOM     87  C   UNL A   1      44.152  40.571  35.361  1.00  0.00     0.022 A 
BRANCH  84  88
ATOM     88  S   UNL A   1      42.818  41.663  33.207  1.00  0.00     0.124 S 
ATOM     89  O   UNL A   1      41.972  42.385  34.153  1.00  0.00    -0.237 OA
ATOM     90  O   UNL A   1      44.066  42.333  32.844  1.00  0.00    -0.237 OA
ATOM     91  O   UNL A   1      42.125  41.011  32.103  1.00  0.00    -0.744 OA
ENDBRANCH  84  88
ENDBRANCH  58  81
ENDBRANCH  32  33
ENDBRANCH  25  27
ENDBRANCH  24  25
ENDBRANCH   1  24
TORSDOF 16
ENDMDL
