MODEL 1
REMARK VINA RESULT:     -12.2      0.000      0.000
REMARK SMILES CCCc1cc2c(cc1Cl)C=C(C(=O)OCCOC(=O)c1ccc(-c3c4nc(c(-c5cc(S(=O)(=O)[O-])ccc5F)c5ccc([nH]5)c(-c5cc(S(=O)(=O)[O-])ccc5F)c5nc(c(-c6cc(S(=O)(=O)[O-])ccc6F)c6ccc3[nH]6)C=C5)C=C4)cc1)[C@@H](C(F)(F)F)O2
REMARK SMILES IDX 17 1 16 2 15 3 13 4 14 5 12 6 4 7 5 8 9 9 6 10 8 11 10 12
REMARK SMILES IDX 7 13 89 14 11 15 84 16 3 17 2 18 1 19 85 20 86 21 87 22
REMARK SMILES IDX 88 23 18 24 19 25 20 26 21 27 22 28 83 29 23 30 82 31 24 32
REMARK SMILES IDX 25 33 26 34 76 35 27 36 81 37 75 38 77 39 28 40 80 41 74 42
REMARK SMILES IDX 73 43 29 45 61 46 41 47 60 48 42 49 45 50 59 51 78 52 43 53
REMARK SMILES IDX 44 54 58 56 79 57 46 58 30 59 31 60 39 61 32 62 38 63 40 64
REMARK SMILES IDX 37 65 33 66 34 67 35 68 36 69 62 70 63 71 71 72 64 73 70 74
REMARK SMILES IDX 72 75 69 76 65 77 66 78 67 79 68 80 47 81 48 82 56 83 49 84
REMARK SMILES IDX 55 85 57 86 54 87 50 88 51 89 52 90 53 91
REMARK H PARENT 77 44 45 55
REMARK Flexibility Score: inf
ROOT
ATOM      1  C   UNL A   1      31.694  30.045  25.903  1.00  0.00     0.275 C 
ENDROOT
BRANCH   1   2
ATOM      2  C   UNL A   1      31.552  28.685  25.213  1.00  0.00     0.275 C 
BRANCH   2   3
ATOM      3  O   UNL A   1      32.644  27.800  25.542  1.00  0.00    -0.459 OA
BRANCH   3   4
ATOM      4  C   UNL A   1      33.226  27.168  24.495  1.00  0.00     0.338 C 
ATOM      5  O   UNL A   1      33.759  27.704  23.534  1.00  0.00    -0.246 OA
BRANCH   4   6
ATOM      6  C   UNL A   1      33.189  25.703  24.683  1.00  0.00     0.087 C 
ATOM      7  C   UNL A   1      34.357  20.813  24.815  1.00  0.00    -0.026 A 
ATOM      8  C   UNL A   1      33.152  21.539  24.902  1.00  0.00     0.052 A 
ATOM      9  C   UNL A   1      35.566  21.530  24.897  1.00  0.00     0.045 A 
ATOM     10  C   UNL A   1      33.147  22.933  24.905  1.00  0.00     0.128 A 
ATOM     11  C   UNL A   1      35.564  22.921  24.935  1.00  0.00     0.032 A 
ATOM     12  Cl  UNL A   1      37.102  20.739  24.920  1.00  0.00    -0.084 Cl
ATOM     13  C   UNL A   1      34.354  23.616  24.880  1.00  0.00     0.019 A 
ATOM     14  O   UNL A   1      31.929  23.555  24.922  1.00  0.00    -0.475 OA
ATOM     15  C   UNL A   1      34.356  25.054  24.755  1.00  0.00     0.027 C 
ATOM     16  C   UNL A   1      31.872  24.983  24.634  1.00  0.00     0.316 C 
BRANCH   7  17
ATOM     17  C   UNL A   1      34.388  19.312  24.615  1.00  0.00     0.037 C 
BRANCH  17  18
ATOM     18  C   UNL A   1      33.067  18.595  24.313  1.00  0.00     0.001 C 
ATOM     19  C   UNL A   1      33.204  17.458  23.305  1.00  0.00     0.004 C 
ENDBRANCH  17  18
ENDBRANCH   7  17
BRANCH  16  20
ATOM     20  C   UNL A   1      31.217  25.185  23.256  1.00  0.00     0.430 C 
ATOM     21  F   UNL A   1      32.104  24.990  22.249  1.00  0.00    -0.167 F 
ATOM     22  F   UNL A   1      30.205  24.307  23.049  1.00  0.00    -0.167 F 
ATOM     23  F   UNL A   1      30.707  26.429  23.106  1.00  0.00    -0.167 F 
ENDBRANCH  16  20
ENDBRANCH   4   6
ENDBRANCH   3   4
ENDBRANCH   2   3
ENDBRANCH   1   2
BRANCH   1  24
ATOM     24  O   UNL A   1      32.706  30.011  26.926  1.00  0.00    -0.458 OA
BRANCH  24  25
ATOM     25  C   UNL A   1      33.283  31.206  27.192  1.00  0.00     0.338 C 
ATOM     26  O   UNL A   1      32.740  32.296  27.218  1.00  0.00    -0.246 OA
BRANCH  25  27
ATOM     27  C   UNL A   1      34.671  31.001  27.628  1.00  0.00     0.060 A 
ATOM     28  C   UNL A   1      35.542  32.041  27.906  1.00  0.00     0.016 A 
ATOM     29  C   UNL A   1      35.042  29.698  27.924  1.00  0.00     0.016 A 
ATOM     30  C   UNL A   1      36.793  31.741  28.466  1.00  0.00     0.010 A 
ATOM     31  C   UNL A   1      36.195  29.420  28.643  1.00  0.00     0.010 A 
ATOM     32  C   UNL A   1      37.126  30.430  28.880  1.00  0.00    -0.014 A 
BRANCH  32  33
ATOM     33  C   UNL A   1      38.432  30.120  29.539  1.00  0.00     0.031 A 
ATOM     34  C   UNL A   1      38.770  30.643  30.922  1.00  0.00     0.074 A 
ATOM     35  C   UNL A   1      39.339  29.367  28.881  1.00  0.00     0.049 A 
ATOM     36  N   UNL A   1      39.807  30.367  31.674  1.00  0.00    -0.248 NA
ATOM     37  C   UNL A   1      37.863  31.635  31.527  1.00  0.00     0.031 C 
ATOM     38  C   UNL A   1      39.208  28.920  27.494  1.00  0.00     0.029 A 
ATOM     39  N   UNL A   1      40.531  28.816  29.290  1.00  0.00    -0.354 N 
ATOM     40  C   UNL A   1      39.674  31.150  32.817  1.00  0.00     0.074 A 
ATOM     41  C   UNL A   1      38.522  31.992  32.619  1.00  0.00     0.031 C 
ATOM     42  C   UNL A   1      40.212  28.082  27.202  1.00  0.00     0.029 A 
ATOM     43  C   UNL A   1      41.094  27.969  28.360  1.00  0.00     0.049 A 
ATOM     44  H   UNL A   1      40.943  29.009  30.163  1.00  0.00     0.167 HD
ATOM     45  C   UNL A   1      40.406  31.129  33.958  1.00  0.00     0.034 A 
ATOM     46  C   UNL A   1      42.175  27.164  28.436  1.00  0.00     0.034 A 
ATOM     47  C   UNL A   1      41.522  30.245  34.163  1.00  0.00     0.049 A 
ATOM     48  C   UNL A   1      42.932  27.093  29.739  1.00  0.00     0.074 A 
ATOM     49  C   UNL A   1      42.282  30.079  35.306  1.00  0.00     0.029 A 
ATOM     50  N   UNL A   1      42.029  29.370  33.214  1.00  0.00    -0.354 N 
ATOM     51  N   UNL A   1      42.707  27.739  30.859  1.00  0.00    -0.248 NA
ATOM     52  C   UNL A   1      44.072  26.168  29.804  1.00  0.00     0.031 C 
ATOM     53  C   UNL A   1      43.290  29.157  35.028  1.00  0.00     0.029 A 
ATOM     54  C   UNL A   1      43.103  28.675  33.741  1.00  0.00     0.049 A 
ATOM     55  H   UNL A   1      41.678  29.261  32.301  1.00  0.00     0.167 HD
ATOM     56  C   UNL A   1      43.654  27.276  31.768  1.00  0.00     0.074 A 
ATOM     57  C   UNL A   1      44.436  26.275  31.075  1.00  0.00     0.031 C 
ATOM     58  C   UNL A   1      43.858  27.652  33.056  1.00  0.00     0.034 A 
BRANCH  45  59
ATOM     59  C   UNL A   1      40.001  32.027  35.108  1.00  0.00     0.023 A 
ATOM     60  C   UNL A   1      39.171  31.537  36.134  1.00  0.00     0.031 A 
ATOM     61  C   UNL A   1      40.313  33.400  35.112  1.00  0.00     0.131 A 
ATOM     62  C   UNL A   1      38.651  32.417  37.092  1.00  0.00     0.055 A 
ATOM     63  C   UNL A   1      39.839  34.262  36.103  1.00  0.00     0.041 A 
ATOM     64  F   UNL A   1      41.091  33.928  34.153  1.00  0.00    -0.206 F 
ATOM     65  C   UNL A   1      38.990  33.773  37.089  1.00  0.00     0.022 A 
BRANCH  62  66
ATOM     66  S   UNL A   1      37.445  31.858  38.327  1.00  0.00     0.124 S 
ATOM     67  O   UNL A   1      38.205  31.983  39.568  1.00  0.00    -0.237 OA
ATOM     68  O   UNL A   1      36.366  32.827  38.158  1.00  0.00    -0.237 OA
ATOM     69  O   UNL A   1      37.136  30.490  37.922  1.00  0.00    -0.744 OA
ENDBRANCH  62  66
ENDBRANCH  45  59
BRANCH  46  70
ATOM     70  C   UNL A   1      42.511  26.286  27.275  1.00  0.00     0.023 A 
ATOM     71  C   UNL A   1      42.015  24.972  27.192  1.00  0.00     0.031 A 
ATOM     72  C   UNL A   1      43.434  26.701  26.299  1.00  0.00     0.131 A 
ATOM     73  C   UNL A   1      42.501  24.101  26.207  1.00  0.00     0.055 A 
ATOM     74  C   UNL A   1      43.853  25.856  25.268  1.00  0.00     0.041 A 
ATOM     75  F   UNL A   1      43.955  27.938  26.342  1.00  0.00    -0.206 F 
ATOM     76  C   UNL A   1      43.400  24.541  25.232  1.00  0.00     0.022 A 
BRANCH  73  77
ATOM     77  S   UNL A   1      42.102  22.332  26.252  1.00  0.00     0.124 S 
ATOM     78  O   UNL A   1      40.648  22.344  26.137  1.00  0.00    -0.237 OA
ATOM     79  O   UNL A   1      42.825  21.834  25.083  1.00  0.00    -0.237 OA
ATOM     80  O   UNL A   1      42.631  21.894  27.540  1.00  0.00    -0.744 OA
ENDBRANCH  73  77
ENDBRANCH  46  70
BRANCH  58  81
ATOM     81  C   UNL A   1      44.948  26.975  33.853  1.00  0.00     0.023 A 
ATOM     82  C   UNL A   1      44.673  25.761  34.513  1.00  0.00     0.031 A 
ATOM     83  C   UNL A   1      46.178  27.604  34.105  1.00  0.00     0.131 A 
ATOM     84  C   UNL A   1      45.592  25.241  35.432  1.00  0.00     0.055 A 
ATOM     85  C   UNL A   1      47.118  27.051  34.976  1.00  0.00     0.041 A 
ATOM     86  F   UNL A   1      46.482  28.773  33.517  1.00  0.00    -0.206 F 
ATOM     87  C   UNL A   1      46.818  25.873  35.659  1.00  0.00     0.022 A 
BRANCH  84  88
ATOM     88  S   UNL A   1      45.181  23.798  36.450  1.00  0.00     0.124 S 
ATOM     89  O   UNL A   1      44.858  24.417  37.734  1.00  0.00    -0.237 OA
ATOM     90  O   UNL A   1      44.045  23.227  35.730  1.00  0.00    -0.237 OA
ATOM     91  O   UNL A   1      46.399  22.996  36.436  1.00  0.00    -0.744 OA
ENDBRANCH  84  88
ENDBRANCH  58  81
ENDBRANCH  32  33
ENDBRANCH  25  27
ENDBRANCH  24  25
ENDBRANCH   1  24
TORSDOF 17
ENDMDL
MODEL 2
REMARK VINA RESULT:     -12.1      4.949     10.154
REMARK SMILES CCCc1cc2c(cc1Cl)C=C(C(=O)OCCOC(=O)c1ccc(-c3c4nc(c(-c5cc(S(=O)(=O)[O-])ccc5F)c5ccc([nH]5)c(-c5cc(S(=O)(=O)[O-])ccc5F)c5nc(c(-c6cc(S(=O)(=O)[O-])ccc6F)c6ccc3[nH]6)C=C5)C=C4)cc1)[C@@H](C(F)(F)F)O2
REMARK SMILES IDX 17 1 16 2 15 3 13 4 14 5 12 6 4 7 5 8 9 9 6 10 8 11 10 12
REMARK SMILES IDX 7 13 89 14 11 15 84 16 3 17 2 18 1 19 85 20 86 21 87 22
REMARK SMILES IDX 88 23 18 24 19 25 20 26 21 27 22 28 83 29 23 30 82 31 24 32
REMARK SMILES IDX 25 33 26 34 76 35 27 36 81 37 75 38 77 39 28 40 80 41 74 42
REMARK SMILES IDX 73 43 29 45 61 46 41 47 60 48 42 49 45 50 59 51 78 52 43 53
REMARK SMILES IDX 44 54 58 56 79 57 46 58 30 59 31 60 39 61 32 62 38 63 40 64
REMARK SMILES IDX 37 65 33 66 34 67 35 68 36 69 62 70 63 71 71 72 64 73 70 74
REMARK SMILES IDX 72 75 69 76 65 77 66 78 67 79 68 80 47 81 48 82 56 83 49 84
REMARK SMILES IDX 55 85 57 86 54 87 50 88 51 89 52 90 53 91
REMARK H PARENT 77 44 45 55
REMARK Flexibility Score: inf
ROOT
ATOM      1  C   UNL A   1      36.864  20.914  25.132  1.00  0.00     0.275 C 
ENDROOT
BRANCH   1   2
ATOM      2  C   UNL A   1      35.409  21.344  24.927  1.00  0.00     0.275 C 
BRANCH   2   3
ATOM      3  O   UNL A   1      35.287  22.777  24.791  1.00  0.00    -0.459 OA
BRANCH   3   4
ATOM      4  C   UNL A   1      34.442  23.381  25.660  1.00  0.00     0.338 C 
ATOM      5  O   UNL A   1      34.330  23.130  26.851  1.00  0.00    -0.246 OA
BRANCH   4   6
ATOM      6  C   UNL A   1      33.682  24.455  24.987  1.00  0.00     0.087 C 
ATOM      7  C   UNL A   1      31.065  28.632  23.990  1.00  0.00    -0.026 A 
ATOM      8  C   UNL A   1      31.298  27.428  23.295  1.00  0.00     0.052 A 
ATOM      9  C   UNL A   1      31.841  28.893  25.135  1.00  0.00     0.045 A 
ATOM     10  C   UNL A   1      32.150  26.452  23.808  1.00  0.00     0.128 A 
ATOM     11  C   UNL A   1      32.718  27.933  25.631  1.00  0.00     0.032 A 
ATOM     12  Cl  UNL A   1      31.728  30.385  26.001  1.00  0.00    -0.084 Cl
ATOM     13  C   UNL A   1      32.825  26.694  24.995  1.00  0.00     0.019 A 
ATOM     14  O   UNL A   1      32.265  25.287  23.100  1.00  0.00    -0.475 OA
ATOM     15  C   UNL A   1      33.607  25.642  25.598  1.00  0.00     0.027 C 
ATOM     16  C   UNL A   1      32.904  24.143  23.741  1.00  0.00     0.316 C 
BRANCH   7  17
ATOM     17  C   UNL A   1      30.004  29.625  23.561  1.00  0.00     0.037 C 
BRANCH  17  18
ATOM     18  C   UNL A   1      28.698  29.079  22.975  1.00  0.00     0.001 C 
ATOM     19  C   UNL A   1      27.591  30.124  22.866  1.00  0.00     0.004 C 
ENDBRANCH  17  18
ENDBRANCH   7  17
BRANCH  16  20
ATOM     20  C   UNL A   1      31.832  23.082  24.045  1.00  0.00     0.430 C 
ATOM     21  F   UNL A   1      31.456  23.113  25.347  1.00  0.00    -0.167 F 
ATOM     22  F   UNL A   1      30.708  23.283  23.317  1.00  0.00    -0.167 F 
ATOM     23  F   UNL A   1      32.263  21.826  23.782  1.00  0.00    -0.167 F 
ENDBRANCH  16  20
ENDBRANCH   4   6
ENDBRANCH   3   4
ENDBRANCH   2   3
ENDBRANCH   1   2
BRANCH   1  24
ATOM     24  O   UNL A   1      37.693  22.029  25.507  1.00  0.00    -0.458 OA
BRANCH  24  25
ATOM     25  C   UNL A   1      38.886  21.691  26.051  1.00  0.00     0.338 C 
ATOM     26  O   UNL A   1      39.507  20.657  25.879  1.00  0.00    -0.246 OA
BRANCH  25  27
ATOM     27  C   UNL A   1      39.445  22.842  26.774  1.00  0.00     0.060 A 
ATOM     28  C   UNL A   1      40.538  22.749  27.620  1.00  0.00     0.016 A 
ATOM     29  C   UNL A   1      38.938  24.089  26.442  1.00  0.00     0.016 A 
ATOM     30  C   UNL A   1      41.092  23.930  28.138  1.00  0.00     0.010 A 
ATOM     31  C   UNL A   1      39.596  25.256  26.803  1.00  0.00     0.010 A 
ATOM     32  C   UNL A   1      40.655  25.205  27.708  1.00  0.00    -0.014 A 
BRANCH  32  33
ATOM     33  C   UNL A   1      41.289  26.464  28.206  1.00  0.00     0.031 A 
ATOM     34  C   UNL A   1      42.721  26.825  27.862  1.00  0.00     0.074 A 
ATOM     35  C   UNL A   1      40.574  27.294  28.995  1.00  0.00     0.049 A 
ATOM     36  N   UNL A   1      43.374  27.932  28.119  1.00  0.00    -0.248 NA
ATOM     37  C   UNL A   1      43.548  25.809  27.186  1.00  0.00     0.031 C 
ATOM     38  C   UNL A   1      39.241  27.004  29.524  1.00  0.00     0.029 A 
ATOM     39  N   UNL A   1      40.843  28.557  29.467  1.00  0.00    -0.354 N 
ATOM     40  C   UNL A   1      44.669  27.735  27.646  1.00  0.00     0.074 A 
ATOM     41  C   UNL A   1      44.746  26.371  27.187  1.00  0.00     0.031 C 
ATOM     42  C   UNL A   1      38.767  28.089  30.150  1.00  0.00     0.029 A 
ATOM     43  C   UNL A   1      39.779  29.141  30.118  1.00  0.00     0.049 A 
ATOM     44  H   UNL A   1      41.714  29.003  29.350  1.00  0.00     0.167 HD
ATOM     45  C   UNL A   1      45.686  28.624  27.543  1.00  0.00     0.034 A 
ATOM     46  C   UNL A   1      39.616  30.390  30.605  1.00  0.00     0.034 A 
ATOM     47  C   UNL A   1      45.578  29.998  27.957  1.00  0.00     0.049 A 
ATOM     48  C   UNL A   1      40.728  31.391  30.413  1.00  0.00     0.074 A 
ATOM     49  C   UNL A   1      46.514  31.007  27.823  1.00  0.00     0.029 A 
ATOM     50  N   UNL A   1      44.467  30.560  28.568  1.00  0.00    -0.354 N 
ATOM     51  N   UNL A   1      41.896  31.224  29.837  1.00  0.00    -0.248 NA
ATOM     52  C   UNL A   1      40.497  32.755  30.909  1.00  0.00     0.031 C 
ATOM     53  C   UNL A   1      45.998  32.159  28.415  1.00  0.00     0.029 A 
ATOM     54  C   UNL A   1      44.703  31.897  28.833  1.00  0.00     0.049 A 
ATOM     55  H   UNL A   1      43.635  30.079  28.782  1.00  0.00     0.167 HD
ATOM     56  C   UNL A   1      42.524  32.466  29.872  1.00  0.00     0.074 A 
ATOM     57  C   UNL A   1      41.594  33.380  30.502  1.00  0.00     0.031 C 
ATOM     58  C   UNL A   1      43.758  32.813  29.430  1.00  0.00     0.034 A 
BRANCH  45  59
ATOM     59  C   UNL A   1      46.986  28.184  26.904  1.00  0.00     0.023 A 
ATOM     60  C   UNL A   1      47.123  28.182  25.502  1.00  0.00     0.031 A 
ATOM     61  C   UNL A   1      48.031  27.631  27.669  1.00  0.00     0.131 A 
ATOM     62  C   UNL A   1      48.254  27.602  24.912  1.00  0.00     0.055 A 
ATOM     63  C   UNL A   1      49.182  27.107  27.078  1.00  0.00     0.041 A 
ATOM     64  F   UNL A   1      47.952  27.595  29.010  1.00  0.00    -0.206 F 
ATOM     65  C   UNL A   1      49.289  27.076  25.692  1.00  0.00     0.022 A 
BRANCH  62  66
ATOM     66  S   UNL A   1      48.390  27.426  23.111  1.00  0.00     0.124 S 
ATOM     67  O   UNL A   1      49.691  28.034  22.847  1.00  0.00    -0.237 OA
ATOM     68  O   UNL A   1      48.334  25.977  22.943  1.00  0.00    -0.237 OA
ATOM     69  O   UNL A   1      47.242  28.166  22.599  1.00  0.00    -0.744 OA
ENDBRANCH  62  66
ENDBRANCH  45  59
BRANCH  46  70
ATOM     70  C   UNL A   1      38.302  30.770  31.207  1.00  0.00     0.023 A 
ATOM     71  C   UNL A   1      37.293  31.366  30.427  1.00  0.00     0.031 A 
ATOM     72  C   UNL A   1      38.083  30.662  32.592  1.00  0.00     0.131 A 
ATOM     73  C   UNL A   1      36.154  31.898  31.047  1.00  0.00     0.055 A 
ATOM     74  C   UNL A   1      36.908  31.118  33.194  1.00  0.00     0.041 A 
ATOM     75  F   UNL A   1      39.022  30.121  33.385  1.00  0.00    -0.206 F 
ATOM     76  C   UNL A   1      35.945  31.759  32.422  1.00  0.00     0.022 A 
BRANCH  73  77
ATOM     77  S   UNL A   1      34.982  32.922  30.113  1.00  0.00     0.124 S 
ATOM     78  O   UNL A   1      34.467  31.976  29.129  1.00  0.00    -0.237 OA
ATOM     79  O   UNL A   1      34.041  33.323  31.157  1.00  0.00    -0.237 OA
ATOM     80  O   UNL A   1      35.813  33.997  29.583  1.00  0.00    -0.744 OA
ENDBRANCH  73  77
ENDBRANCH  46  70
BRANCH  58  81
ATOM     81  C   UNL A   1      44.208  34.250  29.561  1.00  0.00     0.023 A 
ATOM     82  C   UNL A   1      43.743  35.209  28.640  1.00  0.00     0.031 A 
ATOM     83  C   UNL A   1      45.213  34.630  30.465  1.00  0.00     0.131 A 
ATOM     84  C   UNL A   1      44.319  36.484  28.609  1.00  0.00     0.055 A 
ATOM     85  C   UNL A   1      45.743  35.921  30.471  1.00  0.00     0.041 A 
ATOM     86  F   UNL A   1      45.704  33.747  31.351  1.00  0.00    -0.206 F 
ATOM     87  C   UNL A   1      45.309  36.849  29.527  1.00  0.00     0.022 A 
BRANCH  84  88
ATOM     88  S   UNL A   1      43.893  37.670  27.305  1.00  0.00     0.124 S 
ATOM     89  O   UNL A   1      43.051  36.862  26.425  1.00  0.00    -0.237 OA
ATOM     90  O   UNL A   1      43.193  38.711  28.053  1.00  0.00    -0.237 OA
ATOM     91  O   UNL A   1      45.183  38.060  26.745  1.00  0.00    -0.744 OA
ENDBRANCH  84  88
ENDBRANCH  58  81
ENDBRANCH  32  33
ENDBRANCH  25  27
ENDBRANCH  24  25
ENDBRANCH   1  24
TORSDOF 17
ENDMDL
MODEL 3
REMARK VINA RESULT:     -12.1      1.365      1.623
REMARK SMILES CCCc1cc2c(cc1Cl)C=C(C(=O)OCCOC(=O)c1ccc(-c3c4nc(c(-c5cc(S(=O)(=O)[O-])ccc5F)c5ccc([nH]5)c(-c5cc(S(=O)(=O)[O-])ccc5F)c5nc(c(-c6cc(S(=O)(=O)[O-])ccc6F)c6ccc3[nH]6)C=C5)C=C4)cc1)[C@@H](C(F)(F)F)O2
REMARK SMILES IDX 17 1 16 2 15 3 13 4 14 5 12 6 4 7 5 8 9 9 6 10 8 11 10 12
REMARK SMILES IDX 7 13 89 14 11 15 84 16 3 17 2 18 1 19 85 20 86 21 87 22
REMARK SMILES IDX 88 23 18 24 19 25 20 26 21 27 22 28 83 29 23 30 82 31 24 32
REMARK SMILES IDX 25 33 26 34 76 35 27 36 81 37 75 38 77 39 28 40 80 41 74 42
REMARK SMILES IDX 73 43 29 45 61 46 41 47 60 48 42 49 45 50 59 51 78 52 43 53
REMARK SMILES IDX 44 54 58 56 79 57 46 58 30 59 31 60 39 61 32 62 38 63 40 64
REMARK SMILES IDX 37 65 33 66 34 67 35 68 36 69 62 70 63 71 71 72 64 73 70 74
REMARK SMILES IDX 72 75 69 76 65 77 66 78 67 79 68 80 47 81 48 82 56 83 49 84
REMARK SMILES IDX 55 85 57 86 54 87 50 88 51 89 52 90 53 91
REMARK H PARENT 77 44 45 55
REMARK Flexibility Score: inf
ROOT
ATOM      1  C   UNL A   1      31.523  29.918  25.390  1.00  0.00     0.275 C 
ENDROOT
BRANCH   1   2
ATOM      2  C   UNL A   1      31.136  28.545  24.833  1.00  0.00     0.275 C 
BRANCH   2   3
ATOM      3  O   UNL A   1      31.928  27.487  25.415  1.00  0.00    -0.459 OA
BRANCH   3   4
ATOM      4  C   UNL A   1      32.758  26.836  24.565  1.00  0.00     0.338 C 
ATOM      5  O   UNL A   1      33.500  27.354  23.743  1.00  0.00    -0.246 OA
BRANCH   4   6
ATOM      6  C   UNL A   1      32.699  25.378  24.792  1.00  0.00     0.087 C 
ATOM      7  C   UNL A   1      33.773  20.469  25.004  1.00  0.00    -0.026 A 
ATOM      8  C   UNL A   1      32.587  21.223  25.120  1.00  0.00     0.052 A 
ATOM      9  C   UNL A   1      34.998  21.162  25.019  1.00  0.00     0.045 A 
ATOM     10  C   UNL A   1      32.610  22.615  25.087  1.00  0.00     0.128 A 
ATOM     11  C   UNL A   1      35.025  22.553  25.021  1.00  0.00     0.032 A 
ATOM     12  Cl  UNL A   1      36.518  20.340  25.001  1.00  0.00    -0.084 Cl
ATOM     13  C   UNL A   1      33.828  23.272  24.997  1.00  0.00     0.019 A 
ATOM     14  O   UNL A   1      31.406  23.263  25.138  1.00  0.00    -0.475 OA
ATOM     15  C   UNL A   1      33.854  24.706  24.834  1.00  0.00     0.027 C 
ATOM     16  C   UNL A   1      31.367  24.685  24.814  1.00  0.00     0.316 C 
BRANCH   7  17
ATOM     17  C   UNL A   1      33.765  18.963  24.842  1.00  0.00     0.037 C 
BRANCH  17  18
ATOM     18  C   UNL A   1      32.520  18.307  24.234  1.00  0.00     0.001 C 
ATOM     19  C   UNL A   1      32.561  18.209  22.712  1.00  0.00     0.004 C 
ENDBRANCH  17  18
ENDBRANCH   7  17
BRANCH  16  20
ATOM     20  C   UNL A   1      30.661  24.866  23.459  1.00  0.00     0.430 C 
ATOM     21  F   UNL A   1      31.551  25.051  22.454  1.00  0.00    -0.167 F 
ATOM     22  F   UNL A   1      29.930  23.774  23.126  1.00  0.00    -0.167 F 
ATOM     23  F   UNL A   1      29.823  25.928  23.454  1.00  0.00    -0.167 F 
ENDBRANCH  16  20
ENDBRANCH   4   6
ENDBRANCH   3   4
ENDBRANCH   2   3
ENDBRANCH   1   2
BRANCH   1  24
ATOM     24  O   UNL A   1      32.552  29.807  26.391  1.00  0.00    -0.458 OA
BRANCH  24  25
ATOM     25  C   UNL A   1      32.903  30.977  26.974  1.00  0.00     0.338 C 
ATOM     26  O   UNL A   1      32.183  31.936  27.192  1.00  0.00    -0.246 OA
BRANCH  25  27
ATOM     27  C   UNL A   1      34.277  30.884  27.486  1.00  0.00     0.060 A 
ATOM     28  C   UNL A   1      35.003  31.981  27.917  1.00  0.00     0.016 A 
ATOM     29  C   UNL A   1      34.777  29.607  27.689  1.00  0.00     0.016 A 
ATOM     30  C   UNL A   1      36.245  31.768  28.535  1.00  0.00     0.010 A 
ATOM     31  C   UNL A   1      35.910  29.389  28.460  1.00  0.00     0.010 A 
ATOM     32  C   UNL A   1      36.702  30.466  28.851  1.00  0.00    -0.014 A 
BRANCH  32  33
ATOM     33  C   UNL A   1      37.993  30.238  29.570  1.00  0.00     0.031 A 
ATOM     34  C   UNL A   1      38.215  30.734  30.986  1.00  0.00     0.074 A 
ATOM     35  C   UNL A   1      38.993  29.588  28.938  1.00  0.00     0.049 A 
ATOM     36  N   UNL A   1      39.231  30.515  31.784  1.00  0.00    -0.248 NA
ATOM     37  C   UNL A   1      37.198  31.625  31.575  1.00  0.00     0.031 C 
ATOM     38  C   UNL A   1      38.971  29.186  27.531  1.00  0.00     0.029 A 
ATOM     39  N   UNL A   1      40.204  29.121  29.392  1.00  0.00    -0.354 N 
ATOM     40  C   UNL A   1      38.974  31.240  32.945  1.00  0.00     0.074 A 
ATOM     41  C   UNL A   1      37.768  31.992  32.712  1.00  0.00     0.031 C 
ATOM     42  C   UNL A   1      40.055  28.445  27.266  1.00  0.00     0.029 A 
ATOM     43  C   UNL A   1      40.883  28.359  28.466  1.00  0.00     0.049 A 
ATOM     44  H   UNL A   1      40.553  29.313  30.293  1.00  0.00     0.167 HD
ATOM     45  C   UNL A   1      39.645  31.235  34.122  1.00  0.00     0.034 A 
ATOM     46  C   UNL A   1      42.022  27.643  28.574  1.00  0.00     0.034 A 
ATOM     47  C   UNL A   1      40.819  30.438  34.358  1.00  0.00     0.049 A 
ATOM     48  C   UNL A   1      42.714  27.583  29.913  1.00  0.00     0.074 A 
ATOM     49  C   UNL A   1      41.529  30.290  35.535  1.00  0.00     0.029 A 
ATOM     50  N   UNL A   1      41.446  29.644  33.408  1.00  0.00    -0.354 N 
ATOM     51  N   UNL A   1      42.378  28.165  31.040  1.00  0.00    -0.248 NA
ATOM     52  C   UNL A   1      43.923  26.752  30.009  1.00  0.00     0.031 C 
ATOM     53  C   UNL A   1      42.624  29.465  35.280  1.00  0.00     0.029 A 
ATOM     54  C   UNL A   1      42.545  29.019  33.970  1.00  0.00     0.049 A 
ATOM     55  H   UNL A   1      41.153  29.541  32.475  1.00  0.00     0.167 HD
ATOM     56  C   UNL A   1      43.312  27.747  31.984  1.00  0.00     0.074 A 
ATOM     57  C   UNL A   1      44.210  26.840  31.301  1.00  0.00     0.031 C 
ATOM     58  C   UNL A   1      43.417  28.088  33.292  1.00  0.00     0.034 A 
BRANCH  45  59
ATOM     59  C   UNL A   1      39.108  32.052  35.278  1.00  0.00     0.023 A 
ATOM     60  C   UNL A   1      39.569  33.364  35.495  1.00  0.00     0.031 A 
ATOM     61  C   UNL A   1      38.255  31.485  36.245  1.00  0.00     0.131 A 
ATOM     62  C   UNL A   1      39.211  34.046  36.665  1.00  0.00     0.055 A 
ATOM     63  C   UNL A   1      37.854  32.191  37.381  1.00  0.00     0.041 A 
ATOM     64  F   UNL A   1      37.791  30.233  36.098  1.00  0.00    -0.206 F 
ATOM     65  C   UNL A   1      38.347  33.472  37.602  1.00  0.00     0.022 A 
BRANCH  62  66
ATOM     66  S   UNL A   1      39.919  35.669  37.063  1.00  0.00     0.124 S 
ATOM     67  O   UNL A   1      39.157  36.047  38.251  1.00  0.00    -0.237 OA
ATOM     68  O   UNL A   1      41.321  35.338  37.302  1.00  0.00    -0.237 OA
ATOM     69  O   UNL A   1      39.652  36.470  35.873  1.00  0.00    -0.744 OA
ENDBRANCH  62  66
ENDBRANCH  45  59
BRANCH  46  70
ATOM     70  C   UNL A   1      42.490  26.840  27.403  1.00  0.00     0.023 A 
ATOM     71  C   UNL A   1      42.245  25.456  27.329  1.00  0.00     0.031 A 
ATOM     72  C   UNL A   1      43.297  27.417  26.408  1.00  0.00     0.131 A 
ATOM     73  C   UNL A   1      42.863  24.689  26.331  1.00  0.00     0.055 A 
ATOM     74  C   UNL A   1      43.843  26.663  25.366  1.00  0.00     0.041 A 
ATOM     75  F   UNL A   1      43.580  28.730  26.442  1.00  0.00    -0.206 F 
ATOM     76  C   UNL A   1      43.643  25.287  25.337  1.00  0.00     0.022 A 
BRANCH  73  77
ATOM     77  S   UNL A   1      42.802  22.877  26.382  1.00  0.00     0.124 S 
ATOM     78  O   UNL A   1      44.082  22.546  26.999  1.00  0.00    -0.237 OA
ATOM     79  O   UNL A   1      41.621  22.642  27.211  1.00  0.00    -0.237 OA
ATOM     80  O   UNL A   1      42.659  22.498  24.980  1.00  0.00    -0.744 OA
ENDBRANCH  73  77
ENDBRANCH  46  70
BRANCH  58  81
ATOM     81  C   UNL A   1      44.517  27.471  34.125  1.00  0.00     0.023 A 
ATOM     82  C   UNL A   1      44.303  26.224  34.744  1.00  0.00     0.031 A 
ATOM     83  C   UNL A   1      45.685  28.182  34.449  1.00  0.00     0.131 A 
ATOM     84  C   UNL A   1      45.216  25.749  35.693  1.00  0.00     0.055 A 
ATOM     85  C   UNL A   1      46.623  27.676  35.350  1.00  0.00     0.041 A 
ATOM     86  F   UNL A   1      45.927  29.384  33.901  1.00  0.00    -0.206 F 
ATOM     87  C   UNL A   1      46.380  26.463  35.991  1.00  0.00     0.022 A 
BRANCH  84  88
ATOM     88  S   UNL A   1      44.867  24.254  36.658  1.00  0.00     0.124 S 
ATOM     89  O   UNL A   1      44.576  24.809  37.978  1.00  0.00    -0.237 OA
ATOM     90  O   UNL A   1      43.718  23.693  35.951  1.00  0.00    -0.237 OA
ATOM     91  O   UNL A   1      46.099  23.479  36.567  1.00  0.00    -0.744 OA
ENDBRANCH  84  88
ENDBRANCH  58  81
ENDBRANCH  32  33
ENDBRANCH  25  27
ENDBRANCH  24  25
ENDBRANCH   1  24
TORSDOF 17
ENDMDL
