MODEL 1
REMARK VINA RESULT:     -12.7      0.000      0.000
REMARK SMILES O=C(OCCOC(=O)c1cc2c(C(F)(F)F)onc2c2ccccc12)c1ccc(-c2c3nc(c(-c4cc(S(=O)(=O)[O-])ccc4F)c4ccc([nH]4)c(-c4cc(S(=O)(=O)[O-])ccc4F)c4nc(c(-c5cc(S(=O)(=O)[O-])ccc5F)c5ccc2[nH]5)C=C4)C=C3)cc1
REMARK SMILES IDX 4 1 3 2 2 3 1 4 26 5 27 6 88 7 28 8 87 9 29 10 30 11 31 12
REMARK SMILES IDX 81 13 32 14 86 15 80 16 82 17 33 18 85 19 79 20 78 21 34 23
REMARK SMILES IDX 66 24 46 25 65 26 47 27 50 28 64 29 83 30 48 31 49 32 63 34
REMARK SMILES IDX 84 35 51 36 35 37 36 38 44 39 37 40 43 41 45 42 42 43 38 44
REMARK SMILES IDX 39 45 40 46 41 47 67 48 68 49 76 50 69 51 75 52 77 53 74 54
REMARK SMILES IDX 70 55 71 56 72 57 73 58 52 59 53 60 61 61 54 62 60 63 62 64
REMARK SMILES IDX 59 65 55 66 56 67 57 68 58 69 5 70 6 71 7 72 8 73 9 74 10 75
REMARK SMILES IDX 25 76 11 77 20 78 24 79 12 80 19 81 21 82 23 83 17 84 18 85
REMARK SMILES IDX 22 86 13 87 14 88 15 89 16 90
REMARK H PARENT 82 22 50 33
REMARK Flexibility Score: inf
ROOT
ATOM      1  C   UNL A   1      33.676  31.162  27.759  1.00  0.00     0.275 C 
ENDROOT
BRANCH   1   2
ATOM      2  O   UNL A   1      35.004  31.620  27.391  1.00  0.00    -0.458 OA
BRANCH   2   3
ATOM      3  C   UNL A   1      35.935  32.179  28.217  1.00  0.00     0.338 C 
ATOM      4  O   UNL A   1      36.151  33.386  28.217  1.00  0.00    -0.246 OA
BRANCH   3   5
ATOM      5  C   UNL A   1      36.827  31.262  28.949  1.00  0.00     0.060 A 
ATOM      6  C   UNL A   1      37.944  31.844  29.536  1.00  0.00     0.016 A 
ATOM      7  C   UNL A   1      36.721  29.873  28.835  1.00  0.00     0.016 A 
ATOM      8  C   UNL A   1      39.074  31.063  29.684  1.00  0.00     0.010 A 
ATOM      9  C   UNL A   1      37.866  29.097  28.969  1.00  0.00     0.010 A 
ATOM     10  C   UNL A   1      39.073  29.720  29.268  1.00  0.00    -0.014 A 
BRANCH  10  11
ATOM     11  C   UNL A   1      40.354  29.000  29.343  1.00  0.00     0.031 A 
ATOM     12  C   UNL A   1      40.749  28.739  30.751  1.00  0.00     0.074 A 
ATOM     13  C   UNL A   1      41.079  28.565  28.289  1.00  0.00     0.049 A 
ATOM     14  N   UNL A   1      41.825  29.111  31.366  1.00  0.00    -0.248 NA
ATOM     15  C   UNL A   1      39.706  28.179  31.630  1.00  0.00     0.031 C 
ATOM     16  C   UNL A   1      40.678  28.575  26.880  1.00  0.00     0.029 A 
ATOM     17  N   UNL A   1      42.285  27.910  28.247  1.00  0.00    -0.354 N 
ATOM     18  C   UNL A   1      41.659  28.670  32.675  1.00  0.00     0.074 A 
ATOM     19  C   UNL A   1      40.270  28.319  32.826  1.00  0.00     0.031 C 
ATOM     20  C   UNL A   1      41.471  27.738  26.177  1.00  0.00     0.029 A 
ATOM     21  C   UNL A   1      42.496  27.215  27.059  1.00  0.00     0.049 A 
ATOM     22  H   UNL A   1      42.935  27.927  28.986  1.00  0.00     0.167 HD
ATOM     23  C   UNL A   1      42.714  28.329  33.460  1.00  0.00     0.034 A 
ATOM     24  C   UNL A   1      43.358  26.189  26.840  1.00  0.00     0.034 A 
ATOM     25  C   UNL A   1      43.958  28.830  32.960  1.00  0.00     0.049 A 
ATOM     26  C   UNL A   1      44.411  26.226  27.876  1.00  0.00     0.074 A 
ATOM     27  C   UNL A   1      44.729  29.955  33.128  1.00  0.00     0.029 A 
ATOM     28  N   UNL A   1      44.430  28.167  31.860  1.00  0.00    -0.354 N 
ATOM     29  N   UNL A   1      45.316  27.160  27.952  1.00  0.00    -0.248 NA
ATOM     30  C   UNL A   1      44.267  25.392  29.067  1.00  0.00     0.031 C 
ATOM     31  C   UNL A   1      45.612  30.007  32.011  1.00  0.00     0.029 A 
ATOM     32  C   UNL A   1      45.391  28.890  31.208  1.00  0.00     0.049 A 
ATOM     33  H   UNL A   1      44.117  27.278  31.574  1.00  0.00     0.167 HD
ATOM     34  C   UNL A   1      45.514  27.319  29.307  1.00  0.00     0.074 A 
ATOM     35  C   UNL A   1      45.005  26.100  29.926  1.00  0.00     0.031 C 
ATOM     36  C   UNL A   1      45.764  28.544  29.850  1.00  0.00     0.034 A 
BRANCH  23  37
ATOM     37  C   UNL A   1      42.646  27.163  34.412  1.00  0.00     0.023 A 
ATOM     38  C   UNL A   1      43.404  25.993  34.199  1.00  0.00     0.031 A 
ATOM     39  C   UNL A   1      42.013  27.266  35.660  1.00  0.00     0.131 A 
ATOM     40  C   UNL A   1      43.451  24.958  35.133  1.00  0.00     0.055 A 
ATOM     41  C   UNL A   1      42.131  26.266  36.637  1.00  0.00     0.041 A 
ATOM     42  F   UNL A   1      41.299  28.356  35.983  1.00  0.00    -0.206 F 
ATOM     43  C   UNL A   1      42.841  25.097  36.371  1.00  0.00     0.022 A 
BRANCH  40  44
ATOM     44  S   UNL A   1      44.299  23.409  34.717  1.00  0.00     0.124 S 
ATOM     45  O   UNL A   1      44.545  22.837  36.036  1.00  0.00    -0.237 OA
ATOM     46  O   UNL A   1      43.292  22.730  33.905  1.00  0.00    -0.237 OA
ATOM     47  O   UNL A   1      45.481  23.853  33.984  1.00  0.00    -0.744 OA
ENDBRANCH  40  44
ENDBRANCH  23  37
BRANCH  24  48
ATOM     48  C   UNL A   1      43.052  24.944  26.087  1.00  0.00     0.023 A 
ATOM     49  C   UNL A   1      41.989  24.125  26.507  1.00  0.00     0.031 A 
ATOM     50  C   UNL A   1      43.966  24.386  25.175  1.00  0.00     0.131 A 
ATOM     51  C   UNL A   1      41.894  22.793  26.086  1.00  0.00     0.055 A 
ATOM     52  C   UNL A   1      43.863  23.056  24.741  1.00  0.00     0.041 A 
ATOM     53  F   UNL A   1      45.023  25.094  24.749  1.00  0.00    -0.206 F 
ATOM     54  C   UNL A   1      42.832  22.247  25.211  1.00  0.00     0.022 A 
BRANCH  51  55
ATOM     55  S   UNL A   1      40.595  21.725  26.764  1.00  0.00     0.124 S 
ATOM     56  O   UNL A   1      40.830  20.468  26.059  1.00  0.00    -0.237 OA
ATOM     57  O   UNL A   1      40.925  21.725  28.184  1.00  0.00    -0.237 OA
ATOM     58  O   UNL A   1      39.360  22.415  26.398  1.00  0.00    -0.744 OA
ENDBRANCH  51  55
ENDBRANCH  24  48
BRANCH  36  59
ATOM     59  C   UNL A   1      46.288  29.637  28.960  1.00  0.00     0.023 A 
ATOM     60  C   UNL A   1      45.336  30.475  28.361  1.00  0.00     0.031 A 
ATOM     61  C   UNL A   1      47.630  29.789  28.569  1.00  0.00     0.131 A 
ATOM     62  C   UNL A   1      45.713  31.375  27.360  1.00  0.00     0.055 A 
ATOM     63  C   UNL A   1      48.017  30.754  27.633  1.00  0.00     0.041 A 
ATOM     64  F   UNL A   1      48.589  28.967  29.017  1.00  0.00    -0.206 F 
ATOM     65  C   UNL A   1      47.053  31.537  27.006  1.00  0.00     0.022 A 
BRANCH  62  66
ATOM     66  S   UNL A   1      44.443  32.217  26.382  1.00  0.00     0.124 S 
ATOM     67  O   UNL A   1      44.031  33.296  27.272  1.00  0.00    -0.237 OA
ATOM     68  O   UNL A   1      45.192  32.632  25.195  1.00  0.00    -0.237 OA
ATOM     69  O   UNL A   1      43.441  31.182  26.142  1.00  0.00    -0.744 OA
ENDBRANCH  62  66
ENDBRANCH  36  59
ENDBRANCH  10  11
ENDBRANCH   3   5
ENDBRANCH   2   3
ENDBRANCH   1   2
BRANCH   1  70
ATOM     70  C   UNL A   1      33.030  30.094  26.863  1.00  0.00     0.275 C 
BRANCH  70  71
ATOM     71  O   UNL A   1      33.514  28.771  27.111  1.00  0.00    -0.458 OA
BRANCH  71  72
ATOM     72  C   UNL A   1      32.641  27.751  27.009  1.00  0.00     0.338 C 
ATOM     73  O   UNL A   1      31.673  27.528  27.725  1.00  0.00    -0.246 OA
BRANCH  72  74
ATOM     74  C   UNL A   1      32.874  27.081  25.710  1.00  0.00     0.068 A 
ATOM     75  C   UNL A   1      33.903  26.103  25.773  1.00  0.00     0.030 A 
ATOM     76  C   UNL A   1      32.063  27.376  24.535  1.00  0.00    -0.002 A 
ATOM     77  C   UNL A   1      34.053  25.443  24.562  1.00  0.00     0.056 A 
ATOM     78  C   UNL A   1      32.261  26.635  23.321  1.00  0.00     0.012 A 
ATOM     79  C   UNL A   1      31.029  28.340  24.487  1.00  0.00     0.010 A 
ATOM     80  C   UNL A   1      34.940  24.441  24.284  1.00  0.00     0.248 A 
ATOM     81  C   UNL A   1      33.297  25.660  23.356  1.00  0.00     0.122 A 
ATOM     82  C   UNL A   1      31.471  26.820  22.171  1.00  0.00     0.011 A 
ATOM     83  C   UNL A   1      30.231  28.514  23.343  1.00  0.00     0.001 A 
ATOM     84  O   UNL A   1      34.763  24.072  22.985  1.00  0.00    -0.350 OA
ATOM     85  N   UNL A   1      33.749  24.812  22.412  1.00  0.00    -0.079 NA
ATOM     86  C   UNL A   1      30.447  27.754  22.195  1.00  0.00     0.001 A 
BRANCH  80  87
ATOM     87  C   UNL A   1      35.995  23.726  25.012  1.00  0.00     0.453 C 
ATOM     88  F   UNL A   1      36.617  24.505  25.934  1.00  0.00    -0.163 F 
ATOM     89  F   UNL A   1      35.498  22.654  25.687  1.00  0.00    -0.163 F 
ATOM     90  F   UNL A   1      36.965  23.244  24.193  1.00  0.00    -0.163 F 
ENDBRANCH  80  87
ENDBRANCH  72  74
ENDBRANCH  71  72
ENDBRANCH  70  71
ENDBRANCH   1  70
TORSDOF 15
ENDMDL
MODEL 2
REMARK VINA RESULT:     -12.7      3.268      8.946
REMARK SMILES O=C(OCCOC(=O)c1cc2c(C(F)(F)F)onc2c2ccccc12)c1ccc(-c2c3nc(c(-c4cc(S(=O)(=O)[O-])ccc4F)c4ccc([nH]4)c(-c4cc(S(=O)(=O)[O-])ccc4F)c4nc(c(-c5cc(S(=O)(=O)[O-])ccc5F)c5ccc2[nH]5)C=C4)C=C3)cc1
REMARK SMILES IDX 4 1 3 2 2 3 1 4 26 5 27 6 88 7 28 8 87 9 29 10 30 11 31 12
REMARK SMILES IDX 81 13 32 14 86 15 80 16 82 17 33 18 85 19 79 20 78 21 34 23
REMARK SMILES IDX 66 24 46 25 65 26 47 27 50 28 64 29 83 30 48 31 49 32 63 34
REMARK SMILES IDX 84 35 51 36 35 37 36 38 44 39 37 40 43 41 45 42 42 43 38 44
REMARK SMILES IDX 39 45 40 46 41 47 67 48 68 49 76 50 69 51 75 52 77 53 74 54
REMARK SMILES IDX 70 55 71 56 72 57 73 58 52 59 53 60 61 61 54 62 60 63 62 64
REMARK SMILES IDX 59 65 55 66 56 67 57 68 58 69 5 70 6 71 7 72 8 73 9 74 10 75
REMARK SMILES IDX 25 76 11 77 20 78 24 79 12 80 19 81 21 82 23 83 17 84 18 85
REMARK SMILES IDX 22 86 13 87 14 88 15 89 16 90
REMARK H PARENT 82 22 50 33
REMARK Flexibility Score: inf
ROOT
ATOM      1  C   UNL A   1      39.319  21.503  25.848  1.00  0.00     0.275 C 
ENDROOT
BRANCH   1   2
ATOM      2  O   UNL A   1      39.521  22.323  27.030  1.00  0.00    -0.458 OA
BRANCH   2   3
ATOM      3  C   UNL A   1      40.708  22.806  27.497  1.00  0.00     0.338 C 
ATOM      4  O   UNL A   1      41.504  22.088  28.092  1.00  0.00    -0.246 OA
BRANCH   3   5
ATOM      5  C   UNL A   1      40.905  24.267  27.460  1.00  0.00     0.060 A 
ATOM      6  C   UNL A   1      42.047  24.740  28.095  1.00  0.00     0.016 A 
ATOM      7  C   UNL A   1      39.892  25.143  27.062  1.00  0.00     0.016 A 
ATOM      8  C   UNL A   1      42.006  26.014  28.627  1.00  0.00     0.010 A 
ATOM      9  C   UNL A   1      39.848  26.418  27.616  1.00  0.00     0.010 A 
ATOM     10  C   UNL A   1      40.847  26.802  28.505  1.00  0.00    -0.014 A 
BRANCH  10  11
ATOM     11  C   UNL A   1      40.844  28.093  29.210  1.00  0.00     0.031 A 
ATOM     12  C   UNL A   1      41.868  29.016  28.658  1.00  0.00     0.074 A 
ATOM     13  C   UNL A   1      39.996  28.451  30.200  1.00  0.00     0.049 A 
ATOM     14  N   UNL A   1      42.857  29.578  29.273  1.00  0.00    -0.248 NA
ATOM     15  C   UNL A   1      41.907  29.148  27.190  1.00  0.00     0.031 C 
ATOM     16  C   UNL A   1      38.821  27.709  30.665  1.00  0.00     0.029 A 
ATOM     17  N   UNL A   1      39.921  29.609  30.933  1.00  0.00    -0.354 N 
ATOM     18  C   UNL A   1      43.542  30.278  28.284  1.00  0.00     0.074 A 
ATOM     19  C   UNL A   1      43.055  29.796  27.018  1.00  0.00     0.031 C 
ATOM     20  C   UNL A   1      38.022  28.527  31.381  1.00  0.00     0.029 A 
ATOM     21  C   UNL A   1      38.672  29.816  31.515  1.00  0.00     0.049 A 
ATOM     22  H   UNL A   1      40.675  30.233  31.035  1.00  0.00     0.167 HD
ATOM     23  C   UNL A   1      44.235  31.416  28.554  1.00  0.00     0.034 A 
ATOM     24  C   UNL A   1      38.148  30.988  31.957  1.00  0.00     0.034 A 
ATOM     25  C   UNL A   1      44.504  31.579  29.950  1.00  0.00     0.049 A 
ATOM     26  C   UNL A   1      39.253  31.934  32.213  1.00  0.00     0.074 A 
ATOM     27  C   UNL A   1      45.513  31.251  30.824  1.00  0.00     0.029 A 
ATOM     28  N   UNL A   1      43.416  31.944  30.694  1.00  0.00    -0.354 N 
ATOM     29  N   UNL A   1      40.117  31.791  33.177  1.00  0.00    -0.248 NA
ATOM     30  C   UNL A   1      39.622  32.894  31.176  1.00  0.00     0.031 C 
ATOM     31  C   UNL A   1      44.948  31.318  32.131  1.00  0.00     0.029 A 
ATOM     32  C   UNL A   1      43.621  31.726  32.029  1.00  0.00     0.049 A 
ATOM     33  H   UNL A   1      42.587  32.317  30.315  1.00  0.00     0.167 HD
ATOM     34  C   UNL A   1      41.292  32.274  32.641  1.00  0.00     0.074 A 
ATOM     35  C   UNL A   1      40.898  33.103  31.508  1.00  0.00     0.031 C 
ATOM     36  C   UNL A   1      42.495  31.708  32.943  1.00  0.00     0.034 A 
BRANCH  23  37
ATOM     37  C   UNL A   1      44.250  32.578  27.594  1.00  0.00     0.023 A 
ATOM     38  C   UNL A   1      43.644  33.809  27.921  1.00  0.00     0.031 A 
ATOM     39  C   UNL A   1      45.051  32.573  26.443  1.00  0.00     0.131 A 
ATOM     40  C   UNL A   1      43.757  34.933  27.101  1.00  0.00     0.055 A 
ATOM     41  C   UNL A   1      45.238  33.725  25.664  1.00  0.00     0.041 A 
ATOM     42  F   UNL A   1      45.706  31.465  26.063  1.00  0.00    -0.206 F 
ATOM     43  C   UNL A   1      44.579  34.910  25.983  1.00  0.00     0.022 A 
BRANCH  40  44
ATOM     44  S   UNL A   1      42.806  36.428  27.489  1.00  0.00     0.124 S 
ATOM     45  O   UNL A   1      43.381  37.398  26.563  1.00  0.00    -0.237 OA
ATOM     46  O   UNL A   1      41.442  35.995  27.193  1.00  0.00    -0.237 OA
ATOM     47  O   UNL A   1      43.086  36.653  28.904  1.00  0.00    -0.744 OA
ENDBRANCH  40  44
ENDBRANCH  23  37
BRANCH  24  48
ATOM     48  C   UNL A   1      36.758  31.460  31.720  1.00  0.00     0.023 A 
ATOM     49  C   UNL A   1      36.266  31.534  30.405  1.00  0.00     0.031 A 
ATOM     50  C   UNL A   1      36.025  32.134  32.713  1.00  0.00     0.131 A 
ATOM     51  C   UNL A   1      35.139  32.305  30.098  1.00  0.00     0.055 A 
ATOM     52  C   UNL A   1      34.886  32.894  32.409  1.00  0.00     0.041 A 
ATOM     53  F   UNL A   1      36.444  32.134  33.989  1.00  0.00    -0.206 F 
ATOM     54  C   UNL A   1      34.448  32.996  31.092  1.00  0.00     0.022 A 
BRANCH  51  55
ATOM     55  S   UNL A   1      34.623  32.496  28.369  1.00  0.00     0.124 S 
ATOM     56  O   UNL A   1      35.870  32.883  27.716  1.00  0.00    -0.237 OA
ATOM     57  O   UNL A   1      34.135  31.158  28.058  1.00  0.00    -0.237 OA
ATOM     58  O   UNL A   1      33.608  33.545  28.431  1.00  0.00    -0.744 OA
ENDBRANCH  51  55
ENDBRANCH  24  48
BRANCH  36  59
ATOM     59  C   UNL A   1      42.614  30.883  34.195  1.00  0.00     0.023 A 
ATOM     60  C   UNL A   1      42.380  29.505  34.069  1.00  0.00     0.031 A 
ATOM     61  C   UNL A   1      42.791  31.399  35.491  1.00  0.00     0.131 A 
ATOM     62  C   UNL A   1      42.259  28.700  35.204  1.00  0.00     0.055 A 
ATOM     63  C   UNL A   1      42.761  30.574  36.620  1.00  0.00     0.041 A 
ATOM     64  F   UNL A   1      42.923  32.714  35.710  1.00  0.00    -0.206 F 
ATOM     65  C   UNL A   1      42.471  29.220  36.481  1.00  0.00     0.022 A 
BRANCH  62  66
ATOM     66  S   UNL A   1      41.650  27.002  35.042  1.00  0.00     0.124 S 
ATOM     67  O   UNL A   1      40.551  27.157  34.095  1.00  0.00    -0.237 OA
ATOM     68  O   UNL A   1      42.826  26.299  34.533  1.00  0.00    -0.237 OA
ATOM     69  O   UNL A   1      41.260  26.639  36.403  1.00  0.00    -0.744 OA
ENDBRANCH  62  66
ENDBRANCH  36  59
ENDBRANCH  10  11
ENDBRANCH   3   5
ENDBRANCH   2   3
ENDBRANCH   1   2
BRANCH   1  70
ATOM     70  C   UNL A   1      37.915  21.512  25.221  1.00  0.00     0.275 C 
BRANCH  70  71
ATOM     71  O   UNL A   1      37.369  22.824  25.062  1.00  0.00    -0.458 OA
BRANCH  71  72
ATOM     72  C   UNL A   1      36.578  23.053  23.995  1.00  0.00     0.338 C 
ATOM     73  O   UNL A   1      36.929  23.225  22.834  1.00  0.00    -0.246 OA
BRANCH  72  74
ATOM     74  C   UNL A   1      35.181  22.787  24.400  1.00  0.00     0.068 A 
ATOM     75  C   UNL A   1      34.814  21.423  24.243  1.00  0.00     0.030 A 
ATOM     76  C   UNL A   1      34.329  23.829  24.959  1.00  0.00    -0.002 A 
ATOM     77  C   UNL A   1      33.523  21.188  24.693  1.00  0.00     0.056 A 
ATOM     78  C   UNL A   1      33.009  23.506  25.426  1.00  0.00     0.012 A 
ATOM     79  C   UNL A   1      34.709  25.181  25.127  1.00  0.00     0.010 A 
ATOM     80  C   UNL A   1      32.867  19.989  24.699  1.00  0.00     0.248 A 
ATOM     81  C   UNL A   1      32.614  22.148  25.265  1.00  0.00     0.122 A 
ATOM     82  C   UNL A   1      32.159  24.446  26.038  1.00  0.00     0.011 A 
ATOM     83  C   UNL A   1      33.865  26.117  25.751  1.00  0.00     0.001 A 
ATOM     84  O   UNL A   1      31.625  20.192  25.220  1.00  0.00    -0.350 OA
ATOM     85  N   UNL A   1      31.467  21.515  25.577  1.00  0.00    -0.079 NA
ATOM     86  C   UNL A   1      32.601  25.749  26.210  1.00  0.00     0.001 A 
BRANCH  80  87
ATOM     87  C   UNL A   1      33.164  18.616  24.276  1.00  0.00     0.453 C 
ATOM     88  F   UNL A   1      34.460  18.270  24.489  1.00  0.00    -0.163 F 
ATOM     89  F   UNL A   1      32.409  17.709  24.953  1.00  0.00    -0.163 F 
ATOM     90  F   UNL A   1      32.919  18.406  22.957  1.00  0.00    -0.163 F 
ENDBRANCH  80  87
ENDBRANCH  72  74
ENDBRANCH  71  72
ENDBRANCH  70  71
ENDBRANCH   1  70
TORSDOF 15
ENDMDL
MODEL 3
REMARK VINA RESULT:     -12.5      2.100      2.805
REMARK SMILES O=C(OCCOC(=O)c1cc2c(C(F)(F)F)onc2c2ccccc12)c1ccc(-c2c3nc(c(-c4cc(S(=O)(=O)[O-])ccc4F)c4ccc([nH]4)c(-c4cc(S(=O)(=O)[O-])ccc4F)c4nc(c(-c5cc(S(=O)(=O)[O-])ccc5F)c5ccc2[nH]5)C=C4)C=C3)cc1
REMARK SMILES IDX 4 1 3 2 2 3 1 4 26 5 27 6 88 7 28 8 87 9 29 10 30 11 31 12
REMARK SMILES IDX 81 13 32 14 86 15 80 16 82 17 33 18 85 19 79 20 78 21 34 23
REMARK SMILES IDX 66 24 46 25 65 26 47 27 50 28 64 29 83 30 48 31 49 32 63 34
REMARK SMILES IDX 84 35 51 36 35 37 36 38 44 39 37 40 43 41 45 42 42 43 38 44
REMARK SMILES IDX 39 45 40 46 41 47 67 48 68 49 76 50 69 51 75 52 77 53 74 54
REMARK SMILES IDX 70 55 71 56 72 57 73 58 52 59 53 60 61 61 54 62 60 63 62 64
REMARK SMILES IDX 59 65 55 66 56 67 57 68 58 69 5 70 6 71 7 72 8 73 9 74 10 75
REMARK SMILES IDX 25 76 11 77 20 78 24 79 12 80 19 81 21 82 23 83 17 84 18 85
REMARK SMILES IDX 22 86 13 87 14 88 15 89 16 90
REMARK H PARENT 82 22 50 33
REMARK Flexibility Score: inf
ROOT
ATOM      1  C   UNL A   1      33.898  31.447  27.212  1.00  0.00     0.275 C 
ENDROOT
BRANCH   1   2
ATOM      2  O   UNL A   1      34.599  31.689  28.460  1.00  0.00    -0.458 OA
BRANCH   2   3
ATOM      3  C   UNL A   1      35.895  32.092  28.606  1.00  0.00     0.338 C 
ATOM      4  O   UNL A   1      36.330  33.078  28.021  1.00  0.00    -0.246 OA
BRANCH   3   5
ATOM      5  C   UNL A   1      36.811  31.180  29.315  1.00  0.00     0.060 A 
ATOM      6  C   UNL A   1      37.958  31.763  29.839  1.00  0.00     0.016 A 
ATOM      7  C   UNL A   1      36.686  29.791  29.234  1.00  0.00     0.016 A 
ATOM      8  C   UNL A   1      39.087  30.973  29.952  1.00  0.00     0.010 A 
ATOM      9  C   UNL A   1      37.829  29.006  29.331  1.00  0.00     0.010 A 
ATOM     10  C   UNL A   1      39.055  29.622  29.563  1.00  0.00    -0.014 A 
BRANCH  10  11
ATOM     11  C   UNL A   1      40.331  28.891  29.594  1.00  0.00     0.031 A 
ATOM     12  C   UNL A   1      40.757  28.603  30.987  1.00  0.00     0.074 A 
ATOM     13  C   UNL A   1      41.027  28.469  28.515  1.00  0.00     0.049 A 
ATOM     14  N   UNL A   1      41.851  28.955  31.582  1.00  0.00    -0.248 NA
ATOM     15  C   UNL A   1      39.732  28.035  31.881  1.00  0.00     0.031 C 
ATOM     16  C   UNL A   1      40.592  28.507  27.117  1.00  0.00     0.029 A 
ATOM     17  N   UNL A   1      42.225  27.805  28.433  1.00  0.00    -0.354 N 
ATOM     18  C   UNL A   1      41.713  28.493  32.887  1.00  0.00     0.074 A 
ATOM     19  C   UNL A   1      40.326  28.149  33.065  1.00  0.00     0.031 C 
ATOM     20  C   UNL A   1      41.360  27.677  26.380  1.00  0.00     0.029 A 
ATOM     21  C   UNL A   1      42.402  27.130  27.227  1.00  0.00     0.049 A 
ATOM     22  H   UNL A   1      42.894  27.805  29.155  1.00  0.00     0.167 HD
ATOM     23  C   UNL A   1      42.784  28.129  33.640  1.00  0.00     0.034 A 
ATOM     24  C   UNL A   1      43.250  26.101  26.970  1.00  0.00     0.034 A 
ATOM     25  C   UNL A   1      44.020  28.629  33.118  1.00  0.00     0.049 A 
ATOM     26  C   UNL A   1      44.328  26.112  27.980  1.00  0.00     0.074 A 
ATOM     27  C   UNL A   1      44.804  29.745  33.287  1.00  0.00     0.029 A 
ATOM     28  N   UNL A   1      44.459  27.981  31.996  1.00  0.00    -0.354 N 
ATOM     29  N   UNL A   1      45.242  27.037  28.051  1.00  0.00    -0.248 NA
ATOM     30  C   UNL A   1      44.206  25.258  29.159  1.00  0.00     0.031 C 
ATOM     31  C   UNL A   1      45.660  29.809  32.150  1.00  0.00     0.029 A 
ATOM     32  C   UNL A   1      45.410  28.709  31.333  1.00  0.00     0.049 A 
ATOM     33  H   UNL A   1      44.132  27.100  31.702  1.00  0.00     0.167 HD
ATOM     34  C   UNL A   1      45.474  27.170  29.403  1.00  0.00     0.074 A 
ATOM     35  C   UNL A   1      44.970  25.945  30.012  1.00  0.00     0.031 C 
ATOM     36  C   UNL A   1      45.747  28.384  29.961  1.00  0.00     0.034 A 
BRANCH  23  37
ATOM     37  C   UNL A   1      42.729  26.947  34.573  1.00  0.00     0.023 A 
ATOM     38  C   UNL A   1      43.521  25.800  34.355  1.00  0.00     0.031 A 
ATOM     39  C   UNL A   1      42.073  27.015  35.811  1.00  0.00     0.131 A 
ATOM     40  C   UNL A   1      43.578  24.752  35.274  1.00  0.00     0.055 A 
ATOM     41  C   UNL A   1      42.199  26.002  36.775  1.00  0.00     0.041 A 
ATOM     42  F   UNL A   1      41.325  28.080  36.138  1.00  0.00    -0.206 F 
ATOM     43  C   UNL A   1      42.944  24.857  36.504  1.00  0.00     0.022 A 
BRANCH  40  44
ATOM     44  S   UNL A   1      44.473  23.232  34.850  1.00  0.00     0.124 S 
ATOM     45  O   UNL A   1      44.889  22.752  36.163  1.00  0.00    -0.237 OA
ATOM     46  O   UNL A   1      43.431  22.452  34.187  1.00  0.00    -0.237 OA
ATOM     47  O   UNL A   1      45.542  23.699  33.973  1.00  0.00    -0.744 OA
ENDBRANCH  40  44
ENDBRANCH  23  37
BRANCH  24  48
ATOM     48  C   UNL A   1      42.915  24.872  26.203  1.00  0.00     0.023 A 
ATOM     49  C   UNL A   1      41.891  24.026  26.663  1.00  0.00     0.031 A 
ATOM     50  C   UNL A   1      43.779  24.352  25.223  1.00  0.00     0.131 A 
ATOM     51  C   UNL A   1      41.788  22.705  26.213  1.00  0.00     0.055 A 
ATOM     52  C   UNL A   1      43.668  23.033  24.759  1.00  0.00     0.041 A 
ATOM     53  F   UNL A   1      44.799  25.088  24.753  1.00  0.00    -0.206 F 
ATOM     54  C   UNL A   1      42.679  22.197  25.268  1.00  0.00     0.022 A 
BRANCH  51  55
ATOM     55  S   UNL A   1      40.547  21.600  26.939  1.00  0.00     0.124 S 
ATOM     56  O   UNL A   1      39.296  22.186  26.462  1.00  0.00    -0.237 OA
ATOM     57  O   UNL A   1      40.911  20.319  26.347  1.00  0.00    -0.237 OA
ATOM     58  O   UNL A   1      40.778  21.726  28.376  1.00  0.00    -0.744 OA
ENDBRANCH  51  55
ENDBRANCH  24  48
BRANCH  36  59
ATOM     59  C   UNL A   1      46.259  29.488  29.078  1.00  0.00     0.023 A 
ATOM     60  C   UNL A   1      45.297  30.315  28.478  1.00  0.00     0.031 A 
ATOM     61  C   UNL A   1      47.600  29.661  28.692  1.00  0.00     0.131 A 
ATOM     62  C   UNL A   1      45.664  31.224  27.483  1.00  0.00     0.055 A 
ATOM     63  C   UNL A   1      47.977  30.636  27.762  1.00  0.00     0.041 A 
ATOM     64  F   UNL A   1      48.569  28.852  29.141  1.00  0.00    -0.206 F 
ATOM     65  C   UNL A   1      47.003  31.408  27.135  1.00  0.00     0.022 A 
BRANCH  62  66
ATOM     66  S   UNL A   1      44.386  32.052  26.503  1.00  0.00     0.124 S 
ATOM     67  O   UNL A   1      45.124  32.459  25.312  1.00  0.00    -0.237 OA
ATOM     68  O   UNL A   1      43.409  30.983  26.303  1.00  0.00    -0.237 OA
ATOM     69  O   UNL A   1      43.935  33.142  27.365  1.00  0.00    -0.744 OA
ENDBRANCH  62  66
ENDBRANCH  36  59
ENDBRANCH  10  11
ENDBRANCH   3   5
ENDBRANCH   2   3
ENDBRANCH   1   2
BRANCH   1  70
ATOM     70  C   UNL A   1      32.720  30.460  27.251  1.00  0.00     0.275 C 
BRANCH  70  71
ATOM     71  O   UNL A   1      33.121  29.089  27.200  1.00  0.00    -0.458 OA
BRANCH  71  72
ATOM     72  C   UNL A   1      32.156  28.150  27.167  1.00  0.00     0.338 C 
ATOM     73  O   UNL A   1      31.402  27.827  28.077  1.00  0.00    -0.246 OA
BRANCH  72  74
ATOM     74  C   UNL A   1      31.957  27.751  25.756  1.00  0.00     0.068 A 
ATOM     75  C   UNL A   1      31.014  28.572  25.081  1.00  0.00     0.030 A 
ATOM     76  C   UNL A   1      32.720  26.669  25.146  1.00  0.00    -0.002 A 
ATOM     77  C   UNL A   1      30.898  28.221  23.744  1.00  0.00     0.056 A 
ATOM     78  C   UNL A   1      32.563  26.378  23.749  1.00  0.00     0.012 A 
ATOM     79  C   UNL A   1      33.670  25.868  25.823  1.00  0.00     0.010 A 
ATOM     80  C   UNL A   1      30.092  28.814  22.812  1.00  0.00     0.248 A 
ATOM     81  C   UNL A   1      31.612  27.178  23.055  1.00  0.00     0.122 A 
ATOM     82  C   UNL A   1      33.315  25.393  23.080  1.00  0.00     0.011 A 
ATOM     83  C   UNL A   1      34.430  24.894  25.151  1.00  0.00     0.001 A 
ATOM     84  O   UNL A   1      30.277  28.169  21.627  1.00  0.00    -0.350 OA
ATOM     85  N   UNL A   1      31.215  27.168  21.769  1.00  0.00    -0.079 NA
ATOM     86  C   UNL A   1      34.259  24.664  23.788  1.00  0.00     0.001 A 
BRANCH  80  87
ATOM     87  C   UNL A   1      29.113  29.907  22.798  1.00  0.00     0.453 C 
ATOM     88  F   UNL A   1      29.003  30.498  21.581  1.00  0.00    -0.163 F 
ATOM     89  F   UNL A   1      27.868  29.467  23.126  1.00  0.00    -0.163 F 
ATOM     90  F   UNL A   1      29.413  30.893  23.683  1.00  0.00    -0.163 F 
ENDBRANCH  80  87
ENDBRANCH  72  74
ENDBRANCH  71  72
ENDBRANCH  70  71
ENDBRANCH   1  70
TORSDOF 15
ENDMDL
