MODEL 1
REMARK VINA RESULT:     -12.0      0.000      0.000
REMARK SMILES Cc1ccc([C@H](CC2CCCC2)C(=O)OCCOC(=O)c2ccc(-c3c4nc(c(-c5cc(S(=O)(=O)[O-])ccc5F)c5ccc([nH]5)c(-c5cc(S(=O)(=O)[O-])ccc5F)c5nc(c(-c6cc(S(=O)(=O)[O-])ccc6F)c6ccc3[nH]6)C=C5)C=C4)cc2)cc1
REMARK SMILES IDX 17 1 16 2 15 3 13 4 14 5 6 6 5 7 1 8 2 9 3 10 85 11 4 12
REMARK SMILES IDX 84 13 7 14 8 15 9 16 12 17 10 18 11 19 18 20 19 21 20 22
REMARK SMILES IDX 21 23 22 24 83 25 23 26 82 27 24 28 25 29 26 30 76 31 27 32
REMARK SMILES IDX 81 33 75 34 77 35 28 36 80 37 74 38 73 39 29 41 61 42 41 43
REMARK SMILES IDX 60 44 42 45 45 46 59 47 78 48 43 49 44 50 58 52 79 53 46 54
REMARK SMILES IDX 30 55 31 56 39 57 32 58 38 59 40 60 37 61 33 62 34 63 35 64
REMARK SMILES IDX 36 65 62 66 63 67 71 68 64 69 70 70 72 71 69 72 65 73 66 74
REMARK SMILES IDX 67 75 68 76 47 77 48 78 56 79 49 80 55 81 57 82 54 83 50 84
REMARK SMILES IDX 51 85 52 86 53 87
REMARK H PARENT 77 40 45 51
REMARK Flexibility Score: inf
ROOT
ATOM      1  C   UNL A   1      34.147  31.279  28.030  1.00  0.00     0.275 C 
ENDROOT
BRANCH   1   2
ATOM      2  C   UNL A   1      33.123  30.414  27.257  1.00  0.00     0.274 C 
BRANCH   2   3
ATOM      3  O   UNL A   1      33.414  29.049  26.850  1.00  0.00    -0.462 OA
BRANCH   3   4
ATOM      4  C   UNL A   1      32.356  28.190  26.945  1.00  0.00     0.313 C 
ATOM      5  O   UNL A   1      31.591  28.177  27.909  1.00  0.00    -0.252 OA
BRANCH   4   6
ATOM      6  C   UNL A   1      32.052  27.281  25.749  1.00  0.00     0.129 C 
BRANCH   6   7
ATOM      7  C   UNL A   1      31.136  27.718  24.591  1.00  0.00    -0.034 A 
ATOM      8  C   UNL A   1      27.671  29.324  22.493  1.00  0.00     0.044 C 
ATOM      9  C   UNL A   1      28.881  28.746  23.170  1.00  0.00    -0.051 A 
ATOM     10  C   UNL A   1      28.964  27.390  23.484  1.00  0.00     0.004 A 
ATOM     11  C   UNL A   1      29.998  29.537  23.434  1.00  0.00     0.004 A 
ATOM     12  C   UNL A   1      30.061  26.891  24.208  1.00  0.00     0.005 A 
ATOM     13  C   UNL A   1      31.135  29.001  24.067  1.00  0.00     0.005 A 
ENDBRANCH   6   7
BRANCH   6  14
ATOM     14  C   UNL A   1      31.687  25.827  26.129  1.00  0.00     0.023 C 
BRANCH  14  15
ATOM     15  C   UNL A   1      32.716  24.780  25.694  1.00  0.00    -0.010 C 
ATOM     16  C   UNL A   1      34.137  25.313  25.538  1.00  0.00     0.003 C 
ATOM     17  C   UNL A   1      32.927  23.698  26.757  1.00  0.00     0.003 C 
ATOM     18  C   UNL A   1      34.997  24.053  25.527  1.00  0.00     0.000 C 
ATOM     19  C   UNL A   1      34.222  23.012  26.336  1.00  0.00     0.000 C 
ENDBRANCH  14  15
ENDBRANCH   6  14
ENDBRANCH   4   6
ENDBRANCH   3   4
ENDBRANCH   2   3
ENDBRANCH   1   2
BRANCH   1  20
ATOM     20  O   UNL A   1      34.108  32.714  27.835  1.00  0.00    -0.458 OA
BRANCH  20  21
ATOM     21  C   UNL A   1      33.917  33.630  28.813  1.00  0.00     0.338 C 
ATOM     22  O   UNL A   1      32.866  34.248  28.957  1.00  0.00    -0.246 OA
BRANCH  21  23
ATOM     23  C   UNL A   1      35.098  33.950  29.624  1.00  0.00     0.060 A 
ATOM     24  C   UNL A   1      36.233  34.292  28.911  1.00  0.00     0.016 A 
ATOM     25  C   UNL A   1      35.180  33.522  30.947  1.00  0.00     0.016 A 
ATOM     26  C   UNL A   1      37.439  33.819  29.387  1.00  0.00     0.010 A 
ATOM     27  C   UNL A   1      36.389  33.000  31.380  1.00  0.00     0.010 A 
ATOM     28  C   UNL A   1      37.479  32.983  30.511  1.00  0.00    -0.014 A 
BRANCH  28  29
ATOM     29  C   UNL A   1      38.648  32.190  30.896  1.00  0.00     0.031 A 
ATOM     30  C   UNL A   1      38.730  30.779  30.423  1.00  0.00     0.074 A 
ATOM     31  C   UNL A   1      39.637  32.605  31.733  1.00  0.00     0.049 A 
ATOM     32  N   UNL A   1      39.395  29.825  30.993  1.00  0.00    -0.248 NA
ATOM     33  C   UNL A   1      37.906  30.313  29.301  1.00  0.00     0.031 C 
ATOM     34  C   UNL A   1      41.022  32.173  31.564  1.00  0.00     0.029 A 
ATOM     35  N   UNL A   1      39.698  33.461  32.841  1.00  0.00    -0.354 N 
ATOM     36  C   UNL A   1      39.344  28.761  30.123  1.00  0.00     0.074 A 
ATOM     37  C   UNL A   1      38.231  29.023  29.249  1.00  0.00     0.031 C 
ATOM     38  C   UNL A   1      41.767  32.637  32.573  1.00  0.00     0.029 A 
ATOM     39  C   UNL A   1      40.874  33.190  33.569  1.00  0.00     0.049 A 
ATOM     40  H   UNL A   1      39.026  34.142  33.074  1.00  0.00     0.167 HD
ATOM     41  C   UNL A   1      40.399  27.915  29.972  1.00  0.00     0.034 A 
ATOM     42  C   UNL A   1      40.975  32.928  34.910  1.00  0.00     0.034 A 
ATOM     43  C   UNL A   1      41.535  28.321  30.778  1.00  0.00     0.049 A 
ATOM     44  C   UNL A   1      41.680  31.626  35.236  1.00  0.00     0.074 A 
ATOM     45  C   UNL A   1      42.611  29.153  30.509  1.00  0.00     0.029 A 
ATOM     46  N   UNL A   1      41.537  28.107  32.139  1.00  0.00    -0.354 N 
ATOM     47  N   UNL A   1      41.991  30.751  34.326  1.00  0.00    -0.248 NA
ATOM     48  C   UNL A   1      41.979  31.144  36.585  1.00  0.00     0.031 C 
ATOM     49  C   UNL A   1      43.286  29.409  31.729  1.00  0.00     0.029 A 
ATOM     50  C   UNL A   1      42.636  28.705  32.723  1.00  0.00     0.049 A 
ATOM     51  H   UNL A   1      40.850  27.597  32.626  1.00  0.00     0.167 HD
ATOM     52  C   UNL A   1      42.480  29.618  34.911  1.00  0.00     0.074 A 
ATOM     53  C   UNL A   1      42.429  29.901  36.334  1.00  0.00     0.031 C 
ATOM     54  C   UNL A   1      42.844  28.544  34.150  1.00  0.00     0.034 A 
BRANCH  41  55
ATOM     55  C   UNL A   1      40.525  27.041  28.750  1.00  0.00     0.023 A 
ATOM     56  C   UNL A   1      41.552  27.308  27.828  1.00  0.00     0.031 A 
ATOM     57  C   UNL A   1      39.639  26.002  28.406  1.00  0.00     0.131 A 
ATOM     58  C   UNL A   1      41.594  26.667  26.582  1.00  0.00     0.055 A 
ATOM     59  C   UNL A   1      39.641  25.405  27.139  1.00  0.00     0.041 A 
ATOM     60  F   UNL A   1      38.741  25.532  29.288  1.00  0.00    -0.206 F 
ATOM     61  C   UNL A   1      40.614  25.751  26.211  1.00  0.00     0.022 A 
BRANCH  58  62
ATOM     62  S   UNL A   1      42.959  27.059  25.459  1.00  0.00     0.124 S 
ATOM     63  O   UNL A   1      43.273  25.754  24.888  1.00  0.00    -0.237 OA
ATOM     64  O   UNL A   1      42.343  28.028  24.558  1.00  0.00    -0.237 OA
ATOM     65  O   UNL A   1      43.980  27.607  26.350  1.00  0.00    -0.744 OA
ENDBRANCH  58  62
ENDBRANCH  41  55
BRANCH  42  66
ATOM     66  C   UNL A   1      39.969  33.544  35.797  1.00  0.00     0.023 A 
ATOM     67  C   UNL A   1      38.960  32.721  36.322  1.00  0.00     0.031 A 
ATOM     68  C   UNL A   1      40.140  34.822  36.340  1.00  0.00     0.131 A 
ATOM     69  C   UNL A   1      38.274  33.109  37.476  1.00  0.00     0.055 A 
ATOM     70  C   UNL A   1      39.395  35.242  37.441  1.00  0.00     0.041 A 
ATOM     71  F   UNL A   1      41.097  35.640  35.878  1.00  0.00    -0.206 F 
ATOM     72  C   UNL A   1      38.482  34.369  38.038  1.00  0.00     0.022 A 
BRANCH  69  73
ATOM     73  S   UNL A   1      37.432  31.806  38.425  1.00  0.00     0.124 S 
ATOM     74  O   UNL A   1      38.228  31.740  39.644  1.00  0.00    -0.237 OA
ATOM     75  O   UNL A   1      36.084  32.359  38.564  1.00  0.00    -0.237 OA
ATOM     76  O   UNL A   1      37.511  30.643  37.548  1.00  0.00    -0.744 OA
ENDBRANCH  69  73
ENDBRANCH  42  66
BRANCH  54  77
ATOM     77  C   UNL A   1      43.398  27.246  34.672  1.00  0.00     0.023 A 
ATOM     78  C   UNL A   1      44.762  26.944  34.617  1.00  0.00     0.031 A 
ATOM     79  C   UNL A   1      42.563  26.232  35.202  1.00  0.00     0.131 A 
ATOM     80  C   UNL A   1      45.262  25.767  35.193  1.00  0.00     0.055 A 
ATOM     81  C   UNL A   1      43.054  25.026  35.703  1.00  0.00     0.041 A 
ATOM     82  F   UNL A   1      41.231  26.371  35.283  1.00  0.00    -0.206 F 
ATOM     83  C   UNL A   1      44.418  24.798  35.728  1.00  0.00     0.022 A 
BRANCH  80  84
ATOM     84  S   UNL A   1      47.057  25.580  35.301  1.00  0.00     0.124 S 
ATOM     85  O   UNL A   1      47.376  24.875  34.064  1.00  0.00    -0.237 OA
ATOM     86  O   UNL A   1      47.495  26.971  35.367  1.00  0.00    -0.237 OA
ATOM     87  O   UNL A   1      47.249  24.808  36.526  1.00  0.00    -0.744 OA
ENDBRANCH  80  84
ENDBRANCH  54  77
ENDBRANCH  28  29
ENDBRANCH  21  23
ENDBRANCH  20  21
ENDBRANCH   1  20
TORSDOF 17
ENDMDL
MODEL 2
REMARK VINA RESULT:     -11.9      5.300     10.706
REMARK SMILES Cc1ccc([C@H](CC2CCCC2)C(=O)OCCOC(=O)c2ccc(-c3c4nc(c(-c5cc(S(=O)(=O)[O-])ccc5F)c5ccc([nH]5)c(-c5cc(S(=O)(=O)[O-])ccc5F)c5nc(c(-c6cc(S(=O)(=O)[O-])ccc6F)c6ccc3[nH]6)C=C5)C=C4)cc2)cc1
REMARK SMILES IDX 17 1 16 2 15 3 13 4 14 5 6 6 5 7 1 8 2 9 3 10 85 11 4 12
REMARK SMILES IDX 84 13 7 14 8 15 9 16 12 17 10 18 11 19 18 20 19 21 20 22
REMARK SMILES IDX 21 23 22 24 83 25 23 26 82 27 24 28 25 29 26 30 76 31 27 32
REMARK SMILES IDX 81 33 75 34 77 35 28 36 80 37 74 38 73 39 29 41 61 42 41 43
REMARK SMILES IDX 60 44 42 45 45 46 59 47 78 48 43 49 44 50 58 52 79 53 46 54
REMARK SMILES IDX 30 55 31 56 39 57 32 58 38 59 40 60 37 61 33 62 34 63 35 64
REMARK SMILES IDX 36 65 62 66 63 67 71 68 64 69 70 70 72 71 69 72 65 73 66 74
REMARK SMILES IDX 67 75 68 76 47 77 48 78 56 79 49 80 55 81 57 82 54 83 50 84
REMARK SMILES IDX 51 85 52 86 53 87
REMARK H PARENT 77 40 45 51
REMARK Flexibility Score: inf
ROOT
ATOM      1  C   UNL A   1      39.538  22.414  26.181  1.00  0.00     0.275 C 
ENDROOT
BRANCH   1   2
ATOM      2  C   UNL A   1      38.053  22.464  25.748  1.00  0.00     0.274 C 
BRANCH   2   3
ATOM      3  O   UNL A   1      37.435  23.680  25.245  1.00  0.00    -0.462 OA
BRANCH   3   4
ATOM      4  C   UNL A   1      36.454  23.475  24.316  1.00  0.00     0.313 C 
ATOM      5  O   UNL A   1      36.693  23.162  23.151  1.00  0.00    -0.252 OA
BRANCH   4   6
ATOM      6  C   UNL A   1      34.994  23.536  24.781  1.00  0.00     0.129 C 
BRANCH   6   7
ATOM      7  C   UNL A   1      34.053  22.320  24.706  1.00  0.00    -0.034 A 
ATOM      8  C   UNL A   1      32.306  18.572  23.332  1.00  0.00     0.044 C 
ATOM      9  C   UNL A   1      32.861  19.875  23.833  1.00  0.00    -0.051 A 
ATOM     10  C   UNL A   1      32.417  21.098  23.334  1.00  0.00     0.004 A 
ATOM     11  C   UNL A   1      33.787  19.903  24.876  1.00  0.00     0.004 A 
ATOM     12  C   UNL A   1      33.023  22.299  23.744  1.00  0.00     0.005 A 
ATOM     13  C   UNL A   1      34.310  21.119  25.349  1.00  0.00     0.005 A 
ENDBRANCH   6   7
BRANCH   6  14
ATOM     14  C   UNL A   1      34.218  24.778  24.283  1.00  0.00     0.023 C 
BRANCH  14  15
ATOM     15  C   UNL A   1      33.774  25.735  25.393  1.00  0.00    -0.010 C 
ATOM     16  C   UNL A   1      33.638  27.192  24.958  1.00  0.00     0.003 C 
ATOM     17  C   UNL A   1      32.349  25.443  25.875  1.00  0.00     0.003 C 
ATOM     18  C   UNL A   1      32.808  27.826  26.070  1.00  0.00     0.000 C 
ATOM     19  C   UNL A   1      31.956  26.696  26.651  1.00  0.00     0.000 C 
ENDBRANCH  14  15
ENDBRANCH   6  14
ENDBRANCH   4   6
ENDBRANCH   3   4
ENDBRANCH   2   3
ENDBRANCH   1   2
BRANCH   1  20
ATOM     20  O   UNL A   1      40.087  21.133  26.577  1.00  0.00    -0.458 OA
BRANCH  20  21
ATOM     21  C   UNL A   1      41.309  20.665  26.229  1.00  0.00     0.338 C 
ATOM     22  O   UNL A   1      41.473  19.618  25.610  1.00  0.00    -0.246 OA
BRANCH  21  23
ATOM     23  C   UNL A   1      42.452  21.418  26.757  1.00  0.00     0.060 A 
ATOM     24  C   UNL A   1      42.463  21.599  28.128  1.00  0.00     0.016 A 
ATOM     25  C   UNL A   1      43.204  22.237  25.917  1.00  0.00     0.016 A 
ATOM     26  C   UNL A   1      42.890  22.825  28.597  1.00  0.00     0.010 A 
ATOM     27  C   UNL A   1      43.569  23.486  26.395  1.00  0.00     0.010 A 
ATOM     28  C   UNL A   1      43.235  23.845  27.700  1.00  0.00    -0.014 A 
BRANCH  28  29
ATOM     29  C   UNL A   1      43.391  25.249  28.084  1.00  0.00     0.031 A 
ATOM     30  C   UNL A   1      42.229  26.164  27.902  1.00  0.00     0.074 A 
ATOM     31  C   UNL A   1      44.548  25.821  28.516  1.00  0.00     0.049 A 
ATOM     32  N   UNL A   1      42.291  27.448  27.746  1.00  0.00    -0.248 NA
ATOM     33  C   UNL A   1      40.872  25.631  27.734  1.00  0.00     0.031 C 
ATOM     34  C   UNL A   1      44.555  26.903  29.497  1.00  0.00     0.029 A 
ATOM     35  N   UNL A   1      45.910  25.612  28.255  1.00  0.00    -0.354 N 
ATOM     36  C   UNL A   1      40.992  27.896  27.807  1.00  0.00     0.074 A 
ATOM     37  C   UNL A   1      40.169  26.745  27.546  1.00  0.00     0.031 C 
ATOM     38  C   UNL A   1      45.803  27.353  29.667  1.00  0.00     0.029 A 
ATOM     39  C   UNL A   1      46.634  26.758  28.643  1.00  0.00     0.049 A 
ATOM     40  H   UNL A   1      46.298  24.796  27.865  1.00  0.00     0.167 HD
ATOM     41  C   UNL A   1      40.676  29.088  28.382  1.00  0.00     0.034 A 
ATOM     42  C   UNL A   1      47.530  27.464  27.884  1.00  0.00     0.034 A 
ATOM     43  C   UNL A   1      41.846  29.744  28.938  1.00  0.00     0.049 A 
ATOM     44  C   UNL A   1      47.213  28.943  27.770  1.00  0.00     0.074 A 
ATOM     45  C   UNL A   1      42.429  29.688  30.195  1.00  0.00     0.029 A 
ATOM     46  N   UNL A   1      42.757  30.364  28.111  1.00  0.00    -0.354 N 
ATOM     47  N   UNL A   1      46.096  29.456  28.193  1.00  0.00    -0.248 NA
ATOM     48  C   UNL A   1      48.042  29.931  27.077  1.00  0.00     0.031 C 
ATOM     49  C   UNL A   1      43.696  30.318  30.121  1.00  0.00     0.029 A 
ATOM     50  C   UNL A   1      43.859  30.783  28.831  1.00  0.00     0.049 A 
ATOM     51  H   UNL A   1      42.637  30.492  27.143  1.00  0.00     0.167 HD
ATOM     52  C   UNL A   1      46.015  30.770  27.833  1.00  0.00     0.074 A 
ATOM     53  C   UNL A   1      47.249  31.019  27.110  1.00  0.00     0.031 C 
ATOM     54  C   UNL A   1      44.909  31.509  28.142  1.00  0.00     0.034 A 
BRANCH  41  55
ATOM     55  C   UNL A   1      39.271  29.383  28.839  1.00  0.00     0.023 A 
ATOM     56  C   UNL A   1      39.013  29.488  30.217  1.00  0.00     0.031 A 
ATOM     57  C   UNL A   1      38.153  29.493  27.991  1.00  0.00     0.131 A 
ATOM     58  C   UNL A   1      37.701  29.556  30.707  1.00  0.00     0.055 A 
ATOM     59  C   UNL A   1      36.840  29.498  28.478  1.00  0.00     0.041 A 
ATOM     60  F   UNL A   1      38.298  29.599  26.659  1.00  0.00    -0.206 F 
ATOM     61  C   UNL A   1      36.609  29.510  29.847  1.00  0.00     0.022 A 
BRANCH  58  62
ATOM     62  S   UNL A   1      37.458  29.702  32.495  1.00  0.00     0.124 S 
ATOM     63  O   UNL A   1      37.378  28.305  32.911  1.00  0.00    -0.237 OA
ATOM     64  O   UNL A   1      38.653  30.431  32.907  1.00  0.00    -0.237 OA
ATOM     65  O   UNL A   1      36.208  30.451  32.604  1.00  0.00    -0.744 OA
ENDBRANCH  58  62
ENDBRANCH  41  55
BRANCH  42  66
ATOM     66  C   UNL A   1      48.285  26.720  26.858  1.00  0.00     0.023 A 
ATOM     67  C   UNL A   1      47.909  26.885  25.515  1.00  0.00     0.031 A 
ATOM     68  C   UNL A   1      49.501  26.089  27.141  1.00  0.00     0.131 A 
ATOM     69  C   UNL A   1      48.819  26.588  24.496  1.00  0.00     0.055 A 
ATOM     70  C   UNL A   1      50.372  25.716  26.119  1.00  0.00     0.041 A 
ATOM     71  F   UNL A   1      49.905  25.919  28.408  1.00  0.00    -0.206 F 
ATOM     72  C   UNL A   1      50.050  25.999  24.789  1.00  0.00     0.022 A 
BRANCH  69  73
ATOM     73  S   UNL A   1      48.526  27.344  22.869  1.00  0.00     0.124 S 
ATOM     74  O   UNL A   1      48.534  26.191  21.979  1.00  0.00    -0.237 OA
ATOM     75  O   UNL A   1      47.231  27.996  23.069  1.00  0.00    -0.237 OA
ATOM     76  O   UNL A   1      49.643  28.271  22.720  1.00  0.00    -0.744 OA
ENDBRANCH  69  73
ENDBRANCH  42  66
BRANCH  54  77
ATOM     77  C   UNL A   1      44.702  32.961  27.807  1.00  0.00     0.023 A 
ATOM     78  C   UNL A   1      44.977  33.982  28.721  1.00  0.00     0.031 A 
ATOM     79  C   UNL A   1      44.166  33.375  26.562  1.00  0.00     0.131 A 
ATOM     80  C   UNL A   1      44.862  35.330  28.351  1.00  0.00     0.055 A 
ATOM     81  C   UNL A   1      43.975  34.715  26.224  1.00  0.00     0.041 A 
ATOM     82  F   UNL A   1      43.822  32.502  25.605  1.00  0.00    -0.206 F 
ATOM     83  C   UNL A   1      44.352  35.707  27.111  1.00  0.00     0.022 A 
BRANCH  80  84
ATOM     84  S   UNL A   1      45.478  36.576  29.506  1.00  0.00     0.124 S 
ATOM     85  O   UNL A   1      44.533  37.672  29.324  1.00  0.00    -0.237 OA
ATOM     86  O   UNL A   1      45.388  35.868  30.780  1.00  0.00    -0.237 OA
ATOM     87  O   UNL A   1      46.837  36.839  29.036  1.00  0.00    -0.744 OA
ENDBRANCH  80  84
ENDBRANCH  54  77
ENDBRANCH  28  29
ENDBRANCH  21  23
ENDBRANCH  20  21
ENDBRANCH   1  20
TORSDOF 17
ENDMDL
MODEL 3
REMARK VINA RESULT:     -11.9      0.666      2.819
REMARK SMILES Cc1ccc([C@H](CC2CCCC2)C(=O)OCCOC(=O)c2ccc(-c3c4nc(c(-c5cc(S(=O)(=O)[O-])ccc5F)c5ccc([nH]5)c(-c5cc(S(=O)(=O)[O-])ccc5F)c5nc(c(-c6cc(S(=O)(=O)[O-])ccc6F)c6ccc3[nH]6)C=C5)C=C4)cc2)cc1
REMARK SMILES IDX 17 1 16 2 15 3 13 4 14 5 6 6 5 7 1 8 2 9 3 10 85 11 4 12
REMARK SMILES IDX 84 13 7 14 8 15 9 16 12 17 10 18 11 19 18 20 19 21 20 22
REMARK SMILES IDX 21 23 22 24 83 25 23 26 82 27 24 28 25 29 26 30 76 31 27 32
REMARK SMILES IDX 81 33 75 34 77 35 28 36 80 37 74 38 73 39 29 41 61 42 41 43
REMARK SMILES IDX 60 44 42 45 45 46 59 47 78 48 43 49 44 50 58 52 79 53 46 54
REMARK SMILES IDX 30 55 31 56 39 57 32 58 38 59 40 60 37 61 33 62 34 63 35 64
REMARK SMILES IDX 36 65 62 66 63 67 71 68 64 69 70 70 72 71 69 72 65 73 66 74
REMARK SMILES IDX 67 75 68 76 47 77 48 78 56 79 49 80 55 81 57 82 54 83 50 84
REMARK SMILES IDX 51 85 52 86 53 87
REMARK H PARENT 77 40 45 51
REMARK Flexibility Score: inf
ROOT
ATOM      1  C   UNL A   1      34.435  31.466  28.337  1.00  0.00     0.275 C 
ENDROOT
BRANCH   1   2
ATOM      2  C   UNL A   1      34.120  30.442  27.220  1.00  0.00     0.274 C 
BRANCH   2   3
ATOM      3  O   UNL A   1      32.893  29.663  27.208  1.00  0.00    -0.462 OA
BRANCH   3   4
ATOM      4  C   UNL A   1      31.965  30.080  26.296  1.00  0.00     0.313 C 
ATOM      5  O   UNL A   1      31.665  31.263  26.142  1.00  0.00    -0.252 OA
BRANCH   4   6
ATOM      6  C   UNL A   1      31.354  29.035  25.356  1.00  0.00     0.129 C 
BRANCH   6   7
ATOM      7  C   UNL A   1      31.868  27.585  25.288  1.00  0.00    -0.034 A 
ATOM      8  C   UNL A   1      33.714  23.833  26.513  1.00  0.00     0.044 C 
ATOM      9  C   UNL A   1      33.083  25.111  26.038  1.00  0.00    -0.051 A 
ATOM     10  C   UNL A   1      33.838  26.119  25.441  1.00  0.00     0.004 A 
ATOM     11  C   UNL A   1      31.703  25.296  26.109  1.00  0.00     0.004 A 
ATOM     12  C   UNL A   1      33.245  27.347  25.097  1.00  0.00     0.005 A 
ATOM     13  C   UNL A   1      31.107  26.490  25.665  1.00  0.00     0.005 A 
ENDBRANCH   6   7
BRANCH   6  14
ATOM     14  C   UNL A   1      31.125  29.533  23.910  1.00  0.00     0.023 C 
BRANCH  14  15
ATOM     15  C   UNL A   1      29.652  29.694  23.520  1.00  0.00    -0.010 C 
ATOM     16  C   UNL A   1      29.067  31.074  23.807  1.00  0.00     0.003 C 
ATOM     17  C   UNL A   1      29.440  29.598  22.006  1.00  0.00     0.003 C 
ATOM     18  C   UNL A   1      27.792  31.107  22.971  1.00  0.00     0.000 C 
ATOM     19  C   UNL A   1      28.041  30.166  21.791  1.00  0.00     0.000 C 
ENDBRANCH  14  15
ENDBRANCH   6  14
ENDBRANCH   4   6
ENDBRANCH   3   4
ENDBRANCH   2   3
ENDBRANCH   1   2
BRANCH   1  20
ATOM     20  O   UNL A   1      34.068  32.849  28.113  1.00  0.00    -0.458 OA
BRANCH  20  21
ATOM     21  C   UNL A   1      33.934  33.788  29.080  1.00  0.00     0.338 C 
ATOM     22  O   UNL A   1      32.901  34.428  29.253  1.00  0.00    -0.246 OA
BRANCH  21  23
ATOM     23  C   UNL A   1      35.152  34.102  29.834  1.00  0.00     0.060 A 
ATOM     24  C   UNL A   1      36.269  34.387  29.069  1.00  0.00     0.016 A 
ATOM     25  C   UNL A   1      35.273  33.717  31.168  1.00  0.00     0.016 A 
ATOM     26  C   UNL A   1      37.479  33.896  29.517  1.00  0.00     0.010 A 
ATOM     27  C   UNL A   1      36.482  33.175  31.575  1.00  0.00     0.010 A 
ATOM     28  C   UNL A   1      37.538  33.098  30.667  1.00  0.00    -0.014 A 
BRANCH  28  29
ATOM     29  C   UNL A   1      38.699  32.286  31.036  1.00  0.00     0.031 A 
ATOM     30  C   UNL A   1      38.745  30.870  30.574  1.00  0.00     0.074 A 
ATOM     31  C   UNL A   1      39.711  32.688  31.852  1.00  0.00     0.049 A 
ATOM     32  N   UNL A   1      39.402  29.908  31.139  1.00  0.00    -0.248 NA
ATOM     33  C   UNL A   1      37.892  30.411  29.472  1.00  0.00     0.031 C 
ATOM     34  C   UNL A   1      41.085  32.228  31.661  1.00  0.00     0.029 A 
ATOM     35  N   UNL A   1      39.809  33.551  32.952  1.00  0.00    -0.354 N 
ATOM     36  C   UNL A   1      39.315  28.838  30.279  1.00  0.00     0.074 A 
ATOM     37  C   UNL A   1      38.191  29.115  29.424  1.00  0.00     0.031 C 
ATOM     38  C   UNL A   1      41.857  32.686  32.652  1.00  0.00     0.029 A 
ATOM     39  C   UNL A   1      40.994  33.263  33.660  1.00  0.00     0.049 A 
ATOM     40  H   UNL A   1      39.155  34.246  33.192  1.00  0.00     0.167 HD
ATOM     41  C   UNL A   1      40.350  27.970  30.115  1.00  0.00     0.034 A 
ATOM     42  C   UNL A   1      41.114  33.010  35.001  1.00  0.00     0.034 A 
ATOM     43  C   UNL A   1      41.509  28.361  30.896  1.00  0.00     0.049 A 
ATOM     44  C   UNL A   1      41.801  31.697  35.324  1.00  0.00     0.074 A 
ATOM     45  C   UNL A   1      42.596  29.170  30.601  1.00  0.00     0.029 A 
ATOM     46  N   UNL A   1      41.532  28.157  32.259  1.00  0.00    -0.354 N 
ATOM     47  N   UNL A   1      42.078  30.809  34.416  1.00  0.00    -0.248 NA
ATOM     48  C   UNL A   1      42.116  31.219  36.671  1.00  0.00     0.031 C 
ATOM     49  C   UNL A   1      43.298  29.423  31.806  1.00  0.00     0.029 A 
ATOM     50  C   UNL A   1      42.654  28.738  32.818  1.00  0.00     0.049 A 
ATOM     51  H   UNL A   1      40.845  27.665  32.763  1.00  0.00     0.167 HD
ATOM     52  C   UNL A   1      42.556  29.671  35.000  1.00  0.00     0.074 A 
ATOM     53  C   UNL A   1      42.538  29.966  36.422  1.00  0.00     0.031 C 
ATOM     54  C   UNL A   1      42.885  28.585  34.242  1.00  0.00     0.034 A 
BRANCH  41  55
ATOM     55  C   UNL A   1      40.437  27.085  28.898  1.00  0.00     0.023 A 
ATOM     56  C   UNL A   1      41.415  27.360  27.927  1.00  0.00     0.031 A 
ATOM     57  C   UNL A   1      39.557  26.026  28.606  1.00  0.00     0.131 A 
ATOM     58  C   UNL A   1      41.412  26.706  26.687  1.00  0.00     0.055 A 
ATOM     59  C   UNL A   1      39.512  25.414  27.347  1.00  0.00     0.041 A 
ATOM     60  F   UNL A   1      38.709  25.550  29.534  1.00  0.00    -0.206 F 
ATOM     61  C   UNL A   1      40.434  25.768  26.371  1.00  0.00     0.022 A 
BRANCH  58  62
ATOM     62  S   UNL A   1      42.716  27.111  25.498  1.00  0.00     0.124 S 
ATOM     63  O   UNL A   1      42.854  25.863  24.755  1.00  0.00    -0.237 OA
ATOM     64  O   UNL A   1      42.129  28.234  24.773  1.00  0.00    -0.237 OA
ATOM     65  O   UNL A   1      43.853  27.452  26.350  1.00  0.00    -0.744 OA
ENDBRANCH  58  62
ENDBRANCH  41  55
BRANCH  42  66
ATOM     66  C   UNL A   1      40.138  33.652  35.902  1.00  0.00     0.023 A 
ATOM     67  C   UNL A   1      39.057  32.881  36.358  1.00  0.00     0.031 A 
ATOM     68  C   UNL A   1      40.393  34.881  36.520  1.00  0.00     0.131 A 
ATOM     69  C   UNL A   1      38.374  33.257  37.519  1.00  0.00     0.055 A 
ATOM     70  C   UNL A   1      39.655  35.295  37.628  1.00  0.00     0.041 A 
ATOM     71  F   UNL A   1      41.420  35.646  36.124  1.00  0.00    -0.206 F 
ATOM     72  C   UNL A   1      38.664  34.464  38.156  1.00  0.00     0.022 A 
BRANCH  69  73
ATOM     73  S   UNL A   1      37.413  31.973  38.376  1.00  0.00     0.124 S 
ATOM     74  O   UNL A   1      36.098  32.589  38.492  1.00  0.00    -0.237 OA
ATOM     75  O   UNL A   1      37.519  30.847  37.446  1.00  0.00    -0.237 OA
ATOM     76  O   UNL A   1      38.140  31.783  39.626  1.00  0.00    -0.744 OA
ENDBRANCH  69  73
ENDBRANCH  42  66
BRANCH  54  77
ATOM     77  C   UNL A   1      43.424  27.281  34.763  1.00  0.00     0.023 A 
ATOM     78  C   UNL A   1      44.796  27.040  34.890  1.00  0.00     0.031 A 
ATOM     79  C   UNL A   1      42.574  26.201  35.107  1.00  0.00     0.131 A 
ATOM     80  C   UNL A   1      45.267  25.850  35.464  1.00  0.00     0.055 A 
ATOM     81  C   UNL A   1      43.049  24.986  35.604  1.00  0.00     0.041 A 
ATOM     82  F   UNL A   1      41.240  26.278  35.001  1.00  0.00    -0.206 F 
ATOM     83  C   UNL A   1      44.405  24.814  35.814  1.00  0.00     0.022 A 
BRANCH  80  84
ATOM     84  S   UNL A   1      47.035  25.732  35.821  1.00  0.00     0.124 S 
ATOM     85  O   UNL A   1      47.240  26.822  36.769  1.00  0.00    -0.237 OA
ATOM     86  O   UNL A   1      47.135  24.385  36.375  1.00  0.00    -0.237 OA
ATOM     87  O   UNL A   1      47.663  25.915  34.514  1.00  0.00    -0.744 OA
ENDBRANCH  80  84
ENDBRANCH  54  77
ENDBRANCH  28  29
ENDBRANCH  21  23
ENDBRANCH  20  21
ENDBRANCH   1  20
TORSDOF 17
ENDMDL
