MODEL 1
REMARK VINA RESULT:     -11.1      0.000      0.000
REMARK SMILES O=C(CN1C(=O)/C(=C\c2cccs2)SC1=S)Nc1ccccc1C(=O)OCCOC(=O)c1ccc(-c2c3nc(c(-c4cc(S(=O)(=O)[O-])ccc4F)c4ccc([nH]4)c(-c4cc(S(=O)(=O)[O-])ccc4F)c4nc(c(-c5cc(S(=O)(=O)[O-])ccc5F)c5ccc2[nH]5)C=C4)C=C3)cc1
REMARK SMILES IDX 27 1 26 2 24 3 25 4 23 5 18 6 19 7 20 8 22 9 21 10 17 11
REMARK SMILES IDX 1 12 2 13 3 15 4 16 5 17 15 18 6 19 7 20 14 21 16 22 8 23
REMARK SMILES IDX 9 24 10 25 13 26 11 27 12 28 28 29 29 30 30 31 31 32 32 33
REMARK SMILES IDX 33 34 94 35 34 36 93 37 35 38 36 39 37 40 87 41 38 42 92 43
REMARK SMILES IDX 86 44 88 45 39 46 91 47 85 48 84 49 40 51 72 52 52 53 71 54
REMARK SMILES IDX 53 55 56 56 70 57 89 58 54 59 55 60 69 62 90 63 57 64 41 65
REMARK SMILES IDX 42 66 50 67 43 68 49 69 51 70 48 71 44 72 45 73 46 74 47 75
REMARK SMILES IDX 73 76 74 77 82 78 75 79 81 80 83 81 80 82 76 83 77 84 78 85
REMARK SMILES IDX 79 86 58 87 59 88 67 89 60 90 66 91 68 92 65 93 61 94 62 95
REMARK SMILES IDX 63 96 64 97
REMARK H PARENT 17 14 88 50 56 61
REMARK Flexibility Score: inf
ROOT
ATOM      1  C   UNL A   1      41.501  19.570  26.102  1.00  0.00     0.275 C 
ENDROOT
BRANCH   1   2
ATOM      2  O   UNL A   1      41.290  20.996  26.163  1.00  0.00    -0.458 OA
BRANCH   2   3
ATOM      3  C   UNL A   1      39.996  21.415  26.088  1.00  0.00     0.340 C 
ATOM      4  O   UNL A   1      39.062  20.781  25.629  1.00  0.00    -0.246 OA
BRANCH   3   5
ATOM      5  C   UNL A   1      39.821  22.707  26.804  1.00  0.00     0.083 A 
ATOM      6  C   UNL A   1      38.975  23.754  26.397  1.00  0.00     0.055 A 
ATOM      7  C   UNL A   1      39.059  24.993  27.058  1.00  0.00     0.027 A 
ATOM      8  C   UNL A   1      39.931  25.183  28.131  1.00  0.00     0.002 A 
ATOM      9  C   UNL A   1      40.673  22.904  27.909  1.00  0.00     0.018 A 
ATOM     10  C   UNL A   1      40.735  24.136  28.561  1.00  0.00     0.001 A 
BRANCH   6  11
ATOM     11  N   UNL A   1      38.045  23.705  25.339  1.00  0.00    -0.324 N 
ATOM     12  O   UNL A   1      36.058  23.332  26.465  1.00  0.00    -0.273 OA
ATOM     13  C   UNL A   1      36.717  23.332  25.429  1.00  0.00     0.244 C 
ATOM     14  H   UNL A   1      38.374  23.963  24.447  1.00  0.00     0.170 HD
BRANCH  13  15
ATOM     15  C   UNL A   1      36.086  23.064  24.065  1.00  0.00     0.227 C 
BRANCH  15  16
ATOM     16  N   UNL A   1      34.669  22.768  24.248  1.00  0.00    -0.283 N 
ATOM     17  C   UNL A   1      34.296  21.464  24.534  1.00  0.00     0.266 C 
ATOM     18  C   UNL A   1      33.658  23.697  24.144  1.00  0.00     0.148 C 
ATOM     19  O   UNL A   1      35.064  20.517  24.595  1.00  0.00    -0.268 OA
ATOM     20  C   UNL A   1      32.813  21.375  24.689  1.00  0.00     0.081 C 
ATOM     21  S   UNL A   1      32.127  22.959  24.568  1.00  0.00    -0.054 SA
ATOM     22  S   UNL A   1      33.772  25.298  23.687  1.00  0.00    -0.052 S 
ATOM     23  C   UNL A   1      32.032  20.290  24.801  1.00  0.00     0.040 C 
BRANCH  23  24
ATOM     24  C   UNL A   1      32.508  18.953  24.761  1.00  0.00     0.028 A 
ATOM     25  C   UNL A   1      32.910  18.110  25.779  1.00  0.00     0.020 A 
ATOM     26  S   UNL A   1      32.604  18.155  23.238  1.00  0.00    -0.144 S 
ATOM     27  C   UNL A   1      33.361  16.844  25.304  1.00  0.00     0.012 A 
ATOM     28  C   UNL A   1      33.261  16.743  23.937  1.00  0.00     0.065 A 
ENDBRANCH  23  24
ENDBRANCH  15  16
ENDBRANCH  13  15
ENDBRANCH   6  11
ENDBRANCH   3   5
ENDBRANCH   2   3
ENDBRANCH   1   2
BRANCH   1  29
ATOM     29  C   UNL A   1      42.990  19.264  25.978  1.00  0.00     0.275 C 
BRANCH  29  30
ATOM     30  O   UNL A   1      43.395  19.492  24.619  1.00  0.00    -0.458 OA
BRANCH  30  31
ATOM     31  C   UNL A   1      44.722  19.645  24.421  1.00  0.00     0.338 C 
ATOM     32  O   UNL A   1      45.525  18.812  24.037  1.00  0.00    -0.246 OA
BRANCH  31  33
ATOM     33  C   UNL A   1      45.050  21.056  24.656  1.00  0.00     0.060 A 
ATOM     34  C   UNL A   1      45.707  21.387  25.841  1.00  0.00     0.016 A 
ATOM     35  C   UNL A   1      44.655  22.046  23.762  1.00  0.00     0.016 A 
ATOM     36  C   UNL A   1      45.932  22.721  26.167  1.00  0.00     0.010 A 
ATOM     37  C   UNL A   1      44.931  23.384  24.065  1.00  0.00     0.010 A 
ATOM     38  C   UNL A   1      45.548  23.737  25.282  1.00  0.00    -0.014 A 
BRANCH  38  39
ATOM     39  C   UNL A   1      45.705  25.168  25.665  1.00  0.00     0.031 A 
ATOM     40  C   UNL A   1      47.055  25.822  25.530  1.00  0.00     0.074 A 
ATOM     41  C   UNL A   1      44.653  25.890  26.098  1.00  0.00     0.049 A 
ATOM     42  N   UNL A   1      47.472  26.973  25.988  1.00  0.00    -0.248 NA
ATOM     43  C   UNL A   1      48.075  25.063  24.790  1.00  0.00     0.031 C 
ATOM     44  C   UNL A   1      43.276  25.405  26.199  1.00  0.00     0.029 A 
ATOM     45  N   UNL A   1      44.577  27.191  26.532  1.00  0.00    -0.354 N 
ATOM     46  C   UNL A   1      48.818  27.055  25.640  1.00  0.00     0.074 A 
ATOM     47  C   UNL A   1      49.145  25.830  24.942  1.00  0.00     0.031 C 
ATOM     48  C   UNL A   1      42.489  26.401  26.637  1.00  0.00     0.029 A 
ATOM     49  C   UNL A   1      43.315  27.566  26.935  1.00  0.00     0.049 A 
ATOM     50  H   UNL A   1      45.351  27.798  26.553  1.00  0.00     0.167 HD
ATOM     51  C   UNL A   1      49.696  28.059  25.888  1.00  0.00     0.034 A 
ATOM     52  C   UNL A   1      42.883  28.699  27.524  1.00  0.00     0.034 A 
ATOM     53  C   UNL A   1      49.338  29.289  26.553  1.00  0.00     0.049 A 
ATOM     54  C   UNL A   1      43.888  29.779  27.841  1.00  0.00     0.074 A 
ATOM     55  C   UNL A   1      50.146  30.366  26.876  1.00  0.00     0.029 A 
ATOM     56  N   UNL A   1      48.057  29.613  26.985  1.00  0.00    -0.354 N 
ATOM     57  N   UNL A   1      45.178  29.804  27.599  1.00  0.00    -0.248 NA
ATOM     58  C   UNL A   1      43.379  30.975  28.526  1.00  0.00     0.031 C 
ATOM     59  C   UNL A   1      49.365  31.319  27.543  1.00  0.00     0.029 A 
ATOM     60  C   UNL A   1      48.057  30.865  27.581  1.00  0.00     0.049 A 
ATOM     61  H   UNL A   1      47.266  29.037  26.882  1.00  0.00     0.167 HD
ATOM     62  C   UNL A   1      45.632  31.024  28.092  1.00  0.00     0.074 A 
ATOM     63  C   UNL A   1      44.474  31.716  28.622  1.00  0.00     0.031 C 
ATOM     64  C   UNL A   1      46.892  31.529  28.113  1.00  0.00     0.034 A 
BRANCH  51  65
ATOM     65  C   UNL A   1      51.135  27.832  25.495  1.00  0.00     0.023 A 
ATOM     66  C   UNL A   1      51.605  28.086  24.195  1.00  0.00     0.031 A 
ATOM     67  C   UNL A   1      52.045  27.311  26.434  1.00  0.00     0.131 A 
ATOM     68  C   UNL A   1      52.926  27.752  23.851  1.00  0.00     0.055 A 
ATOM     69  C   UNL A   1      53.378  27.056  26.107  1.00  0.00     0.041 A 
ATOM     70  F   UNL A   1      51.649  27.028  27.685  1.00  0.00    -0.206 F 
ATOM     71  C   UNL A   1      53.821  27.262  24.804  1.00  0.00     0.022 A 
BRANCH  68  72
ATOM     72  S   UNL A   1      53.418  27.840  22.107  1.00  0.00     0.124 S 
ATOM     73  O   UNL A   1      54.376  28.943  22.127  1.00  0.00    -0.237 OA
ATOM     74  O   UNL A   1      53.976  26.514  21.869  1.00  0.00    -0.237 OA
ATOM     75  O   UNL A   1      52.166  28.125  21.412  1.00  0.00    -0.744 OA
ENDBRANCH  68  72
ENDBRANCH  51  65
BRANCH  52  76
ATOM     76  C   UNL A   1      41.454  28.851  27.927  1.00  0.00     0.023 A 
ATOM     77  C   UNL A   1      41.056  28.696  29.265  1.00  0.00     0.031 A 
ATOM     78  C   UNL A   1      40.454  29.099  26.969  1.00  0.00     0.131 A 
ATOM     79  C   UNL A   1      39.693  28.752  29.601  1.00  0.00     0.055 A 
ATOM     80  C   UNL A   1      39.108  29.212  27.316  1.00  0.00     0.041 A 
ATOM     81  F   UNL A   1      40.777  29.246  25.673  1.00  0.00    -0.206 F 
ATOM     82  C   UNL A   1      38.719  29.024  28.637  1.00  0.00     0.022 A 
BRANCH  79  83
ATOM     83  S   UNL A   1      39.200  28.372  31.305  1.00  0.00     0.124 S 
ATOM     84  O   UNL A   1      38.520  27.091  31.139  1.00  0.00    -0.237 OA
ATOM     85  O   UNL A   1      40.488  28.329  31.990  1.00  0.00    -0.237 OA
ATOM     86  O   UNL A   1      38.339  29.493  31.669  1.00  0.00    -0.744 OA
ENDBRANCH  79  83
ENDBRANCH  52  76
BRANCH  64  87
ATOM     87  C   UNL A   1      47.057  32.911  28.689  1.00  0.00     0.023 A 
ATOM     88  C   UNL A   1      46.954  34.062  27.887  1.00  0.00     0.031 A 
ATOM     89  C   UNL A   1      47.348  33.077  30.054  1.00  0.00     0.131 A 
ATOM     90  C   UNL A   1      47.195  35.325  28.446  1.00  0.00     0.055 A 
ATOM     91  C   UNL A   1      47.536  34.340  30.616  1.00  0.00     0.041 A 
ATOM     92  F   UNL A   1      47.459  32.012  30.863  1.00  0.00    -0.206 F 
ATOM     93  C   UNL A   1      47.473  35.472  29.808  1.00  0.00     0.022 A 
BRANCH  90  94
ATOM     94  S   UNL A   1      47.226  36.771  27.351  1.00  0.00     0.124 S 
ATOM     95  O   UNL A   1      45.989  37.455  27.716  1.00  0.00    -0.237 OA
ATOM     96  O   UNL A   1      48.463  37.436  27.746  1.00  0.00    -0.237 OA
ATOM     97  O   UNL A   1      47.238  36.187  26.011  1.00  0.00    -0.744 OA
ENDBRANCH  90  94
ENDBRANCH  64  87
ENDBRANCH  38  39
ENDBRANCH  31  33
ENDBRANCH  30  31
ENDBRANCH  29  30
ENDBRANCH   1  29
TORSDOF 18
ENDMDL
MODEL 2
REMARK VINA RESULT:     -11.0      7.522     13.101
REMARK SMILES O=C(CN1C(=O)/C(=C\c2cccs2)SC1=S)Nc1ccccc1C(=O)OCCOC(=O)c1ccc(-c2c3nc(c(-c4cc(S(=O)(=O)[O-])ccc4F)c4ccc([nH]4)c(-c4cc(S(=O)(=O)[O-])ccc4F)c4nc(c(-c5cc(S(=O)(=O)[O-])ccc5F)c5ccc2[nH]5)C=C4)C=C3)cc1
REMARK SMILES IDX 27 1 26 2 24 3 25 4 23 5 18 6 19 7 20 8 22 9 21 10 17 11
REMARK SMILES IDX 1 12 2 13 3 15 4 16 5 17 15 18 6 19 7 20 14 21 16 22 8 23
REMARK SMILES IDX 9 24 10 25 13 26 11 27 12 28 28 29 29 30 30 31 31 32 32 33
REMARK SMILES IDX 33 34 94 35 34 36 93 37 35 38 36 39 37 40 87 41 38 42 92 43
REMARK SMILES IDX 86 44 88 45 39 46 91 47 85 48 84 49 40 51 72 52 52 53 71 54
REMARK SMILES IDX 53 55 56 56 70 57 89 58 54 59 55 60 69 62 90 63 57 64 41 65
REMARK SMILES IDX 42 66 50 67 43 68 49 69 51 70 48 71 44 72 45 73 46 74 47 75
REMARK SMILES IDX 73 76 74 77 82 78 75 79 81 80 83 81 80 82 76 83 77 84 78 85
REMARK SMILES IDX 79 86 58 87 59 88 67 89 60 90 66 91 68 92 65 93 61 94 62 95
REMARK SMILES IDX 63 96 64 97
REMARK H PARENT 17 14 88 50 56 61
REMARK Flexibility Score: inf
ROOT
ATOM      1  C   UNL A   1      33.756  35.274  28.603  1.00  0.00     0.275 C 
ENDROOT
BRANCH   1   2
ATOM      2  O   UNL A   1      33.800  33.911  29.075  1.00  0.00    -0.458 OA
BRANCH   2   3
ATOM      3  C   UNL A   1      33.514  32.948  28.157  1.00  0.00     0.340 C 
ATOM      4  O   UNL A   1      32.522  32.901  27.451  1.00  0.00    -0.246 OA
BRANCH   3   5
ATOM      5  C   UNL A   1      34.668  32.023  27.992  1.00  0.00     0.083 A 
ATOM      6  C   UNL A   1      34.573  30.635  27.786  1.00  0.00     0.055 A 
ATOM      7  C   UNL A   1      35.744  29.856  27.847  1.00  0.00     0.027 A 
ATOM      8  C   UNL A   1      36.992  30.442  28.064  1.00  0.00     0.002 A 
ATOM      9  C   UNL A   1      35.938  32.603  28.178  1.00  0.00     0.018 A 
ATOM     10  C   UNL A   1      37.090  31.818  28.225  1.00  0.00     0.001 A 
BRANCH   6  11
ATOM     11  N   UNL A   1      33.387  29.910  27.551  1.00  0.00    -0.324 N 
ATOM     12  O   UNL A   1      33.552  29.441  25.291  1.00  0.00    -0.273 OA
ATOM     13  C   UNL A   1      32.887  29.527  26.320  1.00  0.00     0.244 C 
ATOM     14  H   UNL A   1      32.863  29.649  28.343  1.00  0.00     0.170 HD
BRANCH  13  15
ATOM     15  C   UNL A   1      31.436  29.061  26.392  1.00  0.00     0.227 C 
BRANCH  15  16
ATOM     16  N   UNL A   1      31.265  27.909  25.512  1.00  0.00    -0.283 N 
ATOM     17  C   UNL A   1      31.616  26.655  25.985  1.00  0.00     0.266 C 
ATOM     18  C   UNL A   1      30.787  27.977  24.223  1.00  0.00     0.148 C 
ATOM     19  O   UNL A   1      32.113  26.436  27.079  1.00  0.00    -0.268 OA
ATOM     20  C   UNL A   1      31.360  25.620  24.939  1.00  0.00     0.081 C 
ATOM     21  S   UNL A   1      30.611  26.362  23.567  1.00  0.00    -0.054 SA
ATOM     22  S   UNL A   1      30.409  29.338  23.334  1.00  0.00    -0.052 S 
ATOM     23  C   UNL A   1      31.707  24.324  24.920  1.00  0.00     0.040 C 
BRANCH  23  24
ATOM     24  C   UNL A   1      32.451  23.679  25.943  1.00  0.00     0.028 A 
ATOM     25  C   UNL A   1      32.029  22.963  27.047  1.00  0.00     0.020 A 
ATOM     26  S   UNL A   1      34.171  23.715  25.863  1.00  0.00    -0.144 S 
ATOM     27  C   UNL A   1      33.110  22.508  27.858  1.00  0.00     0.012 A 
ATOM     28  C   UNL A   1      34.330  22.863  27.335  1.00  0.00     0.065 A 
ENDBRANCH  23  24
ENDBRANCH  15  16
ENDBRANCH  13  15
ENDBRANCH   6  11
ENDBRANCH   3   5
ENDBRANCH   2   3
ENDBRANCH   1   2
BRANCH   1  29
ATOM     29  C   UNL A   1      32.951  36.139  29.567  1.00  0.00     0.275 C 
BRANCH  29  30
ATOM     30  O   UNL A   1      32.538  35.328  30.678  1.00  0.00    -0.458 OA
BRANCH  30  31
ATOM     31  C   UNL A   1      32.768  35.850  31.902  1.00  0.00     0.338 C 
ATOM     32  O   UNL A   1      32.152  36.737  32.468  1.00  0.00    -0.246 OA
BRANCH  31  33
ATOM     33  C   UNL A   1      33.859  35.087  32.517  1.00  0.00     0.060 A 
ATOM     34  C   UNL A   1      35.146  35.622  32.459  1.00  0.00     0.016 A 
ATOM     35  C   UNL A   1      33.636  33.832  33.075  1.00  0.00     0.016 A 
ATOM     36  C   UNL A   1      36.233  34.884  32.918  1.00  0.00     0.010 A 
ATOM     37  C   UNL A   1      34.723  33.113  33.586  1.00  0.00     0.010 A 
ATOM     38  C   UNL A   1      36.034  33.620  33.489  1.00  0.00    -0.014 A 
BRANCH  38  39
ATOM     39  C   UNL A   1      37.200  32.789  33.900  1.00  0.00     0.031 A 
ATOM     40  C   UNL A   1      37.886  33.078  35.209  1.00  0.00     0.074 A 
ATOM     41  C   UNL A   1      37.627  31.765  33.134  1.00  0.00     0.049 A 
ATOM     42  N   UNL A   1      39.025  32.632  35.669  1.00  0.00    -0.248 NA
ATOM     43  C   UNL A   1      37.196  34.011  36.113  1.00  0.00     0.031 C 
ATOM     44  C   UNL A   1      37.005  31.324  31.885  1.00  0.00     0.029 A 
ATOM     45  N   UNL A   1      38.685  30.904  33.297  1.00  0.00    -0.354 N 
ATOM     46  C   UNL A   1      39.217  33.269  36.892  1.00  0.00     0.074 A 
ATOM     47  C   UNL A   1      38.079  34.141  37.093  1.00  0.00     0.031 C 
ATOM     48  C   UNL A   1      37.674  30.261  31.411  1.00  0.00     0.029 A 
ATOM     49  C   UNL A   1      38.825  30.000  32.269  1.00  0.00     0.049 A 
ATOM     50  H   UNL A   1      39.287  30.933  34.075  1.00  0.00     0.167 HD
ATOM     51  C   UNL A   1      40.252  33.141  37.759  1.00  0.00     0.034 A 
ATOM     52  C   UNL A   1      39.796  29.098  32.020  1.00  0.00     0.034 A 
ATOM     53  C   UNL A   1      41.359  32.238  37.557  1.00  0.00     0.049 A 
ATOM     54  C   UNL A   1      40.965  29.012  32.969  1.00  0.00     0.074 A 
ATOM     55  C   UNL A   1      42.472  32.037  38.356  1.00  0.00     0.029 A 
ATOM     56  N   UNL A   1      41.485  31.367  36.480  1.00  0.00    -0.354 N 
ATOM     57  N   UNL A   1      41.188  29.692  34.070  1.00  0.00    -0.248 NA
ATOM     58  C   UNL A   1      42.021  28.049  32.631  1.00  0.00     0.031 C 
ATOM     59  C   UNL A   1      43.291  31.083  37.740  1.00  0.00     0.029 A 
ATOM     60  C   UNL A   1      42.660  30.641  36.589  1.00  0.00     0.049 A 
ATOM     61  H   UNL A   1      40.834  31.281  35.747  1.00  0.00     0.167 HD
ATOM     62  C   UNL A   1      42.405  29.230  34.562  1.00  0.00     0.074 A 
ATOM     63  C   UNL A   1      42.854  28.195  33.651  1.00  0.00     0.031 C 
ATOM     64  C   UNL A   1      43.094  29.623  35.662  1.00  0.00     0.034 A 
BRANCH  51  65
ATOM     65  C   UNL A   1      40.260  34.048  38.966  1.00  0.00     0.023 A 
ATOM     66  C   UNL A   1      40.795  35.347  38.922  1.00  0.00     0.031 A 
ATOM     67  C   UNL A   1      39.756  33.585  40.195  1.00  0.00     0.131 A 
ATOM     68  C   UNL A   1      40.880  36.109  40.099  1.00  0.00     0.055 A 
ATOM     69  C   UNL A   1      39.772  34.378  41.345  1.00  0.00     0.041 A 
ATOM     70  F   UNL A   1      39.252  32.345  40.304  1.00  0.00    -0.206 F 
ATOM     71  C   UNL A   1      40.351  35.642  41.304  1.00  0.00     0.022 A 
BRANCH  68  72
ATOM     72  S   UNL A   1      41.816  37.663  40.063  1.00  0.00     0.124 S 
ATOM     73  O   UNL A   1      42.582  37.574  41.303  1.00  0.00    -0.237 OA
ATOM     74  O   UNL A   1      42.583  37.541  38.828  1.00  0.00    -0.237 OA
ATOM     75  O   UNL A   1      40.776  38.689  40.053  1.00  0.00    -0.744 OA
ENDBRANCH  68  72
ENDBRANCH  51  65
BRANCH  52  76
ATOM     76  C   UNL A   1      39.755  28.256  30.788  1.00  0.00     0.023 A 
ATOM     77  C   UNL A   1      40.442  28.637  29.625  1.00  0.00     0.031 A 
ATOM     78  C   UNL A   1      38.981  27.082  30.738  1.00  0.00     0.131 A 
ATOM     79  C   UNL A   1      40.312  27.875  28.452  1.00  0.00     0.055 A 
ATOM     80  C   UNL A   1      38.900  26.297  29.589  1.00  0.00     0.041 A 
ATOM     81  F   UNL A   1      38.294  26.676  31.819  1.00  0.00    -0.206 F 
ATOM     82  C   UNL A   1      39.557  26.699  28.432  1.00  0.00     0.022 A 
BRANCH  79  83
ATOM     83  S   UNL A   1      41.068  28.492  26.923  1.00  0.00     0.124 S 
ATOM     84  O   UNL A   1      42.218  29.229  27.436  1.00  0.00    -0.237 OA
ATOM     85  O   UNL A   1      41.366  27.254  26.211  1.00  0.00    -0.237 OA
ATOM     86  O   UNL A   1      40.016  29.312  26.329  1.00  0.00    -0.744 OA
ENDBRANCH  79  83
ENDBRANCH  52  76
BRANCH  64  87
ATOM     87  C   UNL A   1      44.381  28.894  35.951  1.00  0.00     0.023 A 
ATOM     88  C   UNL A   1      44.415  27.759  36.781  1.00  0.00     0.031 A 
ATOM     89  C   UNL A   1      45.592  29.358  35.410  1.00  0.00     0.131 A 
ATOM     90  C   UNL A   1      45.643  27.158  37.091  1.00  0.00     0.055 A 
ATOM     91  C   UNL A   1      46.806  28.725  35.680  1.00  0.00     0.041 A 
ATOM     92  F   UNL A   1      45.615  30.438  34.613  1.00  0.00    -0.206 F 
ATOM     93  C   UNL A   1      46.837  27.626  36.535  1.00  0.00     0.022 A 
BRANCH  90  94
ATOM     94  S   UNL A   1      45.672  25.806  38.299  1.00  0.00     0.124 S 
ATOM     95  O   UNL A   1      46.709  26.249  39.226  1.00  0.00    -0.237 OA
ATOM     96  O   UNL A   1      44.307  25.818  38.814  1.00  0.00    -0.237 OA
ATOM     97  O   UNL A   1      46.019  24.635  37.495  1.00  0.00    -0.744 OA
ENDBRANCH  90  94
ENDBRANCH  64  87
ENDBRANCH  38  39
ENDBRANCH  31  33
ENDBRANCH  30  31
ENDBRANCH  29  30
ENDBRANCH   1  29
TORSDOF 18
ENDMDL
MODEL 3
REMARK VINA RESULT:     -11.0      7.556     13.133
REMARK SMILES O=C(CN1C(=O)/C(=C\c2cccs2)SC1=S)Nc1ccccc1C(=O)OCCOC(=O)c1ccc(-c2c3nc(c(-c4cc(S(=O)(=O)[O-])ccc4F)c4ccc([nH]4)c(-c4cc(S(=O)(=O)[O-])ccc4F)c4nc(c(-c5cc(S(=O)(=O)[O-])ccc5F)c5ccc2[nH]5)C=C4)C=C3)cc1
REMARK SMILES IDX 27 1 26 2 24 3 25 4 23 5 18 6 19 7 20 8 22 9 21 10 17 11
REMARK SMILES IDX 1 12 2 13 3 15 4 16 5 17 15 18 6 19 7 20 14 21 16 22 8 23
REMARK SMILES IDX 9 24 10 25 13 26 11 27 12 28 28 29 29 30 30 31 31 32 32 33
REMARK SMILES IDX 33 34 94 35 34 36 93 37 35 38 36 39 37 40 87 41 38 42 92 43
REMARK SMILES IDX 86 44 88 45 39 46 91 47 85 48 84 49 40 51 72 52 52 53 71 54
REMARK SMILES IDX 53 55 56 56 70 57 89 58 54 59 55 60 69 62 90 63 57 64 41 65
REMARK SMILES IDX 42 66 50 67 43 68 49 69 51 70 48 71 44 72 45 73 46 74 47 75
REMARK SMILES IDX 73 76 74 77 82 78 75 79 81 80 83 81 80 82 76 83 77 84 78 85
REMARK SMILES IDX 79 86 58 87 59 88 67 89 60 90 66 91 68 92 65 93 61 94 62 95
REMARK SMILES IDX 63 96 64 97
REMARK H PARENT 17 14 88 50 56 61
REMARK Flexibility Score: inf
ROOT
ATOM      1  C   UNL A   1      34.058  35.171  28.838  1.00  0.00     0.275 C 
ENDROOT
BRANCH   1   2
ATOM      2  O   UNL A   1      34.004  33.780  29.213  1.00  0.00    -0.458 OA
BRANCH   2   3
ATOM      3  C   UNL A   1      33.715  32.900  28.215  1.00  0.00     0.340 C 
ATOM      4  O   UNL A   1      32.746  32.944  27.478  1.00  0.00    -0.246 OA
BRANCH   3   5
ATOM      5  C   UNL A   1      34.841  31.948  28.013  1.00  0.00     0.083 A 
ATOM      6  C   UNL A   1      34.706  30.566  27.789  1.00  0.00     0.055 A 
ATOM      7  C   UNL A   1      35.857  29.757  27.816  1.00  0.00     0.027 A 
ATOM      8  C   UNL A   1      37.124  30.307  28.015  1.00  0.00     0.002 A 
ATOM      9  C   UNL A   1      36.129  32.493  28.181  1.00  0.00     0.018 A 
ATOM     10  C   UNL A   1      37.261  31.677  28.193  1.00  0.00     0.001 A 
BRANCH   6  11
ATOM     11  N   UNL A   1      33.498  29.875  27.569  1.00  0.00    -0.324 N 
ATOM     12  O   UNL A   1      33.560  29.519  25.283  1.00  0.00    -0.273 OA
ATOM     13  C   UNL A   1      32.940  29.565  26.342  1.00  0.00     0.244 C 
ATOM     14  H   UNL A   1      33.001  29.584  28.368  1.00  0.00     0.170 HD
BRANCH  13  15
ATOM     15  C   UNL A   1      31.484  29.121  26.451  1.00  0.00     0.227 C 
BRANCH  15  16
ATOM     16  N   UNL A   1      31.268  27.981  25.565  1.00  0.00    -0.283 N 
ATOM     17  C   UNL A   1      31.600  26.716  26.022  1.00  0.00     0.266 C 
ATOM     18  C   UNL A   1      30.767  28.071  24.287  1.00  0.00     0.148 C 
ATOM     19  O   UNL A   1      32.114  26.477  27.104  1.00  0.00    -0.268 OA
ATOM     20  C   UNL A   1      31.299  25.695  24.973  1.00  0.00     0.081 C 
ATOM     21  S   UNL A   1      30.541  26.466  23.623  1.00  0.00    -0.054 SA
ATOM     22  S   UNL A   1      30.403  29.448  23.416  1.00  0.00    -0.052 S 
ATOM     23  C   UNL A   1      31.616  24.392  24.937  1.00  0.00     0.040 C 
BRANCH  23  24
ATOM     24  C   UNL A   1      32.365  23.722  25.940  1.00  0.00     0.028 A 
ATOM     25  C   UNL A   1      31.949  23.011  27.049  1.00  0.00     0.020 A 
ATOM     26  S   UNL A   1      34.083  23.712  25.822  1.00  0.00    -0.144 S 
ATOM     27  C   UNL A   1      33.035  22.523  27.834  1.00  0.00     0.012 A 
ATOM     28  C   UNL A   1      34.252  22.848  27.285  1.00  0.00     0.065 A 
ENDBRANCH  23  24
ENDBRANCH  15  16
ENDBRANCH  13  15
ENDBRANCH   6  11
ENDBRANCH   3   5
ENDBRANCH   2   3
ENDBRANCH   1   2
BRANCH   1  29
ATOM     29  C   UNL A   1      32.953  35.950  29.545  1.00  0.00     0.275 C 
BRANCH  29  30
ATOM     30  O   UNL A   1      32.521  35.198  30.689  1.00  0.00    -0.458 OA
BRANCH  30  31
ATOM     31  C   UNL A   1      32.773  35.761  31.891  1.00  0.00     0.338 C 
ATOM     32  O   UNL A   1      32.176  36.675  32.432  1.00  0.00    -0.246 OA
BRANCH  31  33
ATOM     33  C   UNL A   1      33.866  35.008  32.518  1.00  0.00     0.060 A 
ATOM     34  C   UNL A   1      35.143  35.567  32.495  1.00  0.00     0.016 A 
ATOM     35  C   UNL A   1      33.654  33.741  33.053  1.00  0.00     0.016 A 
ATOM     36  C   UNL A   1      36.233  34.841  32.966  1.00  0.00     0.010 A 
ATOM     37  C   UNL A   1      34.741  33.034  33.577  1.00  0.00     0.010 A 
ATOM     38  C   UNL A   1      36.046  33.566  33.515  1.00  0.00    -0.014 A 
BRANCH  38  39
ATOM     39  C   UNL A   1      37.217  32.749  33.939  1.00  0.00     0.031 A 
ATOM     40  C   UNL A   1      37.877  33.039  35.261  1.00  0.00     0.074 A 
ATOM     41  C   UNL A   1      37.672  31.738  33.172  1.00  0.00     0.049 A 
ATOM     42  N   UNL A   1      39.016  32.607  35.736  1.00  0.00    -0.248 NA
ATOM     43  C   UNL A   1      37.158  33.955  36.161  1.00  0.00     0.031 C 
ATOM     44  C   UNL A   1      37.077  31.298  31.910  1.00  0.00     0.029 A 
ATOM     45  N   UNL A   1      38.741  30.893  33.346  1.00  0.00    -0.354 N 
ATOM     46  C   UNL A   1      39.178  33.238  36.967  1.00  0.00     0.074 A 
ATOM     47  C   UNL A   1      38.023  34.090  37.156  1.00  0.00     0.031 C 
ATOM     48  C   UNL A   1      37.771  30.249  31.439  1.00  0.00     0.029 A 
ATOM     49  C   UNL A   1      38.912  29.999  32.314  1.00  0.00     0.049 A 
ATOM     50  H   UNL A   1      39.329  30.924  34.134  1.00  0.00     0.167 HD
ATOM     51  C   UNL A   1      40.200  33.119  37.850  1.00  0.00     0.034 A 
ATOM     52  C   UNL A   1      39.900  29.114  32.074  1.00  0.00     0.034 A 
ATOM     53  C   UNL A   1      41.324  32.234  37.659  1.00  0.00     0.049 A 
ATOM     54  C   UNL A   1      41.055  29.038  33.042  1.00  0.00     0.074 A 
ATOM     55  C   UNL A   1      42.427  32.045  38.475  1.00  0.00     0.029 A 
ATOM     56  N   UNL A   1      41.481  31.374  36.578  1.00  0.00    -0.354 N 
ATOM     57  N   UNL A   1      41.249  29.713  34.151  1.00  0.00    -0.248 NA
ATOM     58  C   UNL A   1      42.131  28.094  32.714  1.00  0.00     0.031 C 
ATOM     59  C   UNL A   1      43.270  31.108  37.866  1.00  0.00     0.029 A 
ATOM     60  C   UNL A   1      42.666  30.665  36.701  1.00  0.00     0.049 A 
ATOM     61  H   UNL A   1      40.844  31.283  35.834  1.00  0.00     0.167 HD
ATOM     62  C   UNL A   1      42.465  29.266  34.659  1.00  0.00     0.074 A 
ATOM     63  C   UNL A   1      42.945  28.245  33.748  1.00  0.00     0.031 C 
ATOM     64  C   UNL A   1      43.130  29.661  35.774  1.00  0.00     0.034 A 
BRANCH  51  65
ATOM     65  C   UNL A   1      40.174  34.017  39.064  1.00  0.00     0.023 A 
ATOM     66  C   UNL A   1      39.472  33.675  40.232  1.00  0.00     0.031 A 
ATOM     67  C   UNL A   1      40.834  35.259  39.032  1.00  0.00     0.131 A 
ATOM     68  C   UNL A   1      39.387  34.594  41.291  1.00  0.00     0.055 A 
ATOM     69  C   UNL A   1      40.811  36.135  40.118  1.00  0.00     0.041 A 
ATOM     70  F   UNL A   1      41.502  35.650  37.935  1.00  0.00    -0.206 F 
ATOM     71  C   UNL A   1      40.071  35.811  41.252  1.00  0.00     0.022 A 
BRANCH  68  72
ATOM     72  S   UNL A   1      38.258  34.234  42.665  1.00  0.00     0.124 S 
ATOM     73  O   UNL A   1      39.136  33.524  43.590  1.00  0.00    -0.237 OA
ATOM     74  O   UNL A   1      37.834  35.566  43.082  1.00  0.00    -0.237 OA
ATOM     75  O   UNL A   1      37.218  33.413  42.049  1.00  0.00    -0.744 OA
ENDBRANCH  68  72
ENDBRANCH  51  65
BRANCH  52  76
ATOM     76  C   UNL A   1      39.892  28.281  30.835  1.00  0.00     0.023 A 
ATOM     77  C   UNL A   1      40.650  28.645  29.711  1.00  0.00     0.031 A 
ATOM     78  C   UNL A   1      39.082  27.135  30.739  1.00  0.00     0.131 A 
ATOM     79  C   UNL A   1      40.552  27.894  28.528  1.00  0.00     0.055 A 
ATOM     80  C   UNL A   1      39.033  26.359  29.580  1.00  0.00     0.041 A 
ATOM     81  F   UNL A   1      38.329  26.746  31.781  1.00  0.00    -0.206 F 
ATOM     82  C   UNL A   1      39.760  26.745  28.461  1.00  0.00     0.022 A 
BRANCH  79  83
ATOM     83  S   UNL A   1      41.404  28.494  27.043  1.00  0.00     0.124 S 
ATOM     84  O   UNL A   1      40.318  29.145  26.318  1.00  0.00    -0.237 OA
ATOM     85  O   UNL A   1      42.416  29.379  27.611  1.00  0.00    -0.237 OA
ATOM     86  O   UNL A   1      41.921  27.273  26.429  1.00  0.00    -0.744 OA
ENDBRANCH  79  83
ENDBRANCH  52  76
BRANCH  64  87
ATOM     87  C   UNL A   1      44.423  28.950  36.079  1.00  0.00     0.023 A 
ATOM     88  C   UNL A   1      45.660  29.443  35.626  1.00  0.00     0.031 A 
ATOM     89  C   UNL A   1      44.413  27.750  36.809  1.00  0.00     0.131 A 
ATOM     90  C   UNL A   1      46.831  28.708  35.861  1.00  0.00     0.055 A 
ATOM     91  C   UNL A   1      45.588  27.050  37.085  1.00  0.00     0.041 A 
ATOM     92  F   UNL A   1      43.259  27.236  37.263  1.00  0.00    -0.206 F 
ATOM     93  C   UNL A   1      46.804  27.521  36.599  1.00  0.00     0.022 A 
BRANCH  90  94
ATOM     94  S   UNL A   1      48.383  29.280  35.117  1.00  0.00     0.124 S 
ATOM     95  O   UNL A   1      47.965  29.611  33.758  1.00  0.00    -0.237 OA
ATOM     96  O   UNL A   1      48.740  30.411  35.968  1.00  0.00    -0.237 OA
ATOM     97  O   UNL A   1      49.265  28.120  35.228  1.00  0.00    -0.744 OA
ENDBRANCH  90  94
ENDBRANCH  64  87
ENDBRANCH  38  39
ENDBRANCH  31  33
ENDBRANCH  30  31
ENDBRANCH  29  30
ENDBRANCH   1  29
TORSDOF 18
ENDMDL
