MODEL 1
REMARK VINA RESULT:     -11.8      0.000      0.000
REMARK SMILES O=C(OCCOC(=O)[C@H]1[NH2+][C@@H]2CC[C@H]1CC2(F)F)c1ccc(-c2c3nc(c(-c4cc(S(=O)(=O)[O-])ccc4F)c4ccc([nH]4)c(-c4cc(S(=O)(=O)[O-])ccc4F)c4nc(c(-c5cc(S(=O)(=O)[O-])ccc5F)c5ccc2[nH]5)C=C4)C=C3)cc1
REMARK SMILES IDX 3 1 2 2 1 3 19 4 20 5 81 6 21 7 80 8 22 9 23 10 24 11 74 12
REMARK SMILES IDX 25 13 79 14 73 15 75 16 26 17 78 18 72 19 71 20 27 22 59 23
REMARK SMILES IDX 39 24 58 25 40 26 43 27 57 28 76 29 41 30 42 31 56 33 77 34
REMARK SMILES IDX 44 35 28 36 29 37 37 38 30 39 36 40 38 41 35 42 31 43 32 44
REMARK SMILES IDX 33 45 34 46 60 47 61 48 69 49 62 50 68 51 70 52 67 53 63 54
REMARK SMILES IDX 64 55 65 56 66 57 45 58 46 59 54 60 47 61 53 62 55 63 52 64
REMARK SMILES IDX 48 65 49 66 50 67 51 68 4 69 5 70 6 71 7 72 8 73 9 74 10 75
REMARK SMILES IDX 14 76 11 77 13 80 15 81 12 82 16 83 17 84 18 85
REMARK H PARENT 75 21 43 32 10 78 10 79
REMARK Flexibility Score: inf
ROOT
ATOM      1  O   UNL A   1      33.983  33.356  27.547  1.00  0.00    -0.458 OA
ENDROOT
BRANCH   1   2
ATOM      2  C   UNL A   1      34.173  32.016  27.628  1.00  0.00     0.338 C 
ATOM      3  O   UNL A   1      33.224  31.279  27.361  1.00  0.00    -0.246 OA
BRANCH   2   4
ATOM      4  C   UNL A   1      35.402  31.384  28.216  1.00  0.00     0.060 A 
ATOM      5  C   UNL A   1      35.557  30.042  28.563  1.00  0.00     0.016 A 
ATOM      6  C   UNL A   1      36.520  32.228  28.373  1.00  0.00     0.016 A 
ATOM      7  C   UNL A   1      36.801  29.531  28.933  1.00  0.00     0.010 A 
ATOM      8  C   UNL A   1      37.776  31.720  28.723  1.00  0.00     0.010 A 
ATOM      9  C   UNL A   1      37.921  30.359  29.000  1.00  0.00    -0.014 A 
BRANCH   9  10
ATOM     10  C   UNL A   1      39.171  29.802  29.564  1.00  0.00     0.031 A 
ATOM     11  C   UNL A   1      39.583  30.274  30.928  1.00  0.00     0.074 A 
ATOM     12  C   UNL A   1      39.829  28.810  28.934  1.00  0.00     0.049 A 
ATOM     13  N   UNL A   1      40.553  29.853  31.692  1.00  0.00    -0.248 NA
ATOM     14  C   UNL A   1      38.782  31.362  31.515  1.00  0.00     0.031 C 
ATOM     15  C   UNL A   1      39.474  28.258  27.624  1.00  0.00     0.029 A 
ATOM     16  N   UNL A   1      40.914  28.064  29.320  1.00  0.00    -0.354 N 
ATOM     17  C   UNL A   1      40.460  30.604  32.857  1.00  0.00     0.074 A 
ATOM     18  C   UNL A   1      39.392  31.558  32.669  1.00  0.00     0.031 C 
ATOM     19  C   UNL A   1      40.310  27.246  27.330  1.00  0.00     0.029 A 
ATOM     20  C   UNL A   1      41.275  27.091  28.413  1.00  0.00     0.049 A 
ATOM     21  H   UNL A   1      41.391  28.211  30.169  1.00  0.00     0.167 HD
ATOM     22  C   UNL A   1      41.180  30.486  33.997  1.00  0.00     0.034 A 
ATOM     23  C   UNL A   1      42.273  26.183  28.463  1.00  0.00     0.034 A 
ATOM     24  C   UNL A   1      42.258  29.547  34.151  1.00  0.00     0.049 A 
ATOM     25  C   UNL A   1      43.134  26.151  29.706  1.00  0.00     0.074 A 
ATOM     26  C   UNL A   1      43.102  29.370  35.230  1.00  0.00     0.029 A 
ATOM     27  N   UNL A   1      42.644  28.627  33.183  1.00  0.00    -0.354 N 
ATOM     28  N   UNL A   1      43.028  26.866  30.806  1.00  0.00    -0.248 NA
ATOM     29  C   UNL A   1      44.236  25.181  29.726  1.00  0.00     0.031 C 
ATOM     30  C   UNL A   1      44.038  28.388  34.890  1.00  0.00     0.029 A 
ATOM     31  C   UNL A   1      43.731  27.897  33.630  1.00  0.00     0.049 A 
ATOM     32  H   UNL A   1      42.208  28.512  32.307  1.00  0.00     0.167 HD
ATOM     33  C   UNL A   1      44.032  26.408  31.655  1.00  0.00     0.074 A 
ATOM     34  C   UNL A   1      44.707  25.335  30.953  1.00  0.00     0.031 C 
ATOM     35  C   UNL A   1      44.377  26.833  32.899  1.00  0.00     0.034 A 
BRANCH  22  36
ATOM     36  C   UNL A   1      40.838  31.435  35.116  1.00  0.00     0.023 A 
ATOM     37  C   UNL A   1      39.750  31.191  35.974  1.00  0.00     0.031 A 
ATOM     38  C   UNL A   1      41.551  32.634  35.275  1.00  0.00     0.131 A 
ATOM     39  C   UNL A   1      39.357  32.170  36.898  1.00  0.00     0.055 A 
ATOM     40  C   UNL A   1      41.204  33.569  36.252  1.00  0.00     0.041 A 
ATOM     41  F   UNL A   1      42.576  32.932  34.461  1.00  0.00    -0.206 F 
ATOM     42  C   UNL A   1      40.092  33.347  37.060  1.00  0.00     0.022 A 
BRANCH  39  43
ATOM     43  S   UNL A   1      37.785  31.953  37.776  1.00  0.00     0.124 S 
ATOM     44  O   UNL A   1      38.188  32.179  39.162  1.00  0.00    -0.237 OA
ATOM     45  O   UNL A   1      36.943  32.985  37.181  1.00  0.00    -0.237 OA
ATOM     46  O   UNL A   1      37.403  30.578  37.461  1.00  0.00    -0.744 OA
ENDBRANCH  39  43
ENDBRANCH  22  36
BRANCH  23  47
ATOM     47  C   UNL A   1      42.552  25.260  27.318  1.00  0.00     0.023 A 
ATOM     48  C   UNL A   1      42.019  23.960  27.271  1.00  0.00     0.031 A 
ATOM     49  C   UNL A   1      43.454  25.628  26.301  1.00  0.00     0.131 A 
ATOM     50  C   UNL A   1      42.447  23.056  26.282  1.00  0.00     0.055 A 
ATOM     51  C   UNL A   1      43.825  24.747  25.281  1.00  0.00     0.041 A 
ATOM     52  F   UNL A   1      44.005  26.853  26.291  1.00  0.00    -0.206 F 
ATOM     53  C   UNL A   1      43.337  23.446  25.280  1.00  0.00     0.022 A 
BRANCH  50  54
ATOM     54  S   UNL A   1      41.932  21.319  26.405  1.00  0.00     0.124 S 
ATOM     55  O   UNL A   1      42.753  20.692  25.376  1.00  0.00    -0.237 OA
ATOM     56  O   UNL A   1      42.278  20.999  27.786  1.00  0.00    -0.237 OA
ATOM     57  O   UNL A   1      40.499  21.366  26.118  1.00  0.00    -0.744 OA
ENDBRANCH  50  54
ENDBRANCH  23  47
BRANCH  35  58
ATOM     58  C   UNL A   1      45.509  26.103  33.577  1.00  0.00     0.023 A 
ATOM     59  C   UNL A   1      45.280  24.962  34.365  1.00  0.00     0.031 A 
ATOM     60  C   UNL A   1      46.831  26.560  33.438  1.00  0.00     0.131 A 
ATOM     61  C   UNL A   1      46.349  24.358  35.041  1.00  0.00     0.055 A 
ATOM     62  C   UNL A   1      47.900  25.909  34.053  1.00  0.00     0.041 A 
ATOM     63  F   UNL A   1      47.105  27.646  32.695  1.00  0.00    -0.206 F 
ATOM     64  C   UNL A   1      47.660  24.811  34.873  1.00  0.00     0.022 A 
BRANCH  61  65
ATOM     65  S   UNL A   1      45.985  23.038  36.229  1.00  0.00     0.124 S 
ATOM     66  O   UNL A   1      44.900  22.324  35.564  1.00  0.00    -0.237 OA
ATOM     67  O   UNL A   1      47.258  22.330  36.308  1.00  0.00    -0.237 OA
ATOM     68  O   UNL A   1      45.602  23.763  37.438  1.00  0.00    -0.744 OA
ENDBRANCH  61  65
ENDBRANCH  35  58
ENDBRANCH   9  10
ENDBRANCH   2   4
ENDBRANCH   1   2
BRANCH   1  69
ATOM     69  C   UNL A   1      32.878  34.154  28.009  1.00  0.00     0.275 C 
BRANCH  69  70
ATOM     70  C   UNL A   1      33.289  35.284  28.956  1.00  0.00     0.274 C 
BRANCH  70  71
ATOM     71  O   UNL A   1      32.853  35.051  30.302  1.00  0.00    -0.458 OA
BRANCH  71  72
ATOM     72  C   UNL A   1      33.098  36.043  31.201  1.00  0.00     0.365 C 
ATOM     73  O   UNL A   1      32.904  37.239  30.994  1.00  0.00    -0.245 OA
BRANCH  72  74
ATOM     74  C   UNL A   1      33.692  35.483  32.504  1.00  0.00     0.297 C 
ATOM     75  N   UNL A   1      33.021  34.201  32.875  1.00  0.00    -0.327 N 
ATOM     76  C   UNL A   1      35.229  35.294  32.436  1.00  0.00     0.066 C 
ATOM     77  C   UNL A   1      34.037  33.124  33.053  1.00  0.00     0.254 C 
ATOM     78  H   UNL A   1      32.372  33.933  32.135  1.00  0.00     0.347 HD
ATOM     79  H   UNL A   1      32.514  34.329  33.751  1.00  0.00     0.347 HD
ATOM     80  C   UNL A   1      35.692  34.847  33.839  1.00  0.00     0.017 C 
ATOM     81  C   UNL A   1      35.634  34.196  31.433  1.00  0.00     0.094 C 
ATOM     82  C   UNL A   1      34.987  33.531  34.195  1.00  0.00     0.072 C 
ATOM     83  C   UNL A   1      34.869  32.922  31.762  1.00  0.00     0.298 C 
ATOM     84  F   UNL A   1      35.733  31.887  31.905  1.00  0.00    -0.200 F 
ATOM     85  F   UNL A   1      34.046  32.594  30.734  1.00  0.00    -0.200 F 
ENDBRANCH  72  74
ENDBRANCH  71  72
ENDBRANCH  70  71
ENDBRANCH  69  70
ENDBRANCH   1  69
TORSDOF 14
ENDMDL
MODEL 2
REMARK VINA RESULT:     -11.7      4.985     12.756
REMARK SMILES O=C(OCCOC(=O)[C@H]1[NH2+][C@@H]2CC[C@H]1CC2(F)F)c1ccc(-c2c3nc(c(-c4cc(S(=O)(=O)[O-])ccc4F)c4ccc([nH]4)c(-c4cc(S(=O)(=O)[O-])ccc4F)c4nc(c(-c5cc(S(=O)(=O)[O-])ccc5F)c5ccc2[nH]5)C=C4)C=C3)cc1
REMARK SMILES IDX 3 1 2 2 1 3 19 4 20 5 81 6 21 7 80 8 22 9 23 10 24 11 74 12
REMARK SMILES IDX 25 13 79 14 73 15 75 16 26 17 78 18 72 19 71 20 27 22 59 23
REMARK SMILES IDX 39 24 58 25 40 26 43 27 57 28 76 29 41 30 42 31 56 33 77 34
REMARK SMILES IDX 44 35 28 36 29 37 37 38 30 39 36 40 38 41 35 42 31 43 32 44
REMARK SMILES IDX 33 45 34 46 60 47 61 48 69 49 62 50 68 51 70 52 67 53 63 54
REMARK SMILES IDX 64 55 65 56 66 57 45 58 46 59 54 60 47 61 53 62 55 63 52 64
REMARK SMILES IDX 48 65 49 66 50 67 51 68 4 69 5 70 6 71 7 72 8 73 9 74 10 75
REMARK SMILES IDX 14 76 11 77 13 80 15 81 12 82 16 83 17 84 18 85
REMARK H PARENT 75 21 43 32 10 78 10 79
REMARK Flexibility Score: inf
ROOT
ATOM      1  O   UNL A   1      40.411  20.536  26.853  1.00  0.00    -0.458 OA
ENDROOT
BRANCH   1   2
ATOM      2  C   UNL A   1      39.688  21.646  26.565  1.00  0.00     0.338 C 
ATOM      3  O   UNL A   1      38.733  21.533  25.797  1.00  0.00    -0.246 OA
BRANCH   2   4
ATOM      4  C   UNL A   1      40.101  23.033  26.964  1.00  0.00     0.060 A 
ATOM      5  C   UNL A   1      39.552  24.227  26.495  1.00  0.00     0.016 A 
ATOM      6  C   UNL A   1      41.102  23.124  27.952  1.00  0.00     0.016 A 
ATOM      7  C   UNL A   1      39.891  25.453  27.069  1.00  0.00     0.010 A 
ATOM      8  C   UNL A   1      41.433  24.346  28.548  1.00  0.00     0.010 A 
ATOM      9  C   UNL A   1      40.819  25.521  28.108  1.00  0.00    -0.014 A 
BRANCH   9  10
ATOM     10  C   UNL A   1      41.269  26.857  28.558  1.00  0.00     0.031 A 
ATOM     11  C   UNL A   1      42.682  27.253  28.240  1.00  0.00     0.074 A 
ATOM     12  C   UNL A   1      40.399  27.729  29.104  1.00  0.00     0.049 A 
ATOM     13  N   UNL A   1      43.277  28.401  28.406  1.00  0.00    -0.248 NA
ATOM     14  C   UNL A   1      43.534  26.212  27.640  1.00  0.00     0.031 C 
ATOM     15  C   UNL A   1      38.995  27.444  29.409  1.00  0.00     0.029 A 
ATOM     16  N   UNL A   1      40.554  29.042  29.471  1.00  0.00    -0.354 N 
ATOM     17  C   UNL A   1      44.562  28.228  27.907  1.00  0.00     0.074 A 
ATOM     18  C   UNL A   1      44.685  26.847  27.505  1.00  0.00     0.031 C 
ATOM     19  C   UNL A   1      38.414  28.557  29.891  1.00  0.00     0.029 A 
ATOM     20  C   UNL A   1      39.404  29.626  29.956  1.00  0.00     0.049 A 
ATOM     21  H   UNL A   1      41.410  29.523  29.394  1.00  0.00     0.167 HD
ATOM     22  C   UNL A   1      45.543  29.150  27.765  1.00  0.00     0.034 A 
ATOM     23  C   UNL A   1      39.187  30.883  30.398  1.00  0.00     0.034 A 
ATOM     24  C   UNL A   1      45.408  30.514  28.199  1.00  0.00     0.049 A 
ATOM     25  C   UNL A   1      40.339  31.862  30.330  1.00  0.00     0.074 A 
ATOM     26  C   UNL A   1      46.346  31.528  28.167  1.00  0.00     0.029 A 
ATOM     27  N   UNL A   1      44.253  31.052  28.754  1.00  0.00    -0.354 N 
ATOM     28  N   UNL A   1      41.550  31.684  29.847  1.00  0.00    -0.248 NA
ATOM     29  C   UNL A   1      40.093  33.213  30.850  1.00  0.00     0.031 C 
ATOM     30  C   UNL A   1      45.778  32.660  28.761  1.00  0.00     0.029 A 
ATOM     31  C   UNL A   1      44.462  32.377  29.092  1.00  0.00     0.049 A 
ATOM     32  H   UNL A   1      43.409  30.562  28.887  1.00  0.00     0.167 HD
ATOM     33  C   UNL A   1      42.196  32.910  29.979  1.00  0.00     0.074 A 
ATOM     34  C   UNL A   1      41.230  33.824  30.554  1.00  0.00     0.031 C 
ATOM     35  C   UNL A   1      43.471  33.258  29.665  1.00  0.00     0.034 A 
BRANCH  22  36
ATOM     36  C   UNL A   1      46.840  28.673  27.165  1.00  0.00     0.023 A 
ATOM     37  C   UNL A   1      46.984  28.502  25.776  1.00  0.00     0.031 A 
ATOM     38  C   UNL A   1      47.913  28.303  27.993  1.00  0.00     0.131 A 
ATOM     39  C   UNL A   1      48.143  27.902  25.264  1.00  0.00     0.055 A 
ATOM     40  C   UNL A   1      49.097  27.781  27.468  1.00  0.00     0.041 A 
ATOM     41  F   UNL A   1      47.815  28.412  29.327  1.00  0.00    -0.206 F 
ATOM     42  C   UNL A   1      49.211  27.563  26.098  1.00  0.00     0.022 A 
BRANCH  39  43
ATOM     43  S   UNL A   1      48.173  27.430  23.512  1.00  0.00     0.124 S 
ATOM     44  O   UNL A   1      47.957  25.987  23.593  1.00  0.00    -0.237 OA
ATOM     45  O   UNL A   1      47.073  28.208  22.954  1.00  0.00    -0.237 OA
ATOM     46  O   UNL A   1      49.507  27.829  23.072  1.00  0.00    -0.744 OA
ENDBRANCH  39  43
ENDBRANCH  22  36
BRANCH  23  47
ATOM     47  C   UNL A   1      37.868  31.296  30.973  1.00  0.00     0.023 A 
ATOM     48  C   UNL A   1      36.887  31.930  30.189  1.00  0.00     0.031 A 
ATOM     49  C   UNL A   1      37.611  31.164  32.351  1.00  0.00     0.131 A 
ATOM     50  C   UNL A   1      35.740  32.470  30.795  1.00  0.00     0.055 A 
ATOM     51  C   UNL A   1      36.438  31.645  32.938  1.00  0.00     0.041 A 
ATOM     52  F   UNL A   1      38.509  30.576  33.157  1.00  0.00    -0.206 F 
ATOM     53  C   UNL A   1      35.503  32.322  32.163  1.00  0.00     0.022 A 
BRANCH  50  54
ATOM     54  S   UNL A   1      34.625  33.497  29.794  1.00  0.00     0.124 S 
ATOM     55  O   UNL A   1      35.563  34.398  29.135  1.00  0.00    -0.237 OA
ATOM     56  O   UNL A   1      33.984  32.502  28.941  1.00  0.00    -0.237 OA
ATOM     57  O   UNL A   1      33.752  34.121  30.786  1.00  0.00    -0.744 OA
ENDBRANCH  50  54
ENDBRANCH  23  47
BRANCH  35  58
ATOM     58  C   UNL A   1      43.864  34.693  29.905  1.00  0.00     0.023 A 
ATOM     59  C   UNL A   1      43.595  35.697  28.960  1.00  0.00     0.031 A 
ATOM     60  C   UNL A   1      44.523  35.058  31.093  1.00  0.00     0.131 A 
ATOM     61  C   UNL A   1      44.045  37.006  29.187  1.00  0.00     0.055 A 
ATOM     62  C   UNL A   1      44.901  36.376  31.346  1.00  0.00     0.041 A 
ATOM     63  F   UNL A   1      44.803  34.137  32.030  1.00  0.00    -0.206 F 
ATOM     64  C   UNL A   1      44.677  37.356  30.383  1.00  0.00     0.022 A 
BRANCH  61  65
ATOM     65  S   UNL A   1      43.888  38.218  27.849  1.00  0.00     0.124 S 
ATOM     66  O   UNL A   1      42.989  37.534  26.926  1.00  0.00    -0.237 OA
ATOM     67  O   UNL A   1      43.330  39.375  28.541  1.00  0.00    -0.237 OA
ATOM     68  O   UNL A   1      45.260  38.382  27.374  1.00  0.00    -0.744 OA
ENDBRANCH  61  65
ENDBRANCH  35  58
ENDBRANCH   9  10
ENDBRANCH   2   4
ENDBRANCH   1   2
BRANCH   1  69
ATOM     69  C   UNL A   1      40.848  19.476  25.982  1.00  0.00     0.275 C 
BRANCH  69  70
ATOM     70  C   UNL A   1      42.331  19.132  26.128  1.00  0.00     0.274 C 
BRANCH  70  71
ATOM     71  O   UNL A   1      43.104  19.564  24.999  1.00  0.00    -0.458 OA
BRANCH  71  72
ATOM     72  C   UNL A   1      44.440  19.310  25.044  1.00  0.00     0.365 C 
ATOM     73  O   UNL A   1      44.939  18.253  25.422  1.00  0.00    -0.245 OA
BRANCH  72  74
ATOM     74  C   UNL A   1      45.257  20.534  24.599  1.00  0.00     0.297 C 
ATOM     75  N   UNL A   1      44.586  21.222  23.454  1.00  0.00    -0.327 N 
ATOM     76  C   UNL A   1      45.527  21.534  25.752  1.00  0.00     0.066 C 
ATOM     77  C   UNL A   1      44.367  22.661  23.779  1.00  0.00     0.254 C 
ATOM     78  H   UNL A   1      43.686  20.776  23.273  1.00  0.00     0.347 HD
ATOM     79  H   UNL A   1      45.180  21.153  22.628  1.00  0.00     0.347 HD
ATOM     80  C   UNL A   1      46.449  22.636  25.190  1.00  0.00     0.017 C 
ATOM     81  C   UNL A   1      44.233  22.209  26.249  1.00  0.00     0.094 C 
ATOM     82  C   UNL A   1      45.737  23.323  24.016  1.00  0.00     0.072 C 
ATOM     83  C   UNL A   1      43.508  22.821  25.058  1.00  0.00     0.298 C 
ATOM     84  F   UNL A   1      43.245  24.128  25.300  1.00  0.00    -0.200 F 
ATOM     85  F   UNL A   1      42.307  22.214  24.882  1.00  0.00    -0.200 F 
ENDBRANCH  72  74
ENDBRANCH  71  72
ENDBRANCH  70  71
ENDBRANCH  69  70
ENDBRANCH   1  69
TORSDOF 14
ENDMDL
MODEL 3
REMARK VINA RESULT:     -11.6      1.448      1.675
REMARK SMILES O=C(OCCOC(=O)[C@H]1[NH2+][C@@H]2CC[C@H]1CC2(F)F)c1ccc(-c2c3nc(c(-c4cc(S(=O)(=O)[O-])ccc4F)c4ccc([nH]4)c(-c4cc(S(=O)(=O)[O-])ccc4F)c4nc(c(-c5cc(S(=O)(=O)[O-])ccc5F)c5ccc2[nH]5)C=C4)C=C3)cc1
REMARK SMILES IDX 3 1 2 2 1 3 19 4 20 5 81 6 21 7 80 8 22 9 23 10 24 11 74 12
REMARK SMILES IDX 25 13 79 14 73 15 75 16 26 17 78 18 72 19 71 20 27 22 59 23
REMARK SMILES IDX 39 24 58 25 40 26 43 27 57 28 76 29 41 30 42 31 56 33 77 34
REMARK SMILES IDX 44 35 28 36 29 37 37 38 30 39 36 40 38 41 35 42 31 43 32 44
REMARK SMILES IDX 33 45 34 46 60 47 61 48 69 49 62 50 68 51 70 52 67 53 63 54
REMARK SMILES IDX 64 55 65 56 66 57 45 58 46 59 54 60 47 61 53 62 55 63 52 64
REMARK SMILES IDX 48 65 49 66 50 67 51 68 4 69 5 70 6 71 7 72 8 73 9 74 10 75
REMARK SMILES IDX 14 76 11 77 13 80 15 81 12 82 16 83 17 84 18 85
REMARK H PARENT 75 21 43 32 10 78 10 79
REMARK Flexibility Score: inf
ROOT
ATOM      1  O   UNL A   1      34.140  33.207  27.698  1.00  0.00    -0.458 OA
ENDROOT
BRANCH   1   2
ATOM      2  C   UNL A   1      34.356  31.869  27.672  1.00  0.00     0.338 C 
ATOM      3  O   UNL A   1      33.425  31.138  27.334  1.00  0.00    -0.246 OA
BRANCH   2   4
ATOM      4  C   UNL A   1      35.590  31.216  28.223  1.00  0.00     0.060 A 
ATOM      5  C   UNL A   1      35.756  29.857  28.495  1.00  0.00     0.016 A 
ATOM      6  C   UNL A   1      36.701  32.058  28.428  1.00  0.00     0.016 A 
ATOM      7  C   UNL A   1      37.005  29.336  28.835  1.00  0.00     0.010 A 
ATOM      8  C   UNL A   1      37.962  31.542  28.748  1.00  0.00     0.010 A 
ATOM      9  C   UNL A   1      38.118  30.169  28.948  1.00  0.00    -0.014 A 
BRANCH   9  10
ATOM     10  C   UNL A   1      39.373  29.591  29.479  1.00  0.00     0.031 A 
ATOM     11  C   UNL A   1      39.823  30.048  30.837  1.00  0.00     0.074 A 
ATOM     12  C   UNL A   1      40.004  28.595  28.827  1.00  0.00     0.049 A 
ATOM     13  N   UNL A   1      40.804  29.609  31.575  1.00  0.00    -0.248 NA
ATOM     14  C   UNL A   1      39.049  31.142  31.449  1.00  0.00     0.031 C 
ATOM     15  C   UNL A   1      39.611  28.057  27.522  1.00  0.00     0.029 A 
ATOM     16  N   UNL A   1      41.086  27.832  29.183  1.00  0.00    -0.354 N 
ATOM     17  C   UNL A   1      40.747  30.353  32.747  1.00  0.00     0.074 A 
ATOM     18  C   UNL A   1      39.688  31.322  32.590  1.00  0.00     0.031 C 
ATOM     19  C   UNL A   1      40.426  27.036  27.202  1.00  0.00     0.029 A 
ATOM     20  C   UNL A   1      41.414  26.861  28.262  1.00  0.00     0.049 A 
ATOM     21  H   UNL A   1      41.585  27.966  30.022  1.00  0.00     0.167 HD
ATOM     22  C   UNL A   1      41.492  30.217  33.869  1.00  0.00     0.034 A 
ATOM     23  C   UNL A   1      42.400  25.939  28.282  1.00  0.00     0.034 A 
ATOM     24  C   UNL A   1      42.561  29.263  33.992  1.00  0.00     0.049 A 
ATOM     25  C   UNL A   1      43.289  25.887  29.505  1.00  0.00     0.074 A 
ATOM     26  C   UNL A   1      43.427  29.067  35.050  1.00  0.00     0.029 A 
ATOM     27  N   UNL A   1      42.912  28.345  33.009  1.00  0.00    -0.354 N 
ATOM     28  N   UNL A   1      43.218  26.596  30.612  1.00  0.00    -0.248 NA
ATOM     29  C   UNL A   1      44.378  24.903  29.493  1.00  0.00     0.031 C 
ATOM     30  C   UNL A   1      44.342  28.075  34.681  1.00  0.00     0.029 A 
ATOM     31  C   UNL A   1      43.999  27.597  33.426  1.00  0.00     0.049 A 
ATOM     32  H   UNL A   1      42.454  28.242  32.143  1.00  0.00     0.167 HD
ATOM     33  C   UNL A   1      44.234  26.119  31.435  1.00  0.00     0.074 A 
ATOM     34  C   UNL A   1      44.879  25.042  30.710  1.00  0.00     0.031 C 
ATOM     35  C   UNL A   1      44.614  26.530  32.673  1.00  0.00     0.034 A 
BRANCH  22  36
ATOM     36  C   UNL A   1      41.189  31.162  35.003  1.00  0.00     0.023 A 
ATOM     37  C   UNL A   1      40.027  31.018  35.783  1.00  0.00     0.031 A 
ATOM     38  C   UNL A   1      42.021  32.265  35.251  1.00  0.00     0.131 A 
ATOM     39  C   UNL A   1      39.689  32.006  36.719  1.00  0.00     0.055 A 
ATOM     40  C   UNL A   1      41.720  33.202  36.242  1.00  0.00     0.041 A 
ATOM     41  F   UNL A   1      43.123  32.469  34.513  1.00  0.00    -0.206 F 
ATOM     42  C   UNL A   1      40.541  33.083  36.972  1.00  0.00     0.022 A 
BRANCH  39  43
ATOM     43  S   UNL A   1      38.049  31.943  37.492  1.00  0.00     0.124 S 
ATOM     44  O   UNL A   1      37.668  30.552  37.261  1.00  0.00    -0.237 OA
ATOM     45  O   UNL A   1      38.337  32.303  38.876  1.00  0.00    -0.237 OA
ATOM     46  O   UNL A   1      37.277  32.927  36.739  1.00  0.00    -0.744 OA
ENDBRANCH  39  43
ENDBRANCH  22  36
BRANCH  23  47
ATOM     47  C   UNL A   1      42.641  25.021  27.124  1.00  0.00     0.023 A 
ATOM     48  C   UNL A   1      42.119  23.716  27.097  1.00  0.00     0.031 A 
ATOM     49  C   UNL A   1      43.497  25.399  26.072  1.00  0.00     0.131 A 
ATOM     50  C   UNL A   1      42.514  22.818  26.090  1.00  0.00     0.055 A 
ATOM     51  C   UNL A   1      43.834  24.524  25.037  1.00  0.00     0.041 A 
ATOM     52  F   UNL A   1      44.035  26.629  26.042  1.00  0.00    -0.206 F 
ATOM     53  C   UNL A   1      43.358  23.218  25.053  1.00  0.00     0.022 A 
BRANCH  50  54
ATOM     54  S   UNL A   1      42.020  21.076  26.230  1.00  0.00     0.124 S 
ATOM     55  O   UNL A   1      42.929  20.433  25.289  1.00  0.00    -0.237 OA
ATOM     56  O   UNL A   1      42.264  20.807  27.643  1.00  0.00    -0.237 OA
ATOM     57  O   UNL A   1      40.614  21.086  25.832  1.00  0.00    -0.744 OA
ENDBRANCH  50  54
ENDBRANCH  23  47
BRANCH  35  58
ATOM     58  C   UNL A   1      45.751  25.780  33.320  1.00  0.00     0.023 A 
ATOM     59  C   UNL A   1      47.091  26.074  33.018  1.00  0.00     0.031 A 
ATOM     60  C   UNL A   1      45.488  24.753  34.244  1.00  0.00     0.131 A 
ATOM     61  C   UNL A   1      48.117  25.304  33.583  1.00  0.00     0.055 A 
ATOM     62  C   UNL A   1      46.517  24.039  34.858  1.00  0.00     0.041 A 
ATOM     63  F   UNL A   1      44.225  24.431  34.568  1.00  0.00    -0.206 F 
ATOM     64  C   UNL A   1      47.840  24.303  34.516  1.00  0.00     0.022 A 
BRANCH  61  65
ATOM     65  S   UNL A   1      49.813  25.558  32.994  1.00  0.00     0.124 S 
ATOM     66  O   UNL A   1      50.279  24.186  32.816  1.00  0.00    -0.237 OA
ATOM     67  O   UNL A   1      49.606  26.324  31.770  1.00  0.00    -0.237 OA
ATOM     68  O   UNL A   1      50.447  26.293  34.086  1.00  0.00    -0.744 OA
ENDBRANCH  61  65
ENDBRANCH  35  58
ENDBRANCH   9  10
ENDBRANCH   2   4
ENDBRANCH   1   2
BRANCH   1  69
ATOM     69  C   UNL A   1      32.955  33.937  28.063  1.00  0.00     0.275 C 
BRANCH  69  70
ATOM     70  C   UNL A   1      33.230  35.153  28.950  1.00  0.00     0.274 C 
BRANCH  70  71
ATOM     71  O   UNL A   1      32.822  34.939  30.309  1.00  0.00    -0.458 OA
BRANCH  71  72
ATOM     72  C   UNL A   1      33.040  35.963  31.178  1.00  0.00     0.365 C 
ATOM     73  O   UNL A   1      32.813  37.146  30.936  1.00  0.00    -0.245 OA
BRANCH  72  74
ATOM     74  C   UNL A   1      33.649  35.458  32.497  1.00  0.00     0.297 C 
ATOM     75  N   UNL A   1      33.044  34.148  32.883  1.00  0.00    -0.327 N 
ATOM     76  C   UNL A   1      35.194  35.351  32.447  1.00  0.00     0.066 C 
ATOM     77  C   UNL A   1      34.115  33.130  33.089  1.00  0.00     0.254 C 
ATOM     78  H   UNL A   1      32.418  33.832  32.142  1.00  0.00     0.347 HD
ATOM     79  H   UNL A   1      32.522  34.263  33.751  1.00  0.00     0.347 HD
ATOM     80  C   UNL A   1      35.666  34.953  33.861  1.00  0.00     0.017 C 
ATOM     81  C   UNL A   1      35.669  34.260  31.467  1.00  0.00     0.094 C 
ATOM     82  C   UNL A   1      35.029  33.607  34.234  1.00  0.00     0.072 C 
ATOM     83  C   UNL A   1      34.970  32.952  31.810  1.00  0.00     0.298 C 
ATOM     84  F   UNL A   1      35.888  31.968  31.979  1.00  0.00    -0.200 F 
ATOM     85  F   UNL A   1      34.177  32.563  30.780  1.00  0.00    -0.200 F 
ENDBRANCH  72  74
ENDBRANCH  71  72
ENDBRANCH  70  71
ENDBRANCH  69  70
ENDBRANCH   1  69
TORSDOF 14
ENDMDL
