MODEL 1
REMARK VINA RESULT:      -9.4      0.000      0.000
REMARK SMILES CCCCCCNC(=O)Oc1cccc(-c2ccc([C@@H](C)C(=O)OCCOC(=O)c3ccc(-c4c5nc(c(-c6cc(S(=O)(=O)[O-])ccc6F)c6ccc([nH]6)c(-c6cc(S(=O)(=O)[O-])ccc6F)c6nc(c(-c7cc(S(=O)(=O)[O-])ccc7F)c7ccc4[nH]7)C=C6)C=C5)cc3)cc2Cl)c1
REMARK SMILES IDX 20 1 21 2 19 3 16 4 17 5 94 6 18 7 93 8 95 9 15 10 11 11
REMARK SMILES IDX 12 12 96 13 13 14 14 15 10 16 8 17 7 18 9 20 6 21 5 22 4 23
REMARK SMILES IDX 3 24 2 25 1 26 22 27 23 28 24 29 25 30 26 31 27 32 28 33
REMARK SMILES IDX 29 34 30 35 31 36 92 37 32 38 91 39 33 40 34 41 35 42 85 43
REMARK SMILES IDX 36 44 90 45 84 46 86 47 37 48 89 49 83 50 82 51 38 53 70 54
REMARK SMILES IDX 50 55 69 56 51 57 54 58 68 59 87 60 52 61 53 62 67 64 88 65
REMARK SMILES IDX 55 66 39 67 40 68 48 69 41 70 47 71 49 72 46 73 42 74 43 75
REMARK SMILES IDX 44 76 45 77 71 78 72 79 80 80 73 81 79 82 81 83 78 84 74 85
REMARK SMILES IDX 75 86 76 87 77 88 56 89 57 90 65 91 58 92 64 93 66 94 63 95
REMARK SMILES IDX 59 96 60 97 61 98 62 99
REMARK H PARENT 7 19 86 52 54 63
REMARK Flexibility Score: inf
ROOT
ATOM      1  C   UNL A   1      34.274  23.246  23.707  1.00  0.00     0.126 C 
ATOM      2  C   UNL A   1      33.607  22.956  22.364  1.00  0.00     0.025 C 
ENDROOT
BRANCH   1   3
ATOM      3  C   UNL A   1      33.918  24.627  24.236  1.00  0.00    -0.033 A 
ATOM      4  C   UNL A   1      33.322  27.258  25.179  1.00  0.00     0.000 A 
ATOM      5  C   UNL A   1      33.272  26.137  26.030  1.00  0.00     0.010 A 
ATOM      6  C   UNL A   1      33.667  27.029  23.834  1.00  0.00     0.049 A 
ATOM      7  C   UNL A   1      33.579  24.850  25.575  1.00  0.00     0.005 A 
ATOM      8  C   UNL A   1      33.952  25.734  23.373  1.00  0.00     0.025 A 
ATOM      9  Cl  UNL A   1      33.845  28.316  22.689  1.00  0.00    -0.084 Cl
BRANCH   4  10
ATOM     10  C   UNL A   1      33.069  28.599  25.749  1.00  0.00    -0.013 A 
ATOM     11  C   UNL A   1      33.635  30.448  27.216  1.00  0.00     0.133 A 
ATOM     12  C   UNL A   1      32.479  31.133  26.847  1.00  0.00     0.047 A 
ATOM     13  C   UNL A   1      33.939  29.196  26.676  1.00  0.00     0.056 A 
ATOM     14  C   UNL A   1      31.619  30.566  25.913  1.00  0.00     0.004 A 
ATOM     15  C   UNL A   1      31.909  29.309  25.375  1.00  0.00     0.009 A 
BRANCH  11  16
ATOM     16  O   UNL A   1      34.382  31.013  28.264  1.00  0.00    -0.410 OA
BRANCH  16  17
ATOM     17  C   UNL A   1      35.576  31.661  27.986  1.00  0.00     0.412 C 
ATOM     18  N   UNL A   1      36.675  30.908  28.301  1.00  0.00    -0.321 N 
ATOM     19  H   UNL A   1      37.555  31.312  28.115  1.00  0.00     0.167 HD
ATOM     20  O   UNL A   1      35.692  32.797  27.545  1.00  0.00    -0.224 OA
BRANCH  18  21
ATOM     21  C   UNL A   1      36.682  29.577  28.879  1.00  0.00     0.119 C 
BRANCH  21  22
ATOM     22  C   UNL A   1      38.093  29.014  29.041  1.00  0.00     0.021 C 
BRANCH  22  23
ATOM     23  C   UNL A   1      39.141  29.605  28.089  1.00  0.00     0.002 C 
BRANCH  23  24
ATOM     24  C   UNL A   1      39.818  28.607  27.143  1.00  0.00    -0.000 C 
BRANCH  24  25
ATOM     25  C   UNL A   1      41.042  29.134  26.391  1.00  0.00    -0.003 C 
ATOM     26  C   UNL A   1      41.819  28.048  25.664  1.00  0.00     0.004 C 
ENDBRANCH  24  25
ENDBRANCH  23  24
ENDBRANCH  22  23
ENDBRANCH  21  22
ENDBRANCH  18  21
ENDBRANCH  16  17
ENDBRANCH  11  16
ENDBRANCH   4  10
ENDBRANCH   1   3
BRANCH   1  27
ATOM     27  C   UNL A   1      35.759  22.906  23.631  1.00  0.00     0.313 C 
ATOM     28  O   UNL A   1      36.469  23.294  22.708  1.00  0.00    -0.252 OA
BRANCH  27  29
ATOM     29  O   UNL A   1      36.214  22.189  24.691  1.00  0.00    -0.462 OA
BRANCH  29  30
ATOM     30  C   UNL A   1      37.285  22.771  25.457  1.00  0.00     0.274 C 
BRANCH  30  31
ATOM     31  C   UNL A   1      38.434  21.775  25.633  1.00  0.00     0.275 C 
BRANCH  31  32
ATOM     32  O   UNL A   1      39.190  22.052  26.825  1.00  0.00    -0.458 OA
BRANCH  32  33
ATOM     33  C   UNL A   1      40.471  21.613  26.809  1.00  0.00     0.338 C 
ATOM     34  O   UNL A   1      40.867  20.500  26.514  1.00  0.00    -0.246 OA
BRANCH  33  35
ATOM     35  C   UNL A   1      41.368  22.732  27.115  1.00  0.00     0.060 A 
ATOM     36  C   UNL A   1      42.081  22.717  28.317  1.00  0.00     0.016 A 
ATOM     37  C   UNL A   1      41.447  23.825  26.251  1.00  0.00     0.016 A 
ATOM     38  C   UNL A   1      42.878  23.805  28.668  1.00  0.00     0.010 A 
ATOM     39  C   UNL A   1      42.254  24.908  26.601  1.00  0.00     0.010 A 
ATOM     40  C   UNL A   1      42.968  24.910  27.813  1.00  0.00    -0.014 A 
BRANCH  40  41
ATOM     41  C   UNL A   1      43.763  26.103  28.192  1.00  0.00     0.031 A 
ATOM     42  C   UNL A   1      43.124  27.172  29.030  1.00  0.00     0.074 A 
ATOM     43  C   UNL A   1      45.028  26.238  27.755  1.00  0.00     0.049 A 
ATOM     44  N   UNL A   1      43.538  28.385  29.281  1.00  0.00    -0.248 NA
ATOM     45  C   UNL A   1      41.843  26.823  29.662  1.00  0.00     0.031 C 
ATOM     46  C   UNL A   1      45.773  25.232  26.997  1.00  0.00     0.029 A 
ATOM     47  N   UNL A   1      45.903  27.291  27.862  1.00  0.00    -0.354 N 
ATOM     48  C   UNL A   1      42.559  28.958  30.087  1.00  0.00     0.074 A 
ATOM     49  C   UNL A   1      41.523  27.961  30.262  1.00  0.00     0.031 C 
ATOM     50  C   UNL A   1      46.981  25.728  26.684  1.00  0.00     0.029 A 
ATOM     51  C   UNL A   1      47.070  27.106  27.157  1.00  0.00     0.049 A 
ATOM     52  H   UNL A   1      45.714  28.099  28.392  1.00  0.00     0.167 HD
ATOM     53  C   UNL A   1      42.534  30.202  30.625  1.00  0.00     0.034 A 
ATOM     54  C   UNL A   1      48.066  27.970  26.874  1.00  0.00     0.034 A 
ATOM     55  C   UNL A   1      43.575  31.179  30.423  1.00  0.00     0.049 A 
ATOM     56  C   UNL A   1      47.970  29.383  27.396  1.00  0.00     0.074 A 
ATOM     57  C   UNL A   1      43.641  32.482  30.885  1.00  0.00     0.029 A 
ATOM     58  N   UNL A   1      44.736  30.959  29.692  1.00  0.00    -0.354 N 
ATOM     59  N   UNL A   1      47.015  29.936  28.109  1.00  0.00    -0.248 NA
ATOM     60  C   UNL A   1      49.081  30.290  27.076  1.00  0.00     0.031 C 
ATOM     61  C   UNL A   1      44.815  33.064  30.393  1.00  0.00     0.029 A 
ATOM     62  C   UNL A   1      45.516  32.105  29.680  1.00  0.00     0.049 A 
ATOM     63  H   UNL A   1      44.971  30.113  29.248  1.00  0.00     0.167 HD
ATOM     64  C   UNL A   1      47.430  31.242  28.351  1.00  0.00     0.074 A 
ATOM     65  C   UNL A   1      48.719  31.396  27.711  1.00  0.00     0.031 C 
ATOM     66  C   UNL A   1      46.806  32.228  29.044  1.00  0.00     0.034 A 
BRANCH  53  67
ATOM     67  C   UNL A   1      41.318  30.584  31.431  1.00  0.00     0.023 A 
ATOM     68  C   UNL A   1      40.271  31.341  30.876  1.00  0.00     0.031 A 
ATOM     69  C   UNL A   1      41.215  30.207  32.781  1.00  0.00     0.131 A 
ATOM     70  C   UNL A   1      39.196  31.745  31.683  1.00  0.00     0.055 A 
ATOM     71  C   UNL A   1      40.108  30.551  33.560  1.00  0.00     0.041 A 
ATOM     72  F   UNL A   1      42.195  29.504  33.371  1.00  0.00    -0.206 F 
ATOM     73  C   UNL A   1      39.096  31.335  33.016  1.00  0.00     0.022 A 
BRANCH  70  74
ATOM     74  S   UNL A   1      37.989  32.916  31.003  1.00  0.00     0.124 S 
ATOM     75  O   UNL A   1      38.408  32.992  29.605  1.00  0.00    -0.237 OA
ATOM     76  O   UNL A   1      36.719  32.243  31.255  1.00  0.00    -0.237 OA
ATOM     77  O   UNL A   1      38.215  34.132  31.781  1.00  0.00    -0.744 OA
ENDBRANCH  70  74
ENDBRANCH  53  67
BRANCH  54  78
ATOM     78  C   UNL A   1      49.199  27.558  25.995  1.00  0.00     0.023 A 
ATOM     79  C   UNL A   1      49.126  27.699  24.602  1.00  0.00     0.031 A 
ATOM     80  C   UNL A   1      50.352  26.960  26.538  1.00  0.00     0.131 A 
ATOM     81  C   UNL A   1      50.161  27.201  23.793  1.00  0.00     0.055 A 
ATOM     82  C   UNL A   1      51.405  26.522  25.734  1.00  0.00     0.041 A 
ATOM     83  F   UNL A   1      50.474  26.796  27.864  1.00  0.00    -0.206 F 
ATOM     84  C   UNL A   1      51.306  26.627  24.350  1.00  0.00     0.022 A 
BRANCH  81  85
ATOM     85  S   UNL A   1      49.940  27.217  21.993  1.00  0.00     0.124 S 
ATOM     86  O   UNL A   1      51.232  26.721  21.531  1.00  0.00    -0.237 OA
ATOM     87  O   UNL A   1      48.807  26.314  21.820  1.00  0.00    -0.237 OA
ATOM     88  O   UNL A   1      49.668  28.621  21.695  1.00  0.00    -0.744 OA
ENDBRANCH  81  85
ENDBRANCH  54  78
BRANCH  66  89
ATOM     89  C   UNL A   1      47.548  33.528  29.210  1.00  0.00     0.023 A 
ATOM     90  C   UNL A   1      48.396  33.766  30.304  1.00  0.00     0.031 A 
ATOM     91  C   UNL A   1      47.413  34.536  28.239  1.00  0.00     0.131 A 
ATOM     92  C   UNL A   1      49.052  35.001  30.419  1.00  0.00     0.055 A 
ATOM     93  C   UNL A   1      48.105  35.743  28.334  1.00  0.00     0.041 A 
ATOM     94  F   UNL A   1      46.615  34.355  27.174  1.00  0.00    -0.206 F 
ATOM     95  C   UNL A   1      48.924  35.984  29.433  1.00  0.00     0.022 A 
BRANCH  92  96
ATOM     96  S   UNL A   1      50.049  35.329  31.899  1.00  0.00     0.124 S 
ATOM     97  O   UNL A   1      49.022  35.583  32.904  1.00  0.00    -0.237 OA
ATOM     98  O   UNL A   1      50.800  34.088  32.054  1.00  0.00    -0.237 OA
ATOM     99  O   UNL A   1      50.850  36.493  31.523  1.00  0.00    -0.744 OA
ENDBRANCH  92  96
ENDBRANCH  66  89
ENDBRANCH  40  41
ENDBRANCH  33  35
ENDBRANCH  32  33
ENDBRANCH  31  32
ENDBRANCH  30  31
ENDBRANCH  29  30
ENDBRANCH  27  29
ENDBRANCH   1  27
TORSDOF 23
ENDMDL
MODEL 2
REMARK VINA RESULT:      -9.4      4.264     10.105
REMARK SMILES CCCCCCNC(=O)Oc1cccc(-c2ccc([C@@H](C)C(=O)OCCOC(=O)c3ccc(-c4c5nc(c(-c6cc(S(=O)(=O)[O-])ccc6F)c6ccc([nH]6)c(-c6cc(S(=O)(=O)[O-])ccc6F)c6nc(c(-c7cc(S(=O)(=O)[O-])ccc7F)c7ccc4[nH]7)C=C6)C=C5)cc3)cc2Cl)c1
REMARK SMILES IDX 20 1 21 2 19 3 16 4 17 5 94 6 18 7 93 8 95 9 15 10 11 11
REMARK SMILES IDX 12 12 96 13 13 14 14 15 10 16 8 17 7 18 9 20 6 21 5 22 4 23
REMARK SMILES IDX 3 24 2 25 1 26 22 27 23 28 24 29 25 30 26 31 27 32 28 33
REMARK SMILES IDX 29 34 30 35 31 36 92 37 32 38 91 39 33 40 34 41 35 42 85 43
REMARK SMILES IDX 36 44 90 45 84 46 86 47 37 48 89 49 83 50 82 51 38 53 70 54
REMARK SMILES IDX 50 55 69 56 51 57 54 58 68 59 87 60 52 61 53 62 67 64 88 65
REMARK SMILES IDX 55 66 39 67 40 68 48 69 41 70 47 71 49 72 46 73 42 74 43 75
REMARK SMILES IDX 44 76 45 77 71 78 72 79 80 80 73 81 79 82 81 83 78 84 74 85
REMARK SMILES IDX 75 86 76 87 77 88 56 89 57 90 65 91 58 92 64 93 66 94 63 95
REMARK SMILES IDX 59 96 60 97 61 98 62 99
REMARK H PARENT 7 19 86 52 54 63
REMARK Flexibility Score: inf
ROOT
ATOM      1  C   UNL A   1      44.894  23.019  25.553  1.00  0.00     0.126 C 
ATOM      2  C   UNL A   1      46.298  23.249  24.997  1.00  0.00     0.025 C 
ENDROOT
BRANCH   1   3
ATOM      3  C   UNL A   1      44.717  23.635  26.933  1.00  0.00    -0.033 A 
ATOM      4  C   UNL A   1      44.471  24.758  29.549  1.00  0.00     0.000 A 
ATOM      5  C   UNL A   1      43.381  24.143  28.901  1.00  0.00     0.010 A 
ATOM      6  C   UNL A   1      45.690  24.808  28.849  1.00  0.00     0.049 A 
ATOM      7  C   UNL A   1      43.504  23.579  27.626  1.00  0.00     0.005 A 
ATOM      8  C   UNL A   1      45.805  24.263  27.560  1.00  0.00     0.025 A 
ATOM      9  Cl  UNL A   1      47.135  25.461  29.546  1.00  0.00    -0.084 Cl
BRANCH   4  10
ATOM     10  C   UNL A   1      44.290  25.255  30.930  1.00  0.00    -0.013 A 
ATOM     11  C   UNL A   1      43.681  26.978  32.527  1.00  0.00     0.133 A 
ATOM     12  C   UNL A   1      44.041  26.158  33.594  1.00  0.00     0.047 A 
ATOM     13  C   UNL A   1      43.796  26.541  31.205  1.00  0.00     0.056 A 
ATOM     14  C   UNL A   1      44.509  24.874  33.340  1.00  0.00     0.004 A 
ATOM     15  C   UNL A   1      44.638  24.431  32.020  1.00  0.00     0.009 A 
BRANCH  11  16
ATOM     16  O   UNL A   1      43.350  28.306  32.850  1.00  0.00    -0.410 OA
BRANCH  16  17
ATOM     17  C   UNL A   1      44.331  29.165  33.322  1.00  0.00     0.412 C 
ATOM     18  N   UNL A   1      43.866  30.030  34.276  1.00  0.00    -0.321 N 
ATOM     19  H   UNL A   1      44.521  30.659  34.658  1.00  0.00     0.167 HD
ATOM     20  O   UNL A   1      45.491  29.213  32.936  1.00  0.00    -0.224 OA
BRANCH  18  21
ATOM     21  C   UNL A   1      42.509  30.119  34.783  1.00  0.00     0.119 C 
BRANCH  21  22
ATOM     22  C   UNL A   1      41.558  30.799  33.799  1.00  0.00     0.021 C 
BRANCH  22  23
ATOM     23  C   UNL A   1      40.190  31.180  34.377  1.00  0.00     0.002 C 
BRANCH  23  24
ATOM     24  C   UNL A   1      40.117  32.544  35.071  1.00  0.00    -0.000 C 
BRANCH  24  25
ATOM     25  C   UNL A   1      38.711  33.116  35.264  1.00  0.00    -0.003 C 
ATOM     26  C   UNL A   1      38.205  33.008  36.694  1.00  0.00     0.004 C 
ENDBRANCH  24  25
ENDBRANCH  23  24
ENDBRANCH  22  23
ENDBRANCH  21  22
ENDBRANCH  18  21
ENDBRANCH  16  17
ENDBRANCH  11  16
ENDBRANCH   4  10
ENDBRANCH   1   3
BRANCH   1  27
ATOM     27  C   UNL A   1      44.516  21.549  25.409  1.00  0.00     0.313 C 
ATOM     28  O   UNL A   1      45.339  20.648  25.548  1.00  0.00    -0.252 OA
BRANCH  27  29
ATOM     29  O   UNL A   1      43.196  21.342  25.167  1.00  0.00    -0.462 OA
BRANCH  29  30
ATOM     30  C   UNL A   1      42.517  20.406  26.025  1.00  0.00     0.274 C 
BRANCH  30  31
ATOM     31  C   UNL A   1      41.116  20.909  26.382  1.00  0.00     0.275 C 
BRANCH  31  32
ATOM     32  O   UNL A   1      40.933  22.278  25.984  1.00  0.00    -0.458 OA
BRANCH  32  33
ATOM     33  C   UNL A   1      39.750  22.830  26.346  1.00  0.00     0.338 C 
ATOM     34  O   UNL A   1      38.661  22.287  26.378  1.00  0.00    -0.246 OA
BRANCH  33  35
ATOM     35  C   UNL A   1      39.980  24.203  26.809  1.00  0.00     0.060 A 
ATOM     36  C   UNL A   1      40.455  25.151  25.899  1.00  0.00     0.016 A 
ATOM     37  C   UNL A   1      39.796  24.530  28.152  1.00  0.00     0.016 A 
ATOM     38  C   UNL A   1      40.757  26.441  26.332  1.00  0.00     0.010 A 
ATOM     39  C   UNL A   1      40.089  25.826  28.581  1.00  0.00     0.010 A 
ATOM     40  C   UNL A   1      40.579  26.786  27.677  1.00  0.00    -0.014 A 
BRANCH  40  41
ATOM     41  C   UNL A   1      40.949  28.134  28.172  1.00  0.00     0.031 A 
ATOM     42  C   UNL A   1      42.400  28.496  28.295  1.00  0.00     0.074 A 
ATOM     43  C   UNL A   1      39.991  29.005  28.541  1.00  0.00     0.049 A 
ATOM     44  N   UNL A   1      42.953  29.506  28.912  1.00  0.00    -0.248 NA
ATOM     45  C   UNL A   1      43.354  27.589  27.640  1.00  0.00     0.031 C 
ATOM     46  C   UNL A   1      38.551  28.788  28.397  1.00  0.00     0.029 A 
ATOM     47  N   UNL A   1      40.086  30.237  29.140  1.00  0.00    -0.354 N 
ATOM     48  C   UNL A   1      44.324  29.351  28.737  1.00  0.00     0.074 A 
ATOM     49  C   UNL A   1      44.514  28.135  27.974  1.00  0.00     0.031 C 
ATOM     50  C   UNL A   1      37.898  29.838  28.919  1.00  0.00     0.029 A 
ATOM     51  C   UNL A   1      38.867  30.767  29.494  1.00  0.00     0.049 A 
ATOM     52  H   UNL A   1      40.942  30.696  29.298  1.00  0.00     0.167 HD
ATOM     53  C   UNL A   1      45.325  30.152  29.178  1.00  0.00     0.034 A 
ATOM     54  C   UNL A   1      38.569  31.844  30.249  1.00  0.00     0.034 A 
ATOM     55  C   UNL A   1      45.105  31.351  29.949  1.00  0.00     0.049 A 
ATOM     56  C   UNL A   1      39.700  32.665  30.818  1.00  0.00     0.074 A 
ATOM     57  C   UNL A   1      46.041  32.221  30.482  1.00  0.00     0.029 A 
ATOM     58  N   UNL A   1      43.856  31.850  30.299  1.00  0.00    -0.354 N 
ATOM     59  N   UNL A   1      40.995  32.481  30.698  1.00  0.00    -0.248 NA
ATOM     60  C   UNL A   1      39.333  33.837  31.626  1.00  0.00     0.031 C 
ATOM     61  C   UNL A   1      45.360  33.215  31.195  1.00  0.00     0.029 A 
ATOM     62  C   UNL A   1      43.999  33.005  31.051  1.00  0.00     0.049 A 
ATOM     63  H   UNL A   1      42.997  31.443  30.048  1.00  0.00     0.167 HD
ATOM     64  C   UNL A   1      41.594  33.534  31.384  1.00  0.00     0.074 A 
ATOM     65  C   UNL A   1      40.521  34.349  31.914  1.00  0.00     0.031 C 
ATOM     66  C   UNL A   1      42.911  33.808  31.558  1.00  0.00     0.034 A 
BRANCH  53  67
ATOM     67  C   UNL A   1      46.739  29.720  28.884  1.00  0.00     0.023 A 
ATOM     68  C   UNL A   1      47.490  28.968  29.805  1.00  0.00     0.031 A 
ATOM     69  C   UNL A   1      47.355  30.085  27.674  1.00  0.00     0.131 A 
ATOM     70  C   UNL A   1      48.830  28.657  29.526  1.00  0.00     0.055 A 
ATOM     71  C   UNL A   1      48.666  29.711  27.372  1.00  0.00     0.041 A 
ATOM     72  F   UNL A   1      46.695  30.823  26.766  1.00  0.00    -0.206 F 
ATOM     73  C   UNL A   1      49.416  29.003  28.305  1.00  0.00     0.022 A 
BRANCH  70  74
ATOM     74  S   UNL A   1      49.837  27.900  30.831  1.00  0.00     0.124 S 
ATOM     75  O   UNL A   1      48.871  27.789  31.921  1.00  0.00    -0.237 OA
ATOM     76  O   UNL A   1      50.258  26.645  30.218  1.00  0.00    -0.237 OA
ATOM     77  O   UNL A   1      50.904  28.875  31.051  1.00  0.00    -0.744 OA
ENDBRANCH  70  74
ENDBRANCH  53  67
BRANCH  54  78
ATOM     78  C   UNL A   1      37.151  32.167  30.581  1.00  0.00     0.023 A 
ATOM     79  C   UNL A   1      36.312  32.800  29.652  1.00  0.00     0.031 A 
ATOM     80  C   UNL A   1      36.631  31.900  31.862  1.00  0.00     0.131 A 
ATOM     81  C   UNL A   1      35.018  33.191  30.029  1.00  0.00     0.055 A 
ATOM     82  C   UNL A   1      35.323  32.236  32.213  1.00  0.00     0.041 A 
ATOM     83  F   UNL A   1      37.389  31.300  32.793  1.00  0.00    -0.206 F 
ATOM     84  C   UNL A   1      34.513  32.902  31.298  1.00  0.00     0.022 A 
BRANCH  81  85
ATOM     85  S   UNL A   1      34.039  34.186  28.870  1.00  0.00     0.124 S 
ATOM     86  O   UNL A   1      34.949  35.288  28.582  1.00  0.00    -0.237 OA
ATOM     87  O   UNL A   1      33.810  33.242  27.782  1.00  0.00    -0.237 OA
ATOM     88  O   UNL A   1      32.852  34.542  29.645  1.00  0.00    -0.744 OA
ENDBRANCH  81  85
ENDBRANCH  54  78
BRANCH  66  89
ATOM     89  C   UNL A   1      43.259  35.081  32.284  1.00  0.00     0.023 A 
ATOM     90  C   UNL A   1      43.524  36.279  31.601  1.00  0.00     0.031 A 
ATOM     91  C   UNL A   1      43.304  35.091  33.690  1.00  0.00     0.131 A 
ATOM     92  C   UNL A   1      43.859  37.433  32.325  1.00  0.00     0.055 A 
ATOM     93  C   UNL A   1      43.591  36.253  34.406  1.00  0.00     0.041 A 
ATOM     94  F   UNL A   1      43.056  33.970  34.388  1.00  0.00    -0.206 F 
ATOM     95  C   UNL A   1      43.878  37.430  33.723  1.00  0.00     0.022 A 
BRANCH  92  96
ATOM     96  S   UNL A   1      44.312  38.937  31.417  1.00  0.00     0.124 S 
ATOM     97  O   UNL A   1      44.408  38.444  30.046  1.00  0.00    -0.237 OA
ATOM     98  O   UNL A   1      43.189  39.824  31.698  1.00  0.00    -0.237 OA
ATOM     99  O   UNL A   1      45.581  39.335  32.023  1.00  0.00    -0.744 OA
ENDBRANCH  92  96
ENDBRANCH  66  89
ENDBRANCH  40  41
ENDBRANCH  33  35
ENDBRANCH  32  33
ENDBRANCH  31  32
ENDBRANCH  30  31
ENDBRANCH  29  30
ENDBRANCH  27  29
ENDBRANCH   1  27
TORSDOF 23
ENDMDL
MODEL 3
REMARK VINA RESULT:      -9.1      4.788     10.209
REMARK SMILES CCCCCCNC(=O)Oc1cccc(-c2ccc([C@@H](C)C(=O)OCCOC(=O)c3ccc(-c4c5nc(c(-c6cc(S(=O)(=O)[O-])ccc6F)c6ccc([nH]6)c(-c6cc(S(=O)(=O)[O-])ccc6F)c6nc(c(-c7cc(S(=O)(=O)[O-])ccc7F)c7ccc4[nH]7)C=C6)C=C5)cc3)cc2Cl)c1
REMARK SMILES IDX 20 1 21 2 19 3 16 4 17 5 94 6 18 7 93 8 95 9 15 10 11 11
REMARK SMILES IDX 12 12 96 13 13 14 14 15 10 16 8 17 7 18 9 20 6 21 5 22 4 23
REMARK SMILES IDX 3 24 2 25 1 26 22 27 23 28 24 29 25 30 26 31 27 32 28 33
REMARK SMILES IDX 29 34 30 35 31 36 92 37 32 38 91 39 33 40 34 41 35 42 85 43
REMARK SMILES IDX 36 44 90 45 84 46 86 47 37 48 89 49 83 50 82 51 38 53 70 54
REMARK SMILES IDX 50 55 69 56 51 57 54 58 68 59 87 60 52 61 53 62 67 64 88 65
REMARK SMILES IDX 55 66 39 67 40 68 48 69 41 70 47 71 49 72 46 73 42 74 43 75
REMARK SMILES IDX 44 76 45 77 71 78 72 79 80 80 73 81 79 82 81 83 78 84 74 85
REMARK SMILES IDX 75 86 76 87 77 88 56 89 57 90 65 91 58 92 64 93 66 94 63 95
REMARK SMILES IDX 59 96 60 97 61 98 62 99
REMARK H PARENT 7 19 86 52 54 63
REMARK Flexibility Score: inf
ROOT
ATOM      1  C   UNL A   1      42.730  19.663  26.647  1.00  0.00     0.126 C 
ATOM      2  C   UNL A   1      42.530  18.458  27.564  1.00  0.00     0.025 C 
ENDROOT
BRANCH   1   3
ATOM      3  C   UNL A   1      41.431  20.414  26.396  1.00  0.00    -0.033 A 
ATOM      4  C   UNL A   1      38.979  21.774  25.845  1.00  0.00     0.000 A 
ATOM      5  C   UNL A   1      40.102  22.450  26.361  1.00  0.00     0.010 A 
ATOM      6  C   UNL A   1      39.109  20.391  25.622  1.00  0.00     0.049 A 
ATOM      7  C   UNL A   1      41.308  21.789  26.617  1.00  0.00     0.005 A 
ATOM      8  C   UNL A   1      40.312  19.724  25.901  1.00  0.00     0.025 A 
ATOM      9  Cl  UNL A   1      37.842  19.441  24.918  1.00  0.00    -0.084 Cl
BRANCH   4  10
ATOM     10  C   UNL A   1      37.766  22.553  25.518  1.00  0.00    -0.013 A 
ATOM     11  C   UNL A   1      35.889  23.099  24.079  1.00  0.00     0.133 A 
ATOM     12  C   UNL A   1      35.500  24.133  24.929  1.00  0.00     0.047 A 
ATOM     13  C   UNL A   1      37.005  22.308  24.363  1.00  0.00     0.056 A 
ATOM     14  C   UNL A   1      36.228  24.373  26.088  1.00  0.00     0.004 A 
ATOM     15  C   UNL A   1      37.352  23.594  26.376  1.00  0.00     0.009 A 
BRANCH  11  16
ATOM     16  O   UNL A   1      35.194  23.004  22.861  1.00  0.00    -0.410 OA
BRANCH  16  17
ATOM     17  C   UNL A   1      33.997  23.683  22.696  1.00  0.00     0.412 C 
ATOM     18  N   UNL A   1      32.907  22.932  23.047  1.00  0.00    -0.321 N 
ATOM     19  H   UNL A   1      32.027  23.366  22.962  1.00  0.00     0.167 HD
ATOM     20  O   UNL A   1      33.869  24.817  22.252  1.00  0.00    -0.224 OA
BRANCH  18  21
ATOM     21  C   UNL A   1      32.912  21.564  23.530  1.00  0.00     0.119 C 
BRANCH  21  22
ATOM     22  C   UNL A   1      32.425  21.450  24.974  1.00  0.00     0.021 C 
BRANCH  22  23
ATOM     23  C   UNL A   1      32.630  22.707  25.829  1.00  0.00     0.002 C 
BRANCH  23  24
ATOM     24  C   UNL A   1      31.633  22.900  26.978  1.00  0.00    -0.000 C 
BRANCH  24  25
ATOM     25  C   UNL A   1      30.193  23.206  26.560  1.00  0.00    -0.003 C 
ATOM     26  C   UNL A   1      29.152  22.620  27.501  1.00  0.00     0.004 C 
ENDBRANCH  24  25
ENDBRANCH  23  24
ENDBRANCH  22  23
ENDBRANCH  21  22
ENDBRANCH  18  21
ENDBRANCH  16  17
ENDBRANCH  11  16
ENDBRANCH   4  10
ENDBRANCH   1   3
BRANCH   1  27
ATOM     27  C   UNL A   1      43.526  19.247  25.414  1.00  0.00     0.313 C 
ATOM     28  O   UNL A   1      43.910  18.093  25.246  1.00  0.00    -0.252 OA
BRANCH  27  29
ATOM     29  O   UNL A   1      43.718  20.250  24.519  1.00  0.00    -0.462 OA
BRANCH  29  30
ATOM     30  C   UNL A   1      44.516  21.366  24.955  1.00  0.00     0.274 C 
BRANCH  30  31
ATOM     31  C   UNL A   1      44.243  22.603  24.097  1.00  0.00     0.275 C 
BRANCH  31  32
ATOM     32  O   UNL A   1      43.820  23.717  24.902  1.00  0.00    -0.458 OA
BRANCH  32  33
ATOM     33  C   UNL A   1      44.772  24.651  25.136  1.00  0.00     0.338 C 
ATOM     34  O   UNL A   1      45.812  24.816  24.525  1.00  0.00    -0.246 OA
BRANCH  33  35
ATOM     35  C   UNL A   1      44.321  25.540  26.212  1.00  0.00     0.060 A 
ATOM     36  C   UNL A   1      43.530  25.012  27.236  1.00  0.00     0.016 A 
ATOM     37  C   UNL A   1      44.617  26.902  26.168  1.00  0.00     0.016 A 
ATOM     38  C   UNL A   1      43.022  25.851  28.227  1.00  0.00     0.010 A 
ATOM     39  C   UNL A   1      44.116  27.738  27.167  1.00  0.00     0.010 A 
ATOM     40  C   UNL A   1      43.309  27.221  28.197  1.00  0.00    -0.014 A 
BRANCH  40  41
ATOM     41  C   UNL A   1      42.733  28.142  29.206  1.00  0.00     0.031 A 
ATOM     42  C   UNL A   1      43.466  28.364  30.497  1.00  0.00     0.074 A 
ATOM     43  C   UNL A   1      41.548  28.737  28.979  1.00  0.00     0.049 A 
ATOM     44  N   UNL A   1      43.050  28.927  31.600  1.00  0.00    -0.248 NA
ATOM     45  C   UNL A   1      44.853  27.878  30.549  1.00  0.00     0.031 C 
ATOM     46  C   UNL A   1      40.783  28.650  27.735  1.00  0.00     0.029 A 
ATOM     47  N   UNL A   1      40.765  29.512  29.799  1.00  0.00    -0.354 N 
ATOM     48  C   UNL A   1      44.116  28.849  32.489  1.00  0.00     0.074 A 
ATOM     49  C   UNL A   1      45.189  28.164  31.798  1.00  0.00     0.031 C 
ATOM     50  C   UNL A   1      39.629  29.321  27.884  1.00  0.00     0.029 A 
ATOM     51  C   UNL A   1      39.542  29.824  29.251  1.00  0.00     0.049 A 
ATOM     52  H   UNL A   1      41.051  29.815  30.691  1.00  0.00     0.167 HD
ATOM     53  C   UNL A   1      44.186  29.307  33.763  1.00  0.00     0.034 A 
ATOM     54  C   UNL A   1      38.455  30.395  29.810  1.00  0.00     0.034 A 
ATOM     55  C   UNL A   1      43.095  29.975  34.430  1.00  0.00     0.049 A 
ATOM     56  C   UNL A   1      38.516  30.805  31.261  1.00  0.00     0.074 A 
ATOM     57  C   UNL A   1      43.036  30.449  35.729  1.00  0.00     0.029 A 
ATOM     58  N   UNL A   1      41.868  30.263  33.847  1.00  0.00    -0.354 N 
ATOM     59  N   UNL A   1      39.507  30.677  32.113  1.00  0.00    -0.248 NA
ATOM     60  C   UNL A   1      37.315  31.434  31.828  1.00  0.00     0.031 C 
ATOM     61  C   UNL A   1      41.757  30.977  35.946  1.00  0.00     0.029 A 
ATOM     62  C   UNL A   1      41.041  30.894  34.763  1.00  0.00     0.049 A 
ATOM     63  H   UNL A   1      41.621  30.050  32.918  1.00  0.00     0.167 HD
ATOM     64  C   UNL A   1      39.060  31.241  33.304  1.00  0.00     0.074 A 
ATOM     65  C   UNL A   1      37.713  31.712  33.062  1.00  0.00     0.031 C 
ATOM     66  C   UNL A   1      39.705  31.366  34.492  1.00  0.00     0.034 A 
BRANCH  53  67
ATOM     67  C   UNL A   1      45.461  29.046  34.525  1.00  0.00     0.023 A 
ATOM     68  C   UNL A   1      45.640  27.879  35.288  1.00  0.00     0.031 A 
ATOM     69  C   UNL A   1      46.503  29.989  34.508  1.00  0.00     0.131 A 
ATOM     70  C   UNL A   1      46.808  27.713  36.048  1.00  0.00     0.055 A 
ATOM     71  C   UNL A   1      47.693  29.785  35.209  1.00  0.00     0.041 A 
ATOM     72  F   UNL A   1      46.378  31.133  33.816  1.00  0.00    -0.206 F 
ATOM     73  C   UNL A   1      47.846  28.648  35.995  1.00  0.00     0.022 A 
BRANCH  70  74
ATOM     74  S   UNL A   1      46.905  26.319  37.204  1.00  0.00     0.124 S 
ATOM     75  O   UNL A   1      47.856  25.441  36.527  1.00  0.00    -0.237 OA
ATOM     76  O   UNL A   1      47.379  26.955  38.428  1.00  0.00    -0.237 OA
ATOM     77  O   UNL A   1      45.533  25.818  37.254  1.00  0.00    -0.744 OA
ENDBRANCH  70  74
ENDBRANCH  53  67
BRANCH  54  78
ATOM     78  C   UNL A   1      37.193  30.543  29.029  1.00  0.00     0.023 A 
ATOM     79  C   UNL A   1      36.568  31.791  28.886  1.00  0.00     0.031 A 
ATOM     80  C   UNL A   1      36.559  29.421  28.463  1.00  0.00     0.131 A 
ATOM     81  C   UNL A   1      35.324  31.881  28.241  1.00  0.00     0.055 A 
ATOM     82  C   UNL A   1      35.352  29.525  27.769  1.00  0.00     0.041 A 
ATOM     83  F   UNL A   1      37.109  28.201  28.572  1.00  0.00    -0.206 F 
ATOM     84  C   UNL A   1      34.719  30.760  27.670  1.00  0.00     0.022 A 
BRANCH  81  85
ATOM     85  S   UNL A   1      34.452  33.472  28.254  1.00  0.00     0.124 S 
ATOM     86  O   UNL A   1      35.302  34.283  27.389  1.00  0.00    -0.237 OA
ATOM     87  O   UNL A   1      33.148  33.106  27.712  1.00  0.00    -0.237 OA
ATOM     88  O   UNL A   1      34.456  33.851  29.665  1.00  0.00    -0.744 OA
ENDBRANCH  81  85
ENDBRANCH  54  78
BRANCH  66  89
ATOM     89  C   UNL A   1      38.987  32.107  35.589  1.00  0.00     0.023 A 
ATOM     90  C   UNL A   1      38.404  31.441  36.680  1.00  0.00     0.031 A 
ATOM     91  C   UNL A   1      38.905  33.510  35.544  1.00  0.00     0.131 A 
ATOM     92  C   UNL A   1      37.733  32.177  37.668  1.00  0.00     0.055 A 
ATOM     93  C   UNL A   1      38.278  34.241  36.553  1.00  0.00     0.041 A 
ATOM     94  F   UNL A   1      39.448  34.193  34.523  1.00  0.00    -0.206 F 
ATOM     95  C   UNL A   1      37.681  33.574  37.618  1.00  0.00     0.022 A 
BRANCH  92  96
ATOM     96  S   UNL A   1      36.889  31.287  39.003  1.00  0.00     0.124 S 
ATOM     97  O   UNL A   1      35.656  32.055  39.147  1.00  0.00    -0.237 OA
ATOM     98  O   UNL A   1      36.743  29.947  38.445  1.00  0.00    -0.237 OA
ATOM     99  O   UNL A   1      37.819  31.390  40.127  1.00  0.00    -0.744 OA
ENDBRANCH  92  96
ENDBRANCH  66  89
ENDBRANCH  40  41
ENDBRANCH  33  35
ENDBRANCH  32  33
ENDBRANCH  31  32
ENDBRANCH  30  31
ENDBRANCH  29  30
ENDBRANCH  27  29
ENDBRANCH   1  27
TORSDOF 23
ENDMDL
