MODEL 1
REMARK VINA RESULT:     -11.9      0.000      0.000
REMARK SMILES NC(=O)[C@@H]1CCCCN1c1cncc(C(=O)OCCOC(=O)c2ccc(-c3c4nc(c(-c5cc(S(=O)(=O)[O-])ccc5F)c5ccc([nH]5)c(-c5cc(S(=O)(=O)[O-])ccc5F)c5nc(c(-c6cc(S(=O)(=O)[O-])ccc6F)c6ccc3[nH]6)C=C5)C=C4)cc2)n1
REMARK SMILES IDX 19 1 18 2 17 3 15 4 16 5 14 6 10 7 11 8 86 9 12 10 13 11
REMARK SMILES IDX 9 12 4 13 5 14 6 15 8 16 7 17 2 18 1 19 3 22 20 23 21 24
REMARK SMILES IDX 22 25 23 26 24 27 85 28 25 29 84 30 26 31 27 32 28 33 78 34
REMARK SMILES IDX 29 35 83 36 77 37 79 38 30 39 82 40 76 41 75 42 31 44 63 45
REMARK SMILES IDX 43 46 62 47 44 48 47 49 61 50 80 51 45 52 46 53 60 55 81 56
REMARK SMILES IDX 48 57 32 58 33 59 41 60 34 61 40 62 42 63 39 64 35 65 36 66
REMARK SMILES IDX 37 67 38 68 64 69 65 70 73 71 66 72 72 73 74 74 71 75 67 76
REMARK SMILES IDX 68 77 69 78 70 79 49 80 50 81 58 82 51 83 57 84 59 85 56 86
REMARK SMILES IDX 52 87 53 88 54 89 55 90
REMARK H PARENT 1 20 1 21 79 43 47 54
REMARK Flexibility Score: inf
ROOT
ATOM      1  C   UNL A   1      37.079  19.955  24.831  1.00  0.00     0.275 C 
ENDROOT
BRANCH   1   2
ATOM      2  C   UNL A   1      35.561  20.065  24.978  1.00  0.00     0.275 C 
BRANCH   2   3
ATOM      3  O   UNL A   1      35.087  21.368  24.579  1.00  0.00    -0.457 OA
BRANCH   3   4
ATOM      4  C   UNL A   1      33.735  21.514  24.535  1.00  0.00     0.358 C 
ATOM      5  O   UNL A   1      32.917  20.612  24.529  1.00  0.00    -0.244 OA
BRANCH   4   6
ATOM      6  C   UNL A   1      33.341  22.941  24.626  1.00  0.00     0.169 A 
ATOM      7  C   UNL A   1      32.194  24.786  23.872  1.00  0.00     0.148 A 
ATOM      8  C   UNL A   1      32.822  25.533  24.883  1.00  0.00     0.157 A 
ATOM      9  N   UNL A   1      32.481  23.475  23.713  1.00  0.00    -0.220 NA
ATOM     10  N   UNL A   1      33.641  25.004  25.818  1.00  0.00    -0.258 NA
ATOM     11  C   UNL A   1      33.858  23.680  25.682  1.00  0.00     0.147 A 
BRANCH   7  12
ATOM     12  N   UNL A   1      31.151  25.363  23.168  1.00  0.00    -0.343 N 
ATOM     13  C   UNL A   1      31.397  26.231  21.993  1.00  0.00     0.172 C 
ATOM     14  C   UNL A   1      31.239  27.703  22.375  1.00  0.00     0.035 C 
ATOM     15  C   UNL A   1      29.884  27.940  23.041  1.00  0.00     0.004 C 
ATOM     16  C   UNL A   1      29.887  25.554  23.877  1.00  0.00     0.119 C 
ATOM     17  C   UNL A   1      29.708  27.027  24.254  1.00  0.00     0.022 C 
BRANCH  13  18
ATOM     18  C   UNL A   1      32.710  25.954  21.222  1.00  0.00     0.240 C 
ATOM     19  N   UNL A   1      32.581  25.186  20.093  1.00  0.00    -0.368 N 
ATOM     20  H   UNL A   1      33.375  24.969  19.553  1.00  0.00     0.159 HD
ATOM     21  H   UNL A   1      31.695  24.852  19.824  1.00  0.00     0.159 HD
ATOM     22  O   UNL A   1      33.795  26.465  21.493  1.00  0.00    -0.273 OA
ENDBRANCH  13  18
ENDBRANCH   7  12
ENDBRANCH   4   6
ENDBRANCH   3   4
ENDBRANCH   2   3
ENDBRANCH   1   2
BRANCH   1  23
ATOM     23  O   UNL A   1      37.715  21.133  25.359  1.00  0.00    -0.458 OA
BRANCH  23  24
ATOM     24  C   UNL A   1      38.949  20.949  25.878  1.00  0.00     0.338 C 
ATOM     25  O   UNL A   1      39.640  19.939  25.802  1.00  0.00    -0.246 OA
BRANCH  24  26
ATOM     26  C   UNL A   1      39.410  22.175  26.546  1.00  0.00     0.060 A 
ATOM     27  C   UNL A   1      38.868  23.396  26.155  1.00  0.00     0.016 A 
ATOM     28  C   UNL A   1      40.494  22.142  27.419  1.00  0.00     0.016 A 
ATOM     29  C   UNL A   1      39.481  24.590  26.531  1.00  0.00     0.010 A 
ATOM     30  C   UNL A   1      41.045  23.346  27.880  1.00  0.00     0.010 A 
ATOM     31  C   UNL A   1      40.587  24.585  27.392  1.00  0.00    -0.014 A 
BRANCH  31  32
ATOM     32  C   UNL A   1      41.327  25.851  27.686  1.00  0.00     0.031 A 
ATOM     33  C   UNL A   1      40.694  26.900  28.572  1.00  0.00     0.074 A 
ATOM     34  C   UNL A   1      42.572  26.061  27.212  1.00  0.00     0.049 A 
ATOM     35  N   UNL A   1      41.083  28.127  28.824  1.00  0.00    -0.248 NA
ATOM     36  C   UNL A   1      39.442  26.523  29.242  1.00  0.00     0.031 C 
ATOM     37  C   UNL A   1      43.340  25.119  26.398  1.00  0.00     0.029 A 
ATOM     38  N   UNL A   1      43.422  27.131  27.365  1.00  0.00    -0.354 N 
ATOM     39  C   UNL A   1      40.087  28.688  29.620  1.00  0.00     0.074 A 
ATOM     40  C   UNL A   1      39.072  27.669  29.794  1.00  0.00     0.031 C 
ATOM     41  C   UNL A   1      44.563  25.626  26.173  1.00  0.00     0.029 A 
ATOM     42  C   UNL A   1      44.638  26.966  26.745  1.00  0.00     0.049 A 
ATOM     43  H   UNL A   1      43.182  27.940  27.872  1.00  0.00     0.167 HD
ATOM     44  C   UNL A   1      40.023  29.934  30.157  1.00  0.00     0.034 A 
ATOM     45  C   UNL A   1      45.686  27.805  26.618  1.00  0.00     0.034 A 
ATOM     46  C   UNL A   1      41.076  30.916  30.038  1.00  0.00     0.049 A 
ATOM     47  C   UNL A   1      45.589  29.191  27.202  1.00  0.00     0.074 A 
ATOM     48  C   UNL A   1      41.126  32.196  30.563  1.00  0.00     0.029 A 
ATOM     49  N   UNL A   1      42.272  30.723  29.358  1.00  0.00    -0.354 N 
ATOM     50  N   UNL A   1      44.606  29.736  27.881  1.00  0.00    -0.248 NA
ATOM     51  C   UNL A   1      46.739  30.079  26.985  1.00  0.00     0.031 C 
ATOM     52  C   UNL A   1      42.326  32.796  30.157  1.00  0.00     0.029 A 
ATOM     53  C   UNL A   1      43.056  31.866  29.434  1.00  0.00     0.049 A 
ATOM     54  H   UNL A   1      42.527  29.896  28.890  1.00  0.00     0.167 HD
ATOM     55  C   UNL A   1      45.029  31.027  28.188  1.00  0.00     0.074 A 
ATOM     56  C   UNL A   1      46.360  31.171  27.634  1.00  0.00     0.031 C 
ATOM     57  C   UNL A   1      44.376  32.004  28.865  1.00  0.00     0.034 A 
BRANCH  44  58
ATOM     58  C   UNL A   1      38.741  30.322  30.859  1.00  0.00     0.023 A 
ATOM     59  C   UNL A   1      37.661  30.918  30.185  1.00  0.00     0.031 A 
ATOM     60  C   UNL A   1      38.625  30.142  32.250  1.00  0.00     0.131 A 
ATOM     61  C   UNL A   1      36.559  31.395  30.912  1.00  0.00     0.055 A 
ATOM     62  C   UNL A   1      37.486  30.538  32.955  1.00  0.00     0.041 A 
ATOM     63  F   UNL A   1      39.629  29.596  32.955  1.00  0.00    -0.206 F 
ATOM     64  C   UNL A   1      36.453  31.187  32.289  1.00  0.00     0.022 A 
BRANCH  61  65
ATOM     65  S   UNL A   1      35.346  32.443  30.060  1.00  0.00     0.124 S 
ATOM     66  O   UNL A   1      36.147  33.621  29.738  1.00  0.00    -0.237 OA
ATOM     67  O   UNL A   1      34.950  31.611  28.930  1.00  0.00    -0.237 OA
ATOM     68  O   UNL A   1      34.311  32.660  31.069  1.00  0.00    -0.744 OA
ENDBRANCH  61  65
ENDBRANCH  44  58
BRANCH  45  69
ATOM     69  C   UNL A   1      46.904  27.386  25.867  1.00  0.00     0.023 A 
ATOM     70  C   UNL A   1      47.082  27.746  24.521  1.00  0.00     0.031 A 
ATOM     71  C   UNL A   1      47.890  26.589  26.474  1.00  0.00     0.131 A 
ATOM     72  C   UNL A   1      48.206  27.285  23.818  1.00  0.00     0.055 A 
ATOM     73  C   UNL A   1      49.031  26.175  25.785  1.00  0.00     0.041 A 
ATOM     74  F   UNL A   1      47.766  26.214  27.757  1.00  0.00    -0.206 F 
ATOM     75  C   UNL A   1      49.189  26.516  24.445  1.00  0.00     0.022 A 
BRANCH  72  76
ATOM     76  S   UNL A   1      48.338  27.655  22.046  1.00  0.00     0.124 S 
ATOM     77  O   UNL A   1      49.474  28.570  22.017  1.00  0.00    -0.237 OA
ATOM     78  O   UNL A   1      48.565  26.332  21.476  1.00  0.00    -0.237 OA
ATOM     79  O   UNL A   1      47.044  28.254  21.727  1.00  0.00    -0.744 OA
ENDBRANCH  72  76
ENDBRANCH  45  69
BRANCH  57  80
ATOM     80  C   UNL A   1      45.123  33.298  29.082  1.00  0.00     0.023 A 
ATOM     81  C   UNL A   1      45.140  34.314  28.110  1.00  0.00     0.031 A 
ATOM     82  C   UNL A   1      45.859  33.498  30.263  1.00  0.00     0.131 A 
ATOM     83  C   UNL A   1      45.925  35.460  28.312  1.00  0.00     0.055 A 
ATOM     84  C   UNL A   1      46.593  34.663  30.482  1.00  0.00     0.041 A 
ATOM     85  F   UNL A   1      45.879  32.559  31.222  1.00  0.00    -0.206 F 
ATOM     86  C   UNL A   1      46.642  35.646  29.497  1.00  0.00     0.022 A 
BRANCH  83  87
ATOM     87  S   UNL A   1      46.079  36.662  26.962  1.00  0.00     0.124 S 
ATOM     88  O   UNL A   1      47.344  37.317  27.278  1.00  0.00    -0.237 OA
ATOM     89  O   UNL A   1      46.082  35.805  25.781  1.00  0.00    -0.237 OA
ATOM     90  O   UNL A   1      44.892  37.502  27.113  1.00  0.00    -0.744 OA
ENDBRANCH  83  87
ENDBRANCH  57  80
ENDBRANCH  31  32
ENDBRANCH  24  26
ENDBRANCH  23  24
ENDBRANCH   1  23
TORSDOF 16
ENDMDL
MODEL 2
REMARK VINA RESULT:     -11.8      1.723      2.066
REMARK SMILES NC(=O)[C@@H]1CCCCN1c1cncc(C(=O)OCCOC(=O)c2ccc(-c3c4nc(c(-c5cc(S(=O)(=O)[O-])ccc5F)c5ccc([nH]5)c(-c5cc(S(=O)(=O)[O-])ccc5F)c5nc(c(-c6cc(S(=O)(=O)[O-])ccc6F)c6ccc3[nH]6)C=C5)C=C4)cc2)n1
REMARK SMILES IDX 19 1 18 2 17 3 15 4 16 5 14 6 10 7 11 8 86 9 12 10 13 11
REMARK SMILES IDX 9 12 4 13 5 14 6 15 8 16 7 17 2 18 1 19 3 22 20 23 21 24
REMARK SMILES IDX 22 25 23 26 24 27 85 28 25 29 84 30 26 31 27 32 28 33 78 34
REMARK SMILES IDX 29 35 83 36 77 37 79 38 30 39 82 40 76 41 75 42 31 44 63 45
REMARK SMILES IDX 43 46 62 47 44 48 47 49 61 50 80 51 45 52 46 53 60 55 81 56
REMARK SMILES IDX 48 57 32 58 33 59 41 60 34 61 40 62 42 63 39 64 35 65 36 66
REMARK SMILES IDX 37 67 38 68 64 69 65 70 73 71 66 72 72 73 74 74 71 75 67 76
REMARK SMILES IDX 68 77 69 78 70 79 49 80 50 81 58 82 51 83 57 84 59 85 56 86
REMARK SMILES IDX 52 87 53 88 54 89 55 90
REMARK H PARENT 1 20 1 21 79 43 47 54
REMARK Flexibility Score: inf
ROOT
ATOM      1  C   UNL A   1      37.060  20.057  25.019  1.00  0.00     0.275 C 
ENDROOT
BRANCH   1   2
ATOM      2  C   UNL A   1      35.711  20.773  24.963  1.00  0.00     0.275 C 
BRANCH   2   3
ATOM      3  O   UNL A   1      35.877  22.205  24.904  1.00  0.00    -0.457 OA
BRANCH   3   4
ATOM      4  C   UNL A   1      35.489  22.794  23.740  1.00  0.00     0.358 C 
ATOM      5  O   UNL A   1      36.118  22.804  22.698  1.00  0.00    -0.244 OA
BRANCH   4   6
ATOM      6  C   UNL A   1      34.111  23.336  23.840  1.00  0.00     0.169 A 
ATOM      7  C   UNL A   1      32.614  24.998  24.370  1.00  0.00     0.148 A 
ATOM      8  C   UNL A   1      31.578  24.106  24.044  1.00  0.00     0.157 A 
ATOM      9  N   UNL A   1      33.903  24.601  24.303  1.00  0.00    -0.220 NA
ATOM     10  N   UNL A   1      31.775  22.867  23.544  1.00  0.00    -0.258 NA
ATOM     11  C   UNL A   1      33.072  22.518  23.420  1.00  0.00     0.147 A 
BRANCH   7  12
ATOM     12  N   UNL A   1      32.303  26.331  24.580  1.00  0.00    -0.343 N 
ATOM     13  C   UNL A   1      32.673  27.376  23.598  1.00  0.00     0.172 C 
ATOM     14  C   UNL A   1      33.903  28.147  24.077  1.00  0.00     0.035 C 
ATOM     15  C   UNL A   1      33.679  28.684  25.490  1.00  0.00     0.004 C 
ATOM     16  C   UNL A   1      32.104  26.764  25.962  1.00  0.00     0.119 C 
ATOM     17  C   UNL A   1      33.323  27.550  26.451  1.00  0.00     0.022 C 
BRANCH  13  18
ATOM     18  C   UNL A   1      32.803  26.897  22.132  1.00  0.00     0.240 C 
ATOM     19  N   UNL A   1      31.622  26.740  21.454  1.00  0.00    -0.368 N 
ATOM     20  H   UNL A   1      31.629  26.437  20.517  1.00  0.00     0.159 HD
ATOM     21  H   UNL A   1      30.767  26.928  21.904  1.00  0.00     0.159 HD
ATOM     22  O   UNL A   1      33.871  26.772  21.536  1.00  0.00    -0.273 OA
ENDBRANCH  13  18
ENDBRANCH   7  12
ENDBRANCH   4   6
ENDBRANCH   3   4
ENDBRANCH   2   3
ENDBRANCH   1   2
BRANCH   1  23
ATOM     23  O   UNL A   1      38.132  21.018  25.004  1.00  0.00    -0.458 OA
BRANCH  23  24
ATOM     24  C   UNL A   1      39.158  20.761  25.845  1.00  0.00     0.338 C 
ATOM     25  O   UNL A   1      39.716  19.685  26.027  1.00  0.00    -0.246 OA
BRANCH  24  26
ATOM     26  C   UNL A   1      39.580  21.995  26.525  1.00  0.00     0.060 A 
ATOM     27  C   UNL A   1      39.033  23.208  26.117  1.00  0.00     0.016 A 
ATOM     28  C   UNL A   1      40.638  21.979  27.431  1.00  0.00     0.016 A 
ATOM     29  C   UNL A   1      39.615  24.411  26.511  1.00  0.00     0.010 A 
ATOM     30  C   UNL A   1      41.157  23.191  27.907  1.00  0.00     0.010 A 
ATOM     31  C   UNL A   1      40.695  24.423  27.404  1.00  0.00    -0.014 A 
BRANCH  31  32
ATOM     32  C   UNL A   1      41.407  25.700  27.720  1.00  0.00     0.031 A 
ATOM     33  C   UNL A   1      40.714  26.759  28.547  1.00  0.00     0.074 A 
ATOM     34  C   UNL A   1      42.677  25.912  27.317  1.00  0.00     0.049 A 
ATOM     35  N   UNL A   1      41.078  27.993  28.800  1.00  0.00    -0.248 NA
ATOM     36  C   UNL A   1      39.427  26.384  29.148  1.00  0.00     0.031 C 
ATOM     37  C   UNL A   1      43.499  24.963  26.567  1.00  0.00     0.029 A 
ATOM     38  N   UNL A   1      43.508  26.992  27.502  1.00  0.00    -0.354 N 
ATOM     39  C   UNL A   1      40.031  28.559  29.525  1.00  0.00     0.074 A 
ATOM     40  C   UNL A   1      39.016  27.535  29.655  1.00  0.00     0.031 C 
ATOM     41  C   UNL A   1      44.729  25.475  26.407  1.00  0.00     0.029 A 
ATOM     42  C   UNL A   1      44.760  26.826  26.959  1.00  0.00     0.049 A 
ATOM     43  H   UNL A   1      43.232  27.807  27.979  1.00  0.00     0.167 HD
ATOM     44  C   UNL A   1      39.927  29.814  30.034  1.00  0.00     0.034 A 
ATOM     45  C   UNL A   1      45.807  27.672  26.880  1.00  0.00     0.034 A 
ATOM     46  C   UNL A   1      40.978  30.803  29.961  1.00  0.00     0.049 A 
ATOM     47  C   UNL A   1      45.665  29.066  27.432  1.00  0.00     0.074 A 
ATOM     48  C   UNL A   1      40.987  32.092  30.465  1.00  0.00     0.029 A 
ATOM     49  N   UNL A   1      42.214  30.608  29.358  1.00  0.00    -0.354 N 
ATOM     50  N   UNL A   1      44.640  29.615  28.042  1.00  0.00    -0.248 NA
ATOM     51  C   UNL A   1      46.820  29.961  27.268  1.00  0.00     0.031 C 
ATOM     52  C   UNL A   1      42.204  32.695  30.121  1.00  0.00     0.029 A 
ATOM     53  C   UNL A   1      42.983  31.759  29.460  1.00  0.00     0.049 A 
ATOM     54  H   UNL A   1      42.502  29.775  28.921  1.00  0.00     0.167 HD
ATOM     55  C   UNL A   1      45.034  30.915  28.350  1.00  0.00     0.074 A 
ATOM     56  C   UNL A   1      46.395  31.060  27.874  1.00  0.00     0.031 C 
ATOM     57  C   UNL A   1      44.334  31.898  28.969  1.00  0.00     0.034 A 
BRANCH  44  58
ATOM     58  C   UNL A   1      38.602  30.204  30.651  1.00  0.00     0.023 A 
ATOM     59  C   UNL A   1      37.570  30.802  29.908  1.00  0.00     0.031 A 
ATOM     60  C   UNL A   1      38.395  30.022  32.031  1.00  0.00     0.131 A 
ATOM     61  C   UNL A   1      36.423  31.280  30.562  1.00  0.00     0.055 A 
ATOM     62  C   UNL A   1      37.213  30.419  32.660  1.00  0.00     0.041 A 
ATOM     63  F   UNL A   1      39.349  29.473  32.800  1.00  0.00    -0.206 F 
ATOM     64  C   UNL A   1      36.226  31.071  31.929  1.00  0.00     0.022 A 
BRANCH  61  65
ATOM     65  S   UNL A   1      35.270  32.332  29.634  1.00  0.00     0.124 S 
ATOM     66  O   UNL A   1      36.168  33.348  29.092  1.00  0.00    -0.237 OA
ATOM     67  O   UNL A   1      34.702  31.399  28.667  1.00  0.00    -0.237 OA
ATOM     68  O   UNL A   1      34.344  32.812  30.657  1.00  0.00    -0.744 OA
ENDBRANCH  61  65
ENDBRANCH  44  58
BRANCH  45  69
ATOM     69  C   UNL A   1      47.071  27.250  26.210  1.00  0.00     0.023 A 
ATOM     70  C   UNL A   1      48.044  26.512  26.902  1.00  0.00     0.031 A 
ATOM     71  C   UNL A   1      47.338  27.609  24.877  1.00  0.00     0.131 A 
ATOM     72  C   UNL A   1      49.253  26.182  26.269  1.00  0.00     0.055 A 
ATOM     73  C   UNL A   1      48.519  27.235  24.235  1.00  0.00     0.041 A 
ATOM     74  F   UNL A   1      46.443  28.317  24.172  1.00  0.00    -0.206 F 
ATOM     75  C   UNL A   1      49.490  26.524  24.936  1.00  0.00     0.022 A 
BRANCH  72  76
ATOM     76  S   UNL A   1      50.544  25.347  27.233  1.00  0.00     0.124 S 
ATOM     77  O   UNL A   1      51.505  24.989  26.196  1.00  0.00    -0.237 OA
ATOM     78  O   UNL A   1      50.958  26.395  28.158  1.00  0.00    -0.237 OA
ATOM     79  O   UNL A   1      49.838  24.223  27.845  1.00  0.00    -0.744 OA
ENDBRANCH  72  76
ENDBRANCH  45  69
BRANCH  57  80
ATOM     80  C   UNL A   1      45.057  33.202  29.207  1.00  0.00     0.023 A 
ATOM     81  C   UNL A   1      44.958  34.278  28.307  1.00  0.00     0.031 A 
ATOM     82  C   UNL A   1      45.887  33.352  30.332  1.00  0.00     0.131 A 
ATOM     83  C   UNL A   1      45.722  35.436  28.517  1.00  0.00     0.055 A 
ATOM     84  C   UNL A   1      46.602  34.528  30.564  1.00  0.00     0.041 A 
ATOM     85  F   UNL A   1      46.020  32.355  31.221  1.00  0.00    -0.206 F 
ATOM     86  C   UNL A   1      46.534  35.572  29.646  1.00  0.00     0.022 A 
BRANCH  83  87
ATOM     87  S   UNL A   1      45.720  36.727  27.242  1.00  0.00     0.124 S 
ATOM     88  O   UNL A   1      46.338  37.848  27.942  1.00  0.00    -0.237 OA
ATOM     89  O   UNL A   1      46.518  36.119  26.182  1.00  0.00    -0.237 OA
ATOM     90  O   UNL A   1      44.302  36.898  26.928  1.00  0.00    -0.744 OA
ENDBRANCH  83  87
ENDBRANCH  57  80
ENDBRANCH  31  32
ENDBRANCH  24  26
ENDBRANCH  23  24
ENDBRANCH   1  23
TORSDOF 16
ENDMDL
MODEL 3
REMARK VINA RESULT:     -11.7      5.140     10.313
REMARK SMILES NC(=O)[C@@H]1CCCCN1c1cncc(C(=O)OCCOC(=O)c2ccc(-c3c4nc(c(-c5cc(S(=O)(=O)[O-])ccc5F)c5ccc([nH]5)c(-c5cc(S(=O)(=O)[O-])ccc5F)c5nc(c(-c6cc(S(=O)(=O)[O-])ccc6F)c6ccc3[nH]6)C=C5)C=C4)cc2)n1
REMARK SMILES IDX 19 1 18 2 17 3 15 4 16 5 14 6 10 7 11 8 86 9 12 10 13 11
REMARK SMILES IDX 9 12 4 13 5 14 6 15 8 16 7 17 2 18 1 19 3 22 20 23 21 24
REMARK SMILES IDX 22 25 23 26 24 27 85 28 25 29 84 30 26 31 27 32 28 33 78 34
REMARK SMILES IDX 29 35 83 36 77 37 79 38 30 39 82 40 76 41 75 42 31 44 63 45
REMARK SMILES IDX 43 46 62 47 44 48 47 49 61 50 80 51 45 52 46 53 60 55 81 56
REMARK SMILES IDX 48 57 32 58 33 59 41 60 34 61 40 62 42 63 39 64 35 65 36 66
REMARK SMILES IDX 37 67 38 68 64 69 65 70 73 71 66 72 72 73 74 74 71 75 67 76
REMARK SMILES IDX 68 77 69 78 70 79 49 80 50 81 58 82 51 83 57 84 59 85 56 86
REMARK SMILES IDX 52 87 53 88 54 89 55 90
REMARK H PARENT 1 20 1 21 79 43 47 54
REMARK Flexibility Score: inf
ROOT
ATOM      1  C   UNL A   1      31.451  30.412  25.604  1.00  0.00     0.275 C 
ENDROOT
BRANCH   1   2
ATOM      2  C   UNL A   1      31.869  29.323  24.617  1.00  0.00     0.275 C 
BRANCH   2   3
ATOM      3  O   UNL A   1      30.767  28.447  24.300  1.00  0.00    -0.457 OA
BRANCH   3   4
ATOM      4  C   UNL A   1      30.812  27.867  23.070  1.00  0.00     0.358 C 
ATOM      5  O   UNL A   1      30.372  28.340  22.039  1.00  0.00    -0.244 OA
BRANCH   4   6
ATOM      6  C   UNL A   1      31.592  26.605  23.095  1.00  0.00     0.169 A 
ATOM      7  C   UNL A   1      31.875  24.400  23.683  1.00  0.00     0.148 A 
ATOM      8  C   UNL A   1      33.165  24.466  23.129  1.00  0.00     0.157 A 
ATOM      9  N   UNL A   1      31.084  25.496  23.702  1.00  0.00    -0.220 NA
ATOM     10  N   UNL A   1      33.660  25.546  22.488  1.00  0.00    -0.258 NA
ATOM     11  C   UNL A   1      32.825  26.605  22.457  1.00  0.00     0.147 A 
BRANCH   7  12
ATOM     12  N   UNL A   1      31.366  23.163  24.039  1.00  0.00    -0.343 N 
ATOM     13  C   UNL A   1      31.108  22.811  25.454  1.00  0.00     0.172 C 
ATOM     14  C   UNL A   1      32.217  21.905  25.989  1.00  0.00     0.035 C 
ATOM     15  C   UNL A   1      32.402  20.692  25.077  1.00  0.00     0.004 C 
ATOM     16  C   UNL A   1      31.585  22.055  23.111  1.00  0.00     0.119 C 
ATOM     17  C   UNL A   1      32.684  21.131  23.641  1.00  0.00     0.022 C 
BRANCH  13  18
ATOM     18  C   UNL A   1      30.807  24.003  26.395  1.00  0.00     0.240 C 
ATOM     19  N   UNL A   1      29.508  24.442  26.396  1.00  0.00    -0.368 N 
ATOM     20  H   UNL A   1      29.245  25.197  26.970  1.00  0.00     0.159 HD
ATOM     21  H   UNL A   1      28.840  24.003  25.821  1.00  0.00     0.159 HD
ATOM     22  O   UNL A   1      31.612  24.475  27.195  1.00  0.00    -0.273 OA
ENDBRANCH  13  18
ENDBRANCH   7  12
ENDBRANCH   4   6
ENDBRANCH   3   4
ENDBRANCH   2   3
ENDBRANCH   1   2
BRANCH   1  23
ATOM     23  O   UNL A   1      32.257  30.338  26.795  1.00  0.00    -0.458 OA
BRANCH  23  24
ATOM     24  C   UNL A   1      32.877  31.483  27.153  1.00  0.00     0.338 C 
ATOM     25  O   UNL A   1      32.391  32.608  27.191  1.00  0.00    -0.246 OA
BRANCH  24  26
ATOM     26  C   UNL A   1      34.265  31.208  27.553  1.00  0.00     0.060 A 
ATOM     27  C   UNL A   1      34.662  29.885  27.731  1.00  0.00     0.016 A 
ATOM     28  C   UNL A   1      35.115  32.246  27.926  1.00  0.00     0.016 A 
ATOM     29  C   UNL A   1      35.852  29.592  28.394  1.00  0.00     0.010 A 
ATOM     30  C   UNL A   1      36.358  31.947  28.500  1.00  0.00     0.010 A 
ATOM     31  C   UNL A   1      36.716  30.618  28.800  1.00  0.00    -0.014 A 
BRANCH  31  32
ATOM     32  C   UNL A   1      37.923  30.313  29.630  1.00  0.00     0.031 A 
ATOM     33  C   UNL A   1      39.055  29.506  29.037  1.00  0.00     0.074 A 
ATOM     34  C   UNL A   1      38.043  30.780  30.889  1.00  0.00     0.049 A 
ATOM     35  N   UNL A   1      40.111  28.993  29.621  1.00  0.00    -0.248 NA
ATOM     36  C   UNL A   1      38.973  29.220  27.598  1.00  0.00     0.031 C 
ATOM     37  C   UNL A   1      37.066  31.623  31.578  1.00  0.00     0.029 A 
ATOM     38  N   UNL A   1      39.053  30.629  31.810  1.00  0.00    -0.354 N 
ATOM     39  C   UNL A   1      40.775  28.263  28.637  1.00  0.00     0.074 A 
ATOM     40  C   UNL A   1      39.992  28.392  27.426  1.00  0.00     0.031 C 
ATOM     41  C   UNL A   1      37.548  31.961  32.785  1.00  0.00     0.029 A 
ATOM     42  C   UNL A   1      38.824  31.286  32.996  1.00  0.00     0.049 A 
ATOM     43  H   UNL A   1      39.865  30.100  31.636  1.00  0.00     0.167 HD
ATOM     44  C   UNL A   1      41.929  27.553  28.733  1.00  0.00     0.034 A 
ATOM     45  C   UNL A   1      39.539  31.319  34.139  1.00  0.00     0.034 A 
ATOM     46  C   UNL A   1      42.740  27.493  29.927  1.00  0.00     0.049 A 
ATOM     47  C   UNL A   1      40.805  30.508  34.234  1.00  0.00     0.074 A 
ATOM     48  C   UNL A   1      43.938  26.828  30.126  1.00  0.00     0.029 A 
ATOM     49  N   UNL A   1      42.446  28.135  31.124  1.00  0.00    -0.354 N 
ATOM     50  N   UNL A   1      41.378  29.757  33.323  1.00  0.00    -0.248 NA
ATOM     51  C   UNL A   1      41.512  30.539  35.522  1.00  0.00     0.031 C 
ATOM     52  C   UNL A   1      44.339  27.022  31.454  1.00  0.00     0.029 A 
ATOM     53  C   UNL A   1      43.426  27.865  32.067  1.00  0.00     0.049 A 
ATOM     54  H   UNL A   1      41.654  28.701  31.279  1.00  0.00     0.167 HD
ATOM     55  C   UNL A   1      42.523  29.240  33.923  1.00  0.00     0.074 A 
ATOM     56  C   UNL A   1      42.567  29.778  35.268  1.00  0.00     0.031 C 
ATOM     57  C   UNL A   1      43.453  28.396  33.410  1.00  0.00     0.034 A 
BRANCH  44  58
ATOM     58  C   UNL A   1      42.340  26.731  27.532  1.00  0.00     0.023 A 
ATOM     59  C   UNL A   1      42.073  25.354  27.434  1.00  0.00     0.031 A 
ATOM     60  C   UNL A   1      43.068  27.333  26.489  1.00  0.00     0.131 A 
ATOM     61  C   UNL A   1      42.609  24.612  26.369  1.00  0.00     0.055 A 
ATOM     62  C   UNL A   1      43.521  26.605  25.387  1.00  0.00     0.041 A 
ATOM     63  F   UNL A   1      43.371  28.640  26.533  1.00  0.00    -0.206 F 
ATOM     64  C   UNL A   1      43.310  25.232  25.332  1.00  0.00     0.022 A 
BRANCH  61  65
ATOM     65  S   UNL A   1      42.525  22.800  26.446  1.00  0.00     0.124 S 
ATOM     66  O   UNL A   1      41.246  22.591  27.120  1.00  0.00    -0.237 OA
ATOM     67  O   UNL A   1      42.574  22.422  25.038  1.00  0.00    -0.237 OA
ATOM     68  O   UNL A   1      43.701  22.435  27.233  1.00  0.00    -0.744 OA
ENDBRANCH  61  65
ENDBRANCH  44  58
BRANCH  45  69
ATOM     69  C   UNL A   1      39.055  32.105  35.311  1.00  0.00     0.023 A 
ATOM     70  C   UNL A   1      38.426  31.474  36.395  1.00  0.00     0.031 A 
ATOM     71  C   UNL A   1      39.185  33.505  35.345  1.00  0.00     0.131 A 
ATOM     72  C   UNL A   1      37.923  32.243  37.456  1.00  0.00     0.055 A 
ATOM     73  C   UNL A   1      38.729  34.261  36.426  1.00  0.00     0.041 A 
ATOM     74  F   UNL A   1      39.775  34.158  34.332  1.00  0.00    -0.206 F 
ATOM     75  C   UNL A   1      38.084  33.630  37.486  1.00  0.00     0.022 A 
BRANCH  72  76
ATOM     76  S   UNL A   1      36.996  31.410  38.775  1.00  0.00     0.124 S 
ATOM     77  O   UNL A   1      37.895  31.564  39.913  1.00  0.00    -0.237 OA
ATOM     78  O   UNL A   1      35.764  32.189  38.820  1.00  0.00    -0.237 OA
ATOM     79  O   UNL A   1      36.848  30.044  38.276  1.00  0.00    -0.744 OA
ENDBRANCH  72  76
ENDBRANCH  45  69
BRANCH  57  80
ATOM     80  C   UNL A   1      44.621  28.048  34.300  1.00  0.00     0.023 A 
ATOM     81  C   UNL A   1      44.578  26.956  35.185  1.00  0.00     0.031 A 
ATOM     82  C   UNL A   1      45.779  28.846  34.288  1.00  0.00     0.131 A 
ATOM     83  C   UNL A   1      45.649  26.726  36.062  1.00  0.00     0.055 A 
ATOM     84  C   UNL A   1      46.863  28.579  35.124  1.00  0.00     0.041 A 
ATOM     85  F   UNL A   1      45.871  29.902  33.465  1.00  0.00    -0.206 F 
ATOM     86  C   UNL A   1      46.796  27.523  36.029  1.00  0.00     0.022 A 
BRANCH  83  87
ATOM     87  S   UNL A   1      45.483  25.429  37.321  1.00  0.00     0.124 S 
ATOM     88  O   UNL A   1      46.385  25.902  38.366  1.00  0.00    -0.237 OA
ATOM     89  O   UNL A   1      44.059  25.480  37.635  1.00  0.00    -0.237 OA
ATOM     90  O   UNL A   1      45.920  24.219  36.627  1.00  0.00    -0.744 OA
ENDBRANCH  83  87
ENDBRANCH  57  80
ENDBRANCH  31  32
ENDBRANCH  24  26
ENDBRANCH  23  24
ENDBRANCH   1  23
TORSDOF 16
ENDMDL
