MODEL 1
REMARK VINA RESULT:     -11.4      0.000      0.000
REMARK SMILES O=C(COc1ccccc1/C=C1/SC(=O)N(c2ccc(F)cc2)C1=O)OCCOC(=O)c1ccc(-c2c3nc(c(-c4cc(S(=O)(=O)[O-])ccc4F)c4ccc([nH]4)c(-c4cc(S(=O)(=O)[O-])ccc4F)c4nc(c(-c5cc(S(=O)(=O)[O-])ccc5F)c5ccc2[nH]5)C=C4)C=C3)cc1
REMARK SMILES IDX 27 1 26 2 2 3 1 4 3 5 4 6 5 7 6 8 10 9 7 10 9 11 8 12 11 13
REMARK SMILES IDX 12 14 13 15 24 16 14 17 16 18 25 19 15 20 17 21 18 22 23 23
REMARK SMILES IDX 19 24 22 25 20 26 21 27 28 28 29 29 30 30 31 31 32 32 33 33
REMARK SMILES IDX 94 34 34 35 93 36 35 37 36 38 37 39 87 40 38 41 92 42 86 43
REMARK SMILES IDX 88 44 39 45 91 46 85 47 84 48 40 50 72 51 52 52 71 53 53 54
REMARK SMILES IDX 56 55 70 56 89 57 54 58 55 59 69 61 90 62 57 63 41 64 42 65
REMARK SMILES IDX 50 66 43 67 49 68 51 69 48 70 44 71 45 72 46 73 47 74 73 75
REMARK SMILES IDX 74 76 82 77 75 78 81 79 83 80 80 81 76 82 77 83 78 84 79 85
REMARK SMILES IDX 58 86 59 87 67 88 60 89 66 90 68 91 65 92 61 93 62 94 63 95
REMARK SMILES IDX 64 96
REMARK H PARENT 88 49 56 60
REMARK Flexibility Score: inf
ROOT
ATOM      1  C   UNL A   1      36.873  22.010  23.877  1.00  0.00     0.274 C 
ENDROOT
BRANCH   1   2
ATOM      2  O   UNL A   1      35.444  22.083  24.064  1.00  0.00    -0.460 OA
BRANCH   2   3
ATOM      3  C   UNL A   1      34.839  22.665  25.131  1.00  0.00     0.344 C 
ATOM      4  O   UNL A   1      35.239  23.747  25.555  1.00  0.00    -0.248 OA
BRANCH   3   5
ATOM      5  C   UNL A   1      33.601  22.002  25.701  1.00  0.00     0.352 C 
BRANCH   5   6
ATOM      6  O   UNL A   1      32.509  22.142  24.790  1.00  0.00    -0.481 OA
BRANCH   6   7
ATOM      7  C   UNL A   1      31.519  22.927  25.334  1.00  0.00     0.127 A 
ATOM      8  C   UNL A   1      30.761  22.368  26.366  1.00  0.00     0.047 A 
ATOM      9  C   UNL A   1      31.239  24.219  24.848  1.00  0.00     0.018 A 
ATOM     10  C   UNL A   1      29.749  23.116  26.962  1.00  0.00     0.004 A 
ATOM     11  C   UNL A   1      30.230  24.963  25.470  1.00  0.00     0.012 A 
ATOM     12  C   UNL A   1      29.489  24.412  26.520  1.00  0.00     0.001 A 
BRANCH   9  13
ATOM     13  C   UNL A   1      31.995  24.845  23.751  1.00  0.00     0.033 C 
ATOM     14  C   UNL A   1      32.791  25.916  23.871  1.00  0.00     0.084 C 
ATOM     15  S   UNL A   1      33.391  26.814  22.534  1.00  0.00    -0.022 SA
ATOM     16  C   UNL A   1      33.150  26.616  25.135  1.00  0.00     0.272 C 
ATOM     17  C   UNL A   1      33.589  28.259  23.523  1.00  0.00     0.298 C 
ATOM     18  N   UNL A   1      33.471  27.940  24.862  1.00  0.00    -0.236 N 
ATOM     19  O   UNL A   1      33.149  26.051  26.220  1.00  0.00    -0.268 OA
ATOM     20  O   UNL A   1      33.840  29.342  23.014  1.00  0.00    -0.260 OA
BRANCH  18  21
ATOM     21  C   UNL A   1      33.640  28.903  25.909  1.00  0.00     0.053 A 
ATOM     22  C   UNL A   1      32.652  29.866  26.174  1.00  0.00     0.030 A 
ATOM     23  C   UNL A   1      34.822  28.956  26.670  1.00  0.00     0.030 A 
ATOM     24  C   UNL A   1      32.847  30.867  27.130  1.00  0.00     0.041 A 
ATOM     25  C   UNL A   1      35.033  29.976  27.606  1.00  0.00     0.041 A 
ATOM     26  C   UNL A   1      34.044  30.924  27.824  1.00  0.00     0.123 A 
ATOM     27  F   UNL A   1      34.247  31.903  28.714  1.00  0.00    -0.207 F 
ENDBRANCH  18  21
ENDBRANCH   9  13
ENDBRANCH   6   7
ENDBRANCH   5   6
ENDBRANCH   3   5
ENDBRANCH   2   3
ENDBRANCH   1   2
BRANCH   1  28
ATOM     28  C   UNL A   1      37.509  21.181  24.988  1.00  0.00     0.275 C 
BRANCH  28  29
ATOM     29  O   UNL A   1      38.071  22.076  25.956  1.00  0.00    -0.458 OA
BRANCH  29  30
ATOM     30  C   UNL A   1      39.300  21.733  26.422  1.00  0.00     0.338 C 
ATOM     31  O   UNL A   1      39.856  20.663  26.298  1.00  0.00    -0.246 OA
BRANCH  30  32
ATOM     32  C   UNL A   1      39.944  22.978  26.895  1.00  0.00     0.060 A 
ATOM     33  C   UNL A   1      39.492  24.200  26.381  1.00  0.00     0.016 A 
ATOM     34  C   UNL A   1      40.943  22.941  27.872  1.00  0.00     0.016 A 
ATOM     35  C   UNL A   1      40.059  25.392  26.828  1.00  0.00     0.010 A 
ATOM     36  C   UNL A   1      41.517  24.131  28.309  1.00  0.00     0.010 A 
ATOM     37  C   UNL A   1      41.099  25.355  27.764  1.00  0.00    -0.014 A 
BRANCH  37  38
ATOM     38  C   UNL A   1      41.931  26.553  28.001  1.00  0.00     0.031 A 
ATOM     39  C   UNL A   1      41.300  27.694  28.748  1.00  0.00     0.074 A 
ATOM     40  C   UNL A   1      43.182  26.638  27.520  1.00  0.00     0.049 A 
ATOM     41  N   UNL A   1      41.765  28.889  28.989  1.00  0.00    -0.248 NA
ATOM     42  C   UNL A   1      39.948  27.450  29.277  1.00  0.00     0.031 C 
ATOM     43  C   UNL A   1      43.889  25.578  26.804  1.00  0.00     0.029 A 
ATOM     44  N   UNL A   1      44.074  27.680  27.547  1.00  0.00    -0.354 N 
ATOM     45  C   UNL A   1      40.763  29.541  29.701  1.00  0.00     0.074 A 
ATOM     46  C   UNL A   1      39.651  28.624  29.810  1.00  0.00     0.031 C 
ATOM     47  C   UNL A   1      45.101  26.033  26.438  1.00  0.00     0.029 A 
ATOM     48  C   UNL A   1      45.240  27.424  26.866  1.00  0.00     0.049 A 
ATOM     49  H   UNL A   1      43.895  28.530  28.009  1.00  0.00     0.167 HD
ATOM     50  C   UNL A   1      40.777  30.791  30.223  1.00  0.00     0.034 A 
ATOM     51  C   UNL A   1      46.282  28.237  26.602  1.00  0.00     0.034 A 
ATOM     52  C   UNL A   1      41.883  31.700  30.068  1.00  0.00     0.049 A 
ATOM     53  C   UNL A   1      46.243  29.655  27.123  1.00  0.00     0.074 A 
ATOM     54  C   UNL A   1      42.017  32.990  30.546  1.00  0.00     0.029 A 
ATOM     55  N   UNL A   1      43.046  31.413  29.362  1.00  0.00    -0.354 N 
ATOM     56  N   UNL A   1      45.302  30.257  27.815  1.00  0.00    -0.248 NA
ATOM     57  C   UNL A   1      47.409  30.499  26.833  1.00  0.00     0.031 C 
ATOM     58  C   UNL A   1      43.230  33.505  30.075  1.00  0.00     0.029 A 
ATOM     59  C   UNL A   1      43.889  32.512  29.366  1.00  0.00     0.049 A 
ATOM     60  H   UNL A   1      43.241  30.553  28.924  1.00  0.00     0.167 HD
ATOM     61  C   UNL A   1      45.779  31.541  28.070  1.00  0.00     0.074 A 
ATOM     62  C   UNL A   1      47.094  31.620  27.466  1.00  0.00     0.031 C 
ATOM     63  C   UNL A   1      45.192  32.563  28.747  1.00  0.00     0.034 A 
BRANCH  50  64
ATOM     64  C   UNL A   1      39.533  31.243  30.947  1.00  0.00     0.023 A 
ATOM     65  C   UNL A   1      39.505  31.377  32.348  1.00  0.00     0.031 A 
ATOM     66  C   UNL A   1      38.341  31.475  30.240  1.00  0.00     0.131 A 
ATOM     67  C   UNL A   1      38.294  31.652  33.000  1.00  0.00     0.055 A 
ATOM     68  C   UNL A   1      37.158  31.828  30.890  1.00  0.00     0.041 A 
ATOM     69  F   UNL A   1      38.300  31.333  28.906  1.00  0.00    -0.206 F 
ATOM     70  C   UNL A   1      37.125  31.903  32.280  1.00  0.00     0.022 A 
BRANCH  67  71
ATOM     71  S   UNL A   1      38.236  31.525  34.809  1.00  0.00     0.124 S 
ATOM     72  O   UNL A   1      38.154  30.078  34.999  1.00  0.00    -0.237 OA
ATOM     73  O   UNL A   1      39.490  32.152  35.210  1.00  0.00    -0.237 OA
ATOM     74  O   UNL A   1      37.025  32.262  35.166  1.00  0.00    -0.744 OA
ENDBRANCH  67  71
ENDBRANCH  50  64
BRANCH  51  75
ATOM     75  C   UNL A   1      47.433  27.757  25.783  1.00  0.00     0.023 A 
ATOM     76  C   UNL A   1      47.491  28.000  24.403  1.00  0.00     0.031 A 
ATOM     77  C   UNL A   1      48.465  26.997  26.362  1.00  0.00     0.131 A 
ATOM     78  C   UNL A   1      48.532  27.451  23.637  1.00  0.00     0.055 A 
ATOM     79  C   UNL A   1      49.525  26.493  25.605  1.00  0.00     0.041 A 
ATOM     80  F   UNL A   1      48.460  26.737  27.680  1.00  0.00    -0.206 F 
ATOM     81  C   UNL A   1      49.555  26.707  24.231  1.00  0.00     0.022 A 
BRANCH  78  82
ATOM     82  S   UNL A   1      48.486  27.653  21.835  1.00  0.00     0.124 S 
ATOM     83  O   UNL A   1      48.695  26.284  21.376  1.00  0.00    -0.237 OA
ATOM     84  O   UNL A   1      47.152  28.206  21.627  1.00  0.00    -0.237 OA
ATOM     85  O   UNL A   1      49.588  28.576  21.569  1.00  0.00    -0.744 OA
ENDBRANCH  78  82
ENDBRANCH  51  75
BRANCH  63  86
ATOM     86  C   UNL A   1      45.995  33.829  28.905  1.00  0.00     0.023 A 
ATOM     87  C   UNL A   1      45.897  34.888  27.985  1.00  0.00     0.031 A 
ATOM     88  C   UNL A   1      46.871  33.976  29.995  1.00  0.00     0.131 A 
ATOM     89  C   UNL A   1      46.700  36.026  28.145  1.00  0.00     0.055 A 
ATOM     90  C   UNL A   1      47.624  35.136  30.181  1.00  0.00     0.041 A 
ATOM     91  F   UNL A   1      47.002  32.996  30.903  1.00  0.00    -0.206 F 
ATOM     92  C   UNL A   1      47.551  36.164  29.245  1.00  0.00     0.022 A 
BRANCH  89  93
ATOM     93  S   UNL A   1      46.681  37.293  26.847  1.00  0.00     0.124 S 
ATOM     94  O   UNL A   1      47.601  38.292  27.384  1.00  0.00    -0.237 OA
ATOM     95  O   UNL A   1      47.153  36.554  25.681  1.00  0.00    -0.237 OA
ATOM     96  O   UNL A   1      45.280  37.708  26.792  1.00  0.00    -0.744 OA
ENDBRANCH  89  93
ENDBRANCH  63  86
ENDBRANCH  37  38
ENDBRANCH  30  32
ENDBRANCH  29  30
ENDBRANCH  28  29
ENDBRANCH   1  28
TORSDOF 18
ENDMDL
MODEL 2
REMARK VINA RESULT:     -11.4      5.016      7.872
REMARK SMILES O=C(COc1ccccc1/C=C1/SC(=O)N(c2ccc(F)cc2)C1=O)OCCOC(=O)c1ccc(-c2c3nc(c(-c4cc(S(=O)(=O)[O-])ccc4F)c4ccc([nH]4)c(-c4cc(S(=O)(=O)[O-])ccc4F)c4nc(c(-c5cc(S(=O)(=O)[O-])ccc5F)c5ccc2[nH]5)C=C4)C=C3)cc1
REMARK SMILES IDX 27 1 26 2 2 3 1 4 3 5 4 6 5 7 6 8 10 9 7 10 9 11 8 12 11 13
REMARK SMILES IDX 12 14 13 15 24 16 14 17 16 18 25 19 15 20 17 21 18 22 23 23
REMARK SMILES IDX 19 24 22 25 20 26 21 27 28 28 29 29 30 30 31 31 32 32 33 33
REMARK SMILES IDX 94 34 34 35 93 36 35 37 36 38 37 39 87 40 38 41 92 42 86 43
REMARK SMILES IDX 88 44 39 45 91 46 85 47 84 48 40 50 72 51 52 52 71 53 53 54
REMARK SMILES IDX 56 55 70 56 89 57 54 58 55 59 69 61 90 62 57 63 41 64 42 65
REMARK SMILES IDX 50 66 43 67 49 68 51 69 48 70 44 71 45 72 46 73 47 74 73 75
REMARK SMILES IDX 74 76 82 77 75 78 81 79 83 80 80 81 76 82 77 83 78 84 79 85
REMARK SMILES IDX 58 86 59 87 67 88 60 89 66 90 68 91 65 92 61 93 62 94 63 95
REMARK SMILES IDX 64 96
REMARK H PARENT 88 49 56 60
REMARK Flexibility Score: inf
ROOT
ATOM      1  C   UNL A   1      31.694  30.324  25.714  1.00  0.00     0.274 C 
ENDROOT
BRANCH   1   2
ATOM      2  O   UNL A   1      32.820  29.549  25.249  1.00  0.00    -0.460 OA
BRANCH   2   3
ATOM      3  C   UNL A   1      32.875  28.192  25.261  1.00  0.00     0.344 C 
ATOM      4  O   UNL A   1      33.898  27.617  25.626  1.00  0.00    -0.248 OA
BRANCH   3   5
ATOM      5  C   UNL A   1      31.613  27.423  24.924  1.00  0.00     0.352 C 
BRANCH   5   6
ATOM      6  O   UNL A   1      31.949  26.110  24.471  1.00  0.00    -0.481 OA
BRANCH   6   7
ATOM      7  C   UNL A   1      31.431  25.156  25.316  1.00  0.00     0.127 A 
ATOM      8  C   UNL A   1      30.106  25.322  25.724  1.00  0.00     0.047 A 
ATOM      9  C   UNL A   1      32.207  24.083  25.796  1.00  0.00     0.018 A 
ATOM     10  C   UNL A   1      29.523  24.386  26.573  1.00  0.00     0.004 A 
ATOM     11  C   UNL A   1      31.600  23.142  26.635  1.00  0.00     0.012 A 
ATOM     12  C   UNL A   1      30.265  23.295  27.022  1.00  0.00     0.001 A 
BRANCH   9  13
ATOM     13  C   UNL A   1      33.613  23.875  25.412  1.00  0.00     0.033 C 
ATOM     14  C   UNL A   1      34.128  22.728  24.949  1.00  0.00     0.084 C 
ATOM     15  S   UNL A   1      35.814  22.420  24.824  1.00  0.00    -0.022 SA
ATOM     16  C   UNL A   1      33.376  21.482  24.634  1.00  0.00     0.272 C 
ATOM     17  C   UNL A   1      35.560  20.679  24.915  1.00  0.00     0.298 C 
ATOM     18  N   UNL A   1      34.220  20.384  24.750  1.00  0.00    -0.236 N 
ATOM     19  O   UNL A   1      32.193  21.491  24.323  1.00  0.00    -0.268 OA
ATOM     20  O   UNL A   1      36.500  19.911  25.060  1.00  0.00    -0.260 OA
BRANCH  18  21
ATOM     21  C   UNL A   1      33.717  19.044  24.721  1.00  0.00     0.053 A 
ATOM     22  C   UNL A   1      32.987  18.520  25.802  1.00  0.00     0.030 A 
ATOM     23  C   UNL A   1      33.981  18.185  23.639  1.00  0.00     0.030 A 
ATOM     24  C   UNL A   1      32.572  17.186  25.825  1.00  0.00     0.041 A 
ATOM     25  C   UNL A   1      33.594  16.840  23.672  1.00  0.00     0.041 A 
ATOM     26  C   UNL A   1      32.896  16.353  24.767  1.00  0.00     0.123 A 
ATOM     27  F   UNL A   1      32.531  15.066  24.801  1.00  0.00    -0.207 F 
ENDBRANCH  18  21
ENDBRANCH   9  13
ENDBRANCH   6   7
ENDBRANCH   5   6
ENDBRANCH   3   5
ENDBRANCH   2   3
ENDBRANCH   1   2
BRANCH   1  28
ATOM     28  C   UNL A   1      32.148  31.346  26.752  1.00  0.00     0.275 C 
BRANCH  28  29
ATOM     29  O   UNL A   1      33.349  30.863  27.367  1.00  0.00    -0.458 OA
BRANCH  29  30
ATOM     30  C   UNL A   1      34.223  31.822  27.770  1.00  0.00     0.338 C 
ATOM     31  O   UNL A   1      33.978  32.988  27.987  1.00  0.00    -0.246 OA
BRANCH  30  32
ATOM     32  C   UNL A   1      35.479  31.132  28.138  1.00  0.00     0.060 A 
ATOM     33  C   UNL A   1      35.463  29.737  28.263  1.00  0.00     0.016 A 
ATOM     34  C   UNL A   1      36.667  31.849  28.304  1.00  0.00     0.016 A 
ATOM     35  C   UNL A   1      36.636  29.055  28.580  1.00  0.00     0.010 A 
ATOM     36  C   UNL A   1      37.836  31.169  28.632  1.00  0.00     0.010 A 
ATOM     37  C   UNL A   1      37.816  29.776  28.803  1.00  0.00    -0.014 A 
BRANCH  37  38
ATOM     38  C   UNL A   1      38.972  29.129  29.456  1.00  0.00     0.031 A 
ATOM     39  C   UNL A   1      39.417  29.686  30.779  1.00  0.00     0.074 A 
ATOM     40  C   UNL A   1      39.632  28.120  28.865  1.00  0.00     0.049 A 
ATOM     41  N   UNL A   1      40.459  29.381  31.503  1.00  0.00    -0.248 NA
ATOM     42  C   UNL A   1      38.571  30.748  31.350  1.00  0.00     0.031 C 
ATOM     43  C   UNL A   1      39.265  27.496  27.594  1.00  0.00     0.029 A 
ATOM     44  N   UNL A   1      40.768  27.456  29.251  1.00  0.00    -0.354 N 
ATOM     45  C   UNL A   1      40.395  30.212  32.616  1.00  0.00     0.074 A 
ATOM     46  C   UNL A   1      39.238  31.063  32.448  1.00  0.00     0.031 C 
ATOM     47  C   UNL A   1      40.175  26.552  27.295  1.00  0.00     0.029 A 
ATOM     48  C   UNL A   1      41.203  26.528  28.334  1.00  0.00     0.049 A 
ATOM     49  H   UNL A   1      41.228  27.627  30.104  1.00  0.00     0.167 HD
ATOM     50  C   UNL A   1      41.224  30.254  33.687  1.00  0.00     0.034 A 
ATOM     51  C   UNL A   1      42.319  25.773  28.332  1.00  0.00     0.034 A 
ATOM     52  C   UNL A   1      42.392  29.421  33.813  1.00  0.00     0.049 A 
ATOM     53  C   UNL A   1      43.275  25.893  29.496  1.00  0.00     0.074 A 
ATOM     54  C   UNL A   1      43.311  29.370  34.845  1.00  0.00     0.029 A 
ATOM     55  N   UNL A   1      42.810  28.500  32.860  1.00  0.00    -0.354 N 
ATOM     56  N   UNL A   1      43.195  26.665  30.557  1.00  0.00    -0.248 NA
ATOM     57  C   UNL A   1      44.466  25.035  29.466  1.00  0.00     0.031 C 
ATOM     58  C   UNL A   1      44.318  28.467  34.487  1.00  0.00     0.029 A 
ATOM     59  C   UNL A   1      43.990  27.898  33.265  1.00  0.00     0.049 A 
ATOM     60  H   UNL A   1      42.337  28.304  32.019  1.00  0.00     0.167 HD
ATOM     61  C   UNL A   1      44.310  26.359  31.335  1.00  0.00     0.074 A 
ATOM     62  C   UNL A   1      45.038  25.327  30.625  1.00  0.00     0.031 C 
ATOM     63  C   UNL A   1      44.698  26.876  32.530  1.00  0.00     0.034 A 
BRANCH  50  64
ATOM     64  C   UNL A   1      40.912  31.273  34.754  1.00  0.00     0.023 A 
ATOM     65  C   UNL A   1      39.870  31.075  35.679  1.00  0.00     0.031 A 
ATOM     66  C   UNL A   1      41.615  32.488  34.806  1.00  0.00     0.131 A 
ATOM     67  C   UNL A   1      39.510  32.106  36.559  1.00  0.00     0.055 A 
ATOM     68  C   UNL A   1      41.304  33.478  35.739  1.00  0.00     0.041 A 
ATOM     69  F   UNL A   1      42.599  32.746  33.930  1.00  0.00    -0.206 F 
ATOM     70  C   UNL A   1      40.236  33.297  36.613  1.00  0.00     0.022 A 
BRANCH  67  71
ATOM     71  S   UNL A   1      37.985  31.928  37.525  1.00  0.00     0.124 S 
ATOM     72  O   UNL A   1      37.135  32.954  36.924  1.00  0.00    -0.237 OA
ATOM     73  O   UNL A   1      37.602  30.546  37.259  1.00  0.00    -0.237 OA
ATOM     74  O   UNL A   1      38.411  32.206  38.895  1.00  0.00    -0.744 OA
ENDBRANCH  67  71
ENDBRANCH  50  64
BRANCH  51  75
ATOM     75  C   UNL A   1      42.621  24.865  27.188  1.00  0.00     0.023 A 
ATOM     76  C   UNL A   1      42.204  23.526  27.196  1.00  0.00     0.031 A 
ATOM     77  C   UNL A   1      43.383  25.311  26.094  1.00  0.00     0.131 A 
ATOM     78  C   UNL A   1      42.589  22.665  26.155  1.00  0.00     0.055 A 
ATOM     79  C   UNL A   1      43.723  24.464  25.036  1.00  0.00     0.041 A 
ATOM     80  F   UNL A   1      43.806  26.585  26.033  1.00  0.00    -0.206 F 
ATOM     81  C   UNL A   1      43.337  23.128  25.070  1.00  0.00     0.022 A 
BRANCH  78  82
ATOM     82  S   UNL A   1      42.166  20.906  26.280  1.00  0.00     0.124 S 
ATOM     83  O   UNL A   1      43.041  20.317  25.272  1.00  0.00    -0.237 OA
ATOM     84  O   UNL A   1      42.498  20.613  27.671  1.00  0.00    -0.237 OA
ATOM     85  O   UNL A   1      40.740  20.876  25.964  1.00  0.00    -0.744 OA
ENDBRANCH  78  82
ENDBRANCH  51  75
BRANCH  63  86
ATOM     86  C   UNL A   1      45.939  26.293  33.158  1.00  0.00     0.023 A 
ATOM     87  C   UNL A   1      47.225  26.741  32.809  1.00  0.00     0.031 A 
ATOM     88  C   UNL A   1      45.829  25.273  34.120  1.00  0.00     0.131 A 
ATOM     89  C   UNL A   1      48.352  26.134  33.382  1.00  0.00     0.055 A 
ATOM     90  C   UNL A   1      46.953  24.715  34.730  1.00  0.00     0.041 A 
ATOM     91  F   UNL A   1      44.624  24.810  34.489  1.00  0.00    -0.206 F 
ATOM     92  C   UNL A   1      48.224  25.136  34.351  1.00  0.00     0.022 A 
BRANCH  89  93
ATOM     93  S   UNL A   1      49.996  26.610  32.780  1.00  0.00     0.124 S 
ATOM     94  O   UNL A   1      50.367  25.456  31.966  1.00  0.00    -0.237 OA
ATOM     95  O   UNL A   1      49.717  27.842  32.051  1.00  0.00    -0.237 OA
ATOM     96  O   UNL A   1      50.774  26.779  34.007  1.00  0.00    -0.744 OA
ENDBRANCH  89  93
ENDBRANCH  63  86
ENDBRANCH  37  38
ENDBRANCH  30  32
ENDBRANCH  29  30
ENDBRANCH  28  29
ENDBRANCH   1  28
TORSDOF 18
ENDMDL
MODEL 3
REMARK VINA RESULT:     -11.2      5.191      8.217
REMARK SMILES O=C(COc1ccccc1/C=C1/SC(=O)N(c2ccc(F)cc2)C1=O)OCCOC(=O)c1ccc(-c2c3nc(c(-c4cc(S(=O)(=O)[O-])ccc4F)c4ccc([nH]4)c(-c4cc(S(=O)(=O)[O-])ccc4F)c4nc(c(-c5cc(S(=O)(=O)[O-])ccc5F)c5ccc2[nH]5)C=C4)C=C3)cc1
REMARK SMILES IDX 27 1 26 2 2 3 1 4 3 5 4 6 5 7 6 8 10 9 7 10 9 11 8 12 11 13
REMARK SMILES IDX 12 14 13 15 24 16 14 17 16 18 25 19 15 20 17 21 18 22 23 23
REMARK SMILES IDX 19 24 22 25 20 26 21 27 28 28 29 29 30 30 31 31 32 32 33 33
REMARK SMILES IDX 94 34 34 35 93 36 35 37 36 38 37 39 87 40 38 41 92 42 86 43
REMARK SMILES IDX 88 44 39 45 91 46 85 47 84 48 40 50 72 51 52 52 71 53 53 54
REMARK SMILES IDX 56 55 70 56 89 57 54 58 55 59 69 61 90 62 57 63 41 64 42 65
REMARK SMILES IDX 50 66 43 67 49 68 51 69 48 70 44 71 45 72 46 73 47 74 73 75
REMARK SMILES IDX 74 76 82 77 75 78 81 79 83 80 80 81 76 82 77 83 78 84 79 85
REMARK SMILES IDX 58 86 59 87 67 88 60 89 66 90 68 91 65 92 61 93 62 94 63 95
REMARK SMILES IDX 64 96
REMARK H PARENT 88 49 56 60
REMARK Flexibility Score: inf
ROOT
ATOM      1  C   UNL A   1      31.437  30.577  25.800  1.00  0.00     0.274 C 
ENDROOT
BRANCH   1   2
ATOM      2  O   UNL A   1      32.683  29.861  25.662  1.00  0.00    -0.460 OA
BRANCH   2   3
ATOM      3  C   UNL A   1      32.790  28.508  25.625  1.00  0.00     0.344 C 
ATOM      4  O   UNL A   1      33.736  27.947  26.174  1.00  0.00    -0.248 OA
BRANCH   3   5
ATOM      5  C   UNL A   1      31.662  27.719  24.992  1.00  0.00     0.352 C 
BRANCH   5   6
ATOM      6  O   UNL A   1      32.141  26.444  24.562  1.00  0.00    -0.481 OA
BRANCH   6   7
ATOM      7  C   UNL A   1      31.602  25.437  25.328  1.00  0.00     0.127 A 
ATOM      8  C   UNL A   1      30.251  25.551  25.667  1.00  0.00     0.047 A 
ATOM      9  C   UNL A   1      32.378  24.360  25.800  1.00  0.00     0.018 A 
ATOM     10  C   UNL A   1      29.646  24.560  26.436  1.00  0.00     0.004 A 
ATOM     11  C   UNL A   1      31.750  23.365  26.557  1.00  0.00     0.012 A 
ATOM     12  C   UNL A   1      30.391  23.466  26.873  1.00  0.00     0.001 A 
BRANCH   9  13
ATOM     13  C   UNL A   1      33.808  24.205  25.488  1.00  0.00     0.033 C 
ATOM     14  C   UNL A   1      34.393  23.070  25.081  1.00  0.00     0.084 C 
ATOM     15  S   UNL A   1      36.095  22.834  25.044  1.00  0.00    -0.022 SA
ATOM     16  C   UNL A   1      33.711  21.785  24.766  1.00  0.00     0.272 C 
ATOM     17  C   UNL A   1      35.911  21.087  25.170  1.00  0.00     0.298 C 
ATOM     18  N   UNL A   1      34.595  20.728  24.950  1.00  0.00    -0.236 N 
ATOM     19  O   UNL A   1      32.545  21.734  24.399  1.00  0.00    -0.268 OA
ATOM     20  O   UNL A   1      36.875  20.364  25.379  1.00  0.00    -0.260 OA
BRANCH  18  21
ATOM     21  C   UNL A   1      34.152  19.367  24.935  1.00  0.00     0.053 A 
ATOM     22  C   UNL A   1      34.875  18.376  24.248  1.00  0.00     0.030 A 
ATOM     23  C   UNL A   1      32.950  18.981  25.556  1.00  0.00     0.030 A 
ATOM     24  C   UNL A   1      34.403  17.065  24.149  1.00  0.00     0.041 A 
ATOM     25  C   UNL A   1      32.459  17.676  25.432  1.00  0.00     0.041 A 
ATOM     26  C   UNL A   1      33.189  16.731  24.726  1.00  0.00     0.123 A 
ATOM     27  F   UNL A   1      32.717  15.485  24.602  1.00  0.00    -0.207 F 
ENDBRANCH  18  21
ENDBRANCH   9  13
ENDBRANCH   6   7
ENDBRANCH   5   6
ENDBRANCH   3   5
ENDBRANCH   2   3
ENDBRANCH   1   2
BRANCH   1  28
ATOM     28  C   UNL A   1      31.670  31.912  26.503  1.00  0.00     0.275 C 
BRANCH  28  29
ATOM     29  O   UNL A   1      32.602  31.703  27.572  1.00  0.00    -0.458 OA
BRANCH  29  30
ATOM     30  C   UNL A   1      33.564  32.655  27.699  1.00  0.00     0.338 C 
ATOM     31  O   UNL A   1      33.414  33.856  27.648  1.00  0.00    -0.246 OA
BRANCH  30  32
ATOM     32  C   UNL A   1      34.790  31.968  28.160  1.00  0.00     0.060 A 
ATOM     33  C   UNL A   1      34.741  30.584  28.370  1.00  0.00     0.016 A 
ATOM     34  C   UNL A   1      35.985  32.673  28.331  1.00  0.00     0.016 A 
ATOM     35  C   UNL A   1      35.888  29.903  28.776  1.00  0.00     0.010 A 
ATOM     36  C   UNL A   1      37.126  31.996  28.749  1.00  0.00     0.010 A 
ATOM     37  C   UNL A   1      37.071  30.616  29.003  1.00  0.00    -0.014 A 
BRANCH  37  38
ATOM     38  C   UNL A   1      38.188  29.992  29.743  1.00  0.00     0.031 A 
ATOM     39  C   UNL A   1      38.437  30.468  31.146  1.00  0.00     0.074 A 
ATOM     40  C   UNL A   1      38.981  29.076  29.164  1.00  0.00     0.049 A 
ATOM     41  N   UNL A   1      39.407  30.171  31.966  1.00  0.00    -0.248 NA
ATOM     42  C   UNL A   1      37.457  31.426  31.686  1.00  0.00     0.031 C 
ATOM     43  C   UNL A   1      38.807  28.534  27.817  1.00  0.00     0.029 A 
ATOM     44  N   UNL A   1      40.109  28.454  29.635  1.00  0.00    -0.354 N 
ATOM     45  C   UNL A   1      39.157  30.905  33.121  1.00  0.00     0.074 A 
ATOM     46  C   UNL A   1      37.970  31.693  32.876  1.00  0.00     0.031 C 
ATOM     47  C   UNL A   1      39.810  27.675  27.562  1.00  0.00     0.029 A 
ATOM     48  C   UNL A   1      40.710  27.632  28.713  1.00  0.00     0.049 A 
ATOM     49  H   UNL A   1      40.454  28.585  30.547  1.00  0.00     0.167 HD
ATOM     50  C   UNL A   1      39.852  30.912  34.283  1.00  0.00     0.034 A 
ATOM     51  C   UNL A   1      41.870  26.949  28.790  1.00  0.00     0.034 A 
ATOM     52  C   UNL A   1      41.054  30.145  34.489  1.00  0.00     0.049 A 
ATOM     53  C   UNL A   1      42.675  27.034  30.066  1.00  0.00     0.074 A 
ATOM     54  C   UNL A   1      41.849  30.069  35.617  1.00  0.00     0.029 A 
ATOM     55  N   UNL A   1      41.643  29.331  33.529  1.00  0.00    -0.354 N 
ATOM     56  N   UNL A   1      42.419  27.713  31.163  1.00  0.00    -0.248 NA
ATOM     57  C   UNL A   1      43.919  26.256  30.117  1.00  0.00     0.031 C 
ATOM     58  C   UNL A   1      42.953  29.261  35.318  1.00  0.00     0.029 A 
ATOM     59  C   UNL A   1      42.808  28.772  34.028  1.00  0.00     0.049 A 
ATOM     60  H   UNL A   1      41.284  29.174  32.626  1.00  0.00     0.167 HD
ATOM     61  C   UNL A   1      43.456  27.415  32.045  1.00  0.00     0.074 A 
ATOM     62  C   UNL A   1      44.332  26.490  31.355  1.00  0.00     0.031 C 
ATOM     63  C   UNL A   1      43.666  27.858  33.312  1.00  0.00     0.034 A 
BRANCH  50  64
ATOM     64  C   UNL A   1      39.348  31.822  35.376  1.00  0.00     0.023 A 
ATOM     65  C   UNL A   1      38.714  31.312  36.524  1.00  0.00     0.031 A 
ATOM     66  C   UNL A   1      39.439  33.217  35.240  1.00  0.00     0.131 A 
ATOM     67  C   UNL A   1      38.125  32.189  37.445  1.00  0.00     0.055 A 
ATOM     68  C   UNL A   1      38.922  34.085  36.202  1.00  0.00     0.041 A 
ATOM     69  F   UNL A   1      40.007  33.761  34.152  1.00  0.00    -0.206 F 
ATOM     70  C   UNL A   1      38.245  33.573  37.306  1.00  0.00     0.022 A 
BRANCH  67  71
ATOM     71  S   UNL A   1      37.067  31.497  38.747  1.00  0.00     0.124 S 
ATOM     72  O   UNL A   1      37.938  31.591  39.916  1.00  0.00    -0.237 OA
ATOM     73  O   UNL A   1      35.919  32.397  38.732  1.00  0.00    -0.237 OA
ATOM     74  O   UNL A   1      36.800  30.137  38.285  1.00  0.00    -0.744 OA
ENDBRANCH  67  71
ENDBRANCH  50  64
BRANCH  51  75
ATOM     75  C   UNL A   1      42.365  26.156  27.628  1.00  0.00     0.023 A 
ATOM     76  C   UNL A   1      42.009  24.809  27.466  1.00  0.00     0.031 A 
ATOM     77  C   UNL A   1      43.250  26.720  26.693  1.00  0.00     0.131 A 
ATOM     78  C   UNL A   1      42.570  24.056  26.422  1.00  0.00     0.055 A 
ATOM     79  C   UNL A   1      43.768  25.982  25.627  1.00  0.00     0.041 A 
ATOM     80  F   UNL A   1      43.623  28.007  26.799  1.00  0.00    -0.206 F 
ATOM     81  C   UNL A   1      43.439  24.636  25.495  1.00  0.00     0.022 A 
BRANCH  78  82
ATOM     82  S   UNL A   1      42.210  22.280  26.339  1.00  0.00     0.124 S 
ATOM     83  O   UNL A   1      42.679  21.821  27.642  1.00  0.00    -0.237 OA
ATOM     84  O   UNL A   1      40.765  22.274  26.136  1.00  0.00    -0.237 OA
ATOM     85  O   UNL A   1      42.998  21.827  25.196  1.00  0.00    -0.744 OA
ENDBRANCH  78  82
ENDBRANCH  51  75
BRANCH  63  86
ATOM     86  C   UNL A   1      44.865  27.304  34.040  1.00  0.00     0.023 A 
ATOM     87  C   UNL A   1      44.809  26.086  34.739  1.00  0.00     0.031 A 
ATOM     88  C   UNL A   1      46.081  28.010  34.032  1.00  0.00     0.131 A 
ATOM     89  C   UNL A   1      45.935  25.635  35.444  1.00  0.00     0.055 A 
ATOM     90  C   UNL A   1      47.215  27.527  34.686  1.00  0.00     0.041 A 
ATOM     91  F   UNL A   1      46.188  29.179  33.379  1.00  0.00    -0.206 F 
ATOM     92  C   UNL A   1      47.142  26.339  35.408  1.00  0.00     0.022 A 
BRANCH  89  93
ATOM     93  S   UNL A   1      45.778  24.154  36.479  1.00  0.00     0.124 S 
ATOM     94  O   UNL A   1      44.436  23.689  36.142  1.00  0.00    -0.237 OA
ATOM     95  O   UNL A   1      46.879  23.323  36.005  1.00  0.00    -0.237 OA
ATOM     96  O   UNL A   1      45.932  24.668  37.839  1.00  0.00    -0.744 OA
ENDBRANCH  89  93
ENDBRANCH  63  86
ENDBRANCH  37  38
ENDBRANCH  30  32
ENDBRANCH  29  30
ENDBRANCH  28  29
ENDBRANCH   1  28
TORSDOF 18
ENDMDL
