MODEL 1
REMARK VINA RESULT:     -10.8      0.000      0.000
REMARK SMILES CC1(C)CCN(C(=O)CC(C)(C)C(=O)OCCOC(=O)c2ccc(-c3c4nc(c(-c5cc(S(=O)(=O)[O-])ccc5F)c5ccc([nH]5)c(-c5cc(S(=O)(=O)[O-])ccc5F)c5nc(c(-c6cc(S(=O)(=O)[O-])ccc6F)c6ccc3[nH]6)C=C5)C=C4)cc2)C1
REMARK SMILES IDX 16 1 15 2 13 3 14 4 10 5 11 6 12 7 9 8 7 9 8 10 6 11 1 12
REMARK SMILES IDX 2 13 3 14 4 15 84 16 5 17 17 18 18 19 19 20 20 21 21 22
REMARK SMILES IDX 22 23 83 24 23 25 82 26 24 27 25 28 26 29 76 30 27 31 81 32
REMARK SMILES IDX 75 33 77 34 28 35 80 36 74 37 73 38 29 40 61 41 41 42 60 43
REMARK SMILES IDX 42 44 45 45 59 46 78 47 43 48 44 49 58 51 79 52 46 53 30 54
REMARK SMILES IDX 31 55 39 56 32 57 38 58 40 59 37 60 33 61 34 62 35 63 36 64
REMARK SMILES IDX 62 65 63 66 71 67 64 68 70 69 72 70 69 71 65 72 66 73 67 74
REMARK SMILES IDX 68 75 47 76 48 77 56 78 49 79 55 80 57 81 54 82 50 83 51 84
REMARK SMILES IDX 52 85 53 86
REMARK H PARENT 77 39 45 50
REMARK Flexibility Score: inf
ROOT
ATOM      1  C   UNL A   1      31.420  29.929  25.183  1.00  0.00     0.274 C 
ENDROOT
BRANCH   1   2
ATOM      2  O   UNL A   1      31.438  28.527  25.517  1.00  0.00    -0.462 OA
BRANCH   2   3
ATOM      3  C   UNL A   1      31.940  27.677  24.576  1.00  0.00     0.312 C 
ATOM      4  O   UNL A   1      31.498  27.593  23.439  1.00  0.00    -0.252 OA
BRANCH   3   5
ATOM      5  C   UNL A   1      32.965  26.699  25.182  1.00  0.00     0.071 C 
ATOM      6  C   UNL A   1      32.124  25.772  26.080  1.00  0.00     0.024 C 
ATOM      7  C   UNL A   1      33.988  27.408  26.098  1.00  0.00     0.024 C 
BRANCH   5   8
ATOM      8  C   UNL A   1      33.770  25.878  24.129  1.00  0.00     0.118 C 
BRANCH   8   9
ATOM      9  C   UNL A   1      34.317  24.522  24.547  1.00  0.00     0.223 C 
ATOM     10  O   UNL A   1      35.260  24.459  25.335  1.00  0.00    -0.275 OA
BRANCH   9  11
ATOM     11  N   UNL A   1      33.733  23.394  24.031  1.00  0.00    -0.342 N 
ATOM     12  C   UNL A   1      31.715  21.606  25.389  1.00  0.00     0.013 C 
ATOM     13  C   UNL A   1      32.628  21.337  24.178  1.00  0.00    -0.016 C 
ATOM     14  C   UNL A   1      32.764  19.831  23.973  1.00  0.00     0.013 C 
ATOM     15  C   UNL A   1      32.109  22.071  22.927  1.00  0.00     0.030 C 
ATOM     16  C   UNL A   1      33.995  22.007  24.356  1.00  0.00     0.126 C 
ATOM     17  C   UNL A   1      32.615  23.503  23.104  1.00  0.00     0.120 C 
ENDBRANCH   9  11
ENDBRANCH   8   9
ENDBRANCH   5   8
ENDBRANCH   3   5
ENDBRANCH   2   3
ENDBRANCH   1   2
BRANCH   1  18
ATOM     18  C   UNL A   1      31.751  30.760  26.419  1.00  0.00     0.275 C 
BRANCH  18  19
ATOM     19  O   UNL A   1      33.165  30.703  26.676  1.00  0.00    -0.458 OA
BRANCH  19  20
ATOM     20  C   UNL A   1      33.659  31.729  27.404  1.00  0.00     0.338 C 
ATOM     21  O   UNL A   1      33.088  32.770  27.707  1.00  0.00    -0.246 OA
BRANCH  20  22
ATOM     22  C   UNL A   1      34.975  31.349  27.927  1.00  0.00     0.060 A 
ATOM     23  C   UNL A   1      35.133  30.042  28.384  1.00  0.00     0.016 A 
ATOM     24  C   UNL A   1      36.017  32.267  28.039  1.00  0.00     0.016 A 
ATOM     25  C   UNL A   1      36.326  29.639  28.973  1.00  0.00     0.010 A 
ATOM     26  C   UNL A   1      37.225  31.858  28.618  1.00  0.00     0.010 A 
ATOM     27  C   UNL A   1      37.382  30.544  29.101  1.00  0.00    -0.014 A 
BRANCH  27  28
ATOM     28  C   UNL A   1      38.607  30.134  29.832  1.00  0.00     0.031 A 
ATOM     29  C   UNL A   1      39.546  29.152  29.192  1.00  0.00     0.074 A 
ATOM     30  C   UNL A   1      38.912  30.679  31.025  1.00  0.00     0.049 A 
ATOM     31  N   UNL A   1      40.599  28.560  29.692  1.00  0.00    -0.248 NA
ATOM     32  C   UNL A   1      39.255  28.796  27.795  1.00  0.00     0.031 C 
ATOM     33  C   UNL A   1      38.147  31.731  31.696  1.00  0.00     0.029 A 
ATOM     34  N   UNL A   1      39.952  30.424  31.884  1.00  0.00    -0.354 N 
ATOM     35  C   UNL A   1      41.091  27.747  28.677  1.00  0.00     0.074 A 
ATOM     36  C   UNL A   1      40.206  27.908  27.542  1.00  0.00     0.031 C 
ATOM     37  C   UNL A   1      38.740  32.024  32.866  1.00  0.00     0.029 A 
ATOM     38  C   UNL A   1      39.889  31.143  33.055  1.00  0.00     0.049 A 
ATOM     39  H   UNL A   1      40.675  29.786  31.681  1.00  0.00     0.167 HD
ATOM     40  C   UNL A   1      42.182  26.941  28.694  1.00  0.00     0.034 A 
ATOM     41  C   UNL A   1      40.648  31.068  34.167  1.00  0.00     0.034 A 
ATOM     42  C   UNL A   1      43.049  26.787  29.837  1.00  0.00     0.049 A 
ATOM     43  C   UNL A   1      41.779  30.070  34.212  1.00  0.00     0.074 A 
ATOM     44  C   UNL A   1      44.154  25.965  29.981  1.00  0.00     0.029 A 
ATOM     45  N   UNL A   1      42.908  27.472  31.038  1.00  0.00    -0.354 N 
ATOM     46  N   UNL A   1      42.192  29.243  33.278  1.00  0.00    -0.248 NA
ATOM     47  C   UNL A   1      42.542  29.990  35.465  1.00  0.00     0.031 C 
ATOM     48  C   UNL A   1      44.641  26.109  31.285  1.00  0.00     0.029 A 
ATOM     49  C   UNL A   1      43.887  27.073  31.935  1.00  0.00     0.049 A 
ATOM     50  H   UNL A   1      42.213  28.145  31.225  1.00  0.00     0.167 HD
ATOM     51  C   UNL A   1      43.277  28.562  33.824  1.00  0.00     0.074 A 
ATOM     52  C   UNL A   1      43.464  29.087  35.162  1.00  0.00     0.031 C 
ATOM     53  C   UNL A   1      44.053  27.595  33.271  1.00  0.00     0.034 A 
BRANCH  40  54
ATOM     54  C   UNL A   1      42.435  26.110  27.461  1.00  0.00     0.023 A 
ATOM     55  C   UNL A   1      41.992  24.779  27.357  1.00  0.00     0.031 A 
ATOM     56  C   UNL A   1      43.182  26.641  26.395  1.00  0.00     0.131 A 
ATOM     57  C   UNL A   1      42.365  24.003  26.248  1.00  0.00     0.055 A 
ATOM     58  C   UNL A   1      43.484  25.888  25.259  1.00  0.00     0.041 A 
ATOM     59  F   UNL A   1      43.651  27.898  26.450  1.00  0.00    -0.206 F 
ATOM     60  C   UNL A   1      43.088  24.555  25.188  1.00  0.00     0.022 A 
BRANCH  57  61
ATOM     61  S   UNL A   1      42.016  22.223  26.274  1.00  0.00     0.124 S 
ATOM     62  O   UNL A   1      42.787  21.753  25.125  1.00  0.00    -0.237 OA
ATOM     63  O   UNL A   1      42.514  21.822  27.585  1.00  0.00    -0.237 OA
ATOM     64  O   UNL A   1      40.565  22.155  26.110  1.00  0.00    -0.744 OA
ENDBRANCH  57  61
ENDBRANCH  40  54
BRANCH  41  65
ATOM     65  C   UNL A   1      40.327  31.900  35.364  1.00  0.00     0.023 A 
ATOM     66  C   UNL A   1      39.315  31.528  36.261  1.00  0.00     0.031 A 
ATOM     67  C   UNL A   1      40.989  33.122  35.585  1.00  0.00     0.131 A 
ATOM     68  C   UNL A   1      38.961  32.390  37.312  1.00  0.00     0.055 A 
ATOM     69  C   UNL A   1      40.670  33.950  36.662  1.00  0.00     0.041 A 
ATOM     70  F   UNL A   1      41.959  33.531  34.752  1.00  0.00    -0.206 F 
ATOM     71  C   UNL A   1      39.641  33.592  37.526  1.00  0.00     0.022 A 
BRANCH  68  72
ATOM     72  S   UNL A   1      37.534  31.962  38.349  1.00  0.00     0.124 S 
ATOM     73  O   UNL A   1      37.273  30.586  37.944  1.00  0.00    -0.237 OA
ATOM     74  O   UNL A   1      38.068  32.146  39.694  1.00  0.00    -0.237 OA
ATOM     75  O   UNL A   1      36.518  32.934  37.947  1.00  0.00    -0.744 OA
ENDBRANCH  68  72
ENDBRANCH  41  65
BRANCH  53  76
ATOM     76  C   UNL A   1      45.201  27.080  34.104  1.00  0.00     0.023 A 
ATOM     77  C   UNL A   1      45.037  26.030  35.024  1.00  0.00     0.031 A 
ATOM     78  C   UNL A   1      46.475  27.662  33.983  1.00  0.00     0.131 A 
ATOM     79  C   UNL A   1      46.117  25.628  35.826  1.00  0.00     0.055 A 
ATOM     80  C   UNL A   1      47.559  27.222  34.744  1.00  0.00     0.041 A 
ATOM     81  F   UNL A   1      46.688  28.669  33.121  1.00  0.00    -0.206 F 
ATOM     82  C   UNL A   1      47.380  26.208  35.681  1.00  0.00     0.022 A 
BRANCH  79  83
ATOM     83  S   UNL A   1      45.831  24.392  37.123  1.00  0.00     0.124 S 
ATOM     84  O   UNL A   1      46.059  23.142  36.408  1.00  0.00    -0.237 OA
ATOM     85  O   UNL A   1      46.834  24.749  38.122  1.00  0.00    -0.237 OA
ATOM     86  O   UNL A   1      44.446  24.631  37.526  1.00  0.00    -0.744 OA
ENDBRANCH  79  83
ENDBRANCH  53  76
ENDBRANCH  27  28
ENDBRANCH  20  22
ENDBRANCH  19  20
ENDBRANCH  18  19
ENDBRANCH   1  18
TORSDOF 17
ENDMDL
MODEL 2
REMARK VINA RESULT:     -10.7      5.112     10.113
REMARK SMILES CC1(C)CCN(C(=O)CC(C)(C)C(=O)OCCOC(=O)c2ccc(-c3c4nc(c(-c5cc(S(=O)(=O)[O-])ccc5F)c5ccc([nH]5)c(-c5cc(S(=O)(=O)[O-])ccc5F)c5nc(c(-c6cc(S(=O)(=O)[O-])ccc6F)c6ccc3[nH]6)C=C5)C=C4)cc2)C1
REMARK SMILES IDX 16 1 15 2 13 3 14 4 10 5 11 6 12 7 9 8 7 9 8 10 6 11 1 12
REMARK SMILES IDX 2 13 3 14 4 15 84 16 5 17 17 18 18 19 19 20 20 21 21 22
REMARK SMILES IDX 22 23 83 24 23 25 82 26 24 27 25 28 26 29 76 30 27 31 81 32
REMARK SMILES IDX 75 33 77 34 28 35 80 36 74 37 73 38 29 40 61 41 41 42 60 43
REMARK SMILES IDX 42 44 45 45 59 46 78 47 43 48 44 49 58 51 79 52 46 53 30 54
REMARK SMILES IDX 31 55 39 56 32 57 38 58 40 59 37 60 33 61 34 62 35 63 36 64
REMARK SMILES IDX 62 65 63 66 71 67 64 68 70 69 72 70 69 71 65 72 66 73 67 74
REMARK SMILES IDX 68 75 47 76 48 77 56 78 49 79 55 80 57 81 54 82 50 83 51 84
REMARK SMILES IDX 52 85 53 86
REMARK H PARENT 77 39 45 50
REMARK Flexibility Score: inf
ROOT
ATOM      1  C   UNL A   1      35.178  20.391  25.021  1.00  0.00     0.274 C 
ENDROOT
BRANCH   1   2
ATOM      2  O   UNL A   1      34.359  21.540  25.317  1.00  0.00    -0.462 OA
BRANCH   2   3
ATOM      3  C   UNL A   1      33.101  21.549  24.793  1.00  0.00     0.312 C 
ATOM      4  O   UNL A   1      32.307  20.629  24.926  1.00  0.00    -0.252 OA
BRANCH   3   5
ATOM      5  C   UNL A   1      32.890  22.744  23.843  1.00  0.00     0.071 C 
ATOM      6  C   UNL A   1      31.617  23.432  24.370  1.00  0.00     0.024 C 
ATOM      7  C   UNL A   1      32.595  22.300  22.392  1.00  0.00     0.024 C 
BRANCH   5   8
ATOM      8  C   UNL A   1      34.086  23.744  23.791  1.00  0.00     0.118 C 
BRANCH   8   9
ATOM      9  C   UNL A   1      33.834  25.130  23.219  1.00  0.00     0.223 C 
ATOM     10  O   UNL A   1      33.744  25.283  22.001  1.00  0.00    -0.275 OA
BRANCH   9  11
ATOM     11  N   UNL A   1      33.708  26.183  24.088  1.00  0.00    -0.342 N 
ATOM     12  C   UNL A   1      31.164  27.198  25.359  1.00  0.00     0.013 C 
ATOM     13  C   UNL A   1      32.531  27.886  25.180  1.00  0.00    -0.016 C 
ATOM     14  C   UNL A   1      32.358  29.396  25.309  1.00  0.00     0.013 C 
ATOM     15  C   UNL A   1      33.567  27.312  26.165  1.00  0.00     0.030 C 
ATOM     16  C   UNL A   1      33.170  27.505  23.839  1.00  0.00     0.126 C 
ATOM     17  C   UNL A   1      34.031  26.016  25.498  1.00  0.00     0.120 C 
ENDBRANCH   9  11
ENDBRANCH   8   9
ENDBRANCH   5   8
ENDBRANCH   3   5
ENDBRANCH   2   3
ENDBRANCH   1   2
BRANCH   1  18
ATOM     18  C   UNL A   1      36.584  20.842  24.639  1.00  0.00     0.275 C 
BRANCH  18  19
ATOM     19  O   UNL A   1      37.217  21.463  25.772  1.00  0.00    -0.458 OA
BRANCH  19  20
ATOM     20  C   UNL A   1      38.521  21.154  25.944  1.00  0.00     0.338 C 
ATOM     21  O   UNL A   1      39.097  20.132  25.590  1.00  0.00    -0.246 OA
BRANCH  20  22
ATOM     22  C   UNL A   1      39.215  22.318  26.504  1.00  0.00     0.060 A 
ATOM     23  C   UNL A   1      38.739  23.579  26.156  1.00  0.00     0.016 A 
ATOM     24  C   UNL A   1      40.354  22.186  27.295  1.00  0.00     0.016 A 
ATOM     25  C   UNL A   1      39.402  24.726  26.579  1.00  0.00     0.010 A 
ATOM     26  C   UNL A   1      41.014  23.341  27.735  1.00  0.00     0.010 A 
ATOM     27  C   UNL A   1      40.548  24.619  27.368  1.00  0.00    -0.014 A 
BRANCH  27  28
ATOM     28  C   UNL A   1      41.309  25.844  27.718  1.00  0.00     0.031 A 
ATOM     29  C   UNL A   1      40.637  26.915  28.529  1.00  0.00     0.074 A 
ATOM     30  C   UNL A   1      42.603  25.974  27.371  1.00  0.00     0.049 A 
ATOM     31  N   UNL A   1      41.060  28.112  28.841  1.00  0.00    -0.248 NA
ATOM     32  C   UNL A   1      39.309  26.583  29.064  1.00  0.00     0.031 C 
ATOM     33  C   UNL A   1      43.404  24.955  26.690  1.00  0.00     0.029 A 
ATOM     34  N   UNL A   1      43.476  27.019  27.549  1.00  0.00    -0.354 N 
ATOM     35  C   UNL A   1      40.044  28.686  29.596  1.00  0.00     0.074 A 
ATOM     36  C   UNL A   1      38.976  27.710  29.674  1.00  0.00     0.031 C 
ATOM     37  C   UNL A   1      44.646  25.431  26.499  1.00  0.00     0.029 A 
ATOM     38  C   UNL A   1      44.715  26.805  26.991  1.00  0.00     0.049 A 
ATOM     39  H   UNL A   1      43.237  27.845  28.030  1.00  0.00     0.167 HD
ATOM     40  C   UNL A   1      40.008  29.914  30.169  1.00  0.00     0.034 A 
ATOM     41  C   UNL A   1      45.768  27.637  26.856  1.00  0.00     0.034 A 
ATOM     42  C   UNL A   1      41.078  30.877  30.075  1.00  0.00     0.049 A 
ATOM     43  C   UNL A   1      45.657  29.044  27.389  1.00  0.00     0.074 A 
ATOM     44  C   UNL A   1      41.131  32.166  30.577  1.00  0.00     0.029 A 
ATOM     45  N   UNL A   1      42.290  30.655  29.431  1.00  0.00    -0.354 N 
ATOM     46  N   UNL A   1      44.660  29.611  28.032  1.00  0.00    -0.248 NA
ATOM     47  C   UNL A   1      46.810  29.928  27.171  1.00  0.00     0.031 C 
ATOM     48  C   UNL A   1      42.346  32.741  30.185  1.00  0.00     0.029 A 
ATOM     49  C   UNL A   1      43.084  31.790  29.500  1.00  0.00     0.049 A 
ATOM     50  H   UNL A   1      42.548  29.813  28.989  1.00  0.00     0.167 HD
ATOM     51  C   UNL A   1      45.079  30.909  28.315  1.00  0.00     0.074 A 
ATOM     52  C   UNL A   1      46.422  31.035  27.786  1.00  0.00     0.031 C 
ATOM     53  C   UNL A   1      44.417  31.905  28.956  1.00  0.00     0.034 A 
BRANCH  40  54
ATOM     54  C   UNL A   1      38.731  30.301  30.874  1.00  0.00     0.023 A 
ATOM     55  C   UNL A   1      37.676  30.944  30.204  1.00  0.00     0.031 A 
ATOM     56  C   UNL A   1      38.594  30.072  32.255  1.00  0.00     0.131 A 
ATOM     57  C   UNL A   1      36.564  31.403  30.928  1.00  0.00     0.055 A 
ATOM     58  C   UNL A   1      37.451  30.463  32.956  1.00  0.00     0.041 A 
ATOM     59  F   UNL A   1      39.579  29.484  32.952  1.00  0.00    -0.206 F 
ATOM     60  C   UNL A   1      36.435  31.146  32.295  1.00  0.00     0.022 A 
BRANCH  57  61
ATOM     61  S   UNL A   1      35.357  32.466  30.090  1.00  0.00     0.124 S 
ATOM     62  O   UNL A   1      34.335  32.627  31.121  1.00  0.00    -0.237 OA
ATOM     63  O   UNL A   1      36.145  33.655  29.780  1.00  0.00    -0.237 OA
ATOM     64  O   UNL A   1      34.945  31.672  28.934  1.00  0.00    -0.744 OA
ENDBRANCH  57  61
ENDBRANCH  40  54
BRANCH  41  65
ATOM     65  C   UNL A   1      46.992  27.201  26.123  1.00  0.00     0.023 A 
ATOM     66  C   UNL A   1      48.064  26.589  26.791  1.00  0.00     0.031 A 
ATOM     67  C   UNL A   1      47.132  27.458  24.747  1.00  0.00     0.131 A 
ATOM     68  C   UNL A   1      49.246  26.294  26.093  1.00  0.00     0.055 A 
ATOM     69  C   UNL A   1      48.289  27.114  24.045  1.00  0.00     0.041 A 
ATOM     70  F   UNL A   1      46.142  28.050  24.061  1.00  0.00    -0.206 F 
ATOM     71  C   UNL A   1      49.361  26.542  24.722  1.00  0.00     0.022 A 
BRANCH  68  72
ATOM     72  S   UNL A   1      50.673  25.665  27.020  1.00  0.00     0.124 S 
ATOM     73  O   UNL A   1      50.851  26.699  28.033  1.00  0.00    -0.237 OA
ATOM     74  O   UNL A   1      50.182  24.376  27.497  1.00  0.00    -0.237 OA
ATOM     75  O   UNL A   1      51.729  25.591  26.012  1.00  0.00    -0.744 OA
ENDBRANCH  68  72
ENDBRANCH  41  65
BRANCH  53  76
ATOM     76  C   UNL A   1      45.162  33.202  29.157  1.00  0.00     0.023 A 
ATOM     77  C   UNL A   1      45.090  34.251  28.224  1.00  0.00     0.031 A 
ATOM     78  C   UNL A   1      45.968  33.382  30.295  1.00  0.00     0.131 A 
ATOM     79  C   UNL A   1      45.853  35.413  28.419  1.00  0.00     0.055 A 
ATOM     80  C   UNL A   1      46.682  34.561  30.511  1.00  0.00     0.041 A 
ATOM     81  F   UNL A   1      46.074  32.413  31.218  1.00  0.00    -0.206 F 
ATOM     82  C   UNL A   1      46.637  35.580  29.564  1.00  0.00     0.022 A 
BRANCH  79  83
ATOM     83  S   UNL A   1      45.874  36.674  27.114  1.00  0.00     0.124 S 
ATOM     84  O   UNL A   1      44.456  36.975  26.958  1.00  0.00    -0.237 OA
ATOM     85  O   UNL A   1      46.689  37.728  27.711  1.00  0.00    -0.237 OA
ATOM     86  O   UNL A   1      46.490  35.985  25.981  1.00  0.00    -0.744 OA
ENDBRANCH  79  83
ENDBRANCH  53  76
ENDBRANCH  27  28
ENDBRANCH  20  22
ENDBRANCH  19  20
ENDBRANCH  18  19
ENDBRANCH   1  18
TORSDOF 17
ENDMDL
MODEL 3
REMARK VINA RESULT:     -10.7      5.089     10.192
REMARK SMILES CC1(C)CCN(C(=O)CC(C)(C)C(=O)OCCOC(=O)c2ccc(-c3c4nc(c(-c5cc(S(=O)(=O)[O-])ccc5F)c5ccc([nH]5)c(-c5cc(S(=O)(=O)[O-])ccc5F)c5nc(c(-c6cc(S(=O)(=O)[O-])ccc6F)c6ccc3[nH]6)C=C5)C=C4)cc2)C1
REMARK SMILES IDX 16 1 15 2 13 3 14 4 10 5 11 6 12 7 9 8 7 9 8 10 6 11 1 12
REMARK SMILES IDX 2 13 3 14 4 15 84 16 5 17 17 18 18 19 19 20 20 21 21 22
REMARK SMILES IDX 22 23 83 24 23 25 82 26 24 27 25 28 26 29 76 30 27 31 81 32
REMARK SMILES IDX 75 33 77 34 28 35 80 36 74 37 73 38 29 40 61 41 41 42 60 43
REMARK SMILES IDX 42 44 45 45 59 46 78 47 43 48 44 49 58 51 79 52 46 53 30 54
REMARK SMILES IDX 31 55 39 56 32 57 38 58 40 59 37 60 33 61 34 62 35 63 36 64
REMARK SMILES IDX 62 65 63 66 71 67 64 68 70 69 72 70 69 71 65 72 66 73 67 74
REMARK SMILES IDX 68 75 47 76 48 77 56 78 49 79 55 80 57 81 54 82 50 83 51 84
REMARK SMILES IDX 52 85 53 86
REMARK H PARENT 77 39 45 50
REMARK Flexibility Score: inf
ROOT
ATOM      1  C   UNL A   1      36.099  20.336  25.017  1.00  0.00     0.274 C 
ENDROOT
BRANCH   1   2
ATOM      2  O   UNL A   1      35.207  21.089  25.863  1.00  0.00    -0.462 OA
BRANCH   2   3
ATOM      3  C   UNL A   1      34.010  21.454  25.324  1.00  0.00     0.312 C 
ATOM      4  O   UNL A   1      33.605  21.051  24.242  1.00  0.00    -0.252 OA
BRANCH   3   5
ATOM      5  C   UNL A   1      33.346  22.588  26.129  1.00  0.00     0.071 C 
ATOM      6  C   UNL A   1      34.359  23.746  26.065  1.00  0.00     0.024 C 
ATOM      7  C   UNL A   1      33.166  22.227  27.621  1.00  0.00     0.024 C 
BRANCH   5   8
ATOM      8  C   UNL A   1      31.954  23.033  25.585  1.00  0.00     0.118 C 
BRANCH   8   9
ATOM      9  C   UNL A   1      31.256  24.196  26.274  1.00  0.00     0.223 C 
ATOM     10  O   UNL A   1      30.606  23.998  27.300  1.00  0.00    -0.275 OA
BRANCH   9  11
ATOM     11  N   UNL A   1      31.376  25.447  25.727  1.00  0.00    -0.342 N 
ATOM     12  C   UNL A   1      33.653  27.391  26.119  1.00  0.00     0.013 C 
ATOM     13  C   UNL A   1      32.214  27.629  25.623  1.00  0.00    -0.016 C 
ATOM     14  C   UNL A   1      31.865  29.107  25.774  1.00  0.00     0.013 C 
ATOM     15  C   UNL A   1      32.039  27.114  24.182  1.00  0.00     0.030 C 
ATOM     16  C   UNL A   1      31.216  26.736  26.369  1.00  0.00     0.126 C 
ATOM     17  C   UNL A   1      31.827  25.609  24.352  1.00  0.00     0.120 C 
ENDBRANCH   9  11
ENDBRANCH   8   9
ENDBRANCH   5   8
ENDBRANCH   3   5
ENDBRANCH   2   3
ENDBRANCH   1   2
BRANCH   1  18
ATOM     18  C   UNL A   1      37.310  21.189  24.651  1.00  0.00     0.275 C 
BRANCH  18  19
ATOM     19  O   UNL A   1      37.751  21.924  25.807  1.00  0.00    -0.458 OA
BRANCH  19  20
ATOM     20  C   UNL A   1      39.008  21.647  26.219  1.00  0.00     0.338 C 
ATOM     21  O   UNL A   1      39.637  20.610  26.046  1.00  0.00    -0.246 OA
BRANCH  20  22
ATOM     22  C   UNL A   1      39.595  22.860  26.798  1.00  0.00     0.060 A 
ATOM     23  C   UNL A   1      39.134  24.086  26.325  1.00  0.00     0.016 A 
ATOM     24  C   UNL A   1      40.627  22.805  27.731  1.00  0.00     0.016 A 
ATOM     25  C   UNL A   1      39.709  25.274  26.766  1.00  0.00     0.010 A 
ATOM     26  C   UNL A   1      41.196  24.001  28.188  1.00  0.00     0.010 A 
ATOM     27  C   UNL A   1      40.747  25.243  27.697  1.00  0.00    -0.014 A 
BRANCH  27  28
ATOM     28  C   UNL A   1      41.426  26.509  28.073  1.00  0.00     0.031 A 
ATOM     29  C   UNL A   1      40.659  27.550  28.836  1.00  0.00     0.074 A 
ATOM     30  C   UNL A   1      42.729  26.701  27.792  1.00  0.00     0.049 A 
ATOM     31  N   UNL A   1      41.004  28.769  29.157  1.00  0.00    -0.248 NA
ATOM     32  C   UNL A   1      39.323  27.155  29.305  1.00  0.00     0.031 C 
ATOM     33  C   UNL A   1      43.614  25.720  27.165  1.00  0.00     0.029 A 
ATOM     34  N   UNL A   1      43.536  27.791  28.004  1.00  0.00    -0.354 N 
ATOM     35  C   UNL A   1      39.922  29.297  29.852  1.00  0.00     0.074 A 
ATOM     36  C   UNL A   1      38.902  28.269  29.885  1.00  0.00     0.031 C 
ATOM     37  C   UNL A   1      44.839  26.257  27.035  1.00  0.00     0.029 A 
ATOM     38  C   UNL A   1      44.812  27.636  27.515  1.00  0.00     0.049 A 
ATOM     39  H   UNL A   1      43.231  28.607  28.464  1.00  0.00     0.167 HD
ATOM     40  C   UNL A   1      39.793  30.526  30.409  1.00  0.00     0.034 A 
ATOM     41  C   UNL A   1      45.827  28.519  27.426  1.00  0.00     0.034 A 
ATOM     42  C   UNL A   1      40.817  31.542  30.360  1.00  0.00     0.049 A 
ATOM     43  C   UNL A   1      45.617  29.924  27.937  1.00  0.00     0.074 A 
ATOM     44  C   UNL A   1      40.778  32.836  30.850  1.00  0.00     0.029 A 
ATOM     45  N   UNL A   1      42.071  31.377  29.783  1.00  0.00    -0.354 N 
ATOM     46  N   UNL A   1      44.561  30.444  28.521  1.00  0.00    -0.248 NA
ATOM     47  C   UNL A   1      46.735  30.863  27.770  1.00  0.00     0.031 C 
ATOM     48  C   UNL A   1      41.981  33.469  30.517  1.00  0.00     0.029 A 
ATOM     49  C   UNL A   1      42.802  32.551  29.882  1.00  0.00     0.049 A 
ATOM     50  H   UNL A   1      42.394  30.545  29.365  1.00  0.00     0.167 HD
ATOM     51  C   UNL A   1      44.898  31.764  28.811  1.00  0.00     0.074 A 
ATOM     52  C   UNL A   1      46.259  31.954  28.352  1.00  0.00     0.031 C 
ATOM     53  C   UNL A   1      44.154  32.730  29.406  1.00  0.00     0.034 A 
BRANCH  40  54
ATOM     54  C   UNL A   1      38.464  30.852  31.043  1.00  0.00     0.023 A 
ATOM     55  C   UNL A   1      37.422  31.457  30.317  1.00  0.00     0.031 A 
ATOM     56  C   UNL A   1      38.257  30.606  32.412  1.00  0.00     0.131 A 
ATOM     57  C   UNL A   1      36.252  31.862  30.980  1.00  0.00     0.055 A 
ATOM     58  C   UNL A   1      37.061  30.943  33.049  1.00  0.00     0.041 A 
ATOM     59  F   UNL A   1      39.225  30.054  33.160  1.00  0.00    -0.206 F 
ATOM     60  C   UNL A   1      36.056  31.589  32.335  1.00  0.00     0.022 A 
BRANCH  57  61
ATOM     61  S   UNL A   1      35.051  32.882  30.080  1.00  0.00     0.124 S 
ATOM     62  O   UNL A   1      34.140  33.281  31.150  1.00  0.00    -0.237 OA
ATOM     63  O   UNL A   1      35.888  33.940  29.524  1.00  0.00    -0.237 OA
ATOM     64  O   UNL A   1      34.481  31.958  29.101  1.00  0.00    -0.744 OA
ENDBRANCH  57  61
ENDBRANCH  40  54
BRANCH  41  65
ATOM     65  C   UNL A   1      47.109  28.141  26.762  1.00  0.00     0.023 A 
ATOM     66  C   UNL A   1      47.231  28.127  25.364  1.00  0.00     0.031 A 
ATOM     67  C   UNL A   1      48.213  27.718  27.526  1.00  0.00     0.131 A 
ATOM     68  C   UNL A   1      48.414  27.656  24.771  1.00  0.00     0.055 A 
ATOM     69  C   UNL A   1      49.406  27.302  26.931  1.00  0.00     0.041 A 
ATOM     70  F   UNL A   1      48.147  27.702  28.866  1.00  0.00    -0.206 F 
ATOM     71  C   UNL A   1      49.506  27.256  25.545  1.00  0.00     0.022 A 
BRANCH  68  72
ATOM     72  S   UNL A   1      48.475  27.487  22.965  1.00  0.00     0.124 S 
ATOM     73  O   UNL A   1      49.768  28.085  22.653  1.00  0.00    -0.237 OA
ATOM     74  O   UNL A   1      48.378  26.041  22.791  1.00  0.00    -0.237 OA
ATOM     75  O   UNL A   1      47.311  28.245  22.512  1.00  0.00    -0.744 OA
ENDBRANCH  68  72
ENDBRANCH  41  65
BRANCH  53  76
ATOM     76  C   UNL A   1      44.821  34.065  29.632  1.00  0.00     0.023 A 
ATOM     77  C   UNL A   1      44.641  35.143  28.748  1.00  0.00     0.031 A 
ATOM     78  C   UNL A   1      45.662  34.253  30.744  1.00  0.00     0.131 A 
ATOM     79  C   UNL A   1      45.334  36.345  28.961  1.00  0.00     0.055 A 
ATOM     80  C   UNL A   1      46.306  35.468  30.980  1.00  0.00     0.041 A 
ATOM     81  F   UNL A   1      45.870  33.257  31.620  1.00  0.00    -0.206 F 
ATOM     82  C   UNL A   1      46.153  36.518  30.080  1.00  0.00     0.022 A 
BRANCH  79  83
ATOM     83  S   UNL A   1      45.218  37.654  27.711  1.00  0.00     0.124 S 
ATOM     84  O   UNL A   1      46.559  37.649  27.138  1.00  0.00    -0.237 OA
ATOM     85  O   UNL A   1      44.151  37.165  26.843  1.00  0.00    -0.237 OA
ATOM     86  O   UNL A   1      44.882  38.845  28.491  1.00  0.00    -0.744 OA
ENDBRANCH  79  83
ENDBRANCH  53  76
ENDBRANCH  27  28
ENDBRANCH  20  22
ENDBRANCH  19  20
ENDBRANCH  18  19
ENDBRANCH   1  18
TORSDOF 17
ENDMDL
