MODEL 1
REMARK VINA RESULT:     -12.0      0.000      0.000
REMARK SMILES COc1ccccc1C(=O)N/C(=C/c1ccc2c(c1)OCO2)C(=O)Nc1ccc(C(=O)OCCOC(=O)c2ccc(-c3c4nc(c(-c5cc(S(=O)(=O)[O-])ccc5F)c5ccc([nH]5)c(-c5cc(S(=O)(=O)[O-])ccc5F)c5nc(c(-c6cc(S(=O)(=O)[O-])ccc6F)c6ccc3[nH]6)C=C5)C=C4)cc2)cc1
REMARK SMILES IDX 33 1 32 2 30 3 31 4 29 5 26 6 27 7 102 8 28 9 101 10 25 11
REMARK SMILES IDX 23 12 24 13 12 15 13 16 11 17 9 18 10 19 8 21 3 22 4 23 5 24
REMARK SMILES IDX 7 25 6 26 2 27 1 28 14 29 15 30 19 31 16 32 18 33 17 34
REMARK SMILES IDX 20 35 22 36 21 37 34 38 35 39 36 40 37 41 38 42 39 43 100 44
REMARK SMILES IDX 40 45 99 46 41 47 42 48 43 49 93 50 44 51 98 52 92 53 94 54
REMARK SMILES IDX 45 55 97 56 91 57 90 58 46 60 78 61 58 62 77 63 59 64 62 65
REMARK SMILES IDX 76 66 95 67 60 68 61 69 75 71 96 72 63 73 47 74 48 75 56 76
REMARK SMILES IDX 49 77 55 78 57 79 54 80 50 81 51 82 52 83 53 84 79 85 80 86
REMARK SMILES IDX 88 87 81 88 87 89 89 90 86 91 82 92 83 93 84 94 85 95 64 96
REMARK SMILES IDX 65 97 73 98 66 99 72 100 74 101 71 102 67 103 68 104 69 105
REMARK SMILES IDX 70 106
REMARK H PARENT 25 14 11 20 94 59 62 70
REMARK Flexibility Score: inf
ROOT
ATOM      1  C   UNL A   1      36.949  20.510  24.505  1.00  0.00     0.275 C 
ENDROOT
BRANCH   1   2
ATOM      2  O   UNL A   1      35.841  20.581  25.412  1.00  0.00    -0.458 OA
BRANCH   2   3
ATOM      3  C   UNL A   1      34.693  20.072  24.917  1.00  0.00     0.338 C 
ATOM      4  O   UNL A   1      34.524  18.936  24.504  1.00  0.00    -0.246 OA
BRANCH   3   5
ATOM      5  C   UNL A   1      33.638  21.111  24.883  1.00  0.00     0.060 A 
ATOM      6  C   UNL A   1      32.879  24.566  25.803  1.00  0.00     0.041 A 
ATOM      7  C   UNL A   1      33.427  24.273  24.243  1.00  0.00     0.027 A 
ATOM      8  C   UNL A   1      32.575  23.237  26.802  1.00  0.00     0.027 A 
ATOM      9  C   UNL A   1      33.872  22.349  23.656  1.00  0.00     0.018 A 
ATOM     10  C   UNL A   1      32.932  21.591  26.373  1.00  0.00     0.018 A 
BRANCH   6  11
ATOM     11  N   UNL A   1      33.196  25.827  26.355  1.00  0.00    -0.321 N 
ATOM     12  C   UNL A   1      32.545  27.014  26.028  1.00  0.00     0.272 C 
ATOM     13  O   UNL A   1      31.501  27.361  26.581  1.00  0.00    -0.267 OA
ATOM     14  H   UNL A   1      33.926  25.870  27.016  1.00  0.00     0.170 HD
BRANCH  12  15
ATOM     15  C   UNL A   1      33.286  28.031  25.139  1.00  0.00     0.108 C 
ATOM     16  C   UNL A   1      34.043  29.059  25.614  1.00  0.00     0.040 C 
BRANCH  15  17
ATOM     17  N   UNL A   1      33.289  27.933  23.754  1.00  0.00    -0.317 N 
ATOM     18  C   UNL A   1      32.392  27.735  22.738  1.00  0.00     0.259 C 
ATOM     19  O   UNL A   1      32.843  27.709  21.588  1.00  0.00    -0.269 OA
ATOM     20  H   UNL A   1      34.201  28.036  23.398  1.00  0.00     0.170 HD
BRANCH  18  21
ATOM     21  C   UNL A   1      30.959  27.481  22.916  1.00  0.00     0.082 A 
ATOM     22  C   UNL A   1      29.914  28.335  22.572  1.00  0.00     0.131 A 
ATOM     23  C   UNL A   1      28.642  28.062  23.102  1.00  0.00     0.047 A 
ATOM     24  C   UNL A   1      28.376  26.870  23.776  1.00  0.00     0.004 A 
ATOM     25  C   UNL A   1      30.665  26.227  23.487  1.00  0.00     0.018 A 
ATOM     26  C   UNL A   1      29.372  25.914  23.898  1.00  0.00     0.001 A 
BRANCH  22  27
ATOM     27  O   UNL A   1      29.919  29.460  21.796  1.00  0.00    -0.496 OA
ATOM     28  C   UNL A   1      29.482  30.712  22.312  1.00  0.00     0.278 C 
ENDBRANCH  22  27
ENDBRANCH  18  21
ENDBRANCH  15  17
BRANCH  16  29
ATOM     29  C   UNL A   1      33.943  29.631  26.966  1.00  0.00    -0.019 A 
ATOM     30  C   UNL A   1      35.248  29.339  27.626  1.00  0.00     0.012 A 
ATOM     31  C   UNL A   1      32.999  30.670  27.230  1.00  0.00     0.058 A 
ATOM     32  C   UNL A   1      36.074  30.313  28.153  1.00  0.00     0.051 A 
ATOM     33  C   UNL A   1      33.607  31.625  27.975  1.00  0.00     0.166 A 
ATOM     34  C   UNL A   1      35.384  31.500  28.147  1.00  0.00     0.165 A 
ATOM     35  O   UNL A   1      33.091  33.354  27.770  1.00  0.00    -0.454 OA
ATOM     36  O   UNL A   1      36.098  33.378  27.936  1.00  0.00    -0.454 OA
ATOM     37  C   UNL A   1      34.562  34.552  27.723  1.00  0.00     0.468 C 
ENDBRANCH  16  29
ENDBRANCH  12  15
ENDBRANCH   6  11
ENDBRANCH   3   5
ENDBRANCH   2   3
ENDBRANCH   1   2
BRANCH   1  38
ATOM     38  C   UNL A   1      38.221  20.326  25.330  1.00  0.00     0.275 C 
BRANCH  38  39
ATOM     39  O   UNL A   1      38.679  21.603  25.829  1.00  0.00    -0.458 OA
BRANCH  39  40
ATOM     40  C   UNL A   1      39.698  21.544  26.723  1.00  0.00     0.338 C 
ATOM     41  O   UNL A   1      40.300  20.542  27.076  1.00  0.00    -0.246 OA
BRANCH  40  42
ATOM     42  C   UNL A   1      40.091  22.892  27.178  1.00  0.00     0.060 A 
ATOM     43  C   UNL A   1      39.550  24.006  26.555  1.00  0.00     0.016 A 
ATOM     44  C   UNL A   1      41.160  23.064  28.048  1.00  0.00     0.016 A 
ATOM     45  C   UNL A   1      40.185  25.236  26.630  1.00  0.00     0.010 A 
ATOM     46  C   UNL A   1      41.664  24.354  28.281  1.00  0.00     0.010 A 
ATOM     47  C   UNL A   1      41.224  25.459  27.528  1.00  0.00    -0.014 A 
BRANCH  47  48
ATOM     48  C   UNL A   1      41.843  26.818  27.649  1.00  0.00     0.031 A 
ATOM     49  C   UNL A   1      43.180  27.092  27.004  1.00  0.00     0.074 A 
ATOM     50  C   UNL A   1      41.224  27.823  28.312  1.00  0.00     0.049 A 
ATOM     51  N   UNL A   1      44.033  28.054  27.241  1.00  0.00    -0.248 NA
ATOM     52  C   UNL A   1      43.626  26.138  25.977  1.00  0.00     0.031 C 
ATOM     53  C   UNL A   1      39.880  27.774  28.899  1.00  0.00     0.029 A 
ATOM     54  N   UNL A   1      41.646  29.099  28.606  1.00  0.00    -0.354 N 
ATOM     55  C   UNL A   1      45.150  27.775  26.458  1.00  0.00     0.074 A 
ATOM     56  C   UNL A   1      44.867  26.541  25.755  1.00  0.00     0.031 C 
ATOM     57  C   UNL A   1      39.567  28.969  29.412  1.00  0.00     0.029 A 
ATOM     58  C   UNL A   1      40.747  29.813  29.367  1.00  0.00     0.049 A 
ATOM     59  H   UNL A   1      42.508  29.465  28.303  1.00  0.00     0.167 HD
ATOM     60  C   UNL A   1      46.302  28.484  26.347  1.00  0.00     0.034 A 
ATOM     61  C   UNL A   1      40.870  30.970  30.045  1.00  0.00     0.034 A 
ATOM     62  C   UNL A   1      46.538  29.733  27.030  1.00  0.00     0.049 A 
ATOM     63  C   UNL A   1      42.201  31.670  30.024  1.00  0.00     0.074 A 
ATOM     64  C   UNL A   1      47.667  30.533  27.002  1.00  0.00     0.029 A 
ATOM     65  N   UNL A   1      45.624  30.370  27.862  1.00  0.00    -0.354 N 
ATOM     66  N   UNL A   1      43.294  31.341  29.375  1.00  0.00    -0.248 NA
ATOM     67  C   UNL A   1      42.321  32.882  30.840  1.00  0.00     0.031 C 
ATOM     68  C   UNL A   1      47.471  31.598  27.884  1.00  0.00     0.029 A 
ATOM     69  C   UNL A   1      46.179  31.529  28.381  1.00  0.00     0.049 A 
ATOM     70  H   UNL A   1      44.715  30.044  28.054  1.00  0.00     0.167 HD
ATOM     71  C   UNL A   1      44.220  32.334  29.676  1.00  0.00     0.074 A 
ATOM     72  C   UNL A   1      43.552  33.274  30.552  1.00  0.00     0.031 C 
ATOM     73  C   UNL A   1      45.505  32.459  29.256  1.00  0.00     0.034 A 
BRANCH  60  74
ATOM     74  C   UNL A   1      47.416  27.883  25.519  1.00  0.00     0.023 A 
ATOM     75  C   UNL A   1      47.559  28.152  24.148  1.00  0.00     0.031 A 
ATOM     76  C   UNL A   1      48.321  26.977  26.105  1.00  0.00     0.131 A 
ATOM     77  C   UNL A   1      48.514  27.453  23.392  1.00  0.00     0.055 A 
ATOM     78  C   UNL A   1      49.338  26.365  25.369  1.00  0.00     0.041 A 
ATOM     79  F   UNL A   1      48.223  26.657  27.405  1.00  0.00    -0.206 F 
ATOM     80  C   UNL A   1      49.425  26.585  23.998  1.00  0.00     0.022 A 
BRANCH  77  81
ATOM     81  S   UNL A   1      48.415  27.545  21.584  1.00  0.00     0.124 S 
ATOM     82  O   UNL A   1      47.131  28.215  21.394  1.00  0.00    -0.237 OA
ATOM     83  O   UNL A   1      49.599  28.326  21.243  1.00  0.00    -0.237 OA
ATOM     84  O   UNL A   1      48.447  26.146  21.166  1.00  0.00    -0.744 OA
ENDBRANCH  77  81
ENDBRANCH  60  74
BRANCH  61  85
ATOM     85  C   UNL A   1      39.743  31.492  30.874  1.00  0.00     0.023 A 
ATOM     86  C   UNL A   1      39.726  31.291  32.262  1.00  0.00     0.031 A 
ATOM     87  C   UNL A   1      38.645  32.158  30.295  1.00  0.00     0.131 A 
ATOM     88  C   UNL A   1      38.617  31.706  33.015  1.00  0.00     0.055 A 
ATOM     89  C   UNL A   1      37.582  32.639  31.059  1.00  0.00     0.041 A 
ATOM     90  F   UNL A   1      38.597  32.368  28.969  1.00  0.00    -0.206 F 
ATOM     91  C   UNL A   1      37.557  32.400  32.429  1.00  0.00     0.022 A 
BRANCH  88  92
ATOM     92  S   UNL A   1      38.527  31.214  34.757  1.00  0.00     0.124 S 
ATOM     93  O   UNL A   1      38.408  29.764  34.646  1.00  0.00    -0.237 OA
ATOM     94  O   UNL A   1      39.793  31.716  35.281  1.00  0.00    -0.237 OA
ATOM     95  O   UNL A   1      37.334  31.903  35.244  1.00  0.00    -0.744 OA
ENDBRANCH  88  92
ENDBRANCH  61  85
BRANCH  73  96
ATOM     96  C   UNL A   1      46.247  33.699  29.685  1.00  0.00     0.023 A 
ATOM     97  C   UNL A   1      47.015  33.740  30.861  1.00  0.00     0.031 A 
ATOM     98  C   UNL A   1      46.170  34.867  28.905  1.00  0.00     0.131 A 
ATOM     99  C   UNL A   1      47.622  34.940  31.256  1.00  0.00     0.055 A 
ATOM    100  C   UNL A   1      46.845  36.035  29.260  1.00  0.00     0.041 A 
ATOM    101  F   UNL A   1      45.440  34.890  27.777  1.00  0.00    -0.206 F 
ATOM    102  C   UNL A   1      47.564  36.080  30.449  1.00  0.00     0.022 A 
BRANCH  99 103
ATOM    103  S   UNL A   1      48.387  35.027  32.897  1.00  0.00     0.124 S 
ATOM    104  O   UNL A   1      49.117  36.289  32.824  1.00  0.00    -0.237 OA
ATOM    105  O   UNL A   1      47.227  35.011  33.783  1.00  0.00    -0.237 OA
ATOM    106  O   UNL A   1      49.221  33.829  32.950  1.00  0.00    -0.744 OA
ENDBRANCH  99 103
ENDBRANCH  73  96
ENDBRANCH  47  48
ENDBRANCH  40  42
ENDBRANCH  39  40
ENDBRANCH  38  39
ENDBRANCH   1  38
TORSDOF 20
ENDMDL
MODEL 2
REMARK VINA RESULT:     -11.8      1.720      2.159
REMARK SMILES COc1ccccc1C(=O)N/C(=C/c1ccc2c(c1)OCO2)C(=O)Nc1ccc(C(=O)OCCOC(=O)c2ccc(-c3c4nc(c(-c5cc(S(=O)(=O)[O-])ccc5F)c5ccc([nH]5)c(-c5cc(S(=O)(=O)[O-])ccc5F)c5nc(c(-c6cc(S(=O)(=O)[O-])ccc6F)c6ccc3[nH]6)C=C5)C=C4)cc2)cc1
REMARK SMILES IDX 33 1 32 2 30 3 31 4 29 5 26 6 27 7 102 8 28 9 101 10 25 11
REMARK SMILES IDX 23 12 24 13 12 15 13 16 11 17 9 18 10 19 8 21 3 22 4 23 5 24
REMARK SMILES IDX 7 25 6 26 2 27 1 28 14 29 15 30 19 31 16 32 18 33 17 34
REMARK SMILES IDX 20 35 22 36 21 37 34 38 35 39 36 40 37 41 38 42 39 43 100 44
REMARK SMILES IDX 40 45 99 46 41 47 42 48 43 49 93 50 44 51 98 52 92 53 94 54
REMARK SMILES IDX 45 55 97 56 91 57 90 58 46 60 78 61 58 62 77 63 59 64 62 65
REMARK SMILES IDX 76 66 95 67 60 68 61 69 75 71 96 72 63 73 47 74 48 75 56 76
REMARK SMILES IDX 49 77 55 78 57 79 54 80 50 81 51 82 52 83 53 84 79 85 80 86
REMARK SMILES IDX 88 87 81 88 87 89 89 90 86 91 82 92 83 93 84 94 85 95 64 96
REMARK SMILES IDX 65 97 73 98 66 99 72 100 74 101 71 102 67 103 68 104 69 105
REMARK SMILES IDX 70 106
REMARK H PARENT 25 14 11 20 94 59 62 70
REMARK Flexibility Score: inf
ROOT
ATOM      1  C   UNL A   1      36.859  20.378  24.495  1.00  0.00     0.275 C 
ENDROOT
BRANCH   1   2
ATOM      2  O   UNL A   1      35.782  20.465  25.436  1.00  0.00    -0.458 OA
BRANCH   2   3
ATOM      3  C   UNL A   1      34.612  19.971  24.979  1.00  0.00     0.338 C 
ATOM      4  O   UNL A   1      34.414  18.837  24.574  1.00  0.00    -0.246 OA
BRANCH   3   5
ATOM      5  C   UNL A   1      33.571  21.025  24.977  1.00  0.00     0.060 A 
ATOM      6  C   UNL A   1      32.899  24.500  25.889  1.00  0.00     0.041 A 
ATOM      7  C   UNL A   1      33.378  24.182  24.311  1.00  0.00     0.027 A 
ATOM      8  C   UNL A   1      32.618  23.186  26.914  1.00  0.00     0.027 A 
ATOM      9  C   UNL A   1      33.770  22.246  23.727  1.00  0.00     0.018 A 
ATOM     10  C   UNL A   1      32.934  21.531  26.490  1.00  0.00     0.018 A 
BRANCH   6  11
ATOM     11  N   UNL A   1      33.256  25.763  26.413  1.00  0.00    -0.321 N 
ATOM     12  C   UNL A   1      32.577  26.947  26.139  1.00  0.00     0.272 C 
ATOM     13  O   UNL A   1      31.580  27.293  26.774  1.00  0.00    -0.267 OA
ATOM     14  H   UNL A   1      34.036  25.808  27.013  1.00  0.00     0.170 HD
BRANCH  12  15
ATOM     15  C   UNL A   1      33.242  27.966  25.192  1.00  0.00     0.108 C 
ATOM     16  C   UNL A   1      34.038  28.991  25.603  1.00  0.00     0.040 C 
BRANCH  15  17
ATOM     17  N   UNL A   1      33.127  27.871  23.811  1.00  0.00    -0.317 N 
ATOM     18  C   UNL A   1      32.146  27.931  22.857  1.00  0.00     0.259 C 
ATOM     19  O   UNL A   1      32.496  27.780  21.682  1.00  0.00    -0.269 OA
ATOM     20  H   UNL A   1      34.007  27.716  23.398  1.00  0.00     0.170 HD
BRANCH  18  21
ATOM     21  C   UNL A   1      30.714  28.087  23.130  1.00  0.00     0.082 A 
ATOM     22  C   UNL A   1      29.843  27.104  23.591  1.00  0.00     0.131 A 
ATOM     23  C   UNL A   1      28.463  27.350  23.491  1.00  0.00     0.047 A 
ATOM     24  C   UNL A   1      27.972  28.608  23.141  1.00  0.00     0.004 A 
ATOM     25  C   UNL A   1      30.223  29.388  22.897  1.00  0.00     0.018 A 
ATOM     26  C   UNL A   1      28.857  29.652  22.921  1.00  0.00     0.001 A 
BRANCH  22  27
ATOM     27  O   UNL A   1      30.110  25.873  24.121  1.00  0.00    -0.496 OA
ATOM     28  C   UNL A   1      30.197  24.719  23.294  1.00  0.00     0.278 C 
ENDBRANCH  22  27
ENDBRANCH  18  21
ENDBRANCH  15  17
BRANCH  16  29
ATOM     29  C   UNL A   1      34.055  29.560  26.961  1.00  0.00    -0.019 A 
ATOM     30  C   UNL A   1      35.431  29.323  27.482  1.00  0.00     0.012 A 
ATOM     31  C   UNL A   1      33.100  30.559  27.324  1.00  0.00     0.058 A 
ATOM     32  C   UNL A   1      36.266  30.331  27.925  1.00  0.00     0.051 A 
ATOM     33  C   UNL A   1      33.741  31.539  28.005  1.00  0.00     0.166 A 
ATOM     34  C   UNL A   1      35.530  31.488  27.993  1.00  0.00     0.165 A 
ATOM     35  O   UNL A   1      33.137  33.245  27.861  1.00  0.00    -0.454 OA
ATOM     36  O   UNL A   1      36.141  33.394  27.716  1.00  0.00    -0.454 OA
ATOM     37  C   UNL A   1      34.544  34.503  27.667  1.00  0.00     0.468 C 
ENDBRANCH  16  29
ENDBRANCH  12  15
ENDBRANCH   6  11
ENDBRANCH   3   5
ENDBRANCH   2   3
ENDBRANCH   1   2
BRANCH   1  38
ATOM     38  C   UNL A   1      38.117  19.959  25.254  1.00  0.00     0.275 C 
BRANCH  38  39
ATOM     39  O   UNL A   1      38.956  21.110  25.498  1.00  0.00    -0.458 OA
BRANCH  39  40
ATOM     40  C   UNL A   1      39.868  20.962  26.492  1.00  0.00     0.338 C 
ATOM     41  O   UNL A   1      40.433  19.929  26.815  1.00  0.00    -0.246 OA
BRANCH  40  42
ATOM     42  C   UNL A   1      40.199  22.260  27.114  1.00  0.00     0.060 A 
ATOM     43  C   UNL A   1      39.586  23.414  26.649  1.00  0.00     0.016 A 
ATOM     44  C   UNL A   1      41.274  22.376  27.985  1.00  0.00     0.016 A 
ATOM     45  C   UNL A   1      40.157  24.656  26.875  1.00  0.00     0.010 A 
ATOM     46  C   UNL A   1      41.714  23.650  28.378  1.00  0.00     0.010 A 
ATOM     47  C   UNL A   1      41.200  24.818  27.781  1.00  0.00    -0.014 A 
BRANCH  47  48
ATOM     48  C   UNL A   1      41.749  26.181  28.070  1.00  0.00     0.031 A 
ATOM     49  C   UNL A   1      43.116  26.564  27.555  1.00  0.00     0.074 A 
ATOM     50  C   UNL A   1      41.042  27.097  28.773  1.00  0.00     0.049 A 
ATOM     51  N   UNL A   1      43.907  27.531  27.941  1.00  0.00    -0.248 NA
ATOM     52  C   UNL A   1      43.676  25.727  26.482  1.00  0.00     0.031 C 
ATOM     53  C   UNL A   1      39.662  26.944  29.251  1.00  0.00     0.029 A 
ATOM     54  N   UNL A   1      41.385  28.355  29.211  1.00  0.00    -0.354 N 
ATOM     55  C   UNL A   1      45.088  27.367  27.222  1.00  0.00     0.074 A 
ATOM     56  C   UNL A   1      44.910  26.195  26.391  1.00  0.00     0.031 C 
ATOM     57  C   UNL A   1      39.262  28.074  29.844  1.00  0.00     0.029 A 
ATOM     58  C   UNL A   1      40.404  28.962  29.964  1.00  0.00     0.049 A 
ATOM     59  H   UNL A   1      42.250  28.779  29.008  1.00  0.00     0.167 HD
ATOM     60  C   UNL A   1      46.213  28.126  27.261  1.00  0.00     0.034 A 
ATOM     61  C   UNL A   1      40.428  30.054  30.751  1.00  0.00     0.034 A 
ATOM     62  C   UNL A   1      46.345  29.313  28.071  1.00  0.00     0.049 A 
ATOM     63  C   UNL A   1      41.725  30.801  30.894  1.00  0.00     0.074 A 
ATOM     64  C   UNL A   1      47.437  30.154  28.200  1.00  0.00     0.029 A 
ATOM     65  N   UNL A   1      45.347  29.836  28.885  1.00  0.00    -0.354 N 
ATOM     66  N   UNL A   1      42.874  30.575  30.302  1.00  0.00    -0.248 NA
ATOM     67  C   UNL A   1      41.733  31.936  31.822  1.00  0.00     0.031 C 
ATOM     68  C   UNL A   1      47.132  31.124  29.157  1.00  0.00     0.029 A 
ATOM     69  C   UNL A   1      45.813  30.961  29.547  1.00  0.00     0.049 A 
ATOM     70  H   UNL A   1      44.441  29.461  28.978  1.00  0.00     0.167 HD
ATOM     71  C   UNL A   1      43.733  31.569  30.759  1.00  0.00     0.074 A 
ATOM     72  C   UNL A   1      42.963  32.398  31.664  1.00  0.00     0.031 C 
ATOM     73  C   UNL A   1      45.037  31.780  30.450  1.00  0.00     0.034 A 
BRANCH  60  74
ATOM     74  C   UNL A   1      47.408  27.646  26.469  1.00  0.00     0.023 A 
ATOM     75  C   UNL A   1      47.594  27.980  25.117  1.00  0.00     0.031 A 
ATOM     76  C   UNL A   1      48.354  26.791  27.066  1.00  0.00     0.131 A 
ATOM     77  C   UNL A   1      48.634  27.387  24.385  1.00  0.00     0.055 A 
ATOM     78  C   UNL A   1      49.449  26.289  26.360  1.00  0.00     0.041 A 
ATOM     79  F   UNL A   1      48.222  26.412  28.347  1.00  0.00    -0.206 F 
ATOM     80  C   UNL A   1      49.582  26.569  25.004  1.00  0.00     0.022 A 
BRANCH  77  81
ATOM     81  S   UNL A   1      48.613  27.544  22.578  1.00  0.00     0.124 S 
ATOM     82  O   UNL A   1      47.345  28.235  22.359  1.00  0.00    -0.237 OA
ATOM     83  O   UNL A   1      49.818  28.321  22.315  1.00  0.00    -0.237 OA
ATOM     84  O   UNL A   1      48.648  26.159  22.113  1.00  0.00    -0.744 OA
ENDBRANCH  77  81
ENDBRANCH  60  74
BRANCH  61  85
ATOM     85  C   UNL A   1      39.223  30.454  31.537  1.00  0.00     0.023 A 
ATOM     86  C   UNL A   1      38.442  31.549  31.139  1.00  0.00     0.031 A 
ATOM     87  C   UNL A   1      38.855  29.784  32.721  1.00  0.00     0.131 A 
ATOM     88  C   UNL A   1      37.367  31.970  31.937  1.00  0.00     0.055 A 
ATOM     89  C   UNL A   1      37.739  30.157  33.468  1.00  0.00     0.041 A 
ATOM     90  F   UNL A   1      39.572  28.737  33.162  1.00  0.00    -0.206 F 
ATOM     91  C   UNL A   1      36.995  31.268  33.085  1.00  0.00     0.022 A 
BRANCH  88  92
ATOM     92  S   UNL A   1      36.539  33.525  31.514  1.00  0.00     0.124 S 
ATOM     93  O   UNL A   1      37.447  34.078  30.515  1.00  0.00    -0.237 OA
ATOM     94  O   UNL A   1      35.249  33.058  31.021  1.00  0.00    -0.237 OA
ATOM     95  O   UNL A   1      36.497  34.244  32.785  1.00  0.00    -0.744 OA
ENDBRANCH  88  92
ENDBRANCH  61  85
BRANCH  73  96
ATOM     96  C   UNL A   1      45.692  33.002  31.043  1.00  0.00     0.023 A 
ATOM     97  C   UNL A   1      45.669  34.249  30.396  1.00  0.00     0.031 A 
ATOM     98  C   UNL A   1      46.364  32.908  32.275  1.00  0.00     0.131 A 
ATOM     99  C   UNL A   1      46.359  35.335  30.953  1.00  0.00     0.055 A 
ATOM    100  C   UNL A   1      46.979  34.013  32.864  1.00  0.00     0.041 A 
ATOM    101  F   UNL A   1      46.430  31.738  32.932  1.00  0.00    -0.206 F 
ATOM    102  C   UNL A   1      46.991  35.232  32.195  1.00  0.00     0.022 A 
BRANCH  99 103
ATOM    103  S   UNL A   1      46.525  36.852  29.973  1.00  0.00     0.124 S 
ATOM    104  O   UNL A   1      45.164  37.045  29.483  1.00  0.00    -0.237 OA
ATOM    105  O   UNL A   1      46.989  37.816  30.965  1.00  0.00    -0.237 OA
ATOM    106  O   UNL A   1      47.507  36.493  28.951  1.00  0.00    -0.744 OA
ENDBRANCH  99 103
ENDBRANCH  73  96
ENDBRANCH  47  48
ENDBRANCH  40  42
ENDBRANCH  39  40
ENDBRANCH  38  39
ENDBRANCH   1  38
TORSDOF 20
ENDMDL
MODEL 3
REMARK VINA RESULT:     -11.6      1.603      7.480
REMARK SMILES COc1ccccc1C(=O)N/C(=C/c1ccc2c(c1)OCO2)C(=O)Nc1ccc(C(=O)OCCOC(=O)c2ccc(-c3c4nc(c(-c5cc(S(=O)(=O)[O-])ccc5F)c5ccc([nH]5)c(-c5cc(S(=O)(=O)[O-])ccc5F)c5nc(c(-c6cc(S(=O)(=O)[O-])ccc6F)c6ccc3[nH]6)C=C5)C=C4)cc2)cc1
REMARK SMILES IDX 33 1 32 2 30 3 31 4 29 5 26 6 27 7 102 8 28 9 101 10 25 11
REMARK SMILES IDX 23 12 24 13 12 15 13 16 11 17 9 18 10 19 8 21 3 22 4 23 5 24
REMARK SMILES IDX 7 25 6 26 2 27 1 28 14 29 15 30 19 31 16 32 18 33 17 34
REMARK SMILES IDX 20 35 22 36 21 37 34 38 35 39 36 40 37 41 38 42 39 43 100 44
REMARK SMILES IDX 40 45 99 46 41 47 42 48 43 49 93 50 44 51 98 52 92 53 94 54
REMARK SMILES IDX 45 55 97 56 91 57 90 58 46 60 78 61 58 62 77 63 59 64 62 65
REMARK SMILES IDX 76 66 95 67 60 68 61 69 75 71 96 72 63 73 47 74 48 75 56 76
REMARK SMILES IDX 49 77 55 78 57 79 54 80 50 81 51 82 52 83 53 84 79 85 80 86
REMARK SMILES IDX 88 87 81 88 87 89 89 90 86 91 82 92 83 93 84 94 85 95 64 96
REMARK SMILES IDX 65 97 73 98 66 99 72 100 74 101 71 102 67 103 68 104 69 105
REMARK SMILES IDX 70 106
REMARK H PARENT 25 14 11 20 94 59 62 70
REMARK Flexibility Score: inf
ROOT
ATOM      1  C   UNL A   1      37.268  19.765  25.170  1.00  0.00     0.275 C 
ENDROOT
BRANCH   1   2
ATOM      2  O   UNL A   1      36.172  20.437  24.538  1.00  0.00    -0.458 OA
BRANCH   2   3
ATOM      3  C   UNL A   1      34.980  19.828  24.712  1.00  0.00     0.338 C 
ATOM      4  O   UNL A   1      34.778  18.624  24.725  1.00  0.00    -0.246 OA
BRANCH   3   5
ATOM      5  C   UNL A   1      33.899  20.832  24.836  1.00  0.00     0.060 A 
ATOM      6  C   UNL A   1      33.164  24.251  25.897  1.00  0.00     0.041 A 
ATOM      7  C   UNL A   1      33.504  23.991  24.273  1.00  0.00     0.027 A 
ATOM      8  C   UNL A   1      33.039  22.904  26.910  1.00  0.00     0.027 A 
ATOM      9  C   UNL A   1      33.924  22.088  23.605  1.00  0.00     0.018 A 
ATOM     10  C   UNL A   1      33.386  21.275  26.414  1.00  0.00     0.018 A 
BRANCH   6  11
ATOM     11  N   UNL A   1      33.513  25.517  26.419  1.00  0.00    -0.321 N 
ATOM     12  C   UNL A   1      32.762  26.676  26.238  1.00  0.00     0.272 C 
ATOM     13  O   UNL A   1      31.814  26.962  26.969  1.00  0.00    -0.267 OA
ATOM     14  H   UNL A   1      34.342  25.584  26.946  1.00  0.00     0.170 HD
BRANCH  12  15
ATOM     15  C   UNL A   1      33.293  27.743  25.261  1.00  0.00     0.108 C 
ATOM     16  C   UNL A   1      33.966  28.865  25.640  1.00  0.00     0.040 C 
BRANCH  15  17
ATOM     17  N   UNL A   1      33.177  27.603  23.884  1.00  0.00    -0.317 N 
ATOM     18  C   UNL A   1      32.202  27.669  22.924  1.00  0.00     0.259 C 
ATOM     19  O   UNL A   1      32.549  27.461  21.757  1.00  0.00    -0.269 OA
ATOM     20  H   UNL A   1      34.051  27.395  23.480  1.00  0.00     0.170 HD
BRANCH  18  21
ATOM     21  C   UNL A   1      30.777  27.896  23.185  1.00  0.00     0.082 A 
ATOM     22  C   UNL A   1      29.864  26.967  23.677  1.00  0.00     0.131 A 
ATOM     23  C   UNL A   1      28.497  27.268  23.563  1.00  0.00     0.047 A 
ATOM     24  C   UNL A   1      28.061  28.532  23.166  1.00  0.00     0.004 A 
ATOM     25  C   UNL A   1      30.344  29.207  22.904  1.00  0.00     0.018 A 
ATOM     26  C   UNL A   1      28.990  29.530  22.913  1.00  0.00     0.001 A 
BRANCH  22  27
ATOM     27  O   UNL A   1      30.077  25.746  24.252  1.00  0.00    -0.496 OA
ATOM     28  C   UNL A   1      30.323  24.592  23.457  1.00  0.00     0.278 C 
ENDBRANCH  22  27
ENDBRANCH  18  21
ENDBRANCH  15  17
BRANCH  16  29
ATOM     29  C   UNL A   1      33.927  29.464  26.984  1.00  0.00    -0.019 A 
ATOM     30  C   UNL A   1      35.268  29.204  27.581  1.00  0.00     0.012 A 
ATOM     31  C   UNL A   1      32.981  30.494  27.275  1.00  0.00     0.058 A 
ATOM     32  C   UNL A   1      36.105  30.201  28.045  1.00  0.00     0.051 A 
ATOM     33  C   UNL A   1      33.612  31.473  27.968  1.00  0.00     0.166 A 
ATOM     34  C   UNL A   1      35.397  31.377  28.051  1.00  0.00     0.165 A 
ATOM     35  O   UNL A   1      33.060  33.190  27.756  1.00  0.00    -0.454 OA
ATOM     36  O   UNL A   1      36.071  33.260  27.765  1.00  0.00    -0.454 OA
ATOM     37  C   UNL A   1      34.508  34.408  27.609  1.00  0.00     0.468 C 
ENDBRANCH  16  29
ENDBRANCH  12  15
ENDBRANCH   6  11
ENDBRANCH   3   5
ENDBRANCH   2   3
ENDBRANCH   1   2
BRANCH   1  38
ATOM     38  C   UNL A   1      38.519  20.622  24.982  1.00  0.00     0.275 C 
BRANCH  38  39
ATOM     39  O   UNL A   1      38.722  21.465  26.139  1.00  0.00    -0.458 OA
BRANCH  39  40
ATOM     40  C   UNL A   1      38.162  22.698  26.062  1.00  0.00     0.338 C 
ATOM     41  O   UNL A   1      37.105  22.986  25.525  1.00  0.00    -0.246 OA
BRANCH  40  42
ATOM     42  C   UNL A   1      38.951  23.693  26.816  1.00  0.00     0.060 A 
ATOM     43  C   UNL A   1      38.624  25.037  26.721  1.00  0.00     0.016 A 
ATOM     44  C   UNL A   1      40.147  23.335  27.426  1.00  0.00     0.016 A 
ATOM     45  C   UNL A   1      39.556  26.013  27.033  1.00  0.00     0.010 A 
ATOM     46  C   UNL A   1      40.993  24.335  27.933  1.00  0.00     0.010 A 
ATOM     47  C   UNL A   1      40.741  25.699  27.691  1.00  0.00    -0.014 A 
BRANCH  47  48
ATOM     48  C   UNL A   1      41.697  26.781  28.090  1.00  0.00     0.031 A 
ATOM     49  C   UNL A   1      41.230  27.900  28.989  1.00  0.00     0.074 A 
ATOM     50  C   UNL A   1      42.987  26.775  27.677  1.00  0.00     0.049 A 
ATOM     51  N   UNL A   1      41.764  29.076  29.195  1.00  0.00    -0.248 NA
ATOM     52  C   UNL A   1      39.981  27.673  29.732  1.00  0.00     0.031 C 
ATOM     53  C   UNL A   1      43.642  25.716  26.900  1.00  0.00     0.029 A 
ATOM     54  N   UNL A   1      43.992  27.697  27.858  1.00  0.00    -0.354 N 
ATOM     55  C   UNL A   1      40.875  29.759  30.020  1.00  0.00     0.074 A 
ATOM     56  C   UNL A   1      39.760  28.867  30.259  1.00  0.00     0.031 C 
ATOM     57  C   UNL A   1      44.936  26.012  26.735  1.00  0.00     0.029 A 
ATOM     58  C   UNL A   1      45.166  27.360  27.221  1.00  0.00     0.049 A 
ATOM     59  H   UNL A   1      43.882  28.518  28.390  1.00  0.00     0.167 HD
ATOM     60  C   UNL A   1      40.984  31.015  30.523  1.00  0.00     0.034 A 
ATOM     61  C   UNL A   1      46.276  28.076  26.957  1.00  0.00     0.034 A 
ATOM     62  C   UNL A   1      42.129  31.865  30.300  1.00  0.00     0.049 A 
ATOM     63  C   UNL A   1      46.321  29.512  27.400  1.00  0.00     0.074 A 
ATOM     64  C   UNL A   1      42.345  33.157  30.748  1.00  0.00     0.029 A 
ATOM     65  N   UNL A   1      43.256  31.507  29.570  1.00  0.00    -0.354 N 
ATOM     66  N   UNL A   1      45.427  30.191  28.080  1.00  0.00    -0.248 NA
ATOM     67  C   UNL A   1      47.511  30.281  27.023  1.00  0.00     0.031 C 
ATOM     68  C   UNL A   1      43.555  33.609  30.215  1.00  0.00     0.029 A 
ATOM     69  C   UNL A   1      44.150  32.565  29.525  1.00  0.00     0.049 A 
ATOM     70  H   UNL A   1      43.399  30.629  29.148  1.00  0.00     0.167 HD
ATOM     71  C   UNL A   1      45.970  31.461  28.247  1.00  0.00     0.074 A 
ATOM     72  C   UNL A   1      47.270  31.444  27.607  1.00  0.00     0.031 C 
ATOM     73  C   UNL A   1      45.443  32.539  28.881  1.00  0.00     0.034 A 
BRANCH  60  74
ATOM     74  C   UNL A   1      39.804  31.565  31.291  1.00  0.00     0.023 A 
ATOM     75  C   UNL A   1      39.754  31.558  32.695  1.00  0.00     0.031 A 
ATOM     76  C   UNL A   1      38.680  32.060  30.601  1.00  0.00     0.131 A 
ATOM     77  C   UNL A   1      38.576  31.938  33.356  1.00  0.00     0.055 A 
ATOM     78  C   UNL A   1      37.551  32.538  31.268  1.00  0.00     0.041 A 
ATOM     79  F   UNL A   1      38.653  32.071  29.258  1.00  0.00    -0.206 F 
ATOM     80  C   UNL A   1      37.485  32.458  32.656  1.00  0.00     0.022 A 
BRANCH  77  81
ATOM     81  S   UNL A   1      38.420  31.559  35.123  1.00  0.00     0.124 S 
ATOM     82  O   UNL A   1      38.403  30.098  35.108  1.00  0.00    -0.237 OA
ATOM     83  O   UNL A   1      39.614  32.177  35.685  1.00  0.00    -0.237 OA
ATOM     84  O   UNL A   1      37.155  32.185  35.499  1.00  0.00    -0.744 OA
ENDBRANCH  77  81
ENDBRANCH  60  74
BRANCH  61  85
ATOM     85  C   UNL A   1      47.393  27.484  26.161  1.00  0.00     0.023 A 
ATOM     86  C   UNL A   1      47.567  27.827  24.812  1.00  0.00     0.031 A 
ATOM     87  C   UNL A   1      48.276  26.536  26.716  1.00  0.00     0.131 A 
ATOM     88  C   UNL A   1      48.563  27.194  24.053  1.00  0.00     0.055 A 
ATOM     89  C   UNL A   1      49.315  25.970  25.978  1.00  0.00     0.041 A 
ATOM     90  F   UNL A   1      48.152  26.158  27.999  1.00  0.00    -0.206 F 
ATOM     91  C   UNL A   1      49.454  26.288  24.631  1.00  0.00     0.022 A 
BRANCH  88  92
ATOM     92  S   UNL A   1      48.597  27.486  22.264  1.00  0.00     0.124 S 
ATOM     93  O   UNL A   1      47.305  28.129  22.048  1.00  0.00    -0.237 OA
ATOM     94  O   UNL A   1      49.771  28.339  22.117  1.00  0.00    -0.237 OA
ATOM     95  O   UNL A   1      48.728  26.144  21.703  1.00  0.00    -0.744 OA
ENDBRANCH  88  92
ENDBRANCH  61  85
BRANCH  73  96
ATOM     96  C   UNL A   1      46.310  33.769  28.974  1.00  0.00     0.023 A 
ATOM     97  C   UNL A   1      46.263  34.790  28.010  1.00  0.00     0.031 A 
ATOM     98  C   UNL A   1      47.211  33.912  30.045  1.00  0.00     0.131 A 
ATOM     99  C   UNL A   1      47.144  35.876  28.101  1.00  0.00     0.055 A 
ATOM    100  C   UNL A   1      48.028  35.035  30.174  1.00  0.00     0.041 A 
ATOM    101  F   UNL A   1      47.309  32.961  30.989  1.00  0.00    -0.206 F 
ATOM    102  C   UNL A   1      48.007  36.018  29.191  1.00  0.00     0.022 A 
BRANCH  99 103
ATOM    103  S   UNL A   1      47.235  37.039  26.713  1.00  0.00     0.124 S 
ATOM    104  O   UNL A   1      47.815  36.209  25.661  1.00  0.00    -0.237 OA
ATOM    105  O   UNL A   1      45.838  37.417  26.529  1.00  0.00    -0.237 OA
ATOM    106  O   UNL A   1      48.103  38.103  27.213  1.00  0.00    -0.744 OA
ENDBRANCH  99 103
ENDBRANCH  73  96
ENDBRANCH  47  48
ENDBRANCH  40  42
ENDBRANCH  39  40
ENDBRANCH  38  39
ENDBRANCH   1  38
TORSDOF 20
ENDMDL
