MODEL 1
REMARK VINA RESULT:     -13.9      0.000      0.000
REMARK SMILES Cc1ccccc1S(=O)(=O)Nc1ccc(N2CCOCC2)cc1C(=O)OCCOC(=O)c1ccc(-c2c3nc(c(-c4cc(S(=O)(=O)[O-])ccc4F)c4ccc([nH]4)c(-c4cc(S(=O)(=O)[O-])ccc4F)c4nc(c(-c5cc(S(=O)(=O)[O-])ccc5F)c5ccc2[nH]5)C=C4)C=C3)cc1
REMARK SMILES IDX 27 1 26 2 24 3 25 4 23 5 12 6 13 7 14 8 22 9 15 10 11 11
REMARK SMILES IDX 8 13 9 14 10 15 7 16 1 17 2 18 3 19 4 20 6 21 5 22 16 23
REMARK SMILES IDX 17 24 21 25 18 26 20 27 19 28 28 29 29 30 30 31 31 32 32 33
REMARK SMILES IDX 33 34 94 35 34 36 93 37 35 38 36 39 37 40 87 41 38 42 92 43
REMARK SMILES IDX 86 44 88 45 39 46 91 47 85 48 84 49 40 51 72 52 52 53 71 54
REMARK SMILES IDX 53 55 56 56 70 57 89 58 54 59 55 60 69 62 90 63 57 64 41 65
REMARK SMILES IDX 42 66 50 67 43 68 49 69 51 70 48 71 44 72 45 73 46 74 47 75
REMARK SMILES IDX 73 76 74 77 82 78 75 79 81 80 83 81 80 82 76 83 77 84 78 85
REMARK SMILES IDX 79 86 58 87 59 88 67 89 60 90 66 91 68 92 65 93 61 94 62 95
REMARK SMILES IDX 63 96 64 97
REMARK H PARENT 11 12 88 50 56 61
REMARK Flexibility Score: inf
ROOT
ATOM      1  C   UNL A   1      31.966  30.883  26.727  1.00  0.00     0.275 C 
ENDROOT
BRANCH   1   2
ATOM      2  O   UNL A   1      32.622  29.695  26.223  1.00  0.00    -0.458 OA
BRANCH   2   3
ATOM      3  C   UNL A   1      31.709  28.728  25.925  1.00  0.00     0.340 C 
ATOM      4  O   UNL A   1      31.358  27.879  26.746  1.00  0.00    -0.246 OA
BRANCH   3   5
ATOM      5  C   UNL A   1      31.257  28.547  24.511  1.00  0.00     0.086 A 
ATOM      6  C   UNL A   1      31.779  27.790  23.450  1.00  0.00     0.064 A 
ATOM      7  C   UNL A   1      31.198  27.912  22.174  1.00  0.00     0.030 A 
ATOM      8  C   UNL A   1      30.071  28.713  21.958  1.00  0.00     0.028 A 
ATOM      9  C   UNL A   1      30.131  29.357  24.242  1.00  0.00     0.043 A 
ATOM     10  C   UNL A   1      29.522  29.459  22.994  1.00  0.00     0.038 A 
BRANCH   6  11
ATOM     11  N   UNL A   1      32.905  26.926  23.554  1.00  0.00    -0.279 N 
ATOM     12  H   UNL A   1      33.698  27.216  24.060  1.00  0.00     0.180 HD
BRANCH  11  13
ATOM     13  S   UNL A   1      32.895  25.399  22.808  1.00  0.00     0.262 S 
ATOM     14  O   UNL A   1      33.608  25.578  21.562  1.00  0.00    -0.201 OA
ATOM     15  O   UNL A   1      31.548  24.872  22.766  1.00  0.00    -0.201 OA
BRANCH  13  16
ATOM     16  C   UNL A   1      33.883  24.426  23.929  1.00  0.00     0.090 A 
ATOM     17  C   UNL A   1      32.308  24.710  25.966  1.00  0.00     0.046 C 
ATOM     18  C   UNL A   1      33.608  24.350  25.309  1.00  0.00    -0.031 A 
ATOM     19  C   UNL A   1      34.622  23.877  26.161  1.00  0.00     0.005 A 
ATOM     20  C   UNL A   1      35.823  23.392  25.651  1.00  0.00     0.000 A 
ATOM     21  C   UNL A   1      35.050  23.849  23.416  1.00  0.00     0.022 A 
ATOM     22  C   UNL A   1      36.017  23.334  24.276  1.00  0.00     0.001 A 
ENDBRANCH  13  16
ENDBRANCH  11  13
ENDBRANCH   6  11
BRANCH  10  23
ATOM     23  N   UNL A   1      28.430  30.279  22.790  1.00  0.00    -0.367 N 
ATOM     24  C   UNL A   1      27.891  30.460  21.427  1.00  0.00     0.145 C 
ATOM     25  C   UNL A   1      28.245  31.430  23.681  1.00  0.00     0.145 C 
ATOM     26  C   UNL A   1      28.323  31.811  20.830  1.00  0.00     0.181 C 
ATOM     27  C   UNL A   1      28.677  32.729  22.975  1.00  0.00     0.181 C 
ATOM     28  O   UNL A   1      28.009  32.903  21.714  1.00  0.00    -0.378 OA
ENDBRANCH  10  23
ENDBRANCH   3   5
ENDBRANCH   2   3
ENDBRANCH   1   2
BRANCH   1  29
ATOM     29  C   UNL A   1      32.835  32.089  27.148  1.00  0.00     0.275 C 
BRANCH  29  30
ATOM     30  O   UNL A   1      32.293  33.363  27.555  1.00  0.00    -0.458 OA
BRANCH  30  31
ATOM     31  C   UNL A   1      32.989  34.190  28.361  1.00  0.00     0.338 C 
ATOM     32  O   UNL A   1      32.566  35.263  28.759  1.00  0.00    -0.246 OA
BRANCH  31  33
ATOM     33  C   UNL A   1      34.259  33.608  28.788  1.00  0.00     0.060 A 
ATOM     34  C   UNL A   1      34.231  32.703  29.859  1.00  0.00     0.016 A 
ATOM     35  C   UNL A   1      35.388  33.783  27.990  1.00  0.00     0.016 A 
ATOM     36  C   UNL A   1      35.320  31.900  30.114  1.00  0.00     0.010 A 
ATOM     37  C   UNL A   1      36.425  32.913  28.148  1.00  0.00     0.010 A 
ATOM     38  C   UNL A   1      36.406  32.054  29.262  1.00  0.00    -0.014 A 
BRANCH  38  39
ATOM     39  C   UNL A   1      37.747  31.802  29.735  1.00  0.00     0.031 A 
ATOM     40  C   UNL A   1      38.377  30.532  29.360  1.00  0.00     0.074 A 
ATOM     41  C   UNL A   1      38.216  32.975  30.233  1.00  0.00     0.049 A 
ATOM     42  N   UNL A   1      39.272  29.912  30.043  1.00  0.00    -0.248 NA
ATOM     43  C   UNL A   1      37.936  29.735  28.203  1.00  0.00     0.031 C 
ATOM     44  C   UNL A   1      39.531  33.559  30.370  1.00  0.00     0.029 A 
ATOM     45  N   UNL A   1      37.396  33.944  30.828  1.00  0.00    -0.354 N 
ATOM     46  C   UNL A   1      39.859  29.046  29.138  1.00  0.00     0.074 A 
ATOM     47  C   UNL A   1      38.841  28.750  28.171  1.00  0.00     0.031 C 
ATOM     48  C   UNL A   1      39.460  34.583  31.251  1.00  0.00     0.029 A 
ATOM     49  C   UNL A   1      38.106  34.622  31.799  1.00  0.00     0.049 A 
ATOM     50  H   UNL A   1      36.457  34.115  30.589  1.00  0.00     0.167 HD
ATOM     51  C   UNL A   1      41.220  29.023  29.043  1.00  0.00     0.034 A 
ATOM     52  C   UNL A   1      37.747  34.336  33.088  1.00  0.00     0.034 A 
ATOM     53  C   UNL A   1      41.774  30.044  29.930  1.00  0.00     0.049 A 
ATOM     54  C   UNL A   1      38.776  33.404  33.689  1.00  0.00     0.074 A 
ATOM     55  C   UNL A   1      42.247  31.326  29.704  1.00  0.00     0.029 A 
ATOM     56  N   UNL A   1      41.511  29.957  31.285  1.00  0.00    -0.354 N 
ATOM     57  N   UNL A   1      39.484  32.534  33.015  1.00  0.00    -0.248 NA
ATOM     58  C   UNL A   1      39.191  33.523  35.077  1.00  0.00     0.031 C 
ATOM     59  C   UNL A   1      42.244  32.013  30.951  1.00  0.00     0.029 A 
ATOM     60  C   UNL A   1      41.712  31.166  31.911  1.00  0.00     0.049 A 
ATOM     61  H   UNL A   1      41.219  29.135  31.743  1.00  0.00     0.167 HD
ATOM     62  C   UNL A   1      40.514  32.081  33.800  1.00  0.00     0.074 A 
ATOM     63  C   UNL A   1      40.272  32.725  35.085  1.00  0.00     0.031 C 
ATOM     64  C   UNL A   1      41.509  31.251  33.345  1.00  0.00     0.034 A 
BRANCH  51  65
ATOM     65  C   UNL A   1      42.036  28.376  27.951  1.00  0.00     0.023 A 
ATOM     66  C   UNL A   1      42.971  27.383  28.309  1.00  0.00     0.031 A 
ATOM     67  C   UNL A   1      41.906  28.619  26.570  1.00  0.00     0.131 A 
ATOM     68  C   UNL A   1      43.747  26.712  27.350  1.00  0.00     0.055 A 
ATOM     69  C   UNL A   1      42.701  27.969  25.611  1.00  0.00     0.041 A 
ATOM     70  F   UNL A   1      40.976  29.454  26.086  1.00  0.00    -0.206 F 
ATOM     71  C   UNL A   1      43.626  27.008  25.998  1.00  0.00     0.022 A 
BRANCH  68  72
ATOM     72  S   UNL A   1      44.885  25.417  27.911  1.00  0.00     0.124 S 
ATOM     73  O   UNL A   1      46.141  26.149  28.043  1.00  0.00    -0.237 OA
ATOM     74  O   UNL A   1      44.264  24.973  29.155  1.00  0.00    -0.237 OA
ATOM     75  O   UNL A   1      44.849  24.441  26.824  1.00  0.00    -0.744 OA
ENDBRANCH  68  72
ENDBRANCH  51  65
BRANCH  52  76
ATOM     76  C   UNL A   1      36.253  34.303  33.299  1.00  0.00     0.023 A 
ATOM     77  C   UNL A   1      35.556  35.527  33.147  1.00  0.00     0.031 A 
ATOM     78  C   UNL A   1      35.474  33.138  33.316  1.00  0.00     0.131 A 
ATOM     79  C   UNL A   1      34.180  35.559  32.862  1.00  0.00     0.055 A 
ATOM     80  C   UNL A   1      34.081  33.177  33.099  1.00  0.00     0.041 A 
ATOM     81  F   UNL A   1      36.047  31.932  33.438  1.00  0.00    -0.206 F 
ATOM     82  C   UNL A   1      33.431  34.386  32.832  1.00  0.00     0.022 A 
BRANCH  79  83
ATOM     83  S   UNL A   1      33.474  37.143  32.307  1.00  0.00     0.124 S 
ATOM     84  O   UNL A   1      33.711  37.094  30.868  1.00  0.00    -0.237 OA
ATOM     85  O   UNL A   1      32.080  37.008  32.727  1.00  0.00    -0.237 OA
ATOM     86  O   UNL A   1      34.250  38.149  33.022  1.00  0.00    -0.744 OA
ENDBRANCH  79  83
ENDBRANCH  52  76
BRANCH  64  87
ATOM     87  C   UNL A   1      42.439  30.436  34.218  1.00  0.00     0.023 A 
ATOM     88  C   UNL A   1      42.069  29.202  34.744  1.00  0.00     0.031 A 
ATOM     89  C   UNL A   1      43.783  30.821  34.472  1.00  0.00     0.131 A 
ATOM     90  C   UNL A   1      42.929  28.471  35.569  1.00  0.00     0.055 A 
ATOM     91  C   UNL A   1      44.686  30.026  35.179  1.00  0.00     0.041 A 
ATOM     92  F   UNL A   1      44.300  31.979  34.035  1.00  0.00    -0.206 F 
ATOM     93  C   UNL A   1      44.251  28.850  35.764  1.00  0.00     0.022 A 
BRANCH  90  94
ATOM     94  S   UNL A   1      42.208  27.078  36.460  1.00  0.00     0.124 S 
ATOM     95  O   UNL A   1      43.175  26.885  37.539  1.00  0.00    -0.237 OA
ATOM     96  O   UNL A   1      40.910  27.605  36.866  1.00  0.00    -0.237 OA
ATOM     97  O   UNL A   1      42.170  26.016  35.459  1.00  0.00    -0.744 OA
ENDBRANCH  90  94
ENDBRANCH  64  87
ENDBRANCH  38  39
ENDBRANCH  31  33
ENDBRANCH  30  31
ENDBRANCH  29  30
ENDBRANCH   1  29
TORSDOF 18
ENDMDL
MODEL 2
REMARK VINA RESULT:     -12.9      3.047      4.231
REMARK SMILES Cc1ccccc1S(=O)(=O)Nc1ccc(N2CCOCC2)cc1C(=O)OCCOC(=O)c1ccc(-c2c3nc(c(-c4cc(S(=O)(=O)[O-])ccc4F)c4ccc([nH]4)c(-c4cc(S(=O)(=O)[O-])ccc4F)c4nc(c(-c5cc(S(=O)(=O)[O-])ccc5F)c5ccc2[nH]5)C=C4)C=C3)cc1
REMARK SMILES IDX 27 1 26 2 24 3 25 4 23 5 12 6 13 7 14 8 22 9 15 10 11 11
REMARK SMILES IDX 8 13 9 14 10 15 7 16 1 17 2 18 3 19 4 20 6 21 5 22 16 23
REMARK SMILES IDX 17 24 21 25 18 26 20 27 19 28 28 29 29 30 30 31 31 32 32 33
REMARK SMILES IDX 33 34 94 35 34 36 93 37 35 38 36 39 37 40 87 41 38 42 92 43
REMARK SMILES IDX 86 44 88 45 39 46 91 47 85 48 84 49 40 51 72 52 52 53 71 54
REMARK SMILES IDX 53 55 56 56 70 57 89 58 54 59 55 60 69 62 90 63 57 64 41 65
REMARK SMILES IDX 42 66 50 67 43 68 49 69 51 70 48 71 44 72 45 73 46 74 47 75
REMARK SMILES IDX 73 76 74 77 82 78 75 79 81 80 83 81 80 82 76 83 77 84 78 85
REMARK SMILES IDX 79 86 58 87 59 88 67 89 60 90 66 91 68 92 65 93 61 94 62 95
REMARK SMILES IDX 63 96 64 97
REMARK H PARENT 11 12 88 50 56 61
REMARK Flexibility Score: inf
ROOT
ATOM      1  C   UNL A   1      33.138  29.926  26.570  1.00  0.00     0.275 C 
ENDROOT
BRANCH   1   2
ATOM      2  O   UNL A   1      33.106  29.133  25.359  1.00  0.00    -0.458 OA
BRANCH   2   3
ATOM      3  C   UNL A   1      32.871  27.821  25.645  1.00  0.00     0.340 C 
ATOM      4  O   UNL A   1      33.768  27.056  26.002  1.00  0.00    -0.246 OA
BRANCH   3   5
ATOM      5  C   UNL A   1      31.537  27.222  25.332  1.00  0.00     0.086 A 
ATOM      6  C   UNL A   1      30.883  26.083  25.827  1.00  0.00     0.064 A 
ATOM      7  C   UNL A   1      29.662  25.692  25.246  1.00  0.00     0.030 A 
ATOM      8  C   UNL A   1      29.053  26.452  24.242  1.00  0.00     0.028 A 
ATOM      9  C   UNL A   1      30.895  27.949  24.304  1.00  0.00     0.043 A 
ATOM     10  C   UNL A   1      29.669  27.596  23.747  1.00  0.00     0.038 A 
BRANCH   6  11
ATOM     11  N   UNL A   1      31.392  25.245  26.857  1.00  0.00    -0.279 N 
ATOM     12  H   UNL A   1      31.720  25.645  27.695  1.00  0.00     0.180 HD
BRANCH  11  13
ATOM     13  S   UNL A   1      31.441  23.558  26.655  1.00  0.00     0.262 S 
ATOM     14  O   UNL A   1      30.071  23.161  26.414  1.00  0.00    -0.201 OA
ATOM     15  O   UNL A   1      32.159  22.944  27.752  1.00  0.00    -0.201 OA
BRANCH  13  16
ATOM     16  C   UNL A   1      32.387  23.387  25.152  1.00  0.00     0.090 A 
ATOM     17  C   UNL A   1      34.695  23.794  26.257  1.00  0.00     0.046 C 
ATOM     18  C   UNL A   1      33.763  23.684  25.087  1.00  0.00    -0.031 A 
ATOM     19  C   UNL A   1      34.339  23.875  23.818  1.00  0.00     0.005 A 
ATOM     20  C   UNL A   1      33.602  23.670  22.654  1.00  0.00     0.000 A 
ATOM     21  C   UNL A   1      31.679  23.088  23.983  1.00  0.00     0.022 A 
ATOM     22  C   UNL A   1      32.286  23.230  22.737  1.00  0.00     0.001 A 
ENDBRANCH  13  16
ENDBRANCH  11  13
ENDBRANCH   6  11
BRANCH  10  23
ATOM     23  N   UNL A   1      29.097  28.339  22.734  1.00  0.00    -0.367 N 
ATOM     24  C   UNL A   1      29.895  29.367  22.035  1.00  0.00     0.145 C 
ATOM     25  C   UNL A   1      27.657  28.619  22.801  1.00  0.00     0.145 C 
ATOM     26  C   UNL A   1      29.537  30.781  22.526  1.00  0.00     0.181 C 
ATOM     27  C   UNL A   1      27.415  30.066  23.271  1.00  0.00     0.181 C 
ATOM     28  O   UNL A   1      28.119  31.021  22.458  1.00  0.00    -0.378 OA
ENDBRANCH  10  23
ENDBRANCH   3   5
ENDBRANCH   2   3
ENDBRANCH   1   2
BRANCH   1  29
ATOM     29  C   UNL A   1      34.497  30.165  27.265  1.00  0.00     0.275 C 
BRANCH  29  30
ATOM     30  O   UNL A   1      34.916  31.446  27.784  1.00  0.00    -0.458 OA
BRANCH  30  31
ATOM     31  C   UNL A   1      35.455  31.554  29.015  1.00  0.00     0.338 C 
ATOM     32  O   UNL A   1      34.934  32.171  29.930  1.00  0.00    -0.246 OA
BRANCH  31  33
ATOM     33  C   UNL A   1      36.673  30.762  29.159  1.00  0.00     0.060 A 
ATOM     34  C   UNL A   1      36.611  29.614  29.961  1.00  0.00     0.016 A 
ATOM     35  C   UNL A   1      37.760  31.033  28.328  1.00  0.00     0.016 A 
ATOM     36  C   UNL A   1      37.614  28.673  29.900  1.00  0.00     0.010 A 
ATOM     37  C   UNL A   1      38.697  30.058  28.161  1.00  0.00     0.010 A 
ATOM     38  C   UNL A   1      38.652  28.941  29.017  1.00  0.00    -0.014 A 
BRANCH  38  39
ATOM     39  C   UNL A   1      39.983  28.447  29.282  1.00  0.00     0.031 A 
ATOM     40  C   UNL A   1      40.330  27.114  28.779  1.00  0.00     0.074 A 
ATOM     41  C   UNL A   1      40.708  29.498  29.743  1.00  0.00     0.049 A 
ATOM     42  N   UNL A   1      41.192  26.318  29.304  1.00  0.00    -0.248 NA
ATOM     43  C   UNL A   1      39.604  26.465  27.674  1.00  0.00     0.031 C 
ATOM     44  C   UNL A   1      42.109  29.851  29.706  1.00  0.00     0.029 A 
ATOM     45  N   UNL A   1      40.155  30.553  30.481  1.00  0.00    -0.354 N 
ATOM     46  C   UNL A   1      41.493  25.420  28.297  1.00  0.00     0.074 A 
ATOM     47  C   UNL A   1      40.316  25.349  27.479  1.00  0.00     0.031 C 
ATOM     48  C   UNL A   1      42.336  30.822  30.620  1.00  0.00     0.029 A 
ATOM     49  C   UNL A   1      41.097  31.050  31.360  1.00  0.00     0.049 A 
ATOM     50  H   UNL A   1      39.235  30.889  30.387  1.00  0.00     0.167 HD
ATOM     51  C   UNL A   1      42.804  25.180  28.004  1.00  0.00     0.034 A 
ATOM     52  C   UNL A   1      40.876  30.756  32.678  1.00  0.00     0.034 A 
ATOM     53  C   UNL A   1      43.640  26.046  28.833  1.00  0.00     0.049 A 
ATOM     54  C   UNL A   1      41.804  29.637  33.093  1.00  0.00     0.074 A 
ATOM     55  C   UNL A   1      44.288  27.243  28.582  1.00  0.00     0.029 A 
ATOM     56  N   UNL A   1      43.556  25.927  30.209  1.00  0.00    -0.354 N 
ATOM     57  N   UNL A   1      42.254  28.701  32.296  1.00  0.00    -0.248 NA
ATOM     58  C   UNL A   1      42.421  29.608  34.409  1.00  0.00     0.031 C 
ATOM     59  C   UNL A   1      44.574  27.852  29.838  1.00  0.00     0.029 A 
ATOM     60  C   UNL A   1      44.044  27.051  30.837  1.00  0.00     0.049 A 
ATOM     61  H   UNL A   1      43.195  25.140  30.678  1.00  0.00     0.167 HD
ATOM     62  C   UNL A   1      43.291  28.042  32.908  1.00  0.00     0.074 A 
ATOM     63  C   UNL A   1      43.341  28.645  34.234  1.00  0.00     0.031 C 
ATOM     64  C   UNL A   1      44.058  27.088  32.287  1.00  0.00     0.034 A 
BRANCH  51  65
ATOM     65  C   UNL A   1      43.339  24.470  26.785  1.00  0.00     0.023 A 
ATOM     66  C   UNL A   1      44.621  24.821  26.311  1.00  0.00     0.031 A 
ATOM     67  C   UNL A   1      42.703  23.420  26.096  1.00  0.00     0.131 A 
ATOM     68  C   UNL A   1      45.202  24.187  25.201  1.00  0.00     0.055 A 
ATOM     69  C   UNL A   1      43.270  22.803  24.969  1.00  0.00     0.041 A 
ATOM     70  F   UNL A   1      41.533  22.912  26.511  1.00  0.00    -0.206 F 
ATOM     71  C   UNL A   1      44.528  23.183  24.516  1.00  0.00     0.022 A 
BRANCH  68  72
ATOM     72  S   UNL A   1      46.875  24.678  24.704  1.00  0.00     0.124 S 
ATOM     73  O   UNL A   1      47.639  24.442  25.925  1.00  0.00    -0.237 OA
ATOM     74  O   UNL A   1      47.147  23.776  23.590  1.00  0.00    -0.237 OA
ATOM     75  O   UNL A   1      46.719  26.083  24.334  1.00  0.00    -0.744 OA
ENDBRANCH  68  72
ENDBRANCH  51  65
BRANCH  52  76
ATOM     76  C   UNL A   1      39.442  30.956  33.102  1.00  0.00     0.023 A 
ATOM     77  C   UNL A   1      38.972  32.292  33.168  1.00  0.00     0.031 A 
ATOM     78  C   UNL A   1      38.467  29.949  33.127  1.00  0.00     0.131 A 
ATOM     79  C   UNL A   1      37.601  32.593  33.093  1.00  0.00     0.055 A 
ATOM     80  C   UNL A   1      37.090  30.252  33.121  1.00  0.00     0.041 A 
ATOM     81  F   UNL A   1      38.815  28.657  33.051  1.00  0.00    -0.206 F 
ATOM     82  C   UNL A   1      36.648  31.579  33.065  1.00  0.00     0.022 A 
BRANCH  79  83
ATOM     83  S   UNL A   1      37.139  34.329  32.797  1.00  0.00     0.124 S 
ATOM     84  O   UNL A   1      37.595  34.978  34.022  1.00  0.00    -0.237 OA
ATOM     85  O   UNL A   1      37.907  34.637  31.591  1.00  0.00    -0.237 OA
ATOM     86  O   UNL A   1      35.692  34.291  32.626  1.00  0.00    -0.744 OA
ENDBRANCH  79  83
ENDBRANCH  52  76
BRANCH  64  87
ATOM     87  C   UNL A   1      44.947  26.084  32.990  1.00  0.00     0.023 A 
ATOM     88  C   UNL A   1      44.432  24.970  33.645  1.00  0.00     0.031 A 
ATOM     89  C   UNL A   1      46.365  26.152  32.938  1.00  0.00     0.131 A 
ATOM     90  C   UNL A   1      45.264  24.064  34.310  1.00  0.00     0.055 A 
ATOM     91  C   UNL A   1      47.198  25.173  33.483  1.00  0.00     0.041 A 
ATOM     92  F   UNL A   1      47.022  27.158  32.343  1.00  0.00    -0.206 F 
ATOM     93  C   UNL A   1      46.647  24.130  34.206  1.00  0.00     0.022 A 
BRANCH  90  94
ATOM     94  S   UNL A   1      44.458  22.876  35.403  1.00  0.00     0.124 S 
ATOM     95  O   UNL A   1      45.164  23.106  36.662  1.00  0.00    -0.237 OA
ATOM     96  O   UNL A   1      43.067  23.317  35.372  1.00  0.00    -0.237 OA
ATOM     97  O   UNL A   1      44.723  21.590  34.765  1.00  0.00    -0.744 OA
ENDBRANCH  90  94
ENDBRANCH  64  87
ENDBRANCH  38  39
ENDBRANCH  31  33
ENDBRANCH  30  31
ENDBRANCH  29  30
ENDBRANCH   1  29
TORSDOF 18
ENDMDL
MODEL 3
REMARK VINA RESULT:     -12.8      2.417      3.526
REMARK SMILES Cc1ccccc1S(=O)(=O)Nc1ccc(N2CCOCC2)cc1C(=O)OCCOC(=O)c1ccc(-c2c3nc(c(-c4cc(S(=O)(=O)[O-])ccc4F)c4ccc([nH]4)c(-c4cc(S(=O)(=O)[O-])ccc4F)c4nc(c(-c5cc(S(=O)(=O)[O-])ccc5F)c5ccc2[nH]5)C=C4)C=C3)cc1
REMARK SMILES IDX 27 1 26 2 24 3 25 4 23 5 12 6 13 7 14 8 22 9 15 10 11 11
REMARK SMILES IDX 8 13 9 14 10 15 7 16 1 17 2 18 3 19 4 20 6 21 5 22 16 23
REMARK SMILES IDX 17 24 21 25 18 26 20 27 19 28 28 29 29 30 30 31 31 32 32 33
REMARK SMILES IDX 33 34 94 35 34 36 93 37 35 38 36 39 37 40 87 41 38 42 92 43
REMARK SMILES IDX 86 44 88 45 39 46 91 47 85 48 84 49 40 51 72 52 52 53 71 54
REMARK SMILES IDX 53 55 56 56 70 57 89 58 54 59 55 60 69 62 90 63 57 64 41 65
REMARK SMILES IDX 42 66 50 67 43 68 49 69 51 70 48 71 44 72 45 73 46 74 47 75
REMARK SMILES IDX 73 76 74 77 82 78 75 79 81 80 83 81 80 82 76 83 77 84 78 85
REMARK SMILES IDX 79 86 58 87 59 88 67 89 60 90 66 91 68 92 65 93 61 94 62 95
REMARK SMILES IDX 63 96 64 97
REMARK H PARENT 11 12 88 50 56 61
REMARK Flexibility Score: inf
ROOT
ATOM      1  C   UNL A   1      32.894  30.705  27.344  1.00  0.00     0.275 C 
ENDROOT
BRANCH   1   2
ATOM      2  O   UNL A   1      32.557  30.728  25.935  1.00  0.00    -0.458 OA
BRANCH   2   3
ATOM      3  C   UNL A   1      32.762  29.505  25.369  1.00  0.00     0.340 C 
ATOM      4  O   UNL A   1      33.825  28.896  25.489  1.00  0.00    -0.246 OA
BRANCH   3   5
ATOM      5  C   UNL A   1      31.758  28.959  24.404  1.00  0.00     0.086 A 
ATOM      6  C   UNL A   1      31.747  27.790  23.626  1.00  0.00     0.064 A 
ATOM      7  C   UNL A   1      30.703  27.596  22.703  1.00  0.00     0.030 A 
ATOM      8  C   UNL A   1      29.641  28.502  22.598  1.00  0.00     0.028 A 
ATOM      9  C   UNL A   1      30.677  29.855  24.252  1.00  0.00     0.043 A 
ATOM     10  C   UNL A   1      29.616  29.657  23.370  1.00  0.00     0.038 A 
BRANCH   6  11
ATOM     11  N   UNL A   1      32.757  26.789  23.660  1.00  0.00    -0.279 N 
ATOM     12  H   UNL A   1      33.540  26.865  23.068  1.00  0.00     0.180 HD
BRANCH  11  13
ATOM     13  S   UNL A   1      32.623  25.462  24.713  1.00  0.00     0.262 S 
ATOM     14  O   UNL A   1      31.508  24.688  24.213  1.00  0.00    -0.201 OA
ATOM     15  O   UNL A   1      32.592  25.915  26.088  1.00  0.00    -0.201 OA
BRANCH  13  16
ATOM     16  C   UNL A   1      34.145  24.584  24.408  1.00  0.00     0.090 A 
ATOM     17  C   UNL A   1      33.435  23.636  22.104  1.00  0.00     0.046 C 
ATOM     18  C   UNL A   1      34.302  23.694  23.327  1.00  0.00    -0.031 A 
ATOM     19  C   UNL A   1      35.375  22.785  23.368  1.00  0.00     0.005 A 
ATOM     20  C   UNL A   1      36.320  22.833  24.389  1.00  0.00     0.000 A 
ATOM     21  C   UNL A   1      35.150  24.692  25.378  1.00  0.00     0.022 A 
ATOM     22  C   UNL A   1      36.234  23.817  25.367  1.00  0.00     0.001 A 
ENDBRANCH  13  16
ENDBRANCH  11  13
ENDBRANCH   6  11
BRANCH  10  23
ATOM     23  N   UNL A   1      28.593  30.577  23.256  1.00  0.00    -0.367 N 
ATOM     24  C   UNL A   1      27.717  30.557  22.067  1.00  0.00     0.145 C 
ATOM     25  C   UNL A   1      28.773  31.900  23.865  1.00  0.00     0.145 C 
ATOM     26  C   UNL A   1      28.092  31.675  21.078  1.00  0.00     0.181 C 
ATOM     27  C   UNL A   1      29.112  32.945  22.785  1.00  0.00     0.181 C 
ATOM     28  O   UNL A   1      28.140  32.960  21.726  1.00  0.00    -0.378 OA
ENDBRANCH  10  23
ENDBRANCH   3   5
ENDBRANCH   2   3
ENDBRANCH   1   2
BRANCH   1  29
ATOM     29  C   UNL A   1      34.175  31.429  27.813  1.00  0.00     0.275 C 
BRANCH  29  30
ATOM     30  O   UNL A   1      34.183  32.759  28.374  1.00  0.00    -0.458 OA
BRANCH  30  31
ATOM     31  C   UNL A   1      34.686  32.992  29.603  1.00  0.00     0.338 C 
ATOM     32  O   UNL A   1      34.052  33.510  30.507  1.00  0.00    -0.246 OA
BRANCH  31  33
ATOM     33  C   UNL A   1      36.036  32.456  29.760  1.00  0.00     0.060 A 
ATOM     34  C   UNL A   1      37.029  32.931  28.892  1.00  0.00     0.016 A 
ATOM     35  C   UNL A   1      36.334  31.690  30.886  1.00  0.00     0.016 A 
ATOM     36  C   UNL A   1      38.358  32.703  29.171  1.00  0.00     0.010 A 
ATOM     37  C   UNL A   1      37.643  31.562  31.245  1.00  0.00     0.010 A 
ATOM     38  C   UNL A   1      38.626  31.992  30.333  1.00  0.00    -0.014 A 
BRANCH  38  39
ATOM     39  C   UNL A   1      39.806  31.165  30.429  1.00  0.00     0.031 A 
ATOM     40  C   UNL A   1      39.671  29.742  30.101  1.00  0.00     0.074 A 
ATOM     41  C   UNL A   1      40.864  32.004  30.566  1.00  0.00     0.049 A 
ATOM     42  N   UNL A   1      40.390  28.793  30.585  1.00  0.00    -0.248 NA
ATOM     43  C   UNL A   1      38.574  29.215  29.272  1.00  0.00     0.031 C 
ATOM     44  C   UNL A   1      42.264  31.928  30.213  1.00  0.00     0.029 A 
ATOM     45  N   UNL A   1      40.785  33.249  31.205  1.00  0.00    -0.354 N 
ATOM     46  C   UNL A   1      40.214  27.741  29.705  1.00  0.00     0.074 A 
ATOM     47  C   UNL A   1      38.907  27.926  29.141  1.00  0.00     0.031 C 
ATOM     48  C   UNL A   1      42.935  32.886  30.895  1.00  0.00     0.029 A 
ATOM     49  C   UNL A   1      41.996  33.544  31.801  1.00  0.00     0.049 A 
ATOM     50  H   UNL A   1      39.988  33.824  31.227  1.00  0.00     0.167 HD
ATOM     51  C   UNL A   1      41.317  27.101  29.221  1.00  0.00     0.034 A 
ATOM     52  C   UNL A   1      42.006  33.473  33.167  1.00  0.00     0.034 A 
ATOM     53  C   UNL A   1      42.513  27.771  29.725  1.00  0.00     0.049 A 
ATOM     54  C   UNL A   1      42.678  32.184  33.586  1.00  0.00     0.074 A 
ATOM     55  C   UNL A   1      43.379  28.694  29.162  1.00  0.00     0.029 A 
ATOM     56  N   UNL A   1      42.710  27.833  31.093  1.00  0.00    -0.354 N 
ATOM     57  N   UNL A   1      42.678  31.077  32.889  1.00  0.00    -0.248 NA
ATOM     58  C   UNL A   1      43.543  32.122  34.753  1.00  0.00     0.031 C 
ATOM     59  C   UNL A   1      44.086  29.327  30.224  1.00  0.00     0.029 A 
ATOM     60  C   UNL A   1      43.602  28.829  31.423  1.00  0.00     0.049 A 
ATOM     61  H   UNL A   1      42.270  27.241  31.746  1.00  0.00     0.167 HD
ATOM     62  C   UNL A   1      43.616  30.217  33.401  1.00  0.00     0.074 A 
ATOM     63  C   UNL A   1      44.117  30.921  34.576  1.00  0.00     0.031 C 
ATOM     64  C   UNL A   1      43.948  29.019  32.820  1.00  0.00     0.034 A 
BRANCH  51  65
ATOM     65  C   UNL A   1      41.362  26.137  28.061  1.00  0.00     0.023 A 
ATOM     66  C   UNL A   1      41.665  24.783  28.322  1.00  0.00     0.031 A 
ATOM     67  C   UNL A   1      41.058  26.444  26.721  1.00  0.00     0.131 A 
ATOM     68  C   UNL A   1      41.697  23.819  27.302  1.00  0.00     0.055 A 
ATOM     69  C   UNL A   1      41.116  25.486  25.694  1.00  0.00     0.041 A 
ATOM     70  F   UNL A   1      40.644  27.665  26.355  1.00  0.00    -0.206 F 
ATOM     71  C   UNL A   1      41.435  24.164  25.982  1.00  0.00     0.022 A 
BRANCH  68  72
ATOM     72  S   UNL A   1      42.048  22.098  27.752  1.00  0.00     0.124 S 
ATOM     73  O   UNL A   1      40.714  21.577  28.034  1.00  0.00    -0.237 OA
ATOM     74  O   UNL A   1      42.698  21.587  26.550  1.00  0.00    -0.237 OA
ATOM     75  O   UNL A   1      42.921  22.224  28.917  1.00  0.00    -0.744 OA
ENDBRANCH  68  72
ENDBRANCH  51  65
BRANCH  52  76
ATOM     76  C   UNL A   1      40.806  34.126  33.807  1.00  0.00     0.023 A 
ATOM     77  C   UNL A   1      39.655  33.318  33.987  1.00  0.00     0.031 A 
ATOM     78  C   UNL A   1      40.835  35.337  34.512  1.00  0.00     0.131 A 
ATOM     79  C   UNL A   1      38.677  33.636  34.947  1.00  0.00     0.055 A 
ATOM     80  C   UNL A   1      39.818  35.688  35.424  1.00  0.00     0.041 A 
ATOM     81  F   UNL A   1      41.891  36.158  34.418  1.00  0.00    -0.206 F 
ATOM     82  C   UNL A   1      38.751  34.819  35.675  1.00  0.00     0.022 A 
BRANCH  79  83
ATOM     83  S   UNL A   1      37.460  32.346  35.362  1.00  0.00     0.124 S 
ATOM     84  O   UNL A   1      36.326  32.718  34.522  1.00  0.00    -0.237 OA
ATOM     85  O   UNL A   1      38.172  31.131  34.966  1.00  0.00    -0.237 OA
ATOM     86  O   UNL A   1      37.242  32.508  36.793  1.00  0.00    -0.744 OA
ENDBRANCH  79  83
ENDBRANCH  52  76
BRANCH  64  87
ATOM     87  C   UNL A   1      44.678  27.883  33.505  1.00  0.00     0.023 A 
ATOM     88  C   UNL A   1      44.043  27.026  34.398  1.00  0.00     0.031 A 
ATOM     89  C   UNL A   1      46.027  27.550  33.205  1.00  0.00     0.131 A 
ATOM     90  C   UNL A   1      44.735  25.997  35.042  1.00  0.00     0.055 A 
ATOM     91  C   UNL A   1      46.677  26.438  33.743  1.00  0.00     0.041 A 
ATOM     92  F   UNL A   1      46.782  28.270  32.363  1.00  0.00    -0.206 F 
ATOM     93  C   UNL A   1      46.039  25.667  34.697  1.00  0.00     0.022 A 
BRANCH  90  94
ATOM     94  S   UNL A   1      43.894  25.194  36.421  1.00  0.00     0.124 S 
ATOM     95  O   UNL A   1      43.280  24.042  35.763  1.00  0.00    -0.237 OA
ATOM     96  O   UNL A   1      44.998  24.886  37.324  1.00  0.00    -0.237 OA
ATOM     97  O   UNL A   1      42.961  26.213  36.893  1.00  0.00    -0.744 OA
ENDBRANCH  90  94
ENDBRANCH  64  87
ENDBRANCH  38  39
ENDBRANCH  31  33
ENDBRANCH  30  31
ENDBRANCH  29  30
ENDBRANCH   1  29
TORSDOF 18
ENDMDL
