MODEL 1
REMARK VINA RESULT:     -12.3      0.000      0.000
REMARK SMILES C/C(=N\NC(N)=O)c1nnn(-c2ccc(C(=O)OCCOC(=O)c3ccc(-c4c5nc(c(-c6cc(S(=O)(=O)[O-])ccc6F)c6ccc([nH]6)c(-c6cc(S(=O)(=O)[O-])ccc6F)c6nc(c(-c7cc(S(=O)(=O)[O-])ccc7F)c7ccc4[nH]7)C=C6)C=C5)cc3)cc2)c1C
REMARK SMILES IDX 19 1 18 2 16 3 17 4 15 5 12 6 13 7 88 8 14 9 87 10 11 11
REMARK SMILES IDX 8 12 9 13 89 14 10 15 90 16 2 17 1 18 3 19 4 20 5 21 6 23
REMARK SMILES IDX 7 24 20 27 21 28 22 29 23 30 24 31 25 32 86 33 26 34 85 35
REMARK SMILES IDX 27 36 28 37 29 38 79 39 30 40 84 41 78 42 80 43 31 44 83 45
REMARK SMILES IDX 77 46 76 47 32 49 64 50 44 51 63 52 45 53 48 54 62 55 81 56
REMARK SMILES IDX 46 57 47 58 61 60 82 61 49 62 33 63 34 64 42 65 35 66 41 67
REMARK SMILES IDX 43 68 40 69 36 70 37 71 38 72 39 73 65 74 66 75 74 76 67 77
REMARK SMILES IDX 73 78 75 79 72 80 68 81 69 82 70 83 71 84 50 85 51 86 59 87
REMARK SMILES IDX 52 88 58 89 60 90 57 91 53 92 54 93 55 94 56 95
REMARK H PARENT 4 22 6 25 6 26 80 48 48 59
REMARK Flexibility Score: inf
ROOT
ATOM      1  C   UNL A   1      34.100  31.890  27.703  1.00  0.00     0.275 C 
ENDROOT
BRANCH   1   2
ATOM      2  O   UNL A   1      33.673  30.812  26.861  1.00  0.00    -0.458 OA
BRANCH   2   3
ATOM      3  C   UNL A   1      32.349  30.778  26.573  1.00  0.00     0.338 C 
ATOM      4  O   UNL A   1      31.616  31.745  26.406  1.00  0.00    -0.246 OA
BRANCH   3   5
ATOM      5  C   UNL A   1      31.890  29.374  26.450  1.00  0.00     0.060 A 
ATOM      6  C   UNL A   1      31.350  26.658  26.269  1.00  0.00     0.067 A 
ATOM      7  C   UNL A   1      31.429  27.248  27.534  1.00  0.00     0.029 A 
ATOM      8  C   UNL A   1      31.396  27.435  25.106  1.00  0.00     0.029 A 
ATOM      9  C   UNL A   1      31.726  28.611  27.619  1.00  0.00     0.018 A 
ATOM     10  C   UNL A   1      31.659  28.795  25.198  1.00  0.00     0.018 A 
BRANCH   6  11
ATOM     11  N   UNL A   1      31.430  25.254  26.160  1.00  0.00    -0.217 N 
ATOM     12  C   UNL A   1      32.198  23.216  26.154  1.00  0.00     0.132 A 
ATOM     13  N   UNL A   1      30.872  23.182  26.489  1.00  0.00    -0.128 NA
ATOM     14  C   UNL A   1      32.591  24.524  25.945  1.00  0.00     0.071 A 
ATOM     15  N   UNL A   1      30.435  24.433  26.562  1.00  0.00    -0.061 NA
ATOM     16  C   UNL A   1      33.948  25.101  25.784  1.00  0.00     0.069 C 
BRANCH  12  17
ATOM     17  C   UNL A   1      33.073  22.067  26.294  1.00  0.00     0.087 C 
ATOM     18  C   UNL A   1      33.673  21.878  27.664  1.00  0.00     0.071 C 
ATOM     19  N   UNL A   1      33.227  21.340  25.227  1.00  0.00    -0.174 NA
BRANCH  19  20
ATOM     20  N   UNL A   1      34.059  20.257  25.185  1.00  0.00    -0.229 N 
ATOM     21  C   UNL A   1      35.417  20.253  24.959  1.00  0.00     0.332 C 
ATOM     22  H   UNL A   1      33.639  19.378  25.330  1.00  0.00     0.195 HD
ATOM     23  N   UNL A   1      35.941  18.994  24.973  1.00  0.00    -0.350 N 
ATOM     24  O   UNL A   1      36.149  21.215  24.772  1.00  0.00    -0.247 OA
ATOM     25  H   UNL A   1      35.354  18.218  25.124  1.00  0.00     0.161 HD
ATOM     26  H   UNL A   1      36.907  18.861  24.832  1.00  0.00     0.161 HD
ENDBRANCH  19  20
ENDBRANCH  12  17
ENDBRANCH   6  11
ENDBRANCH   3   5
ENDBRANCH   2   3
ENDBRANCH   1   2
BRANCH   1  27
ATOM     27  C   UNL A   1      35.581  31.767  28.031  1.00  0.00     0.275 C 
BRANCH  27  28
ATOM     28  O   UNL A   1      36.132  30.525  27.590  1.00  0.00    -0.458 OA
BRANCH  28  29
ATOM     29  C   UNL A   1      36.401  29.646  28.585  1.00  0.00     0.338 C 
ATOM     30  O   UNL A   1      35.645  29.287  29.471  1.00  0.00    -0.246 OA
BRANCH  29  31
ATOM     31  C   UNL A   1      37.841  29.362  28.606  1.00  0.00     0.060 A 
ATOM     32  C   UNL A   1      38.578  29.639  27.452  1.00  0.00     0.016 A 
ATOM     33  C   UNL A   1      38.384  28.610  29.659  1.00  0.00     0.016 A 
ATOM     34  C   UNL A   1      39.827  29.064  27.310  1.00  0.00     0.010 A 
ATOM     35  C   UNL A   1      39.624  28.023  29.507  1.00  0.00     0.010 A 
ATOM     36  C   UNL A   1      40.319  28.216  28.315  1.00  0.00    -0.014 A 
BRANCH  36  37
ATOM     37  C   UNL A   1      41.698  27.757  28.217  1.00  0.00     0.031 A 
ATOM     38  C   UNL A   1      41.766  26.440  27.541  1.00  0.00     0.074 A 
ATOM     39  C   UNL A   1      42.784  28.482  28.557  1.00  0.00     0.049 A 
ATOM     40  N   UNL A   1      42.004  25.297  28.090  1.00  0.00    -0.248 NA
ATOM     41  C   UNL A   1      41.261  26.341  26.159  1.00  0.00     0.031 C 
ATOM     42  C   UNL A   1      42.813  29.875  29.004  1.00  0.00     0.029 A 
ATOM     43  N   UNL A   1      44.110  28.157  28.488  1.00  0.00    -0.354 N 
ATOM     44  C   UNL A   1      41.997  24.387  27.041  1.00  0.00     0.074 A 
ATOM     45  C   UNL A   1      41.270  25.020  25.979  1.00  0.00     0.031 C 
ATOM     46  C   UNL A   1      44.084  30.337  28.955  1.00  0.00     0.029 A 
ATOM     47  C   UNL A   1      44.978  29.249  28.589  1.00  0.00     0.049 A 
ATOM     48  H   UNL A   1      44.428  27.232  28.377  1.00  0.00     0.167 HD
ATOM     49  C   UNL A   1      42.912  23.381  27.021  1.00  0.00     0.034 A 
ATOM     50  C   UNL A   1      46.321  29.271  28.349  1.00  0.00     0.034 A 
ATOM     51  C   UNL A   1      43.434  23.149  28.358  1.00  0.00     0.049 A 
ATOM     52  C   UNL A   1      46.804  27.881  28.515  1.00  0.00     0.074 A 
ATOM     53  C   UNL A   1      42.879  22.856  29.589  1.00  0.00     0.029 A 
ATOM     54  N   UNL A   1      44.703  23.610  28.622  1.00  0.00    -0.354 N 
ATOM     55  N   UNL A   1      46.793  27.253  29.658  1.00  0.00    -0.248 NA
ATOM     56  C   UNL A   1      46.879  27.026  27.342  1.00  0.00     0.031 C 
ATOM     57  C   UNL A   1      43.677  23.560  30.542  1.00  0.00     0.029 A 
ATOM     58  C   UNL A   1      44.734  24.175  29.870  1.00  0.00     0.049 A 
ATOM     59  H   UNL A   1      45.471  23.544  28.010  1.00  0.00     0.167 HD
ATOM     60  C   UNL A   1      46.392  25.964  29.350  1.00  0.00     0.074 A 
ATOM     61  C   UNL A   1      46.596  25.848  27.907  1.00  0.00     0.031 C 
ATOM     62  C   UNL A   1      45.661  25.231  30.245  1.00  0.00     0.034 A 
BRANCH  49  63
ATOM     63  C   UNL A   1      43.704  23.007  25.771  1.00  0.00     0.023 A 
ATOM     64  C   UNL A   1      43.760  21.636  25.460  1.00  0.00     0.031 A 
ATOM     65  C   UNL A   1      44.647  23.818  25.094  1.00  0.00     0.131 A 
ATOM     66  C   UNL A   1      44.810  21.112  24.687  1.00  0.00     0.055 A 
ATOM     67  C   UNL A   1      45.654  23.297  24.275  1.00  0.00     0.041 A 
ATOM     68  F   UNL A   1      44.709  25.146  25.224  1.00  0.00    -0.206 F 
ATOM     69  C   UNL A   1      45.767  21.932  24.102  1.00  0.00     0.022 A 
BRANCH  66  70
ATOM     70  S   UNL A   1      45.010  19.317  24.638  1.00  0.00     0.124 S 
ATOM     71  O   UNL A   1      44.025  18.900  25.631  1.00  0.00    -0.237 OA
ATOM     72  O   UNL A   1      44.692  19.019  23.245  1.00  0.00    -0.237 OA
ATOM     73  O   UNL A   1      46.407  19.123  25.014  1.00  0.00    -0.744 OA
ENDBRANCH  66  70
ENDBRANCH  49  63
BRANCH  50  74
ATOM     74  C   UNL A   1      47.142  30.343  27.698  1.00  0.00     0.023 A 
ATOM     75  C   UNL A   1      46.579  31.477  27.060  1.00  0.00     0.031 A 
ATOM     76  C   UNL A   1      48.533  30.389  27.936  1.00  0.00     0.131 A 
ATOM     77  C   UNL A   1      47.396  32.583  26.704  1.00  0.00     0.055 A 
ATOM     78  C   UNL A   1      49.331  31.480  27.585  1.00  0.00     0.041 A 
ATOM     79  F   UNL A   1      49.160  29.408  28.604  1.00  0.00    -0.206 F 
ATOM     80  C   UNL A   1      48.764  32.588  26.979  1.00  0.00     0.022 A 
BRANCH  77  81
ATOM     81  S   UNL A   1      46.682  34.089  25.954  1.00  0.00     0.124 S 
ATOM     82  O   UNL A   1      47.721  34.494  25.015  1.00  0.00    -0.237 OA
ATOM     83  O   UNL A   1      45.437  33.598  25.376  1.00  0.00    -0.237 OA
ATOM     84  O   UNL A   1      46.507  34.990  27.096  1.00  0.00    -0.744 OA
ENDBRANCH  77  81
ENDBRANCH  50  74
BRANCH  62  85
ATOM     85  C   UNL A   1      45.703  25.642  31.706  1.00  0.00     0.023 A 
ATOM     86  C   UNL A   1      46.706  25.290  32.639  1.00  0.00     0.031 A 
ATOM     87  C   UNL A   1      44.671  26.487  32.155  1.00  0.00     0.131 A 
ATOM     88  C   UNL A   1      46.633  25.759  33.967  1.00  0.00     0.055 A 
ATOM     89  C   UNL A   1      44.616  26.971  33.459  1.00  0.00     0.041 A 
ATOM     90  F   UNL A   1      43.694  26.874  31.317  1.00  0.00    -0.206 F 
ATOM     91  C   UNL A   1      45.592  26.600  34.375  1.00  0.00     0.022 A 
BRANCH  88  92
ATOM     92  S   UNL A   1      47.863  25.250  35.212  1.00  0.00     0.124 S 
ATOM     93  O   UNL A   1      48.331  23.958  34.726  1.00  0.00    -0.237 OA
ATOM     94  O   UNL A   1      48.833  26.342  35.160  1.00  0.00    -0.237 OA
ATOM     95  O   UNL A   1      47.087  25.190  36.452  1.00  0.00    -0.744 OA
ENDBRANCH  88  92
ENDBRANCH  62  85
ENDBRANCH  36  37
ENDBRANCH  29  31
ENDBRANCH  28  29
ENDBRANCH  27  28
ENDBRANCH   1  27
TORSDOF 17
ENDMDL
MODEL 2
REMARK VINA RESULT:     -12.3      4.643      9.543
REMARK SMILES C/C(=N\NC(N)=O)c1nnn(-c2ccc(C(=O)OCCOC(=O)c3ccc(-c4c5nc(c(-c6cc(S(=O)(=O)[O-])ccc6F)c6ccc([nH]6)c(-c6cc(S(=O)(=O)[O-])ccc6F)c6nc(c(-c7cc(S(=O)(=O)[O-])ccc7F)c7ccc4[nH]7)C=C6)C=C5)cc3)cc2)c1C
REMARK SMILES IDX 19 1 18 2 16 3 17 4 15 5 12 6 13 7 88 8 14 9 87 10 11 11
REMARK SMILES IDX 8 12 9 13 89 14 10 15 90 16 2 17 1 18 3 19 4 20 5 21 6 23
REMARK SMILES IDX 7 24 20 27 21 28 22 29 23 30 24 31 25 32 86 33 26 34 85 35
REMARK SMILES IDX 27 36 28 37 29 38 79 39 30 40 84 41 78 42 80 43 31 44 83 45
REMARK SMILES IDX 77 46 76 47 32 49 64 50 44 51 63 52 45 53 48 54 62 55 81 56
REMARK SMILES IDX 46 57 47 58 61 60 82 61 49 62 33 63 34 64 42 65 35 66 41 67
REMARK SMILES IDX 43 68 40 69 36 70 37 71 38 72 39 73 65 74 66 75 74 76 67 77
REMARK SMILES IDX 73 78 75 79 72 80 68 81 69 82 70 83 71 84 50 85 51 86 59 87
REMARK SMILES IDX 52 88 58 89 60 90 57 91 53 92 54 93 55 94 56 95
REMARK H PARENT 4 22 6 25 6 26 80 48 48 59
REMARK Flexibility Score: inf
ROOT
ATOM      1  C   UNL A   1      38.330  21.183  25.305  1.00  0.00     0.275 C 
ENDROOT
BRANCH   1   2
ATOM      2  O   UNL A   1      37.319  22.102  25.739  1.00  0.00    -0.458 OA
BRANCH   2   3
ATOM      3  C   UNL A   1      36.047  21.785  25.392  1.00  0.00     0.338 C 
ATOM      4  O   UNL A   1      35.590  20.658  25.254  1.00  0.00    -0.246 OA
BRANCH   3   5
ATOM      5  C   UNL A   1      35.243  23.020  25.226  1.00  0.00     0.060 A 
ATOM      6  C   UNL A   1      33.482  25.131  24.845  1.00  0.00     0.067 A 
ATOM      7  C   UNL A   1      33.513  24.492  26.088  1.00  0.00     0.029 A 
ATOM      8  C   UNL A   1      34.416  24.819  23.851  1.00  0.00     0.029 A 
ATOM      9  C   UNL A   1      34.383  23.413  26.265  1.00  0.00     0.018 A 
ATOM     10  C   UNL A   1      35.302  23.767  24.045  1.00  0.00     0.018 A 
BRANCH   6  11
ATOM     11  N   UNL A   1      32.379  25.946  24.518  1.00  0.00    -0.217 N 
ATOM     12  C   UNL A   1      31.173  27.649  23.895  1.00  0.00     0.132 A 
ATOM     13  N   UNL A   1      30.506  26.500  23.570  1.00  0.00    -0.128 NA
ATOM     14  C   UNL A   1      32.377  27.334  24.494  1.00  0.00     0.071 A 
ATOM     15  N   UNL A   1      31.283  25.471  23.886  1.00  0.00    -0.061 NA
ATOM     16  C   UNL A   1      33.538  28.198  24.821  1.00  0.00     0.069 C 
BRANCH  12  17
ATOM     17  C   UNL A   1      30.771  28.955  23.407  1.00  0.00     0.087 C 
ATOM     18  C   UNL A   1      30.592  30.012  24.466  1.00  0.00     0.071 C 
ATOM     19  N   UNL A   1      30.621  29.056  22.119  1.00  0.00    -0.174 NA
BRANCH  19  20
ATOM     20  N   UNL A   1      30.196  30.204  21.512  1.00  0.00    -0.229 N 
ATOM     21  C   UNL A   1      28.900  30.650  21.381  1.00  0.00     0.332 C 
ATOM     22  H   UNL A   1      30.896  30.777  21.123  1.00  0.00     0.195 HD
ATOM     23  N   UNL A   1      28.827  31.835  20.709  1.00  0.00    -0.350 N 
ATOM     24  O   UNL A   1      27.878  30.122  21.796  1.00  0.00    -0.247 OA
ATOM     25  H   UNL A   1      29.647  32.263  20.375  1.00  0.00     0.161 HD
ATOM     26  H   UNL A   1      27.952  32.262  20.559  1.00  0.00     0.161 HD
ENDBRANCH  19  20
ENDBRANCH  12  17
ENDBRANCH   6  11
ENDBRANCH   3   5
ENDBRANCH   2   3
ENDBRANCH   1   2
BRANCH   1  27
ATOM     27  C   UNL A   1      39.602  21.352  26.122  1.00  0.00     0.275 C 
BRANCH  27  28
ATOM     28  O   UNL A   1      39.606  22.566  26.875  1.00  0.00    -0.458 OA
BRANCH  28  29
ATOM     29  C   UNL A   1      40.820  23.157  26.981  1.00  0.00     0.338 C 
ATOM     30  O   UNL A   1      41.907  22.638  26.795  1.00  0.00    -0.246 OA
BRANCH  29  31
ATOM     31  C   UNL A   1      40.666  24.474  27.609  1.00  0.00     0.060 A 
ATOM     32  C   UNL A   1      39.776  25.377  27.023  1.00  0.00     0.016 A 
ATOM     33  C   UNL A   1      41.569  24.876  28.605  1.00  0.00     0.016 A 
ATOM     34  C   UNL A   1      39.872  26.714  27.361  1.00  0.00     0.010 A 
ATOM     35  C   UNL A   1      41.673  26.214  28.927  1.00  0.00     0.010 A 
ATOM     36  C   UNL A   1      40.857  27.131  28.270  1.00  0.00    -0.014 A 
BRANCH  36  37
ATOM     37  C   UNL A   1      40.829  28.514  28.731  1.00  0.00     0.031 A 
ATOM     38  C   UNL A   1      41.967  29.277  28.168  1.00  0.00     0.074 A 
ATOM     39  C   UNL A   1      39.835  29.072  29.451  1.00  0.00     0.049 A 
ATOM     40  N   UNL A   1      43.026  29.667  28.794  1.00  0.00    -0.248 NA
ATOM     41  C   UNL A   1      42.067  29.395  26.701  1.00  0.00     0.031 C 
ATOM     42  C   UNL A   1      38.567  28.452  29.840  1.00  0.00     0.029 A 
ATOM     43  N   UNL A   1      39.701  30.351  29.915  1.00  0.00    -0.354 N 
ATOM     44  C   UNL A   1      43.764  30.367  27.849  1.00  0.00     0.074 A 
ATOM     45  C   UNL A   1      43.284  29.923  26.572  1.00  0.00     0.031 C 
ATOM     46  C   UNL A   1      37.715  29.406  30.281  1.00  0.00     0.029 A 
ATOM     47  C   UNL A   1      38.406  30.686  30.321  1.00  0.00     0.049 A 
ATOM     48  H   UNL A   1      40.454  30.984  29.960  1.00  0.00     0.167 HD
ATOM     49  C   UNL A   1      44.409  31.508  28.212  1.00  0.00     0.034 A 
ATOM     50  C   UNL A   1      37.922  31.926  30.626  1.00  0.00     0.034 A 
ATOM     51  C   UNL A   1      44.610  31.535  29.652  1.00  0.00     0.049 A 
ATOM     52  C   UNL A   1      39.090  32.756  31.002  1.00  0.00     0.074 A 
ATOM     53  C   UNL A   1      45.204  30.694  30.575  1.00  0.00     0.029 A 
ATOM     54  N   UNL A   1      43.795  32.370  30.382  1.00  0.00    -0.354 N 
ATOM     55  N   UNL A   1      39.813  32.532  32.064  1.00  0.00    -0.248 NA
ATOM     56  C   UNL A   1      39.736  33.554  29.973  1.00  0.00     0.031 C 
ATOM     57  C   UNL A   1      44.392  30.783  31.747  1.00  0.00     0.029 A 
ATOM     58  C   UNL A   1      43.395  31.735  31.527  1.00  0.00     0.049 A 
ATOM     59  H   UNL A   1      43.538  33.284  30.120  1.00  0.00     0.167 HD
ATOM     60  C   UNL A   1      41.118  32.744  31.655  1.00  0.00     0.074 A 
ATOM     61  C   UNL A   1      40.998  33.502  30.410  1.00  0.00     0.031 C 
ATOM     62  C   UNL A   1      42.145  32.030  32.210  1.00  0.00     0.034 A 
BRANCH  49  63
ATOM     63  C   UNL A   1      44.362  32.787  27.382  1.00  0.00     0.023 A 
ATOM     64  C   UNL A   1      43.739  33.895  27.985  1.00  0.00     0.031 A 
ATOM     65  C   UNL A   1      44.562  32.895  25.984  1.00  0.00     0.131 A 
ATOM     66  C   UNL A   1      43.189  34.927  27.207  1.00  0.00     0.055 A 
ATOM     67  C   UNL A   1      44.066  33.956  25.221  1.00  0.00     0.041 A 
ATOM     68  F   UNL A   1      45.182  31.965  25.251  1.00  0.00    -0.206 F 
ATOM     69  C   UNL A   1      43.336  34.960  25.825  1.00  0.00     0.022 A 
BRANCH  66  70
ATOM     70  S   UNL A   1      42.101  36.115  28.025  1.00  0.00     0.124 S 
ATOM     71  O   UNL A   1      40.796  35.506  27.788  1.00  0.00    -0.237 OA
ATOM     72  O   UNL A   1      42.595  36.075  29.398  1.00  0.00    -0.237 OA
ATOM     73  O   UNL A   1      42.357  37.360  27.306  1.00  0.00    -0.744 OA
ENDBRANCH  66  70
ENDBRANCH  49  63
BRANCH  50  74
ATOM     74  C   UNL A   1      36.576  32.510  30.322  1.00  0.00     0.023 A 
ATOM     75  C   UNL A   1      35.778  33.173  31.289  1.00  0.00     0.031 A 
ATOM     76  C   UNL A   1      36.171  32.651  28.977  1.00  0.00     0.131 A 
ATOM     77  C   UNL A   1      34.649  33.936  30.889  1.00  0.00     0.055 A 
ATOM     78  C   UNL A   1      35.060  33.405  28.590  1.00  0.00     0.041 A 
ATOM     79  F   UNL A   1      36.895  32.134  27.972  1.00  0.00    -0.206 F 
ATOM     80  C   UNL A   1      34.301  34.061  29.543  1.00  0.00     0.022 A 
BRANCH  77  81
ATOM     81  S   UNL A   1      33.652  34.867  32.106  1.00  0.00     0.124 S 
ATOM     82  O   UNL A   1      33.362  33.853  33.114  1.00  0.00    -0.237 OA
ATOM     83  O   UNL A   1      34.554  35.941  32.503  1.00  0.00    -0.237 OA
ATOM     84  O   UNL A   1      32.489  35.306  31.332  1.00  0.00    -0.744 OA
ENDBRANCH  77  81
ENDBRANCH  50  74
BRANCH  62  85
ATOM     85  C   UNL A   1      41.911  31.376  33.560  1.00  0.00     0.023 A 
ATOM     86  C   UNL A   1      41.998  32.017  34.818  1.00  0.00     0.031 A 
ATOM     87  C   UNL A   1      41.530  30.022  33.549  1.00  0.00     0.131 A 
ATOM     88  C   UNL A   1      41.734  31.293  35.999  1.00  0.00     0.055 A 
ATOM     89  C   UNL A   1      41.243  29.317  34.715  1.00  0.00     0.041 A 
ATOM     90  F   UNL A   1      41.413  29.356  32.388  1.00  0.00    -0.206 F 
ATOM     91  C   UNL A   1      41.355  29.947  35.947  1.00  0.00     0.022 A 
BRANCH  88  92
ATOM     92  S   UNL A   1      41.924  32.068  37.638  1.00  0.00     0.124 S 
ATOM     93  O   UNL A   1      40.551  32.245  38.097  1.00  0.00    -0.237 OA
ATOM     94  O   UNL A   1      42.717  31.079  38.364  1.00  0.00    -0.237 OA
ATOM     95  O   UNL A   1      42.633  33.315  37.344  1.00  0.00    -0.744 OA
ENDBRANCH  88  92
ENDBRANCH  62  85
ENDBRANCH  36  37
ENDBRANCH  29  31
ENDBRANCH  28  29
ENDBRANCH  27  28
ENDBRANCH   1  27
TORSDOF 17
ENDMDL
MODEL 3
REMARK VINA RESULT:     -12.2      4.700      6.167
REMARK SMILES C/C(=N\NC(N)=O)c1nnn(-c2ccc(C(=O)OCCOC(=O)c3ccc(-c4c5nc(c(-c6cc(S(=O)(=O)[O-])ccc6F)c6ccc([nH]6)c(-c6cc(S(=O)(=O)[O-])ccc6F)c6nc(c(-c7cc(S(=O)(=O)[O-])ccc7F)c7ccc4[nH]7)C=C6)C=C5)cc3)cc2)c1C
REMARK SMILES IDX 19 1 18 2 16 3 17 4 15 5 12 6 13 7 88 8 14 9 87 10 11 11
REMARK SMILES IDX 8 12 9 13 89 14 10 15 90 16 2 17 1 18 3 19 4 20 5 21 6 23
REMARK SMILES IDX 7 24 20 27 21 28 22 29 23 30 24 31 25 32 86 33 26 34 85 35
REMARK SMILES IDX 27 36 28 37 29 38 79 39 30 40 84 41 78 42 80 43 31 44 83 45
REMARK SMILES IDX 77 46 76 47 32 49 64 50 44 51 63 52 45 53 48 54 62 55 81 56
REMARK SMILES IDX 46 57 47 58 61 60 82 61 49 62 33 63 34 64 42 65 35 66 41 67
REMARK SMILES IDX 43 68 40 69 36 70 37 71 38 72 39 73 65 74 66 75 74 76 67 77
REMARK SMILES IDX 73 78 75 79 72 80 68 81 69 82 70 83 71 84 50 85 51 86 59 87
REMARK SMILES IDX 52 88 58 89 60 90 57 91 53 92 54 93 55 94 56 95
REMARK H PARENT 4 22 6 25 6 26 80 48 48 59
REMARK Flexibility Score: inf
ROOT
ATOM      1  C   UNL A   1      31.395  31.699  26.557  1.00  0.00     0.275 C 
ENDROOT
BRANCH   1   2
ATOM      2  O   UNL A   1      32.252  30.837  25.798  1.00  0.00    -0.458 OA
BRANCH   2   3
ATOM      3  C   UNL A   1      32.859  29.845  26.495  1.00  0.00     0.338 C 
ATOM      4  O   UNL A   1      33.381  29.946  27.598  1.00  0.00    -0.246 OA
BRANCH   3   5
ATOM      5  C   UNL A   1      32.780  28.571  25.741  1.00  0.00     0.060 A 
ATOM      6  C   UNL A   1      32.802  26.050  24.582  1.00  0.00     0.067 A 
ATOM      7  C   UNL A   1      31.823  26.348  25.534  1.00  0.00     0.029 A 
ATOM      8  C   UNL A   1      33.670  27.039  24.107  1.00  0.00     0.029 A 
ATOM      9  C   UNL A   1      31.833  27.611  26.132  1.00  0.00     0.018 A 
ATOM     10  C   UNL A   1      33.654  28.303  24.683  1.00  0.00     0.018 A 
BRANCH   6  11
ATOM     11  N   UNL A   1      33.051  24.703  24.250  1.00  0.00    -0.217 N 
ATOM     12  C   UNL A   1      33.637  22.609  24.383  1.00  0.00     0.132 A 
ATOM     13  N   UNL A   1      32.640  22.725  23.453  1.00  0.00    -0.128 NA
ATOM     14  C   UNL A   1      33.919  23.851  24.918  1.00  0.00     0.071 A 
ATOM     15  N   UNL A   1      32.241  23.991  23.435  1.00  0.00    -0.061 NA
ATOM     16  C   UNL A   1      34.744  24.220  26.095  1.00  0.00     0.069 C 
BRANCH  12  17
ATOM     17  C   UNL A   1      34.088  21.328  24.895  1.00  0.00     0.087 C 
ATOM     18  C   UNL A   1      35.575  21.094  24.823  1.00  0.00     0.071 C 
ATOM     19  N   UNL A   1      33.159  20.546  25.357  1.00  0.00    -0.174 NA
BRANCH  19  20
ATOM     20  N   UNL A   1      33.418  19.288  25.825  1.00  0.00    -0.229 N 
ATOM     21  C   UNL A   1      32.786  18.117  25.470  1.00  0.00     0.332 C 
ATOM     22  H   UNL A   1      34.137  19.210  26.493  1.00  0.00     0.195 HD
ATOM     23  N   UNL A   1      33.286  17.037  26.138  1.00  0.00    -0.350 N 
ATOM     24  O   UNL A   1      31.886  17.967  24.657  1.00  0.00    -0.247 OA
ATOM     25  H   UNL A   1      34.011  17.155  26.792  1.00  0.00     0.161 HD
ATOM     26  H   UNL A   1      32.921  16.139  25.963  1.00  0.00     0.161 HD
ENDBRANCH  19  20
ENDBRANCH  12  17
ENDBRANCH   6  11
ENDBRANCH   3   5
ENDBRANCH   2   3
ENDBRANCH   1   2
BRANCH   1  27
ATOM     27  C   UNL A   1      32.083  33.023  26.852  1.00  0.00     0.275 C 
BRANCH  27  28
ATOM     28  O   UNL A   1      32.176  33.286  28.253  1.00  0.00    -0.458 OA
BRANCH  28  29
ATOM     29  C   UNL A   1      32.887  34.395  28.570  1.00  0.00     0.338 C 
ATOM     30  O   UNL A   1      32.557  35.555  28.389  1.00  0.00    -0.246 OA
BRANCH  29  31
ATOM     31  C   UNL A   1      34.252  34.006  28.943  1.00  0.00     0.060 A 
ATOM     32  C   UNL A   1      35.252  34.125  27.976  1.00  0.00     0.016 A 
ATOM     33  C   UNL A   1      34.471  33.312  30.143  1.00  0.00     0.016 A 
ATOM     34  C   UNL A   1      36.441  33.447  28.167  1.00  0.00     0.010 A 
ATOM     35  C   UNL A   1      35.653  32.623  30.323  1.00  0.00     0.010 A 
ATOM     36  C   UNL A   1      36.613  32.656  29.314  1.00  0.00    -0.014 A 
BRANCH  36  37
ATOM     37  C   UNL A   1      37.930  32.087  29.569  1.00  0.00     0.031 A 
ATOM     38  C   UNL A   1      37.959  30.650  29.213  1.00  0.00     0.074 A 
ATOM     39  C   UNL A   1      39.021  32.790  29.940  1.00  0.00     0.049 A 
ATOM     40  N   UNL A   1      37.975  29.648  30.027  1.00  0.00    -0.248 NA
ATOM     41  C   UNL A   1      37.677  30.274  27.815  1.00  0.00     0.031 C 
ATOM     42  C   UNL A   1      39.132  34.243  30.078  1.00  0.00     0.029 A 
ATOM     43  N   UNL A   1      40.295  32.362  30.186  1.00  0.00    -0.354 N 
ATOM     44  C   UNL A   1      38.037  28.525  29.212  1.00  0.00     0.074 A 
ATOM     45  C   UNL A   1      37.567  28.950  27.925  1.00  0.00     0.031 C 
ATOM     46  C   UNL A   1      40.438  34.587  30.165  1.00  0.00     0.029 A 
ATOM     47  C   UNL A   1      41.252  33.382  30.209  1.00  0.00     0.049 A 
ATOM     48  H   UNL A   1      40.522  31.416  30.334  1.00  0.00     0.167 HD
ATOM     49  C   UNL A   1      38.825  27.477  29.574  1.00  0.00     0.034 A 
ATOM     50  C   UNL A   1      42.611  33.251  30.220  1.00  0.00     0.034 A 
ATOM     51  C   UNL A   1      39.094  27.520  31.002  1.00  0.00     0.049 A 
ATOM     52  C   UNL A   1      42.901  31.904  30.764  1.00  0.00     0.074 A 
ATOM     53  C   UNL A   1      38.317  27.559  32.145  1.00  0.00     0.029 A 
ATOM     54  N   UNL A   1      40.347  27.936  31.390  1.00  0.00    -0.354 N 
ATOM     55  N   UNL A   1      42.635  31.557  31.992  1.00  0.00    -0.248 NA
ATOM     56  C   UNL A   1      43.069  30.800  29.833  1.00  0.00     0.031 C 
ATOM     57  C   UNL A   1      39.024  28.401  33.056  1.00  0.00     0.029 A 
ATOM     58  C   UNL A   1      40.238  28.768  32.473  1.00  0.00     0.049 A 
ATOM     59  H   UNL A   1      41.192  27.676  30.957  1.00  0.00     0.167 HD
ATOM     60  C   UNL A   1      42.148  30.265  31.897  1.00  0.00     0.074 A 
ATOM     61  C   UNL A   1      42.569  29.807  30.574  1.00  0.00     0.031 C 
ATOM     62  C   UNL A   1      41.204  29.811  32.778  1.00  0.00     0.034 A 
BRANCH  49  63
ATOM     63  C   UNL A   1      39.762  26.770  28.598  1.00  0.00     0.023 A 
ATOM     64  C   UNL A   1      40.825  27.540  28.092  1.00  0.00     0.031 A 
ATOM     65  C   UNL A   1      39.501  25.568  27.897  1.00  0.00     0.131 A 
ATOM     66  C   UNL A   1      41.434  27.216  26.868  1.00  0.00     0.055 A 
ATOM     67  C   UNL A   1      40.153  25.219  26.711  1.00  0.00     0.041 A 
ATOM     68  F   UNL A   1      38.564  24.687  28.262  1.00  0.00    -0.206 F 
ATOM     69  C   UNL A   1      41.096  26.067  26.165  1.00  0.00     0.022 A 
BRANCH  66  70
ATOM     70  S   UNL A   1      42.528  28.443  26.117  1.00  0.00     0.124 S 
ATOM     71  O   UNL A   1      41.967  29.680  26.652  1.00  0.00    -0.237 OA
ATOM     72  O   UNL A   1      43.830  28.042  26.642  1.00  0.00    -0.237 OA
ATOM     73  O   UNL A   1      42.340  28.231  24.685  1.00  0.00    -0.744 OA
ENDBRANCH  66  70
ENDBRANCH  49  63
BRANCH  50  74
ATOM     74  C   UNL A   1      43.640  34.082  29.517  1.00  0.00     0.023 A 
ATOM     75  C   UNL A   1      44.208  33.727  28.267  1.00  0.00     0.031 A 
ATOM     76  C   UNL A   1      43.886  35.400  29.961  1.00  0.00     0.131 A 
ATOM     77  C   UNL A   1      44.967  34.672  27.527  1.00  0.00     0.055 A 
ATOM     78  C   UNL A   1      44.631  36.325  29.227  1.00  0.00     0.041 A 
ATOM     79  F   UNL A   1      43.332  35.871  31.090  1.00  0.00    -0.206 F 
ATOM     80  C   UNL A   1      45.164  35.970  28.000  1.00  0.00     0.022 A 
BRANCH  77  81
ATOM     81  S   UNL A   1      45.641  34.266  25.877  1.00  0.00     0.124 S 
ATOM     82  O   UNL A   1      44.518  33.592  25.237  1.00  0.00    -0.237 OA
ATOM     83  O   UNL A   1      46.003  35.575  25.349  1.00  0.00    -0.237 OA
ATOM     84  O   UNL A   1      46.781  33.397  26.178  1.00  0.00    -0.744 OA
ENDBRANCH  77  81
ENDBRANCH  50  74
BRANCH  62  85
ATOM     85  C   UNL A   1      41.054  30.542  34.101  1.00  0.00     0.023 A 
ATOM     86  C   UNL A   1      40.004  31.424  34.448  1.00  0.00     0.031 A 
ATOM     87  C   UNL A   1      42.028  30.277  35.082  1.00  0.00     0.131 A 
ATOM     88  C   UNL A   1      39.977  32.022  35.725  1.00  0.00     0.055 A 
ATOM     89  C   UNL A   1      41.983  30.848  36.351  1.00  0.00     0.041 A 
ATOM     90  F   UNL A   1      43.044  29.437  34.826  1.00  0.00    -0.206 F 
ATOM     91  C   UNL A   1      40.962  31.732  36.675  1.00  0.00     0.022 A 
BRANCH  88  92
ATOM     92  S   UNL A   1      38.686  33.229  36.168  1.00  0.00     0.124 S 
ATOM     93  O   UNL A   1      39.378  34.172  37.039  1.00  0.00    -0.237 OA
ATOM     94  O   UNL A   1      38.278  33.747  34.863  1.00  0.00    -0.237 OA
ATOM     95  O   UNL A   1      37.672  32.413  36.838  1.00  0.00    -0.744 OA
ENDBRANCH  88  92
ENDBRANCH  62  85
ENDBRANCH  36  37
ENDBRANCH  29  31
ENDBRANCH  28  29
ENDBRANCH  27  28
ENDBRANCH   1  27
TORSDOF 17
ENDMDL
