MODEL 1
REMARK VINA RESULT:     -11.7      0.000      0.000
REMARK SMILES C[C@H]1Cc2ccccc2N1/C=C\C(=O)OCCOC(=O)c1ccc(-c2c3nc(c(-c4cc(S(=O)(=O)[O-])ccc4F)c4ccc([nH]4)c(-c4cc(S(=O)(=O)[O-])ccc4F)c4nc(c(-c5cc(S(=O)(=O)[O-])ccc5F)c5ccc2[nH]5)C=C4)C=C3)cc1
REMARK SMILES IDX 17 1 16 2 15 3 13 4 14 5 12 6 11 7 10 8 1 9 2 10 3 11 4 12
REMARK SMILES IDX 9 13 5 14 8 15 6 16 7 17 18 18 19 19 20 20 21 21 22 22 83 23
REMARK SMILES IDX 23 24 82 25 24 26 25 27 26 28 76 29 27 30 81 31 75 32 77 33
REMARK SMILES IDX 28 34 80 35 74 36 73 37 29 39 61 40 41 41 60 42 42 43 45 44
REMARK SMILES IDX 59 45 78 46 43 47 44 48 58 50 79 51 46 52 30 53 31 54 39 55
REMARK SMILES IDX 32 56 38 57 40 58 37 59 33 60 34 61 35 62 36 63 62 64 63 65
REMARK SMILES IDX 71 66 64 67 70 68 72 69 69 70 65 71 66 72 67 73 68 74 47 75
REMARK SMILES IDX 48 76 56 77 49 78 55 79 57 80 54 81 50 82 51 83 52 84 53 85
REMARK H PARENT 77 38 45 49
REMARK Flexibility Score: inf
ROOT
ATOM      1  C   UNL A   1      37.336  20.663  24.965  1.00  0.00     0.275 C 
ENDROOT
BRANCH   1   2
ATOM      2  C   UNL A   1      35.848  20.989  24.842  1.00  0.00     0.275 C 
BRANCH   2   3
ATOM      3  O   UNL A   1      35.333  21.392  26.123  1.00  0.00    -0.459 OA
BRANCH   3   4
ATOM      4  C   UNL A   1      34.761  22.608  26.224  1.00  0.00     0.332 C 
ATOM      5  O   UNL A   1      35.304  23.683  26.021  1.00  0.00    -0.247 OA
BRANCH   4   6
ATOM      6  C   UNL A   1      33.320  22.495  26.507  1.00  0.00     0.111 C 
ATOM      7  C   UNL A   1      32.328  21.987  25.761  1.00  0.00     0.094 C 
BRANCH   7   8
ATOM      8  N   UNL A   1      32.259  21.355  24.535  1.00  0.00    -0.344 N 
ATOM      9  C   UNL A   1      33.273  22.890  22.864  1.00  0.00     0.032 C 
ATOM     10  C   UNL A   1      32.088  21.972  23.199  1.00  0.00     0.088 C 
ATOM     11  C   UNL A   1      31.914  20.842  22.160  1.00  0.00     0.062 C 
ATOM     12  C   UNL A   1      32.303  19.640  22.942  1.00  0.00    -0.022 A 
ATOM     13  C   UNL A   1      32.453  19.970  24.291  1.00  0.00     0.044 A 
ATOM     14  C   UNL A   1      32.450  18.344  22.470  1.00  0.00     0.006 A 
ATOM     15  C   UNL A   1      32.753  18.966  25.200  1.00  0.00     0.026 A 
ATOM     16  C   UNL A   1      32.765  17.343  23.385  1.00  0.00     0.000 A 
ATOM     17  C   UNL A   1      32.912  17.652  24.743  1.00  0.00     0.002 A 
ENDBRANCH   7   8
ENDBRANCH   4   6
ENDBRANCH   3   4
ENDBRANCH   2   3
ENDBRANCH   1   2
BRANCH   1  18
ATOM     18  O   UNL A   1      37.914  21.452  26.014  1.00  0.00    -0.458 OA
BRANCH  18  19
ATOM     19  C   UNL A   1      39.236  21.240  26.232  1.00  0.00     0.338 C 
ATOM     20  O   UNL A   1      39.886  20.260  25.922  1.00  0.00    -0.246 OA
BRANCH  19  21
ATOM     21  C   UNL A   1      39.818  22.505  26.718  1.00  0.00     0.060 A 
ATOM     22  C   UNL A   1      40.801  22.517  27.710  1.00  0.00     0.016 A 
ATOM     23  C   UNL A   1      39.329  23.702  26.182  1.00  0.00     0.016 A 
ATOM     24  C   UNL A   1      41.286  23.737  28.174  1.00  0.00     0.010 A 
ATOM     25  C   UNL A   1      39.812  24.921  26.650  1.00  0.00     0.010 A 
ATOM     26  C   UNL A   1      40.798  24.944  27.643  1.00  0.00    -0.014 A 
BRANCH  26  27
ATOM     27  C   UNL A   1      41.437  26.221  28.024  1.00  0.00     0.031 A 
ATOM     28  C   UNL A   1      42.846  26.538  27.638  1.00  0.00     0.074 A 
ATOM     29  C   UNL A   1      40.705  27.086  28.749  1.00  0.00     0.049 A 
ATOM     30  N   UNL A   1      43.500  27.659  27.790  1.00  0.00    -0.248 NA
ATOM     31  C   UNL A   1      43.629  25.460  27.014  1.00  0.00     0.031 C 
ATOM     32  C   UNL A   1      39.345  26.823  29.224  1.00  0.00     0.029 A 
ATOM     33  N   UNL A   1      40.983  28.348  29.204  1.00  0.00    -0.354 N 
ATOM     34  C   UNL A   1      44.765  27.436  27.260  1.00  0.00     0.074 A 
ATOM     35  C   UNL A   1      44.805  26.053  26.838  1.00  0.00     0.031 C 
ATOM     36  C   UNL A   1      38.895  27.903  29.877  1.00  0.00     0.029 A 
ATOM     37  C   UNL A   1      39.937  28.926  29.886  1.00  0.00     0.049 A 
ATOM     38  H   UNL A   1      41.846  28.796  29.059  1.00  0.00     0.167 HD
ATOM     39  C   UNL A   1      45.780  28.323  27.124  1.00  0.00     0.034 A 
ATOM     40  C   UNL A   1      39.824  30.149  30.441  1.00  0.00     0.034 A 
ATOM     41  C   UNL A   1      45.704  29.691  27.576  1.00  0.00     0.049 A 
ATOM     42  C   UNL A   1      40.964  31.117  30.270  1.00  0.00     0.074 A 
ATOM     43  C   UNL A   1      46.651  30.691  27.438  1.00  0.00     0.029 A 
ATOM     44  N   UNL A   1      44.632  30.251  28.260  1.00  0.00    -0.354 N 
ATOM     45  N   UNL A   1      42.108  30.939  29.649  1.00  0.00    -0.248 NA
ATOM     46  C   UNL A   1      40.799  32.456  30.850  1.00  0.00     0.031 C 
ATOM     47  C   UNL A   1      46.185  31.827  28.101  1.00  0.00     0.029 A 
ATOM     48  C   UNL A   1      44.910  31.571  28.581  1.00  0.00     0.049 A 
ATOM     49  H   UNL A   1      43.797  29.780  28.484  1.00  0.00     0.167 HD
ATOM     50  C   UNL A   1      42.790  32.148  29.744  1.00  0.00     0.074 A 
ATOM     51  C   UNL A   1      41.916  33.058  30.458  1.00  0.00     0.031 C 
ATOM     52  C   UNL A   1      44.026  32.471  29.287  1.00  0.00     0.034 A 
BRANCH  39  53
ATOM     53  C   UNL A   1      47.049  27.879  26.435  1.00  0.00     0.023 A 
ATOM     54  C   UNL A   1      47.207  28.057  25.046  1.00  0.00     0.031 A 
ATOM     55  C   UNL A   1      48.033  27.147  27.124  1.00  0.00     0.131 A 
ATOM     56  C   UNL A   1      48.299  27.478  24.388  1.00  0.00     0.055 A 
ATOM     57  C   UNL A   1      49.144  26.610  26.471  1.00  0.00     0.041 A 
ATOM     58  F   UNL A   1      47.928  26.938  28.446  1.00  0.00    -0.206 F 
ATOM     59  C   UNL A   1      49.273  26.762  25.094  1.00  0.00     0.022 A 
BRANCH  56  60
ATOM     60  S   UNL A   1      48.465  27.563  22.584  1.00  0.00     0.124 S 
ATOM     61  O   UNL A   1      47.242  28.266  22.202  1.00  0.00    -0.237 OA
ATOM     62  O   UNL A   1      49.699  28.328  22.426  1.00  0.00    -0.237 OA
ATOM     63  O   UNL A   1      48.532  26.165  22.170  1.00  0.00    -0.744 OA
ENDBRANCH  56  60
ENDBRANCH  39  53
BRANCH  40  64
ATOM     64  C   UNL A   1      38.541  30.521  31.103  1.00  0.00     0.023 A 
ATOM     65  C   UNL A   1      37.506  31.140  30.376  1.00  0.00     0.031 A 
ATOM     66  C   UNL A   1      38.389  30.399  32.494  1.00  0.00     0.131 A 
ATOM     67  C   UNL A   1      36.405  31.680  31.054  1.00  0.00     0.055 A 
ATOM     68  C   UNL A   1      37.255  30.872  33.156  1.00  0.00     0.041 A 
ATOM     69  F   UNL A   1      39.358  29.837  33.232  1.00  0.00    -0.206 F 
ATOM     70  C   UNL A   1      36.265  31.535  32.437  1.00  0.00     0.022 A 
BRANCH  67  71
ATOM     71  S   UNL A   1      35.196  32.719  30.185  1.00  0.00     0.124 S 
ATOM     72  O   UNL A   1      36.012  33.859  29.780  1.00  0.00    -0.237 OA
ATOM     73  O   UNL A   1      34.765  31.835  29.105  1.00  0.00    -0.237 OA
ATOM     74  O   UNL A   1      34.185  32.994  31.201  1.00  0.00    -0.744 OA
ENDBRANCH  67  71
ENDBRANCH  40  64
BRANCH  52  75
ATOM     75  C   UNL A   1      44.544  33.868  29.540  1.00  0.00     0.023 A 
ATOM     76  C   UNL A   1      44.351  34.874  28.573  1.00  0.00     0.031 A 
ATOM     77  C   UNL A   1      45.364  34.157  30.644  1.00  0.00     0.131 A 
ATOM     78  C   UNL A   1      45.010  36.102  28.704  1.00  0.00     0.055 A 
ATOM     79  C   UNL A   1      45.974  35.402  30.799  1.00  0.00     0.041 A 
ATOM     80  F   UNL A   1      45.589  33.227  31.587  1.00  0.00    -0.206 F 
ATOM     81  C   UNL A   1      45.813  36.376  29.817  1.00  0.00     0.022 A 
BRANCH  78  82
ATOM     82  S   UNL A   1      44.934  37.352  27.390  1.00  0.00     0.124 S 
ATOM     83  O   UNL A   1      45.220  38.581  28.126  1.00  0.00    -0.237 OA
ATOM     84  O   UNL A   1      45.990  36.909  26.484  1.00  0.00    -0.237 OA
ATOM     85  O   UNL A   1      43.574  37.238  26.873  1.00  0.00    -0.744 OA
ENDBRANCH  78  82
ENDBRANCH  52  75
ENDBRANCH  26  27
ENDBRANCH  19  21
ENDBRANCH  18  19
ENDBRANCH   1  18
TORSDOF 15
ENDMDL
MODEL 2
REMARK VINA RESULT:     -11.5      5.694     10.709
REMARK SMILES C[C@H]1Cc2ccccc2N1/C=C\C(=O)OCCOC(=O)c1ccc(-c2c3nc(c(-c4cc(S(=O)(=O)[O-])ccc4F)c4ccc([nH]4)c(-c4cc(S(=O)(=O)[O-])ccc4F)c4nc(c(-c5cc(S(=O)(=O)[O-])ccc5F)c5ccc2[nH]5)C=C4)C=C3)cc1
REMARK SMILES IDX 17 1 16 2 15 3 13 4 14 5 12 6 11 7 10 8 1 9 2 10 3 11 4 12
REMARK SMILES IDX 9 13 5 14 8 15 6 16 7 17 18 18 19 19 20 20 21 21 22 22 83 23
REMARK SMILES IDX 23 24 82 25 24 26 25 27 26 28 76 29 27 30 81 31 75 32 77 33
REMARK SMILES IDX 28 34 80 35 74 36 73 37 29 39 61 40 41 41 60 42 42 43 45 44
REMARK SMILES IDX 59 45 78 46 43 47 44 48 58 50 79 51 46 52 30 53 31 54 39 55
REMARK SMILES IDX 32 56 38 57 40 58 37 59 33 60 34 61 35 62 36 63 62 64 63 65
REMARK SMILES IDX 71 66 64 67 70 68 72 69 69 70 65 71 66 72 67 73 68 74 47 75
REMARK SMILES IDX 48 76 56 77 49 78 55 79 57 80 54 81 50 82 51 83 52 84 53 85
REMARK H PARENT 77 38 45 49
REMARK Flexibility Score: inf
ROOT
ATOM      1  C   UNL A   1      32.112  31.031  26.506  1.00  0.00     0.275 C 
ENDROOT
BRANCH   1   2
ATOM      2  C   UNL A   1      31.647  29.816  25.704  1.00  0.00     0.275 C 
BRANCH   2   3
ATOM      3  O   UNL A   1      32.627  29.492  24.703  1.00  0.00    -0.459 OA
BRANCH   3   4
ATOM      4  C   UNL A   1      33.262  28.306  24.795  1.00  0.00     0.332 C 
ATOM      5  O   UNL A   1      33.815  27.856  25.786  1.00  0.00    -0.247 OA
BRANCH   4   6
ATOM      6  C   UNL A   1      33.114  27.528  23.553  1.00  0.00     0.111 C 
ATOM      7  C   UNL A   1      32.012  27.049  22.958  1.00  0.00     0.094 C 
BRANCH   7   8
ATOM      8  N   UNL A   1      30.658  27.130  23.210  1.00  0.00    -0.344 N 
ATOM      9  C   UNL A   1      30.274  26.153  25.463  1.00  0.00     0.032 C 
ATOM     10  C   UNL A   1      29.819  26.196  23.997  1.00  0.00     0.088 C 
ATOM     11  C   UNL A   1      28.343  26.632  23.857  1.00  0.00     0.062 C 
ATOM     12  C   UNL A   1      28.474  27.976  23.238  1.00  0.00    -0.022 A 
ATOM     13  C   UNL A   1      29.798  28.202  22.853  1.00  0.00     0.044 A 
ATOM     14  C   UNL A   1      27.460  28.890  22.995  1.00  0.00     0.006 A 
ATOM     15  C   UNL A   1      30.116  29.381  22.194  1.00  0.00     0.026 A 
ATOM     16  C   UNL A   1      27.787  30.078  22.346  1.00  0.00     0.000 A 
ATOM     17  C   UNL A   1      29.107  30.320  21.945  1.00  0.00     0.002 A 
ENDBRANCH   7   8
ENDBRANCH   4   6
ENDBRANCH   3   4
ENDBRANCH   2   3
ENDBRANCH   1   2
BRANCH   1  18
ATOM     18  O   UNL A   1      33.433  30.794  27.010  1.00  0.00    -0.458 OA
BRANCH  18  19
ATOM     19  C   UNL A   1      34.002  31.845  27.652  1.00  0.00     0.338 C 
ATOM     20  O   UNL A   1      33.492  32.921  27.898  1.00  0.00    -0.246 OA
BRANCH  19  21
ATOM     21  C   UNL A   1      35.290  31.388  28.209  1.00  0.00     0.060 A 
ATOM     22  C   UNL A   1      36.381  32.252  28.313  1.00  0.00     0.016 A 
ATOM     23  C   UNL A   1      35.398  30.048  28.596  1.00  0.00     0.016 A 
ATOM     24  C   UNL A   1      37.593  31.764  28.799  1.00  0.00     0.010 A 
ATOM     25  C   UNL A   1      36.611  29.560  29.076  1.00  0.00     0.010 A 
ATOM     26  C   UNL A   1      37.711  30.418  29.186  1.00  0.00    -0.014 A 
BRANCH  26  27
ATOM     27  C   UNL A   1      38.948  29.955  29.852  1.00  0.00     0.031 A 
ATOM     28  C   UNL A   1      39.348  30.462  31.200  1.00  0.00     0.074 A 
ATOM     29  C   UNL A   1      39.712  29.070  29.188  1.00  0.00     0.049 A 
ATOM     30  N   UNL A   1      40.332  30.062  31.961  1.00  0.00    -0.248 NA
ATOM     31  C   UNL A   1      38.556  31.566  31.764  1.00  0.00     0.031 C 
ATOM     32  C   UNL A   1      39.426  28.577  27.839  1.00  0.00     0.029 A 
ATOM     33  N   UNL A   1      40.865  28.422  29.546  1.00  0.00    -0.354 N 
ATOM     34  C   UNL A   1      40.268  30.844  33.108  1.00  0.00     0.074 A 
ATOM     35  C   UNL A   1      39.185  31.784  32.914  1.00  0.00     0.031 C 
ATOM     36  C   UNL A   1      40.360  27.680  27.495  1.00  0.00     0.029 A 
ATOM     37  C   UNL A   1      41.321  27.549  28.586  1.00  0.00     0.049 A 
ATOM     38  H   UNL A   1      41.322  28.567  30.405  1.00  0.00     0.167 HD
ATOM     39  C   UNL A   1      41.035  30.756  34.221  1.00  0.00     0.034 A 
ATOM     40  C   UNL A   1      42.386  26.721  28.591  1.00  0.00     0.034 A 
ATOM     41  C   UNL A   1      42.118  29.815  34.365  1.00  0.00     0.049 A 
ATOM     42  C   UNL A   1      43.218  26.639  29.842  1.00  0.00     0.074 A 
ATOM     43  C   UNL A   1      42.924  29.601  35.470  1.00  0.00     0.029 A 
ATOM     44  N   UNL A   1      42.557  28.940  33.379  1.00  0.00    -0.354 N 
ATOM     45  N   UNL A   1      43.069  27.289  30.974  1.00  0.00    -0.248 NA
ATOM     46  C   UNL A   1      44.348  25.701  29.836  1.00  0.00     0.031 C 
ATOM     47  C   UNL A   1      43.891  28.656  35.129  1.00  0.00     0.029 A 
ATOM     48  C   UNL A   1      43.643  28.211  33.839  1.00  0.00     0.049 A 
ATOM     49  H   UNL A   1      42.156  28.851  32.485  1.00  0.00     0.167 HD
ATOM     50  C   UNL A   1      44.070  26.824  31.820  1.00  0.00     0.074 A 
ATOM     51  C   UNL A   1      44.800  25.816  31.079  1.00  0.00     0.031 C 
ATOM     52  C   UNL A   1      44.359  27.202  33.091  1.00  0.00     0.034 A 
BRANCH  39  53
ATOM     53  C   UNL A   1      40.729  31.662  35.390  1.00  0.00     0.023 A 
ATOM     54  C   UNL A   1      39.561  31.471  36.155  1.00  0.00     0.031 A 
ATOM     55  C   UNL A   1      41.512  32.802  35.653  1.00  0.00     0.131 A 
ATOM     56  C   UNL A   1      39.192  32.423  37.115  1.00  0.00     0.055 A 
ATOM     57  C   UNL A   1      41.163  33.724  36.641  1.00  0.00     0.041 A 
ATOM     58  F   UNL A   1      42.629  33.039  34.947  1.00  0.00    -0.206 F 
ATOM     59  C   UNL A   1      39.990  33.544  37.367  1.00  0.00     0.022 A 
BRANCH  56  60
ATOM     60  S   UNL A   1      37.625  32.288  38.021  1.00  0.00     0.124 S 
ATOM     61  O   UNL A   1      37.348  30.856  37.930  1.00  0.00    -0.237 OA
ATOM     62  O   UNL A   1      37.999  32.767  39.349  1.00  0.00    -0.237 OA
ATOM     63  O   UNL A   1      36.711  33.145  37.274  1.00  0.00    -0.744 OA
ENDBRANCH  56  60
ENDBRANCH  39  53
BRANCH  40  64
ATOM     64  C   UNL A   1      42.626  25.853  27.403  1.00  0.00     0.023 A 
ATOM     65  C   UNL A   1      42.080  24.557  27.333  1.00  0.00     0.031 A 
ATOM     66  C   UNL A   1      43.519  26.249  26.394  1.00  0.00     0.131 A 
ATOM     67  C   UNL A   1      42.494  23.680  26.321  1.00  0.00     0.055 A 
ATOM     68  C   UNL A   1      43.871  25.396  25.346  1.00  0.00     0.041 A 
ATOM     69  F   UNL A   1      44.083  27.465  26.429  1.00  0.00    -0.206 F 
ATOM     70  C   UNL A   1      43.373  24.097  25.318  1.00  0.00     0.022 A 
BRANCH  67  71
ATOM     71  S   UNL A   1      42.025  21.927  26.361  1.00  0.00     0.124 S 
ATOM     72  O   UNL A   1      42.818  21.376  25.267  1.00  0.00    -0.237 OA
ATOM     73  O   UNL A   1      42.446  21.536  27.704  1.00  0.00    -0.237 OA
ATOM     74  O   UNL A   1      40.582  21.951  26.146  1.00  0.00    -0.744 OA
ENDBRANCH  67  71
ENDBRANCH  40  64
BRANCH  52  75
ATOM     75  C   UNL A   1      45.525  26.542  33.791  1.00  0.00     0.023 A 
ATOM     76  C   UNL A   1      45.301  25.444  34.645  1.00  0.00     0.031 A 
ATOM     77  C   UNL A   1      46.816  27.095  33.744  1.00  0.00     0.131 A 
ATOM     78  C   UNL A   1      46.339  24.970  35.456  1.00  0.00     0.055 A 
ATOM     79  C   UNL A   1      47.861  26.583  34.513  1.00  0.00     0.041 A 
ATOM     80  F   UNL A   1      47.077  28.149  32.954  1.00  0.00    -0.206 F 
ATOM     81  C   UNL A   1      47.621  25.526  35.387  1.00  0.00     0.022 A 
BRANCH  78  82
ATOM     82  S   UNL A   1      46.042  23.683  36.701  1.00  0.00     0.124 S 
ATOM     83  O   UNL A   1      45.023  24.307  37.542  1.00  0.00    -0.237 OA
ATOM     84  O   UNL A   1      45.578  22.566  35.884  1.00  0.00    -0.237 OA
ATOM     85  O   UNL A   1      47.344  23.500  37.335  1.00  0.00    -0.744 OA
ENDBRANCH  78  82
ENDBRANCH  52  75
ENDBRANCH  26  27
ENDBRANCH  19  21
ENDBRANCH  18  19
ENDBRANCH   1  18
TORSDOF 15
ENDMDL
MODEL 3
REMARK VINA RESULT:     -11.5      5.710     10.762
REMARK SMILES C[C@H]1Cc2ccccc2N1/C=C\C(=O)OCCOC(=O)c1ccc(-c2c3nc(c(-c4cc(S(=O)(=O)[O-])ccc4F)c4ccc([nH]4)c(-c4cc(S(=O)(=O)[O-])ccc4F)c4nc(c(-c5cc(S(=O)(=O)[O-])ccc5F)c5ccc2[nH]5)C=C4)C=C3)cc1
REMARK SMILES IDX 17 1 16 2 15 3 13 4 14 5 12 6 11 7 10 8 1 9 2 10 3 11 4 12
REMARK SMILES IDX 9 13 5 14 8 15 6 16 7 17 18 18 19 19 20 20 21 21 22 22 83 23
REMARK SMILES IDX 23 24 82 25 24 26 25 27 26 28 76 29 27 30 81 31 75 32 77 33
REMARK SMILES IDX 28 34 80 35 74 36 73 37 29 39 61 40 41 41 60 42 42 43 45 44
REMARK SMILES IDX 59 45 78 46 43 47 44 48 58 50 79 51 46 52 30 53 31 54 39 55
REMARK SMILES IDX 32 56 38 57 40 58 37 59 33 60 34 61 35 62 36 63 62 64 63 65
REMARK SMILES IDX 71 66 64 67 70 68 72 69 69 70 65 71 66 72 67 73 68 74 47 75
REMARK SMILES IDX 48 76 56 77 49 78 55 79 57 80 54 81 50 82 51 83 52 84 53 85
REMARK H PARENT 77 38 45 49
REMARK Flexibility Score: inf
ROOT
ATOM      1  C   UNL A   1      31.586  30.910  26.492  1.00  0.00     0.275 C 
ENDROOT
BRANCH   1   2
ATOM      2  C   UNL A   1      31.467  29.657  25.625  1.00  0.00     0.275 C 
BRANCH   2   3
ATOM      3  O   UNL A   1      32.629  29.537  24.786  1.00  0.00    -0.459 OA
BRANCH   3   4
ATOM      4  C   UNL A   1      33.267  28.350  24.749  1.00  0.00     0.332 C 
ATOM      5  O   UNL A   1      33.846  27.811  25.679  1.00  0.00    -0.247 OA
BRANCH   4   6
ATOM      6  C   UNL A   1      33.089  27.691  23.444  1.00  0.00     0.111 C 
ATOM      7  C   UNL A   1      31.975  27.251  22.841  1.00  0.00     0.094 C 
BRANCH   7   8
ATOM      8  N   UNL A   1      30.629  27.283  23.144  1.00  0.00    -0.344 N 
ATOM      9  C   UNL A   1      30.352  26.192  25.360  1.00  0.00     0.032 C 
ATOM     10  C   UNL A   1      29.843  26.291  23.914  1.00  0.00     0.088 C 
ATOM     11  C   UNL A   1      28.352  26.693  23.847  1.00  0.00     0.062 C 
ATOM     12  C   UNL A   1      28.427  28.067  23.289  1.00  0.00    -0.022 A 
ATOM     13  C   UNL A   1      29.729  28.347  22.869  1.00  0.00     0.044 A 
ATOM     14  C   UNL A   1      27.382  28.964  23.125  1.00  0.00     0.006 A 
ATOM     15  C   UNL A   1      29.993  29.564  22.258  1.00  0.00     0.026 A 
ATOM     16  C   UNL A   1      27.654  30.190  22.524  1.00  0.00     0.000 A 
ATOM     17  C   UNL A   1      28.952  30.487  22.089  1.00  0.00     0.002 A 
ENDBRANCH   7   8
ENDBRANCH   4   6
ENDBRANCH   3   4
ENDBRANCH   2   3
ENDBRANCH   1   2
BRANCH   1  18
ATOM     18  O   UNL A   1      32.891  31.481  26.332  1.00  0.00    -0.458 OA
BRANCH  18  19
ATOM     19  C   UNL A   1      33.225  32.422  27.251  1.00  0.00     0.338 C 
ATOM     20  O   UNL A   1      32.546  33.358  27.625  1.00  0.00    -0.246 OA
BRANCH  19  21
ATOM     21  C   UNL A   1      34.480  31.993  27.896  1.00  0.00     0.060 A 
ATOM     22  C   UNL A   1      35.552  32.874  28.053  1.00  0.00     0.016 A 
ATOM     23  C   UNL A   1      34.582  30.662  28.314  1.00  0.00     0.016 A 
ATOM     24  C   UNL A   1      36.736  32.412  28.623  1.00  0.00     0.010 A 
ATOM     25  C   UNL A   1      35.767  30.200  28.880  1.00  0.00     0.010 A 
ATOM     26  C   UNL A   1      36.848  31.075  29.043  1.00  0.00    -0.014 A 
BRANCH  26  27
ATOM     27  C   UNL A   1      38.045  30.643  29.793  1.00  0.00     0.031 A 
ATOM     28  C   UNL A   1      38.297  31.097  31.196  1.00  0.00     0.074 A 
ATOM     29  C   UNL A   1      38.914  29.835  29.160  1.00  0.00     0.049 A 
ATOM     30  N   UNL A   1      39.231  30.708  32.022  1.00  0.00    -0.248 NA
ATOM     31  C   UNL A   1      37.398  32.127  31.739  1.00  0.00     0.031 C 
ATOM     32  C   UNL A   1      38.775  29.401  27.768  1.00  0.00     0.029 A 
ATOM     33  N   UNL A   1      40.065  29.230  29.587  1.00  0.00    -0.354 N 
ATOM     34  C   UNL A   1      39.024  31.424  33.195  1.00  0.00     0.074 A 
ATOM     35  C   UNL A   1      37.911  32.316  32.950  1.00  0.00     0.031 C 
ATOM     36  C   UNL A   1      39.784  28.573  27.466  1.00  0.00     0.029 A 
ATOM     37  C   UNL A   1      40.653  28.434  28.631  1.00  0.00     0.049 A 
ATOM     38  H   UNL A   1      40.437  29.352  30.490  1.00  0.00     0.167 HD
ATOM     39  C   UNL A   1      39.694  31.317  34.367  1.00  0.00     0.034 A 
ATOM     40  C   UNL A   1      41.757  27.664  28.692  1.00  0.00     0.034 A 
ATOM     41  C   UNL A   1      40.812  30.426  34.563  1.00  0.00     0.049 A 
ATOM     42  C   UNL A   1      42.481  27.558  30.008  1.00  0.00     0.074 A 
ATOM     43  C   UNL A   1      41.529  30.196  35.724  1.00  0.00     0.029 A 
ATOM     44  N   UNL A   1      41.384  29.629  33.578  1.00  0.00    -0.354 N 
ATOM     45  N   UNL A   1      42.197  28.138  31.152  1.00  0.00    -0.248 NA
ATOM     46  C   UNL A   1      43.658  26.681  30.057  1.00  0.00     0.031 C 
ATOM     47  C   UNL A   1      42.575  29.322  35.426  1.00  0.00     0.029 A 
ATOM     48  C   UNL A   1      42.465  28.934  34.099  1.00  0.00     0.049 A 
ATOM     49  H   UNL A   1      41.068  29.567  32.648  1.00  0.00     0.167 HD
ATOM     50  C   UNL A   1      43.144  27.681  32.062  1.00  0.00     0.074 A 
ATOM     51  C   UNL A   1      43.993  26.754  31.340  1.00  0.00     0.031 C 
ATOM     52  C   UNL A   1      43.300  28.005  33.370  1.00  0.00     0.034 A 
BRANCH  39  53
ATOM     53  C   UNL A   1      39.237  32.142  35.547  1.00  0.00     0.023 A 
ATOM     54  C   UNL A   1      39.672  33.474  35.697  1.00  0.00     0.031 A 
ATOM     55  C   UNL A   1      38.499  31.565  36.597  1.00  0.00     0.131 A 
ATOM     56  C   UNL A   1      39.398  34.168  36.883  1.00  0.00     0.055 A 
ATOM     57  C   UNL A   1      38.190  32.276  37.757  1.00  0.00     0.041 A 
ATOM     58  F   UNL A   1      38.068  30.296  36.511  1.00  0.00    -0.206 F 
ATOM     59  C   UNL A   1      38.653  33.579  37.911  1.00  0.00     0.022 A 
BRANCH  56  60
ATOM     60  S   UNL A   1      40.059  35.832  37.174  1.00  0.00     0.124 S 
ATOM     61  O   UNL A   1      39.383  36.212  38.414  1.00  0.00    -0.237 OA
ATOM     62  O   UNL A   1      41.491  35.574  37.300  1.00  0.00    -0.237 OA
ATOM     63  O   UNL A   1      39.654  36.584  35.992  1.00  0.00    -0.744 OA
ENDBRANCH  56  60
ENDBRANCH  39  53
BRANCH  40  64
ATOM     64  C   UNL A   1      42.149  26.874  27.490  1.00  0.00     0.023 A 
ATOM     65  C   UNL A   1      41.806  25.513  27.376  1.00  0.00     0.031 A 
ATOM     66  C   UNL A   1      42.993  27.426  26.512  1.00  0.00     0.131 A 
ATOM     67  C   UNL A   1      42.367  24.736  26.354  1.00  0.00     0.055 A 
ATOM     68  C   UNL A   1      43.490  26.665  25.453  1.00  0.00     0.041 A 
ATOM     69  F   UNL A   1      43.366  28.712  26.589  1.00  0.00    -0.206 F 
ATOM     70  C   UNL A   1      43.194  25.307  25.382  1.00  0.00     0.022 A 
BRANCH  67  71
ATOM     71  S   UNL A   1      42.167  22.931  26.341  1.00  0.00     0.124 S 
ATOM     72  O   UNL A   1      42.656  22.582  25.011  1.00  0.00    -0.237 OA
ATOM     73  O   UNL A   1      43.023  22.529  27.454  1.00  0.00    -0.237 OA
ATOM     74  O   UNL A   1      40.737  22.742  26.558  1.00  0.00    -0.744 OA
ENDBRANCH  67  71
ENDBRANCH  40  64
BRANCH  52  75
ATOM     75  C   UNL A   1      44.436  27.370  34.139  1.00  0.00     0.023 A 
ATOM     76  C   UNL A   1      44.258  26.106  34.737  1.00  0.00     0.031 A 
ATOM     77  C   UNL A   1      45.617  28.077  34.418  1.00  0.00     0.131 A 
ATOM     78  C   UNL A   1      45.224  25.614  35.623  1.00  0.00     0.055 A 
ATOM     79  C   UNL A   1      46.602  27.557  35.258  1.00  0.00     0.041 A 
ATOM     80  F   UNL A   1      45.828  29.290  33.882  1.00  0.00    -0.206 F 
ATOM     81  C   UNL A   1      46.400  26.327  35.880  1.00  0.00     0.022 A 
BRANCH  78  82
ATOM     82  S   UNL A   1      44.947  24.081  36.554  1.00  0.00     0.124 S 
ATOM     83  O   UNL A   1      46.294  23.520  36.619  1.00  0.00    -0.237 OA
ATOM     84  O   UNL A   1      44.418  24.582  37.819  1.00  0.00    -0.237 OA
ATOM     85  O   UNL A   1      44.002  23.334  35.730  1.00  0.00    -0.744 OA
ENDBRANCH  78  82
ENDBRANCH  52  75
ENDBRANCH  26  27
ENDBRANCH  19  21
ENDBRANCH  18  19
ENDBRANCH   1  18
TORSDOF 15
ENDMDL
