MODEL 1
REMARK VINA RESULT:     -12.3      0.000      0.000
REMARK SMILES C[C@H]1CCCCN1c1nc2nc(CC(=O)OCCOC(=O)c3ccc(-c4c5nc(c(-c6cc(S(=O)(=O)[O-])ccc6F)c6ccc([nH]6)c(-c6cc(S(=O)(=O)[O-])ccc6F)c6nc(c(-c7cc(S(=O)(=O)[O-])ccc7F)c7ccc4[nH]7)C=C6)C=C5)cc3)cc(O)n2n1
REMARK SMILES IDX 18 1 17 2 16 3 14 4 15 5 13 6 12 7 8 8 9 9 89 10 10 11 88 12
REMARK SMILES IDX 11 13 86 14 85 15 7 16 1 17 2 18 3 19 4 20 6 21 5 22 87 23
REMARK SMILES IDX 19 25 20 26 21 27 22 28 23 29 84 30 24 31 83 32 25 33 26 34
REMARK SMILES IDX 27 35 77 36 28 37 82 38 76 39 78 40 29 41 81 42 75 43 74 44
REMARK SMILES IDX 30 46 62 47 42 48 61 49 43 50 46 51 60 52 79 53 44 54 45 55
REMARK SMILES IDX 59 57 80 58 47 59 31 60 32 61 40 62 33 63 39 64 41 65 38 66
REMARK SMILES IDX 34 67 35 68 36 69 37 70 63 71 64 72 72 73 65 74 71 75 73 76
REMARK SMILES IDX 70 77 66 78 67 79 68 80 69 81 48 82 49 83 57 84 50 85 56 86
REMARK SMILES IDX 58 87 55 88 51 89 52 90 53 91 54 92
REMARK H PARENT 87 24 78 45 46 56
REMARK Flexibility Score: inf
ROOT
ATOM      1  C   UNL A   1      33.566  31.519  27.755  1.00  0.00     0.275 C 
ENDROOT
BRANCH   1   2
ATOM      2  C   UNL A   1      33.090  30.305  26.947  1.00  0.00     0.274 C 
BRANCH   2   3
ATOM      3  O   UNL A   1      32.026  30.594  26.011  1.00  0.00    -0.462 OA
BRANCH   3   4
ATOM      4  C   UNL A   1      31.905  29.721  24.977  1.00  0.00     0.311 C 
ATOM      5  O   UNL A   1      30.842  29.203  24.641  1.00  0.00    -0.252 OA
BRANCH   4   6
ATOM      6  C   UNL A   1      33.206  29.311  24.349  1.00  0.00     0.179 C 
BRANCH   6   7
ATOM      7  C   UNL A   1      33.336  27.913  23.789  1.00  0.00     0.061 A 
ATOM      8  C   UNL A   1      34.218  23.673  23.630  1.00  0.00     0.247 A 
ATOM      9  N   UNL A   1      34.146  24.580  24.646  1.00  0.00    -0.173 NA
ATOM     10  N   UNL A   1      33.979  24.172  22.418  1.00  0.00    -0.123 NA
ATOM     11  C   UNL A   1      33.880  25.715  24.048  1.00  0.00     0.257 A 
ATOM     12  N   UNL A   1      33.709  25.472  22.686  1.00  0.00    -0.161 N 
ATOM     13  N   UNL A   1      33.758  26.969  24.575  1.00  0.00    -0.215 NA
ATOM     14  C   UNL A   1      33.308  26.509  21.821  1.00  0.00     0.217 A 
ATOM     15  C   UNL A   1      33.070  27.732  22.326  1.00  0.00     0.092 A 
BRANCH   8  16
ATOM     16  N   UNL A   1      34.512  22.393  23.945  1.00  0.00    -0.337 N 
ATOM     17  C   UNL A   1      36.956  22.928  24.272  1.00  0.00     0.031 C 
ATOM     18  C   UNL A   1      35.877  21.865  24.048  1.00  0.00     0.082 C 
ATOM     19  C   UNL A   1      35.928  20.877  25.234  1.00  0.00     0.025 C 
ATOM     20  C   UNL A   1      34.877  19.780  25.099  1.00  0.00     0.004 C 
ATOM     21  C   UNL A   1      33.439  21.404  23.822  1.00  0.00     0.120 C 
ATOM     22  C   UNL A   1      33.488  20.390  24.960  1.00  0.00     0.022 C 
ENDBRANCH   8  16
BRANCH  14  23
ATOM     23  O   UNL A   1      33.161  26.240  20.467  1.00  0.00    -0.493 OA
ATOM     24  H   UNL A   1      33.724  25.618  20.049  1.00  0.00     0.295 HD
ENDBRANCH  14  23
ENDBRANCH   6   7
ENDBRANCH   4   6
ENDBRANCH   3   4
ENDBRANCH   2   3
ENDBRANCH   1   2
BRANCH   1  25
ATOM     25  O   UNL A   1      34.315  31.166  28.920  1.00  0.00    -0.458 OA
BRANCH  25  26
ATOM     26  C   UNL A   1      35.287  32.076  29.173  1.00  0.00     0.338 C 
ATOM     27  O   UNL A   1      35.107  33.224  29.539  1.00  0.00    -0.246 OA
BRANCH  26  28
ATOM     28  C   UNL A   1      36.611  31.567  28.820  1.00  0.00     0.060 A 
ATOM     29  C   UNL A   1      36.684  30.290  28.259  1.00  0.00     0.016 A 
ATOM     30  C   UNL A   1      37.733  32.204  29.357  1.00  0.00     0.016 A 
ATOM     31  C   UNL A   1      37.862  29.582  28.366  1.00  0.00     0.010 A 
ATOM     32  C   UNL A   1      38.909  31.486  29.477  1.00  0.00     0.010 A 
ATOM     33  C   UNL A   1      38.941  30.161  29.038  1.00  0.00    -0.014 A 
BRANCH  33  34
ATOM     34  C   UNL A   1      40.111  29.326  29.247  1.00  0.00     0.031 A 
ATOM     35  C   UNL A   1      40.412  29.006  30.659  1.00  0.00     0.074 A 
ATOM     36  C   UNL A   1      40.814  28.789  28.234  1.00  0.00     0.049 A 
ATOM     37  N   UNL A   1      41.443  29.347  31.361  1.00  0.00    -0.248 NA
ATOM     38  C   UNL A   1      39.367  28.303  31.415  1.00  0.00     0.031 C 
ATOM     39  C   UNL A   1      40.434  28.718  26.821  1.00  0.00     0.029 A 
ATOM     40  N   UNL A   1      41.969  28.070  28.289  1.00  0.00    -0.354 N 
ATOM     41  C   UNL A   1      41.261  28.750  32.605  1.00  0.00     0.074 A 
ATOM     42  C   UNL A   1      39.903  28.268  32.632  1.00  0.00     0.031 C 
ATOM     43  C   UNL A   1      41.215  27.801  26.207  1.00  0.00     0.029 A 
ATOM     44  C   UNL A   1      42.224  27.332  27.145  1.00  0.00     0.049 A 
ATOM     45  H   UNL A   1      42.568  28.076  29.070  1.00  0.00     0.167 HD
ATOM     46  C   UNL A   1      42.296  28.502  33.454  1.00  0.00     0.034 A 
ATOM     47  C   UNL A   1      43.128  26.331  27.025  1.00  0.00     0.034 A 
ATOM     48  C   UNL A   1      43.486  29.211  33.077  1.00  0.00     0.049 A 
ATOM     49  C   UNL A   1      44.093  26.427  28.148  1.00  0.00     0.074 A 
ATOM     50  C   UNL A   1      43.838  30.540  32.967  1.00  0.00     0.029 A 
ATOM     51  N   UNL A   1      44.462  28.497  32.428  1.00  0.00    -0.354 N 
ATOM     52  N   UNL A   1      45.005  27.349  28.275  1.00  0.00    -0.248 NA
ATOM     53  C   UNL A   1      43.812  25.660  29.353  1.00  0.00     0.031 C 
ATOM     54  C   UNL A   1      44.782  30.590  31.903  1.00  0.00     0.029 A 
ATOM     55  C   UNL A   1      44.967  29.288  31.432  1.00  0.00     0.049 A 
ATOM     56  H   UNL A   1      44.748  27.580  32.641  1.00  0.00     0.167 HD
ATOM     57  C   UNL A   1      45.092  27.568  29.642  1.00  0.00     0.074 A 
ATOM     58  C   UNL A   1      44.448  26.412  30.253  1.00  0.00     0.031 C 
ATOM     59  C   UNL A   1      45.421  28.795  30.146  1.00  0.00     0.034 A 
BRANCH  46  60
ATOM     60  C   UNL A   1      42.317  27.351  34.427  1.00  0.00     0.023 A 
ATOM     61  C   UNL A   1      43.079  26.189  34.200  1.00  0.00     0.031 A 
ATOM     62  C   UNL A   1      41.763  27.482  35.715  1.00  0.00     0.131 A 
ATOM     63  C   UNL A   1      43.234  25.205  35.182  1.00  0.00     0.055 A 
ATOM     64  C   UNL A   1      41.982  26.537  36.725  1.00  0.00     0.041 A 
ATOM     65  F   UNL A   1      41.040  28.564  36.047  1.00  0.00    -0.206 F 
ATOM     66  C   UNL A   1      42.716  25.386  36.459  1.00  0.00     0.022 A 
BRANCH  63  67
ATOM     67  S   UNL A   1      44.127  23.675  34.802  1.00  0.00     0.124 S 
ATOM     68  O   UNL A   1      43.110  22.901  34.098  1.00  0.00    -0.237 OA
ATOM     69  O   UNL A   1      45.229  24.171  33.981  1.00  0.00    -0.237 OA
ATOM     70  O   UNL A   1      44.516  23.171  36.116  1.00  0.00    -0.744 OA
ENDBRANCH  63  67
ENDBRANCH  46  60
BRANCH  47  71
ATOM     71  C   UNL A   1      42.982  25.091  26.230  1.00  0.00     0.023 A 
ATOM     72  C   UNL A   1      42.092  24.081  26.643  1.00  0.00     0.031 A 
ATOM     73  C   UNL A   1      43.913  24.761  25.231  1.00  0.00     0.131 A 
ATOM     74  C   UNL A   1      42.176  22.791  26.104  1.00  0.00     0.055 A 
ATOM     75  C   UNL A   1      43.992  23.473  24.689  1.00  0.00     0.041 A 
ATOM     76  F   UNL A   1      44.807  25.666  24.806  1.00  0.00    -0.206 F 
ATOM     77  C   UNL A   1      43.128  22.476  25.133  1.00  0.00     0.022 A 
BRANCH  74  78
ATOM     78  S   UNL A   1      41.059  21.489  26.695  1.00  0.00     0.124 S 
ATOM     79  O   UNL A   1      41.760  20.266  26.305  1.00  0.00    -0.237 OA
ATOM     80  O   UNL A   1      41.017  21.757  28.127  1.00  0.00    -0.237 OA
ATOM     81  O   UNL A   1      39.824  21.746  25.960  1.00  0.00    -0.744 OA
ENDBRANCH  74  78
ENDBRANCH  47  71
BRANCH  59  82
ATOM     82  C   UNL A   1      46.042  29.821  29.231  1.00  0.00     0.023 A 
ATOM     83  C   UNL A   1      45.164  30.648  28.506  1.00  0.00     0.031 A 
ATOM     84  C   UNL A   1      47.407  29.860  28.895  1.00  0.00     0.131 A 
ATOM     85  C   UNL A   1      45.645  31.453  27.468  1.00  0.00     0.055 A 
ATOM     86  C   UNL A   1      47.892  30.715  27.900  1.00  0.00     0.041 A 
ATOM     87  F   UNL A   1      48.291  29.020  29.452  1.00  0.00    -0.206 F 
ATOM     88  C   UNL A   1      47.008  31.506  27.172  1.00  0.00     0.022 A 
BRANCH  85  89
ATOM     89  S   UNL A   1      44.495  32.344  26.388  1.00  0.00     0.124 S 
ATOM     90  O   UNL A   1      45.332  32.658  25.234  1.00  0.00    -0.237 OA
ATOM     91  O   UNL A   1      43.453  31.346  26.153  1.00  0.00    -0.237 OA
ATOM     92  O   UNL A   1      44.077  33.495  27.184  1.00  0.00    -0.744 OA
ENDBRANCH  85  89
ENDBRANCH  59  82
ENDBRANCH  33  34
ENDBRANCH  26  28
ENDBRANCH  25  26
ENDBRANCH   1  25
TORSDOF 17
ENDMDL
MODEL 2
REMARK VINA RESULT:     -12.3      3.960      6.834
REMARK SMILES C[C@H]1CCCCN1c1nc2nc(CC(=O)OCCOC(=O)c3ccc(-c4c5nc(c(-c6cc(S(=O)(=O)[O-])ccc6F)c6ccc([nH]6)c(-c6cc(S(=O)(=O)[O-])ccc6F)c6nc(c(-c7cc(S(=O)(=O)[O-])ccc7F)c7ccc4[nH]7)C=C6)C=C5)cc3)cc(O)n2n1
REMARK SMILES IDX 18 1 17 2 16 3 14 4 15 5 13 6 12 7 8 8 9 9 89 10 10 11 88 12
REMARK SMILES IDX 11 13 86 14 85 15 7 16 1 17 2 18 3 19 4 20 6 21 5 22 87 23
REMARK SMILES IDX 19 25 20 26 21 27 22 28 23 29 84 30 24 31 83 32 25 33 26 34
REMARK SMILES IDX 27 35 77 36 28 37 82 38 76 39 78 40 29 41 81 42 75 43 74 44
REMARK SMILES IDX 30 46 62 47 42 48 61 49 43 50 46 51 60 52 79 53 44 54 45 55
REMARK SMILES IDX 59 57 80 58 47 59 31 60 32 61 40 62 33 63 39 64 41 65 38 66
REMARK SMILES IDX 34 67 35 68 36 69 37 70 63 71 64 72 72 73 65 74 71 75 73 76
REMARK SMILES IDX 70 77 66 78 67 79 68 80 69 81 48 82 49 83 57 84 50 85 56 86
REMARK SMILES IDX 58 87 55 88 51 89 52 90 53 91 54 92
REMARK H PARENT 87 24 78 45 46 56
REMARK Flexibility Score: inf
ROOT
ATOM      1  C   UNL A   1      34.451  34.426  28.029  1.00  0.00     0.275 C 
ENDROOT
BRANCH   1   2
ATOM      2  C   UNL A   1      33.451  34.600  29.179  1.00  0.00     0.274 C 
BRANCH   2   3
ATOM      3  O   UNL A   1      33.736  35.720  30.049  1.00  0.00    -0.462 OA
BRANCH   3   4
ATOM      4  C   UNL A   1      33.930  35.409  31.358  1.00  0.00     0.311 C 
ATOM      5  O   UNL A   1      34.051  36.246  32.249  1.00  0.00    -0.252 OA
BRANCH   4   6
ATOM      6  C   UNL A   1      34.134  33.945  31.628  1.00  0.00     0.179 C 
BRANCH   6   7
ATOM      7  C   UNL A   1      35.497  33.473  32.082  1.00  0.00     0.061 A 
ATOM      8  C   UNL A   1      39.761  33.530  32.852  1.00  0.00     0.247 A 
ATOM      9  N   UNL A   1      38.860  34.484  32.481  1.00  0.00    -0.173 NA
ATOM     10  N   UNL A   1      39.248  32.310  33.010  1.00  0.00    -0.123 NA
ATOM     11  C   UNL A   1      37.728  33.834  32.367  1.00  0.00     0.257 A 
ATOM     12  N   UNL A   1      37.934  32.511  32.752  1.00  0.00    -0.161 N 
ATOM     13  N   UNL A   1      36.504  34.284  31.962  1.00  0.00    -0.215 NA
ATOM     14  C   UNL A   1      36.851  31.613  32.825  1.00  0.00     0.217 A 
ATOM     15  C   UNL A   1      35.612  32.052  32.542  1.00  0.00     0.092 A 
BRANCH   8  16
ATOM     16  N   UNL A   1      41.047  33.906  33.022  1.00  0.00    -0.337 N 
ATOM     17  C   UNL A   1      41.624  33.384  30.622  1.00  0.00     0.031 C 
ATOM     18  C   UNL A   1      42.114  33.650  32.048  1.00  0.00     0.082 C 
ATOM     19  C   UNL A   1      43.043  34.882  32.011  1.00  0.00     0.025 C 
ATOM     20  C   UNL A   1      43.578  35.228  33.397  1.00  0.00     0.004 C 
ATOM     21  C   UNL A   1      41.475  34.255  34.379  1.00  0.00     0.120 C 
ATOM     22  C   UNL A   1      42.426  35.446  34.369  1.00  0.00     0.022 C 
ENDBRANCH   8  16
BRANCH  14  23
ATOM     23  O   UNL A   1      37.089  30.297  33.197  1.00  0.00    -0.493 OA
ATOM     24  H   UNL A   1      37.491  29.705  32.592  1.00  0.00     0.295 HD
ENDBRANCH  14  23
ENDBRANCH   6   7
ENDBRANCH   4   6
ENDBRANCH   3   4
ENDBRANCH   2   3
ENDBRANCH   1   2
BRANCH   1  25
ATOM     25  O   UNL A   1      35.664  33.780  28.425  1.00  0.00    -0.458 OA
BRANCH  25  26
ATOM     26  C   UNL A   1      35.640  32.461  28.118  1.00  0.00     0.338 C 
ATOM     27  O   UNL A   1      34.841  31.919  27.375  1.00  0.00    -0.246 OA
BRANCH  26  28
ATOM     28  C   UNL A   1      36.618  31.705  28.898  1.00  0.00     0.060 A 
ATOM     29  C   UNL A   1      37.845  32.316  29.164  1.00  0.00     0.016 A 
ATOM     30  C   UNL A   1      36.431  30.328  29.043  1.00  0.00     0.016 A 
ATOM     31  C   UNL A   1      38.939  31.522  29.436  1.00  0.00     0.010 A 
ATOM     32  C   UNL A   1      37.533  29.532  29.301  1.00  0.00     0.010 A 
ATOM     33  C   UNL A   1      38.786  30.133  29.431  1.00  0.00    -0.014 A 
BRANCH  33  34
ATOM     34  C   UNL A   1      39.991  29.338  29.586  1.00  0.00     0.031 A 
ATOM     35  C   UNL A   1      40.332  28.976  30.979  1.00  0.00     0.074 A 
ATOM     36  C   UNL A   1      40.695  28.869  28.540  1.00  0.00     0.049 A 
ATOM     37  N   UNL A   1      41.362  29.330  31.675  1.00  0.00    -0.248 NA
ATOM     38  C   UNL A   1      39.330  28.203  31.724  1.00  0.00     0.031 C 
ATOM     39  C   UNL A   1      40.291  28.838  27.133  1.00  0.00     0.029 A 
ATOM     40  N   UNL A   1      41.878  28.195  28.545  1.00  0.00    -0.354 N 
ATOM     41  C   UNL A   1      41.229  28.679  32.897  1.00  0.00     0.074 A 
ATOM     42  C   UNL A   1      39.891  28.142  32.930  1.00  0.00     0.031 C 
ATOM     43  C   UNL A   1      41.095  27.977  26.468  1.00  0.00     0.029 A 
ATOM     44  C   UNL A   1      42.139  27.512  27.370  1.00  0.00     0.049 A 
ATOM     45  H   UNL A   1      42.492  28.194  29.315  1.00  0.00     0.167 HD
ATOM     46  C   UNL A   1      42.289  28.439  33.717  1.00  0.00     0.034 A 
ATOM     47  C   UNL A   1      43.079  26.554  27.193  1.00  0.00     0.034 A 
ATOM     48  C   UNL A   1      43.442  29.208  33.347  1.00  0.00     0.049 A 
ATOM     49  C   UNL A   1      44.061  26.644  28.301  1.00  0.00     0.074 A 
ATOM     50  C   UNL A   1      43.740  30.554  33.283  1.00  0.00     0.029 A 
ATOM     51  N   UNL A   1      44.433  28.560  32.653  1.00  0.00    -0.354 N 
ATOM     52  N   UNL A   1      44.939  27.596  28.449  1.00  0.00    -0.248 NA
ATOM     53  C   UNL A   1      43.834  25.821  29.480  1.00  0.00     0.031 C 
ATOM     54  C   UNL A   1      44.660  30.683  32.205  1.00  0.00     0.029 A 
ATOM     55  C   UNL A   1      44.887  29.408  31.680  1.00  0.00     0.049 A 
ATOM     56  H   UNL A   1      44.758  27.647  32.824  1.00  0.00     0.167 HD
ATOM     57  C   UNL A   1      45.044  27.766  29.822  1.00  0.00     0.074 A 
ATOM     58  C   UNL A   1      44.458  26.562  30.398  1.00  0.00     0.031 C 
ATOM     59  C   UNL A   1      45.334  28.984  30.367  1.00  0.00     0.034 A 
BRANCH  46  60
ATOM     60  C   UNL A   1      42.374  27.253  34.644  1.00  0.00     0.023 A 
ATOM     61  C   UNL A   1      43.121  26.103  34.325  1.00  0.00     0.031 A 
ATOM     62  C   UNL A   1      41.903  27.335  35.968  1.00  0.00     0.131 A 
ATOM     63  C   UNL A   1      43.340  25.084  35.258  1.00  0.00     0.055 A 
ATOM     64  C   UNL A   1      42.188  26.353  36.926  1.00  0.00     0.041 A 
ATOM     65  F   UNL A   1      41.202  28.400  36.386  1.00  0.00    -0.206 F 
ATOM     66  C   UNL A   1      42.905  25.216  36.571  1.00  0.00     0.022 A 
BRANCH  63  67
ATOM     67  S   UNL A   1      44.209  23.572  34.765  1.00  0.00     0.124 S 
ATOM     68  O   UNL A   1      44.568  22.998  36.057  1.00  0.00    -0.237 OA
ATOM     69  O   UNL A   1      43.169  22.862  34.022  1.00  0.00    -0.237 OA
ATOM     70  O   UNL A   1      45.319  24.064  33.955  1.00  0.00    -0.744 OA
ENDBRANCH  63  67
ENDBRANCH  46  60
BRANCH  47  71
ATOM     71  C   UNL A   1      42.966  25.340  26.353  1.00  0.00     0.023 A 
ATOM     72  C   UNL A   1      42.170  24.257  26.770  1.00  0.00     0.031 A 
ATOM     73  C   UNL A   1      43.855  25.115  25.289  1.00  0.00     0.131 A 
ATOM     74  C   UNL A   1      42.304  22.999  26.169  1.00  0.00     0.055 A 
ATOM     75  C   UNL A   1      43.984  23.859  24.686  1.00  0.00     0.041 A 
ATOM     76  F   UNL A   1      44.662  26.095  24.854  1.00  0.00    -0.206 F 
ATOM     77  C   UNL A   1      43.214  22.789  25.133  1.00  0.00     0.022 A 
BRANCH  74  78
ATOM     78  S   UNL A   1      41.310  21.601  26.763  1.00  0.00     0.124 S 
ATOM     79  O   UNL A   1      41.098  21.937  28.170  1.00  0.00    -0.237 OA
ATOM     80  O   UNL A   1      40.130  21.690  25.913  1.00  0.00    -0.237 OA
ATOM     81  O   UNL A   1      42.178  20.450  26.534  1.00  0.00    -0.744 OA
ENDBRANCH  74  78
ENDBRANCH  47  71
BRANCH  59  82
ATOM     82  C   UNL A   1      45.897  30.069  29.483  1.00  0.00     0.023 A 
ATOM     83  C   UNL A   1      44.998  30.723  28.620  1.00  0.00     0.031 A 
ATOM     84  C   UNL A   1      47.270  30.316  29.308  1.00  0.00     0.131 A 
ATOM     85  C   UNL A   1      45.473  31.563  27.607  1.00  0.00     0.055 A 
ATOM     86  C   UNL A   1      47.736  31.207  28.336  1.00  0.00     0.041 A 
ATOM     87  F   UNL A   1      48.199  29.646  30.006  1.00  0.00    -0.206 F 
ATOM     88  C   UNL A   1      46.838  31.824  27.471  1.00  0.00     0.022 A 
BRANCH  85  89
ATOM     89  S   UNL A   1      44.341  32.225  26.357  1.00  0.00     0.124 S 
ATOM     90  O   UNL A   1      43.773  33.386  27.036  1.00  0.00    -0.237 OA
ATOM     91  O   UNL A   1      45.245  32.529  25.249  1.00  0.00    -0.237 OA
ATOM     92  O   UNL A   1      43.406  31.132  26.108  1.00  0.00    -0.744 OA
ENDBRANCH  85  89
ENDBRANCH  59  82
ENDBRANCH  33  34
ENDBRANCH  26  28
ENDBRANCH  25  26
ENDBRANCH   1  25
TORSDOF 17
ENDMDL
MODEL 3
REMARK VINA RESULT:     -12.1      1.406      1.858
REMARK SMILES C[C@H]1CCCCN1c1nc2nc(CC(=O)OCCOC(=O)c3ccc(-c4c5nc(c(-c6cc(S(=O)(=O)[O-])ccc6F)c6ccc([nH]6)c(-c6cc(S(=O)(=O)[O-])ccc6F)c6nc(c(-c7cc(S(=O)(=O)[O-])ccc7F)c7ccc4[nH]7)C=C6)C=C5)cc3)cc(O)n2n1
REMARK SMILES IDX 18 1 17 2 16 3 14 4 15 5 13 6 12 7 8 8 9 9 89 10 10 11 88 12
REMARK SMILES IDX 11 13 86 14 85 15 7 16 1 17 2 18 3 19 4 20 6 21 5 22 87 23
REMARK SMILES IDX 19 25 20 26 21 27 22 28 23 29 84 30 24 31 83 32 25 33 26 34
REMARK SMILES IDX 27 35 77 36 28 37 82 38 76 39 78 40 29 41 81 42 75 43 74 44
REMARK SMILES IDX 30 46 62 47 42 48 61 49 43 50 46 51 60 52 79 53 44 54 45 55
REMARK SMILES IDX 59 57 80 58 47 59 31 60 32 61 40 62 33 63 39 64 41 65 38 66
REMARK SMILES IDX 34 67 35 68 36 69 37 70 63 71 64 72 72 73 65 74 71 75 73 76
REMARK SMILES IDX 70 77 66 78 67 79 68 80 69 81 48 82 49 83 57 84 50 85 56 86
REMARK SMILES IDX 58 87 55 88 51 89 52 90 53 91 54 92
REMARK H PARENT 87 24 78 45 46 56
REMARK Flexibility Score: inf
ROOT
ATOM      1  C   UNL A   1      33.512  32.330  27.630  1.00  0.00     0.275 C 
ENDROOT
BRANCH   1   2
ATOM      2  C   UNL A   1      32.594  31.232  27.076  1.00  0.00     0.274 C 
BRANCH   2   3
ATOM      3  O   UNL A   1      32.949  29.894  27.493  1.00  0.00    -0.462 OA
BRANCH   3   4
ATOM      4  C   UNL A   1      33.570  29.134  26.553  1.00  0.00     0.311 C 
ATOM      5  O   UNL A   1      34.787  28.979  26.494  1.00  0.00    -0.252 OA
BRANCH   4   6
ATOM      6  C   UNL A   1      32.661  28.599  25.484  1.00  0.00     0.179 C 
BRANCH   6   7
ATOM      7  C   UNL A   1      32.243  27.147  25.543  1.00  0.00     0.061 A 
ATOM      8  C   UNL A   1      32.373  22.860  24.927  1.00  0.00     0.247 A 
ATOM      9  N   UNL A   1      33.277  23.864  24.742  1.00  0.00    -0.173 NA
ATOM     10  N   UNL A   1      31.186  23.256  25.386  1.00  0.00    -0.123 NA
ATOM     11  C   UNL A   1      32.624  24.952  25.068  1.00  0.00     0.257 A 
ATOM     12  N   UNL A   1      31.360  24.591  25.529  1.00  0.00    -0.161 N 
ATOM     13  N   UNL A   1      33.026  26.257  25.015  1.00  0.00    -0.215 NA
ATOM     14  C   UNL A   1      30.484  25.566  26.048  1.00  0.00     0.217 A 
ATOM     15  C   UNL A   1      30.891  26.846  26.115  1.00  0.00     0.092 A 
BRANCH   8  16
ATOM     16  N   UNL A   1      32.760  21.599  24.639  1.00  0.00    -0.337 N 
ATOM     17  C   UNL A   1      33.671  21.238  26.964  1.00  0.00     0.031 C 
ATOM     18  C   UNL A   1      33.626  20.787  25.501  1.00  0.00     0.082 C 
ATOM     19  C   UNL A   1      33.117  19.330  25.466  1.00  0.00     0.025 C 
ATOM     20  C   UNL A   1      33.034  18.795  24.040  1.00  0.00     0.004 C 
ATOM     21  C   UNL A   1      32.615  21.148  23.252  1.00  0.00     0.120 C 
ATOM     22  C   UNL A   1      32.152  19.697  23.187  1.00  0.00     0.022 C 
ENDBRANCH   8  16
BRANCH  14  23
ATOM     23  O   UNL A   1      29.226  25.179  26.485  1.00  0.00    -0.493 OA
ATOM     24  H   UNL A   1      29.124  24.393  26.985  1.00  0.00     0.295 HD
ENDBRANCH  14  23
ENDBRANCH   6   7
ENDBRANCH   4   6
ENDBRANCH   3   4
ENDBRANCH   2   3
ENDBRANCH   1   2
BRANCH   1  25
ATOM     25  O   UNL A   1      34.426  31.857  28.622  1.00  0.00    -0.458 OA
BRANCH  25  26
ATOM     26  C   UNL A   1      35.681  32.310  28.389  1.00  0.00     0.338 C 
ATOM     27  O   UNL A   1      35.988  33.170  27.582  1.00  0.00    -0.246 OA
BRANCH  26  28
ATOM     28  C   UNL A   1      36.681  31.542  29.129  1.00  0.00     0.060 A 
ATOM     29  C   UNL A   1      37.916  32.149  29.368  1.00  0.00     0.016 A 
ATOM     30  C   UNL A   1      36.499  30.162  29.257  1.00  0.00     0.016 A 
ATOM     31  C   UNL A   1      39.017  31.352  29.596  1.00  0.00     0.010 A 
ATOM     32  C   UNL A   1      37.607  29.363  29.470  1.00  0.00     0.010 A 
ATOM     33  C   UNL A   1      38.864  29.963  29.574  1.00  0.00    -0.014 A 
BRANCH  33  34
ATOM     34  C   UNL A   1      40.073  29.166  29.680  1.00  0.00     0.031 A 
ATOM     35  C   UNL A   1      40.459  28.789  31.057  1.00  0.00     0.074 A 
ATOM     36  C   UNL A   1      40.743  28.709  28.607  1.00  0.00     0.049 A 
ATOM     37  N   UNL A   1      41.511  29.134  31.724  1.00  0.00    -0.248 NA
ATOM     38  C   UNL A   1      39.481  28.007  31.826  1.00  0.00     0.031 C 
ATOM     39  C   UNL A   1      40.294  28.693  27.213  1.00  0.00     0.029 A 
ATOM     40  N   UNL A   1      41.925  28.035  28.567  1.00  0.00    -0.354 N 
ATOM     41  C   UNL A   1      41.416  28.470  32.943  1.00  0.00     0.074 A 
ATOM     42  C   UNL A   1      40.080  27.932  33.012  1.00  0.00     0.031 C 
ATOM     43  C   UNL A   1      41.076  27.840  26.514  1.00  0.00     0.029 A 
ATOM     44  C   UNL A   1      42.148  27.366  27.376  1.00  0.00     0.049 A 
ATOM     45  H   UNL A   1      42.563  28.025  29.317  1.00  0.00     0.167 HD
ATOM     46  C   UNL A   1      42.502  28.220  33.725  1.00  0.00     0.034 A 
ATOM     47  C   UNL A   1      43.082  26.410  27.159  1.00  0.00     0.034 A 
ATOM     48  C   UNL A   1      43.643  28.994  33.328  1.00  0.00     0.049 A 
ATOM     49  C   UNL A   1      44.099  26.487  28.235  1.00  0.00     0.074 A 
ATOM     50  C   UNL A   1      43.940  30.340  33.269  1.00  0.00     0.029 A 
ATOM     51  N   UNL A   1      44.611  28.353  32.594  1.00  0.00    -0.354 N 
ATOM     52  N   UNL A   1      44.981  27.437  28.365  1.00  0.00    -0.248 NA
ATOM     53  C   UNL A   1      43.909  25.650  29.412  1.00  0.00     0.031 C 
ATOM     54  C   UNL A   1      44.824  30.481  32.163  1.00  0.00     0.029 A 
ATOM     55  C   UNL A   1      45.034  29.213  31.617  1.00  0.00     0.049 A 
ATOM     56  H   UNL A   1      44.941  27.439  32.745  1.00  0.00     0.167 HD
ATOM     57  C   UNL A   1      45.131  27.591  29.736  1.00  0.00     0.074 A 
ATOM     58  C   UNL A   1      44.562  26.381  30.317  1.00  0.00     0.031 C 
ATOM     59  C   UNL A   1      45.439  28.803  30.286  1.00  0.00     0.034 A 
BRANCH  46  60
ATOM     60  C   UNL A   1      42.616  27.024  34.635  1.00  0.00     0.023 A 
ATOM     61  C   UNL A   1      43.348  25.875  34.278  1.00  0.00     0.031 A 
ATOM     62  C   UNL A   1      42.193  27.092  35.976  1.00  0.00     0.131 A 
ATOM     63  C   UNL A   1      43.597  24.846  35.191  1.00  0.00     0.055 A 
ATOM     64  C   UNL A   1      42.508  26.099  36.913  1.00  0.00     0.041 A 
ATOM     65  F   UNL A   1      41.511  28.155  36.431  1.00  0.00    -0.206 F 
ATOM     66  C   UNL A   1      43.209  24.964  36.520  1.00  0.00     0.022 A 
BRANCH  63  67
ATOM     67  S   UNL A   1      44.443  23.337  34.651  1.00  0.00     0.124 S 
ATOM     68  O   UNL A   1      44.606  22.618  35.910  1.00  0.00    -0.237 OA
ATOM     69  O   UNL A   1      43.472  22.771  33.717  1.00  0.00    -0.237 OA
ATOM     70  O   UNL A   1      45.670  23.834  34.037  1.00  0.00    -0.744 OA
ENDBRANCH  63  67
ENDBRANCH  46  60
BRANCH  47  71
ATOM     71  C   UNL A   1      42.941  25.205  26.309  1.00  0.00     0.023 A 
ATOM     72  C   UNL A   1      42.068  24.167  26.684  1.00  0.00     0.031 A 
ATOM     73  C   UNL A   1      43.865  24.933  25.286  1.00  0.00     0.131 A 
ATOM     74  C   UNL A   1      42.160  22.904  26.084  1.00  0.00     0.055 A 
ATOM     75  C   UNL A   1      43.953  23.673  24.684  1.00  0.00     0.041 A 
ATOM     76  F   UNL A   1      44.744  25.868  24.894  1.00  0.00    -0.206 F 
ATOM     77  C   UNL A   1      43.105  22.646  25.090  1.00  0.00     0.022 A 
BRANCH  74  78
ATOM     78  S   UNL A   1      41.065  21.563  26.625  1.00  0.00     0.124 S 
ATOM     79  O   UNL A   1      41.746  20.372  26.120  1.00  0.00    -0.237 OA
ATOM     80  O   UNL A   1      41.082  21.727  28.073  1.00  0.00    -0.237 OA
ATOM     81  O   UNL A   1      39.801  21.872  25.962  1.00  0.00    -0.744 OA
ENDBRANCH  74  78
ENDBRANCH  47  71
BRANCH  59  82
ATOM     82  C   UNL A   1      45.973  29.898  29.396  1.00  0.00     0.023 A 
ATOM     83  C   UNL A   1      45.042  30.586  28.597  1.00  0.00     0.031 A 
ATOM     84  C   UNL A   1      47.339  30.125  29.153  1.00  0.00     0.131 A 
ATOM     85  C   UNL A   1      45.477  31.441  27.579  1.00  0.00     0.055 A 
ATOM     86  C   UNL A   1      47.769  31.030  28.178  1.00  0.00     0.041 A 
ATOM     87  F   UNL A   1      48.291  29.424  29.786  1.00  0.00    -0.206 F 
ATOM     88  C   UNL A   1      46.837  31.682  27.376  1.00  0.00     0.022 A 
BRANCH  85  89
ATOM     89  S   UNL A   1      44.292  32.151  26.406  1.00  0.00     0.124 S 
ATOM     90  O   UNL A   1      43.377  31.036  26.176  1.00  0.00    -0.237 OA
ATOM     91  O   UNL A   1      43.738  33.271  27.163  1.00  0.00    -0.237 OA
ATOM     92  O   UNL A   1      45.111  32.528  25.257  1.00  0.00    -0.744 OA
ENDBRANCH  85  89
ENDBRANCH  59  82
ENDBRANCH  33  34
ENDBRANCH  26  28
ENDBRANCH  25  26
ENDBRANCH   1  25
TORSDOF 17
ENDMDL
