MODEL 1
REMARK VINA RESULT:     -12.8      0.000      0.000
REMARK SMILES COc1ccc(-n2c(SCc3cn(-c4ccc(C(=O)OCCOC(=O)c5ccc(-c6c7nc(c(-c8cc(S(=O)(=O)[O-])ccc8F)c8ccc([nH]8)c(-c8cc(S(=O)(=O)[O-])ccc8F)c8nc(c(-c9cc(S(=O)(=O)[O-])ccc9F)c9ccc6[nH]9)C=C8)C=C7)cc5)cc4)nn3)nc3ccccc3c2=O)cc1
REMARK SMILES IDX 20 1 18 2 19 3 17 4 14 5 15 6 90 7 16 8 89 9 13 10 11 11
REMARK SMILES IDX 12 12 92 13 91 14 10 15 9 16 8 17 7 18 100 19 93 20 99 21
REMARK SMILES IDX 101 22 94 23 98 24 95 25 97 26 96 27 6 28 3 29 4 30 103 31
REMARK SMILES IDX 5 32 102 33 2 34 1 35 21 36 22 37 23 38 24 39 25 40 26 41
REMARK SMILES IDX 27 42 88 43 28 44 87 45 29 46 30 47 31 48 81 49 32 50 86 51
REMARK SMILES IDX 80 52 82 53 33 54 85 55 79 56 78 57 34 59 66 60 46 61 65 62
REMARK SMILES IDX 47 63 50 64 64 65 83 66 48 67 49 68 63 70 84 71 51 72 35 73
REMARK SMILES IDX 36 74 44 75 37 76 43 77 45 78 42 79 38 80 39 81 40 82 41 83
REMARK SMILES IDX 67 84 68 85 76 86 69 87 75 88 77 89 74 90 70 91 71 92 72 93
REMARK SMILES IDX 73 94 52 95 53 96 61 97 54 98 60 99 62 100 59 101 55 102
REMARK SMILES IDX 56 103 57 104 58 105
REMARK H PARENT 82 58 50 69
REMARK Flexibility Score: inf
ROOT
ATOM      1  O   UNL A   1      43.929  18.492  25.129  1.00  0.00    -0.458 OA
ENDROOT
BRANCH   1   2
ATOM      2  C   UNL A   1      43.119  18.264  26.191  1.00  0.00     0.338 C 
ATOM      3  O   UNL A   1      43.238  17.389  27.036  1.00  0.00    -0.246 OA
BRANCH   2   4
ATOM      4  C   UNL A   1      42.092  19.322  26.233  1.00  0.00     0.060 A 
ATOM      5  C   UNL A   1      40.148  21.266  26.355  1.00  0.00     0.066 A 
ATOM      6  C   UNL A   1      39.792  19.989  25.913  1.00  0.00     0.029 A 
ATOM      7  C   UNL A   1      41.445  21.569  26.778  1.00  0.00     0.029 A 
ATOM      8  C   UNL A   1      40.784  19.019  25.825  1.00  0.00     0.018 A 
ATOM      9  C   UNL A   1      42.414  20.589  26.732  1.00  0.00     0.018 A 
BRANCH   5  10
ATOM     10  N   UNL A   1      39.204  22.290  26.369  1.00  0.00    -0.220 N 
ATOM     11  C   UNL A   1      37.528  23.568  25.907  1.00  0.00     0.093 A 
ATOM     12  C   UNL A   1      38.051  22.335  25.632  1.00  0.00     0.141 A 
ATOM     13  N   UNL A   1      38.345  24.202  26.802  1.00  0.00    -0.134 NA
ATOM     14  N   UNL A   1      39.314  23.376  27.147  1.00  0.00    -0.062 NA
BRANCH  11  15
ATOM     15  C   UNL A   1      36.277  24.148  25.403  1.00  0.00     0.138 C 
BRANCH  15  16
ATOM     16  S   UNL A   1      35.329  23.032  24.399  1.00  0.00    -0.081 SA
BRANCH  16  17
ATOM     17  C   UNL A   1      33.794  22.789  25.342  1.00  0.00     0.176 A 
ATOM     18  N   UNL A   1      32.761  22.286  24.567  1.00  0.00    -0.255 N 
ATOM     19  C   UNL A   1      31.934  23.231  23.971  1.00  0.00     0.266 A 
ATOM     20  N   UNL A   1      33.530  23.755  26.172  1.00  0.00    -0.223 NA
ATOM     21  C   UNL A   1      32.349  24.647  24.253  1.00  0.00     0.066 A 
ATOM     22  O   UNL A   1      30.983  23.005  23.229  1.00  0.00    -0.268 OA
ATOM     23  C   UNL A   1      33.085  24.868  25.434  1.00  0.00     0.079 A 
ATOM     24  C   UNL A   1      32.295  25.629  23.270  1.00  0.00     0.016 A 
ATOM     25  C   UNL A   1      33.690  26.099  25.674  1.00  0.00     0.029 A 
ATOM     26  C   UNL A   1      32.987  26.829  23.476  1.00  0.00     0.001 A 
ATOM     27  C   UNL A   1      33.661  27.072  24.680  1.00  0.00     0.002 A 
BRANCH  18  28
ATOM     28  C   UNL A   1      32.532  20.886  24.504  1.00  0.00     0.052 A 
ATOM     29  C   UNL A   1      32.834  18.109  24.237  1.00  0.00     0.119 A 
ATOM     30  C   UNL A   1      32.859  18.686  25.501  1.00  0.00     0.048 A 
ATOM     31  C   UNL A   1      32.521  18.891  23.124  1.00  0.00     0.048 A 
ATOM     32  C   UNL A   1      32.740  20.078  25.633  1.00  0.00     0.030 A 
ATOM     33  C   UNL A   1      32.333  20.273  23.263  1.00  0.00     0.030 A 
BRANCH  29  34
ATOM     34  O   UNL A   1      33.045  16.761  24.128  1.00  0.00    -0.497 OA
ATOM     35  C   UNL A   1      32.765  16.056  25.340  1.00  0.00     0.278 C 
ENDBRANCH  29  34
ENDBRANCH  18  28
ENDBRANCH  16  17
ENDBRANCH  15  16
ENDBRANCH  11  15
ENDBRANCH   5  10
ENDBRANCH   2   4
ENDBRANCH   1   2
BRANCH   1  36
ATOM     36  C   UNL A   1      45.307  18.721  25.429  1.00  0.00     0.275 C 
BRANCH  36  37
ATOM     37  C   UNL A   1      45.941  19.621  24.379  1.00  0.00     0.275 C 
BRANCH  37  38
ATOM     38  O   UNL A   1      45.961  20.990  24.787  1.00  0.00    -0.458 OA
BRANCH  38  39
ATOM     39  C   UNL A   1      44.995  21.760  24.231  1.00  0.00     0.338 C 
ATOM     40  O   UNL A   1      44.643  21.768  23.063  1.00  0.00    -0.246 OA
BRANCH  39  41
ATOM     41  C   UNL A   1      44.580  22.782  25.197  1.00  0.00     0.060 A 
ATOM     42  C   UNL A   1      43.693  23.778  24.780  1.00  0.00     0.016 A 
ATOM     43  C   UNL A   1      45.277  22.878  26.410  1.00  0.00     0.016 A 
ATOM     44  C   UNL A   1      43.592  24.933  25.538  1.00  0.00     0.010 A 
ATOM     45  C   UNL A   1      45.197  24.037  27.146  1.00  0.00     0.010 A 
ATOM     46  C   UNL A   1      44.394  25.077  26.681  1.00  0.00    -0.014 A 
BRANCH  46  47
ATOM     47  C   UNL A   1      44.202  26.236  27.541  1.00  0.00     0.031 A 
ATOM     48  C   UNL A   1      45.337  27.187  27.414  1.00  0.00     0.074 A 
ATOM     49  C   UNL A   1      43.058  26.481  28.216  1.00  0.00     0.049 A 
ATOM     50  N   UNL A   1      46.216  27.486  28.309  1.00  0.00    -0.248 NA
ATOM     51  C   UNL A   1      45.677  27.687  26.066  1.00  0.00     0.031 C 
ATOM     52  C   UNL A   1      41.819  25.697  28.172  1.00  0.00     0.029 A 
ATOM     53  N   UNL A   1      42.713  27.535  29.012  1.00  0.00    -0.354 N 
ATOM     54  C   UNL A   1      47.047  28.431  27.713  1.00  0.00     0.074 A 
ATOM     55  C   UNL A   1      46.828  28.315  26.302  1.00  0.00     0.031 C 
ATOM     56  C   UNL A   1      40.808  26.412  28.719  1.00  0.00     0.029 A 
ATOM     57  C   UNL A   1      41.342  27.649  29.268  1.00  0.00     0.049 A 
ATOM     58  H   UNL A   1      43.376  28.165  29.376  1.00  0.00     0.167 HD
ATOM     59  C   UNL A   1      47.585  29.433  28.458  1.00  0.00     0.034 A 
ATOM     60  C   UNL A   1      40.689  28.694  29.853  1.00  0.00     0.034 A 
ATOM     61  C   UNL A   1      47.531  29.089  29.862  1.00  0.00     0.049 A 
ATOM     62  C   UNL A   1      41.706  29.448  30.619  1.00  0.00     0.074 A 
ATOM     63  C   UNL A   1      48.101  28.119  30.660  1.00  0.00     0.029 A 
ATOM     64  N   UNL A   1      46.448  29.582  30.552  1.00  0.00    -0.354 N 
ATOM     65  N   UNL A   1      42.320  28.959  31.660  1.00  0.00    -0.248 NA
ATOM     66  C   UNL A   1      42.374  30.572  29.981  1.00  0.00     0.031 C 
ATOM     67  C   UNL A   1      47.118  27.816  31.648  1.00  0.00     0.029 A 
ATOM     68  C   UNL A   1      46.022  28.664  31.475  1.00  0.00     0.049 A 
ATOM     69  H   UNL A   1      46.039  30.465  30.403  1.00  0.00     0.167 HD
ATOM     70  C   UNL A   1      43.629  29.393  31.534  1.00  0.00     0.074 A 
ATOM     71  C   UNL A   1      43.566  30.500  30.583  1.00  0.00     0.031 C 
ATOM     72  C   UNL A   1      44.659  28.614  31.982  1.00  0.00     0.034 A 
BRANCH  59  73
ATOM     73  C   UNL A   1      47.676  30.883  27.997  1.00  0.00     0.023 A 
ATOM     74  C   UNL A   1      46.467  31.500  27.615  1.00  0.00     0.031 A 
ATOM     75  C   UNL A   1      48.852  31.574  27.621  1.00  0.00     0.131 A 
ATOM     76  C   UNL A   1      46.460  32.645  26.800  1.00  0.00     0.055 A 
ATOM     77  C   UNL A   1      48.839  32.743  26.855  1.00  0.00     0.041 A 
ATOM     78  F   UNL A   1      50.084  31.134  27.894  1.00  0.00    -0.206 F 
ATOM     79  C   UNL A   1      47.641  33.267  26.409  1.00  0.00     0.022 A 
BRANCH  76  80
ATOM     80  S   UNL A   1      44.881  33.204  26.115  1.00  0.00     0.124 S 
ATOM     81  O   UNL A   1      45.319  33.919  24.921  1.00  0.00    -0.237 OA
ATOM     82  O   UNL A   1      44.187  31.940  25.895  1.00  0.00    -0.237 OA
ATOM     83  O   UNL A   1      44.330  34.041  27.178  1.00  0.00    -0.744 OA
ENDBRANCH  76  80
ENDBRANCH  59  73
BRANCH  60  84
ATOM     84  C   UNL A   1      39.332  29.250  29.554  1.00  0.00     0.023 A 
ATOM     85  C   UNL A   1      38.491  29.847  30.528  1.00  0.00     0.031 A 
ATOM     86  C   UNL A   1      38.959  29.440  28.206  1.00  0.00     0.131 A 
ATOM     87  C   UNL A   1      37.350  30.595  30.133  1.00  0.00     0.055 A 
ATOM     88  C   UNL A   1      37.839  30.184  27.822  1.00  0.00     0.041 A 
ATOM     89  F   UNL A   1      39.728  28.984  27.204  1.00  0.00    -0.206 F 
ATOM     90  C   UNL A   1      37.036  30.774  28.784  1.00  0.00     0.022 A 
BRANCH  87  91
ATOM     91  S   UNL A   1      36.282  31.425  31.364  1.00  0.00     0.124 S 
ATOM     92  O   UNL A   1      35.999  30.352  32.309  1.00  0.00    -0.237 OA
ATOM     93  O   UNL A   1      37.135  32.507  31.843  1.00  0.00    -0.237 OA
ATOM     94  O   UNL A   1      35.128  31.865  30.577  1.00  0.00    -0.744 OA
ENDBRANCH  87  91
ENDBRANCH  60  84
BRANCH  72  95
ATOM     95  C   UNL A   1      44.330  27.531  32.991  1.00  0.00     0.023 A 
ATOM     96  C   UNL A   1      44.074  27.731  34.368  1.00  0.00     0.031 A 
ATOM     97  C   UNL A   1      44.209  26.223  32.488  1.00  0.00     0.131 A 
ATOM     98  C   UNL A   1      43.723  26.634  35.183  1.00  0.00     0.055 A 
ATOM     99  C   UNL A   1      43.835  25.149  33.290  1.00  0.00     0.041 A 
ATOM    100  F   UNL A   1      44.428  25.972  31.186  1.00  0.00    -0.206 F 
ATOM    101  C   UNL A   1      43.598  25.349  34.644  1.00  0.00     0.022 A 
BRANCH  98 102
ATOM    102  S   UNL A   1      43.460  26.844  36.975  1.00  0.00     0.124 S 
ATOM    103  O   UNL A   1      44.357  25.864  37.572  1.00  0.00    -0.237 OA
ATOM    104  O   UNL A   1      43.813  28.245  37.185  1.00  0.00    -0.237 OA
ATOM    105  O   UNL A   1      42.035  26.549  37.146  1.00  0.00    -0.744 OA
ENDBRANCH  98 102
ENDBRANCH  72  95
ENDBRANCH  46  47
ENDBRANCH  39  41
ENDBRANCH  38  39
ENDBRANCH  37  38
ENDBRANCH  36  37
ENDBRANCH   1  36
TORSDOF 20
ENDMDL
MODEL 2
REMARK VINA RESULT:     -12.6      1.854      2.218
REMARK SMILES COc1ccc(-n2c(SCc3cn(-c4ccc(C(=O)OCCOC(=O)c5ccc(-c6c7nc(c(-c8cc(S(=O)(=O)[O-])ccc8F)c8ccc([nH]8)c(-c8cc(S(=O)(=O)[O-])ccc8F)c8nc(c(-c9cc(S(=O)(=O)[O-])ccc9F)c9ccc6[nH]9)C=C8)C=C7)cc5)cc4)nn3)nc3ccccc3c2=O)cc1
REMARK SMILES IDX 20 1 18 2 19 3 17 4 14 5 15 6 90 7 16 8 89 9 13 10 11 11
REMARK SMILES IDX 12 12 92 13 91 14 10 15 9 16 8 17 7 18 100 19 93 20 99 21
REMARK SMILES IDX 101 22 94 23 98 24 95 25 97 26 96 27 6 28 3 29 4 30 103 31
REMARK SMILES IDX 5 32 102 33 2 34 1 35 21 36 22 37 23 38 24 39 25 40 26 41
REMARK SMILES IDX 27 42 88 43 28 44 87 45 29 46 30 47 31 48 81 49 32 50 86 51
REMARK SMILES IDX 80 52 82 53 33 54 85 55 79 56 78 57 34 59 66 60 46 61 65 62
REMARK SMILES IDX 47 63 50 64 64 65 83 66 48 67 49 68 63 70 84 71 51 72 35 73
REMARK SMILES IDX 36 74 44 75 37 76 43 77 45 78 42 79 38 80 39 81 40 82 41 83
REMARK SMILES IDX 67 84 68 85 76 86 69 87 75 88 77 89 74 90 70 91 71 92 72 93
REMARK SMILES IDX 73 94 52 95 53 96 61 97 54 98 60 99 62 100 59 101 55 102
REMARK SMILES IDX 56 103 57 104 58 105
REMARK H PARENT 82 58 50 69
REMARK Flexibility Score: inf
ROOT
ATOM      1  O   UNL A   1      43.747  18.451  25.363  1.00  0.00    -0.458 OA
ENDROOT
BRANCH   1   2
ATOM      2  C   UNL A   1      43.019  18.381  26.504  1.00  0.00     0.338 C 
ATOM      3  O   UNL A   1      43.231  17.668  27.473  1.00  0.00    -0.246 OA
BRANCH   2   4
ATOM      4  C   UNL A   1      41.952  19.398  26.441  1.00  0.00     0.060 A 
ATOM      5  C   UNL A   1      39.993  21.325  26.283  1.00  0.00     0.066 A 
ATOM      6  C   UNL A   1      41.233  21.672  26.827  1.00  0.00     0.029 A 
ATOM      7  C   UNL A   1      39.738  20.048  25.778  1.00  0.00     0.029 A 
ATOM      8  C   UNL A   1      42.209  20.688  26.931  1.00  0.00     0.018 A 
ATOM      9  C   UNL A   1      40.726  19.088  25.842  1.00  0.00     0.018 A 
BRANCH   5  10
ATOM     10  N   UNL A   1      38.959  22.257  26.246  1.00  0.00    -0.220 N 
ATOM     11  C   UNL A   1      37.106  23.278  25.826  1.00  0.00     0.093 A 
ATOM     12  C   UNL A   1      37.708  22.056  25.727  1.00  0.00     0.141 A 
ATOM     13  N   UNL A   1      37.979  24.152  26.414  1.00  0.00    -0.134 NA
ATOM     14  N   UNL A   1      39.071  23.494  26.750  1.00  0.00    -0.062 NA
BRANCH  11  15
ATOM     15  C   UNL A   1      35.738  23.642  25.436  1.00  0.00     0.138 C 
BRANCH  15  16
ATOM     16  S   UNL A   1      34.543  23.402  26.726  1.00  0.00    -0.081 SA
BRANCH  16  17
ATOM     17  C   UNL A   1      32.991  23.086  25.834  1.00  0.00     0.176 A 
ATOM     18  N   UNL A   1      33.193  22.772  24.499  1.00  0.00    -0.255 N 
ATOM     19  C   UNL A   1      33.177  23.843  23.614  1.00  0.00     0.266 A 
ATOM     20  N   UNL A   1      32.035  23.915  26.135  1.00  0.00    -0.223 NA
ATOM     21  C   UNL A   1      32.979  25.170  24.289  1.00  0.00     0.066 A 
ATOM     22  O   UNL A   1      33.359  23.791  22.401  1.00  0.00    -0.268 OA
ATOM     23  C   UNL A   1      32.313  25.155  25.531  1.00  0.00     0.079 A 
ATOM     24  C   UNL A   1      33.679  26.302  23.886  1.00  0.00     0.016 A 
ATOM     25  C   UNL A   1      32.268  26.298  26.327  1.00  0.00     0.029 A 
ATOM     26  C   UNL A   1      33.711  27.414  24.736  1.00  0.00     0.001 A 
ATOM     27  C   UNL A   1      32.991  27.421  25.939  1.00  0.00     0.002 A 
BRANCH  18  28
ATOM     28  C   UNL A   1      33.295  21.415  24.093  1.00  0.00     0.052 A 
ATOM     29  C   UNL A   1      33.059  18.624  23.912  1.00  0.00     0.119 A 
ATOM     30  C   UNL A   1      32.199  19.437  23.182  1.00  0.00     0.048 A 
ATOM     31  C   UNL A   1      34.120  19.195  24.617  1.00  0.00     0.048 A 
ATOM     32  C   UNL A   1      32.296  20.832  23.297  1.00  0.00     0.030 A 
ATOM     33  C   UNL A   1      34.260  20.588  24.676  1.00  0.00     0.030 A 
BRANCH  29  34
ATOM     34  O   UNL A   1      32.884  17.268  23.854  1.00  0.00    -0.497 OA
ATOM     35  C   UNL A   1      34.100  16.562  23.592  1.00  0.00     0.278 C 
ENDBRANCH  29  34
ENDBRANCH  18  28
ENDBRANCH  16  17
ENDBRANCH  15  16
ENDBRANCH  11  15
ENDBRANCH   5  10
ENDBRANCH   2   4
ENDBRANCH   1   2
BRANCH   1  36
ATOM     36  C   UNL A   1      45.166  18.466  25.525  1.00  0.00     0.275 C 
BRANCH  36  37
ATOM     37  C   UNL A   1      45.825  19.245  24.396  1.00  0.00     0.275 C 
BRANCH  37  38
ATOM     38  O   UNL A   1      45.916  20.640  24.688  1.00  0.00    -0.458 OA
BRANCH  38  39
ATOM     39  C   UNL A   1      44.945  21.400  24.127  1.00  0.00     0.338 C 
ATOM     40  O   UNL A   1      44.556  21.360  22.972  1.00  0.00    -0.246 OA
BRANCH  39  41
ATOM     41  C   UNL A   1      44.578  22.472  25.057  1.00  0.00     0.060 A 
ATOM     42  C   UNL A   1      43.609  23.399  24.663  1.00  0.00     0.016 A 
ATOM     43  C   UNL A   1      45.382  22.684  26.186  1.00  0.00     0.016 A 
ATOM     44  C   UNL A   1      43.527  24.601  25.346  1.00  0.00     0.010 A 
ATOM     45  C   UNL A   1      45.319  23.890  26.844  1.00  0.00     0.010 A 
ATOM     46  C   UNL A   1      44.427  24.860  26.391  1.00  0.00    -0.014 A 
BRANCH  46  47
ATOM     47  C   UNL A   1      44.264  26.071  27.184  1.00  0.00     0.031 A 
ATOM     48  C   UNL A   1      45.352  27.043  26.900  1.00  0.00     0.074 A 
ATOM     49  C   UNL A   1      43.170  26.328  27.933  1.00  0.00     0.049 A 
ATOM     50  N   UNL A   1      46.289  27.430  27.698  1.00  0.00    -0.248 NA
ATOM     51  C   UNL A   1      45.565  27.458  25.498  1.00  0.00     0.031 C 
ATOM     52  C   UNL A   1      41.960  25.507  28.043  1.00  0.00     0.029 A 
ATOM     53  N   UNL A   1      42.854  27.425  28.682  1.00  0.00    -0.354 N 
ATOM     54  C   UNL A   1      47.036  28.354  26.973  1.00  0.00     0.074 A 
ATOM     55  C   UNL A   1      46.709  28.134  25.596  1.00  0.00     0.031 C 
ATOM     56  C   UNL A   1      40.972  26.229  28.623  1.00  0.00     0.029 A 
ATOM     57  C   UNL A   1      41.504  27.516  29.041  1.00  0.00     0.049 A 
ATOM     58  H   UNL A   1      43.521  28.098  28.947  1.00  0.00     0.167 HD
ATOM     59  C   UNL A   1      47.597  29.422  27.603  1.00  0.00     0.034 A 
ATOM     60  C   UNL A   1      40.865  28.580  29.606  1.00  0.00     0.034 A 
ATOM     61  C   UNL A   1      47.668  29.175  29.027  1.00  0.00     0.049 A 
ATOM     62  C   UNL A   1      41.913  29.415  30.234  1.00  0.00     0.074 A 
ATOM     63  C   UNL A   1      48.333  28.280  29.838  1.00  0.00     0.029 A 
ATOM     64  N   UNL A   1      46.626  29.683  29.769  1.00  0.00    -0.354 N 
ATOM     65  N   UNL A   1      42.624  29.018  31.251  1.00  0.00    -0.248 NA
ATOM     66  C   UNL A   1      42.488  30.511  29.469  1.00  0.00     0.031 C 
ATOM     67  C   UNL A   1      47.443  28.017  30.922  1.00  0.00     0.029 A 
ATOM     68  C   UNL A   1      46.307  28.819  30.783  1.00  0.00     0.049 A 
ATOM     69  H   UNL A   1      46.176  30.541  29.595  1.00  0.00     0.167 HD
ATOM     70  C   UNL A   1      43.903  29.480  30.989  1.00  0.00     0.074 A 
ATOM     71  C   UNL A   1      43.725  30.516  29.975  1.00  0.00     0.031 C 
ATOM     72  C   UNL A   1      44.993  28.765  31.402  1.00  0.00     0.034 A 
BRANCH  59  73
ATOM     73  C   UNL A   1      47.600  30.838  27.040  1.00  0.00     0.023 A 
ATOM     74  C   UNL A   1      48.816  31.547  27.127  1.00  0.00     0.031 A 
ATOM     75  C   UNL A   1      46.465  31.621  26.724  1.00  0.00     0.131 A 
ATOM     76  C   UNL A   1      48.848  32.949  27.040  1.00  0.00     0.055 A 
ATOM     77  C   UNL A   1      46.511  33.011  26.586  1.00  0.00     0.041 A 
ATOM     78  F   UNL A   1      45.233  31.117  26.607  1.00  0.00    -0.206 F 
ATOM     79  C   UNL A   1      47.700  33.689  26.778  1.00  0.00     0.022 A 
BRANCH  76  80
ATOM     80  S   UNL A   1      50.391  33.803  27.451  1.00  0.00     0.124 S 
ATOM     81  O   UNL A   1      50.790  34.324  26.149  1.00  0.00    -0.237 OA
ATOM     82  O   UNL A   1      49.937  34.783  28.431  1.00  0.00    -0.237 OA
ATOM     83  O   UNL A   1      51.234  32.734  27.984  1.00  0.00    -0.744 OA
ENDBRANCH  76  80
ENDBRANCH  59  73
BRANCH  60  84
ATOM     84  C   UNL A   1      39.470  29.074  29.384  1.00  0.00     0.023 A 
ATOM     85  C   UNL A   1      38.661  29.642  30.400  1.00  0.00     0.031 A 
ATOM     86  C   UNL A   1      39.012  29.236  28.058  1.00  0.00     0.131 A 
ATOM     87  C   UNL A   1      37.467  30.336  30.068  1.00  0.00     0.055 A 
ATOM     88  C   UNL A   1      37.840  29.927  27.736  1.00  0.00     0.041 A 
ATOM     89  F   UNL A   1      39.740  28.806  27.016  1.00  0.00    -0.206 F 
ATOM     90  C   UNL A   1      37.068  30.490  28.739  1.00  0.00     0.022 A 
BRANCH  87  91
ATOM     91  S   UNL A   1      36.437  31.129  31.354  1.00  0.00     0.124 S 
ATOM     92  O   UNL A   1      35.269  31.564  30.599  1.00  0.00    -0.237 OA
ATOM     93  O   UNL A   1      36.230  30.044  32.307  1.00  0.00    -0.237 OA
ATOM     94  O   UNL A   1      37.283  32.218  31.849  1.00  0.00    -0.744 OA
ENDBRANCH  87  91
ENDBRANCH  60  84
BRANCH  72  95
ATOM     95  C   UNL A   1      44.783  27.746  32.505  1.00  0.00     0.023 A 
ATOM     96  C   UNL A   1      44.659  26.347  32.329  1.00  0.00     0.031 A 
ATOM     97  C   UNL A   1      44.777  28.240  33.822  1.00  0.00     0.131 A 
ATOM     98  C   UNL A   1      44.524  25.507  33.455  1.00  0.00     0.055 A 
ATOM     99  C   UNL A   1      44.673  27.405  34.930  1.00  0.00     0.041 A 
ATOM    100  F   UNL A   1      44.904  29.558  34.054  1.00  0.00    -0.206 F 
ATOM    101  C   UNL A   1      44.538  26.034  34.751  1.00  0.00     0.022 A 
BRANCH  98 102
ATOM    102  S   UNL A   1      44.288  23.710  33.260  1.00  0.00     0.124 S 
ATOM    103  O   UNL A   1      43.120  23.425  34.083  1.00  0.00    -0.237 OA
ATOM    104  O   UNL A   1      44.104  23.569  31.818  1.00  0.00    -0.237 OA
ATOM    105  O   UNL A   1      45.541  23.145  33.766  1.00  0.00    -0.744 OA
ENDBRANCH  98 102
ENDBRANCH  72  95
ENDBRANCH  46  47
ENDBRANCH  39  41
ENDBRANCH  38  39
ENDBRANCH  37  38
ENDBRANCH  36  37
ENDBRANCH   1  36
TORSDOF 20
ENDMDL
MODEL 3
REMARK VINA RESULT:     -12.2      1.614      3.437
REMARK SMILES COc1ccc(-n2c(SCc3cn(-c4ccc(C(=O)OCCOC(=O)c5ccc(-c6c7nc(c(-c8cc(S(=O)(=O)[O-])ccc8F)c8ccc([nH]8)c(-c8cc(S(=O)(=O)[O-])ccc8F)c8nc(c(-c9cc(S(=O)(=O)[O-])ccc9F)c9ccc6[nH]9)C=C8)C=C7)cc5)cc4)nn3)nc3ccccc3c2=O)cc1
REMARK SMILES IDX 20 1 18 2 19 3 17 4 14 5 15 6 90 7 16 8 89 9 13 10 11 11
REMARK SMILES IDX 12 12 92 13 91 14 10 15 9 16 8 17 7 18 100 19 93 20 99 21
REMARK SMILES IDX 101 22 94 23 98 24 95 25 97 26 96 27 6 28 3 29 4 30 103 31
REMARK SMILES IDX 5 32 102 33 2 34 1 35 21 36 22 37 23 38 24 39 25 40 26 41
REMARK SMILES IDX 27 42 88 43 28 44 87 45 29 46 30 47 31 48 81 49 32 50 86 51
REMARK SMILES IDX 80 52 82 53 33 54 85 55 79 56 78 57 34 59 66 60 46 61 65 62
REMARK SMILES IDX 47 63 50 64 64 65 83 66 48 67 49 68 63 70 84 71 51 72 35 73
REMARK SMILES IDX 36 74 44 75 37 76 43 77 45 78 42 79 38 80 39 81 40 82 41 83
REMARK SMILES IDX 67 84 68 85 76 86 69 87 75 88 77 89 74 90 70 91 71 92 72 93
REMARK SMILES IDX 73 94 52 95 53 96 61 97 54 98 60 99 62 100 59 101 55 102
REMARK SMILES IDX 56 103 57 104 58 105
REMARK H PARENT 82 58 50 69
REMARK Flexibility Score: inf
ROOT
ATOM      1  O   UNL A   1      42.530  18.863  25.347  1.00  0.00    -0.458 OA
ENDROOT
BRANCH   1   2
ATOM      2  C   UNL A   1      42.030  19.278  26.536  1.00  0.00     0.338 C 
ATOM      3  O   UNL A   1      42.489  19.059  27.647  1.00  0.00    -0.246 OA
BRANCH   2   4
ATOM      4  C   UNL A   1      40.865  20.145  26.277  1.00  0.00     0.060 A 
ATOM      5  C   UNL A   1      38.723  21.791  25.751  1.00  0.00     0.066 A 
ATOM      6  C   UNL A   1      39.875  22.349  26.315  1.00  0.00     0.029 A 
ATOM      7  C   UNL A   1      38.647  20.440  25.407  1.00  0.00     0.029 A 
ATOM      8  C   UNL A   1      40.942  21.508  26.605  1.00  0.00     0.018 A 
ATOM      9  C   UNL A   1      39.727  19.619  25.654  1.00  0.00     0.018 A 
BRANCH   5  10
ATOM     10  N   UNL A   1      37.598  22.583  25.531  1.00  0.00    -0.220 N 
ATOM     11  C   UNL A   1      35.957  23.639  24.611  1.00  0.00     0.093 A 
ATOM     12  C   UNL A   1      36.885  22.666  24.365  1.00  0.00     0.141 A 
ATOM     13  N   UNL A   1      36.115  24.082  25.896  1.00  0.00    -0.134 NA
ATOM     14  N   UNL A   1      37.058  23.365  26.476  1.00  0.00    -0.062 NA
BRANCH  11  15
ATOM     15  C   UNL A   1      34.908  24.130  23.710  1.00  0.00     0.138 C 
BRANCH  15  16
ATOM     16  S   UNL A   1      33.940  25.450  24.397  1.00  0.00    -0.081 SA
BRANCH  16  17
ATOM     17  C   UNL A   1      32.227  24.996  23.991  1.00  0.00     0.176 A 
ATOM     18  N   UNL A   1      31.303  25.553  24.861  1.00  0.00    -0.255 N 
ATOM     19  C   UNL A   1      30.967  24.781  25.967  1.00  0.00     0.266 A 
ATOM     20  N   UNL A   1      32.081  23.749  23.652  1.00  0.00    -0.223 NA
ATOM     21  C   UNL A   1      31.714  23.479  26.032  1.00  0.00     0.066 A 
ATOM     22  O   UNL A   1      30.195  25.092  26.868  1.00  0.00    -0.268 OA
ATOM     23  C   UNL A   1      32.183  22.956  24.810  1.00  0.00     0.079 A 
ATOM     24  C   UNL A   1      32.195  22.977  27.236  1.00  0.00     0.016 A 
ATOM     25  C   UNL A   1      33.059  21.873  24.790  1.00  0.00     0.029 A 
ATOM     26  C   UNL A   1      33.150  21.953  27.207  1.00  0.00     0.001 A 
ATOM     27  C   UNL A   1      33.563  21.389  25.993  1.00  0.00     0.002 A 
BRANCH  18  28
ATOM     28  C   UNL A   1      30.681  26.790  24.545  1.00  0.00     0.052 A 
ATOM     29  C   UNL A   1      29.895  29.177  23.296  1.00  0.00     0.119 A 
ATOM     30  C   UNL A   1      29.133  28.027  23.126  1.00  0.00     0.048 A 
ATOM     31  C   UNL A   1      30.962  29.173  24.196  1.00  0.00     0.048 A 
ATOM     32  C   UNL A   1      29.542  26.826  23.723  1.00  0.00     0.030 A 
ATOM     33  C   UNL A   1      31.331  27.989  24.849  1.00  0.00     0.030 A 
BRANCH  29  34
ATOM     34  O   UNL A   1      29.525  30.313  22.628  1.00  0.00    -0.497 OA
ATOM     35  C   UNL A   1      28.503  30.077  21.656  1.00  0.00     0.278 C 
ENDBRANCH  29  34
ENDBRANCH  18  28
ENDBRANCH  16  17
ENDBRANCH  15  16
ENDBRANCH  11  15
ENDBRANCH   5  10
ENDBRANCH   2   4
ENDBRANCH   1   2
BRANCH   1  36
ATOM     36  C   UNL A   1      43.900  18.456  25.350  1.00  0.00     0.275 C 
BRANCH  36  37
ATOM     37  C   UNL A   1      44.740  19.400  24.503  1.00  0.00     0.275 C 
BRANCH  37  38
ATOM     38  O   UNL A   1      44.907  20.674  25.126  1.00  0.00    -0.458 OA
BRANCH  38  39
ATOM     39  C   UNL A   1      44.469  21.725  24.390  1.00  0.00     0.338 C 
ATOM     40  O   UNL A   1      44.584  21.879  23.186  1.00  0.00    -0.246 OA
BRANCH  39  41
ATOM     41  C   UNL A   1      44.036  22.795  25.294  1.00  0.00     0.060 A 
ATOM     42  C   UNL A   1      43.363  23.896  24.756  1.00  0.00     0.016 A 
ATOM     43  C   UNL A   1      44.532  22.806  26.606  1.00  0.00     0.016 A 
ATOM     44  C   UNL A   1      43.287  25.057  25.507  1.00  0.00     0.010 A 
ATOM     45  C   UNL A   1      44.482  23.969  27.338  1.00  0.00     0.010 A 
ATOM     46  C   UNL A   1      43.904  25.101  26.768  1.00  0.00    -0.014 A 
BRANCH  46  47
ATOM     47  C   UNL A   1      43.723  26.279  27.604  1.00  0.00     0.031 A 
ATOM     48  C   UNL A   1      44.870  27.214  27.462  1.00  0.00     0.074 A 
ATOM     49  C   UNL A   1      42.580  26.550  28.272  1.00  0.00     0.049 A 
ATOM     50  N   UNL A   1      45.750  27.520  28.353  1.00  0.00    -0.248 NA
ATOM     51  C   UNL A   1      45.219  27.684  26.105  1.00  0.00     0.031 C 
ATOM     52  C   UNL A   1      41.333  25.780  28.239  1.00  0.00     0.029 A 
ATOM     53  N   UNL A   1      42.247  27.624  29.046  1.00  0.00    -0.354 N 
ATOM     54  C   UNL A   1      46.594  28.443  27.741  1.00  0.00     0.074 A 
ATOM     55  C   UNL A   1      46.377  28.303  26.332  1.00  0.00     0.031 C 
ATOM     56  C   UNL A   1      40.329  26.517  28.770  1.00  0.00     0.029 A 
ATOM     57  C   UNL A   1      40.876  27.758  29.296  1.00  0.00     0.049 A 
ATOM     58  H   UNL A   1      42.916  28.253  29.400  1.00  0.00     0.167 HD
ATOM     59  C   UNL A   1      47.142  29.453  28.469  1.00  0.00     0.034 A 
ATOM     60  C   UNL A   1      40.235  28.822  29.860  1.00  0.00     0.034 A 
ATOM     61  C   UNL A   1      47.081  29.137  29.879  1.00  0.00     0.049 A 
ATOM     62  C   UNL A   1      41.259  29.578  30.614  1.00  0.00     0.074 A 
ATOM     63  C   UNL A   1      47.637  28.176  30.697  1.00  0.00     0.029 A 
ATOM     64  N   UNL A   1      46.002  29.656  30.557  1.00  0.00    -0.354 N 
ATOM     65  N   UNL A   1      41.864  29.103  31.665  1.00  0.00    -0.248 NA
ATOM     66  C   UNL A   1      41.941  30.682  29.956  1.00  0.00     0.031 C 
ATOM     67  C   UNL A   1      46.648  27.903  31.688  1.00  0.00     0.029 A 
ATOM     68  C   UNL A   1      45.562  28.760  31.496  1.00  0.00     0.049 A 
ATOM     69  H   UNL A   1      45.603  30.540  30.390  1.00  0.00     0.167 HD
ATOM     70  C   UNL A   1      43.178  29.518  31.535  1.00  0.00     0.074 A 
ATOM     71  C   UNL A   1      43.130  30.607  30.563  1.00  0.00     0.031 C 
ATOM     72  C   UNL A   1      44.198  28.736  32.000  1.00  0.00     0.034 A 
BRANCH  59  73
ATOM     73  C   UNL A   1      47.251  30.893  27.981  1.00  0.00     0.023 A 
ATOM     74  C   UNL A   1      46.058  31.500  27.538  1.00  0.00     0.031 A 
ATOM     75  C   UNL A   1      48.441  31.576  27.636  1.00  0.00     0.131 A 
ATOM     76  C   UNL A   1      46.083  32.627  26.699  1.00  0.00     0.055 A 
ATOM     77  C   UNL A   1      48.458  32.728  26.844  1.00  0.00     0.041 A 
ATOM     78  F   UNL A   1      49.661  31.143  27.967  1.00  0.00    -0.206 F 
ATOM     79  C   UNL A   1      47.278  33.242  26.341  1.00  0.00     0.022 A 
BRANCH  76  80
ATOM     80  S   UNL A   1      44.532  33.170  25.940  1.00  0.00     0.124 S 
ATOM     81  O   UNL A   1      45.012  33.780  24.705  1.00  0.00    -0.237 OA
ATOM     82  O   UNL A   1      43.810  31.911  25.803  1.00  0.00    -0.237 OA
ATOM     83  O   UNL A   1      43.982  34.099  26.925  1.00  0.00    -0.744 OA
ENDBRANCH  76  80
ENDBRANCH  59  73
BRANCH  60  84
ATOM     84  C   UNL A   1      38.885  29.388  29.547  1.00  0.00     0.023 A 
ATOM     85  C   UNL A   1      38.120  30.157  30.460  1.00  0.00     0.031 A 
ATOM     86  C   UNL A   1      38.448  29.395  28.205  1.00  0.00     0.131 A 
ATOM     87  C   UNL A   1      36.988  30.889  30.014  1.00  0.00     0.055 A 
ATOM     88  C   UNL A   1      37.337  30.124  27.769  1.00  0.00     0.041 A 
ATOM     89  F   UNL A   1      39.144  28.764  27.246  1.00  0.00    -0.206 F 
ATOM     90  C   UNL A   1      36.608  30.883  28.670  1.00  0.00     0.022 A 
BRANCH  87  91
ATOM     91  S   UNL A   1      36.019  31.937  31.158  1.00  0.00     0.124 S 
ATOM     92  O   UNL A   1      35.521  30.969  32.127  1.00  0.00    -0.237 OA
ATOM     93  O   UNL A   1      37.017  32.886  31.639  1.00  0.00    -0.237 OA
ATOM     94  O   UNL A   1      34.989  32.523  30.297  1.00  0.00    -0.744 OA
ENDBRANCH  87  91
ENDBRANCH  60  84
BRANCH  72  95
ATOM     95  C   UNL A   1      43.854  27.677  33.028  1.00  0.00     0.023 A 
ATOM     96  C   UNL A   1      43.538  27.912  34.388  1.00  0.00     0.031 A 
ATOM     97  C   UNL A   1      43.784  26.352  32.563  1.00  0.00     0.131 A 
ATOM     98  C   UNL A   1      43.181  26.831  35.222  1.00  0.00     0.055 A 
ATOM     99  C   UNL A   1      43.402  25.294  33.382  1.00  0.00     0.041 A 
ATOM    100  F   UNL A   1      44.060  26.067  31.279  1.00  0.00    -0.206 F 
ATOM    101  C   UNL A   1      43.107  25.528  34.719  1.00  0.00     0.022 A 
BRANCH  98 102
ATOM    102  S   UNL A   1      42.840  27.090  36.995  1.00  0.00     0.124 S 
ATOM    103  O   UNL A   1      43.509  25.968  37.641  1.00  0.00    -0.237 OA
ATOM    104  O   UNL A   1      43.420  28.407  37.240  1.00  0.00    -0.237 OA
ATOM    105  O   UNL A   1      41.377  27.050  37.070  1.00  0.00    -0.744 OA
ENDBRANCH  98 102
ENDBRANCH  72  95
ENDBRANCH  46  47
ENDBRANCH  39  41
ENDBRANCH  38  39
ENDBRANCH  37  38
ENDBRANCH  36  37
ENDBRANCH   1  36
TORSDOF 20
ENDMDL
