MODEL 1
REMARK VINA RESULT:     -12.4      0.000      0.000
REMARK SMILES COc1ccc(/C=C/c2ncc(C(=O)OCCOC(=O)c3ccc(-c4c5nc(c(-c6cc(S(=O)(=O)[O-])ccc6F)c6ccc([nH]6)c(-c6cc(S(=O)(=O)[O-])ccc6F)c6nc(c(-c7cc(S(=O)(=O)[O-])ccc7F)c7ccc4[nH]7)C=C6)C=C5)cc3)s2)cc1O
REMARK SMILES IDX 16 1 15 2 13 3 14 4 12 5 9 6 10 7 84 8 11 9 8 10 7 11 6 12
REMARK SMILES IDX 3 13 4 14 86 15 5 16 85 17 2 18 1 19 87 20 17 22 18 23 19 24
REMARK SMILES IDX 20 25 21 26 22 27 83 28 23 29 82 30 24 31 25 32 26 33 76 34
REMARK SMILES IDX 27 35 81 36 75 37 77 38 28 39 80 40 74 41 73 42 29 44 61 45
REMARK SMILES IDX 41 46 60 47 42 48 45 49 59 50 78 51 43 52 44 53 58 55 79 56
REMARK SMILES IDX 46 57 30 58 31 59 39 60 32 61 38 62 40 63 37 64 33 65 34 66
REMARK SMILES IDX 35 67 36 68 62 69 63 70 71 71 64 72 70 73 72 74 69 75 65 76
REMARK SMILES IDX 66 77 67 78 68 79 47 80 48 81 56 82 49 83 55 84 57 85 54 86
REMARK SMILES IDX 50 87 51 88 52 89 53 90
REMARK H PARENT 87 21 77 43 45 54
REMARK Flexibility Score: inf
ROOT
ATOM      1  C   UNL A   1      34.910  21.098  25.707  1.00  0.00     0.275 C 
ENDROOT
BRANCH   1   2
ATOM      2  O   UNL A   1      33.871  21.355  24.741  1.00  0.00    -0.458 OA
BRANCH   2   3
ATOM      3  C   UNL A   1      32.587  21.191  25.185  1.00  0.00     0.350 C 
ATOM      4  O   UNL A   1      32.021  20.110  25.245  1.00  0.00    -0.245 OA
BRANCH   3   5
ATOM      5  C   UNL A   1      32.041  22.455  25.626  1.00  0.00     0.132 A 
ATOM      6  C   UNL A   1      30.953  24.639  25.663  1.00  0.00     0.116 A 
ATOM      7  N   UNL A   1      30.976  24.122  26.877  1.00  0.00    -0.244 NA
ATOM      8  S   UNL A   1      31.876  23.751  24.508  1.00  0.00    -0.107 S 
ATOM      9  C   UNL A   1      31.557  22.863  26.850  1.00  0.00     0.139 A 
BRANCH   6  10
ATOM     10  C   UNL A   1      30.262  25.807  25.236  1.00  0.00     0.040 C 
ATOM     11  C   UNL A   1      30.091  26.052  23.929  1.00  0.00     0.011 C 
BRANCH  11  12
ATOM     12  C   UNL A   1      29.446  27.235  23.325  1.00  0.00    -0.022 A 
ATOM     13  C   UNL A   1      28.444  29.674  22.318  1.00  0.00     0.160 A 
ATOM     14  C   UNL A   1      27.612  28.827  23.047  1.00  0.00     0.051 A 
ATOM     15  C   UNL A   1      29.767  29.301  22.095  1.00  0.00     0.158 A 
ATOM     16  C   UNL A   1      28.111  27.614  23.548  1.00  0.00     0.012 A 
ATOM     17  C   UNL A   1      30.256  28.084  22.556  1.00  0.00     0.058 A 
BRANCH  13  18
ATOM     18  O   UNL A   1      27.994  30.925  21.987  1.00  0.00    -0.493 OA
ATOM     19  C   UNL A   1      27.652  31.700  23.137  1.00  0.00     0.278 C 
ENDBRANCH  13  18
BRANCH  15  20
ATOM     20  O   UNL A   1      30.655  30.155  21.501  1.00  0.00    -0.504 OA
ATOM     21  H   UNL A   1      31.504  30.283  21.875  1.00  0.00     0.293 HD
ENDBRANCH  15  20
ENDBRANCH  11  12
ENDBRANCH   6  10
ENDBRANCH   3   5
ENDBRANCH   2   3
ENDBRANCH   1   2
BRANCH   1  22
ATOM     22  C   UNL A   1      36.200  20.600  25.045  1.00  0.00     0.275 C 
BRANCH  22  23
ATOM     23  O   UNL A   1      37.245  21.591  25.076  1.00  0.00    -0.458 OA
BRANCH  23  24
ATOM     24  C   UNL A   1      38.392  21.186  25.672  1.00  0.00     0.338 C 
ATOM     25  O   UNL A   1      38.869  20.064  25.645  1.00  0.00    -0.246 OA
BRANCH  24  26
ATOM     26  C   UNL A   1      39.100  22.339  26.249  1.00  0.00     0.060 A 
ATOM     27  C   UNL A   1      38.554  23.599  26.016  1.00  0.00     0.016 A 
ATOM     28  C   UNL A   1      40.331  22.217  26.892  1.00  0.00     0.016 A 
ATOM     29  C   UNL A   1      39.240  24.750  26.388  1.00  0.00     0.010 A 
ATOM     30  C   UNL A   1      41.011  23.377  27.295  1.00  0.00     0.010 A 
ATOM     31  C   UNL A   1      40.479  24.655  27.028  1.00  0.00    -0.014 A 
BRANCH  31  32
ATOM     32  C   UNL A   1      41.233  25.899  27.348  1.00  0.00     0.031 A 
ATOM     33  C   UNL A   1      40.619  26.937  28.248  1.00  0.00     0.074 A 
ATOM     34  C   UNL A   1      42.486  26.070  26.885  1.00  0.00     0.049 A 
ATOM     35  N   UNL A   1      41.069  28.120  28.581  1.00  0.00    -0.248 NA
ATOM     36  C   UNL A   1      39.322  26.597  28.850  1.00  0.00     0.031 C 
ATOM     37  C   UNL A   1      43.220  25.105  26.065  1.00  0.00     0.029 A 
ATOM     38  N   UNL A   1      43.370  27.108  27.045  1.00  0.00    -0.354 N 
ATOM     39  C   UNL A   1      40.100  28.678  29.410  1.00  0.00     0.074 A 
ATOM     40  C   UNL A   1      39.024  27.711  29.501  1.00  0.00     0.031 C 
ATOM     41  C   UNL A   1      44.449  25.585  25.815  1.00  0.00     0.029 A 
ATOM     42  C   UNL A   1      44.566  26.921  26.391  1.00  0.00     0.049 A 
ATOM     43  H   UNL A   1      43.167  27.911  27.578  1.00  0.00     0.167 HD
ATOM     44  C   UNL A   1      40.111  29.880  30.040  1.00  0.00     0.034 A 
ATOM     45  C   UNL A   1      45.622  27.745  26.238  1.00  0.00     0.034 A 
ATOM     46  C   UNL A   1      41.198  30.826  29.945  1.00  0.00     0.049 A 
ATOM     47  C   UNL A   1      45.572  29.115  26.867  1.00  0.00     0.074 A 
ATOM     48  C   UNL A   1      41.311  32.076  30.531  1.00  0.00     0.029 A 
ATOM     49  N   UNL A   1      42.364  30.630  29.215  1.00  0.00    -0.354 N 
ATOM     50  N   UNL A   1      44.627  29.651  27.607  1.00  0.00    -0.248 NA
ATOM     51  C   UNL A   1      46.727  29.991  26.640  1.00  0.00     0.031 C 
ATOM     52  C   UNL A   1      42.508  32.661  30.102  1.00  0.00     0.029 A 
ATOM     53  C   UNL A   1      43.186  31.744  29.313  1.00  0.00     0.049 A 
ATOM     54  H   UNL A   1      42.578  29.818  28.701  1.00  0.00     0.167 HD
ATOM     55  C   UNL A   1      45.092  30.917  27.954  1.00  0.00     0.074 A 
ATOM     56  C   UNL A   1      46.404  31.056  27.357  1.00  0.00     0.031 C 
ATOM     57  C   UNL A   1      44.489  31.876  28.704  1.00  0.00     0.034 A 
BRANCH  44  58
ATOM     58  C   UNL A   1      38.881  30.258  30.833  1.00  0.00     0.023 A 
ATOM     59  C   UNL A   1      37.878  31.088  30.302  1.00  0.00     0.031 A 
ATOM     60  C   UNL A   1      38.730  29.815  32.160  1.00  0.00     0.131 A 
ATOM     61  C   UNL A   1      36.819  31.517  31.117  1.00  0.00     0.055 A 
ATOM     62  C   UNL A   1      37.628  30.176  32.938  1.00  0.00     0.041 A 
ATOM     63  F   UNL A   1      39.663  29.038  32.731  1.00  0.00    -0.206 F 
ATOM     64  C   UNL A   1      36.673  31.046  32.424  1.00  0.00     0.022 A 
BRANCH  61  65
ATOM     65  S   UNL A   1      35.725  32.828  30.499  1.00  0.00     0.124 S 
ATOM     66  O   UNL A   1      36.273  34.006  31.169  1.00  0.00    -0.237 OA
ATOM     67  O   UNL A   1      35.933  32.757  29.058  1.00  0.00    -0.237 OA
ATOM     68  O   UNL A   1      34.402  32.416  30.962  1.00  0.00    -0.744 OA
ENDBRANCH  61  65
ENDBRANCH  44  58
BRANCH  45  69
ATOM     69  C   UNL A   1      46.794  27.329  25.415  1.00  0.00     0.023 A 
ATOM     70  C   UNL A   1      46.971  27.806  24.107  1.00  0.00     0.031 A 
ATOM     71  C   UNL A   1      47.733  26.405  25.910  1.00  0.00     0.131 A 
ATOM     72  C   UNL A   1      48.035  27.328  23.325  1.00  0.00     0.055 A 
ATOM     73  C   UNL A   1      48.823  25.978  25.151  1.00  0.00     0.041 A 
ATOM     74  F   UNL A   1      47.610  25.910  27.152  1.00  0.00    -0.206 F 
ATOM     75  C   UNL A   1      48.972  26.431  23.844  1.00  0.00     0.022 A 
BRANCH  72  76
ATOM     76  S   UNL A   1      48.129  27.829  21.584  1.00  0.00     0.124 S 
ATOM     77  O   UNL A   1      49.161  28.858  21.626  1.00  0.00    -0.237 OA
ATOM     78  O   UNL A   1      48.496  26.578  20.928  1.00  0.00    -0.237 OA
ATOM     79  O   UNL A   1      46.779  28.308  21.295  1.00  0.00    -0.744 OA
ENDBRANCH  72  76
ENDBRANCH  45  69
BRANCH  57  80
ATOM     80  C   UNL A   1      45.277  33.139  28.961  1.00  0.00     0.023 A 
ATOM     81  C   UNL A   1      45.086  34.303  28.197  1.00  0.00     0.031 A 
ATOM     82  C   UNL A   1      46.249  33.167  29.976  1.00  0.00     0.131 A 
ATOM     83  C   UNL A   1      45.895  35.427  28.421  1.00  0.00     0.055 A 
ATOM     84  C   UNL A   1      47.010  34.308  30.236  1.00  0.00     0.041 A 
ATOM     85  F   UNL A   1      46.478  32.082  30.735  1.00  0.00    -0.206 F 
ATOM     86  C   UNL A   1      46.844  35.443  29.446  1.00  0.00     0.022 A 
BRANCH  83  87
ATOM     87  S   UNL A   1      45.761  36.840  27.289  1.00  0.00     0.124 S 
ATOM     88  O   UNL A   1      46.854  36.587  26.356  1.00  0.00    -0.237 OA
ATOM     89  O   UNL A   1      44.414  36.681  26.751  1.00  0.00    -0.237 OA
ATOM     90  O   UNL A   1      45.946  37.997  28.162  1.00  0.00    -0.744 OA
ENDBRANCH  83  87
ENDBRANCH  57  80
ENDBRANCH  31  32
ENDBRANCH  24  26
ENDBRANCH  23  24
ENDBRANCH  22  23
ENDBRANCH   1  22
TORSDOF 18
ENDMDL
MODEL 2
REMARK VINA RESULT:     -12.0      5.266     10.878
REMARK SMILES COc1ccc(/C=C/c2ncc(C(=O)OCCOC(=O)c3ccc(-c4c5nc(c(-c6cc(S(=O)(=O)[O-])ccc6F)c6ccc([nH]6)c(-c6cc(S(=O)(=O)[O-])ccc6F)c6nc(c(-c7cc(S(=O)(=O)[O-])ccc7F)c7ccc4[nH]7)C=C6)C=C5)cc3)s2)cc1O
REMARK SMILES IDX 16 1 15 2 13 3 14 4 12 5 9 6 10 7 84 8 11 9 8 10 7 11 6 12
REMARK SMILES IDX 3 13 4 14 86 15 5 16 85 17 2 18 1 19 87 20 17 22 18 23 19 24
REMARK SMILES IDX 20 25 21 26 22 27 83 28 23 29 82 30 24 31 25 32 26 33 76 34
REMARK SMILES IDX 27 35 81 36 75 37 77 38 28 39 80 40 74 41 73 42 29 44 61 45
REMARK SMILES IDX 41 46 60 47 42 48 45 49 59 50 78 51 43 52 44 53 58 55 79 56
REMARK SMILES IDX 46 57 30 58 31 59 39 60 32 61 38 62 40 63 37 64 33 65 34 66
REMARK SMILES IDX 35 67 36 68 62 69 63 70 71 71 64 72 70 73 72 74 69 75 65 76
REMARK SMILES IDX 66 77 67 78 68 79 47 80 48 81 56 82 49 83 55 84 57 85 54 86
REMARK SMILES IDX 50 87 51 88 52 89 53 90
REMARK H PARENT 87 21 77 43 45 54
REMARK Flexibility Score: inf
ROOT
ATOM      1  C   UNL A   1      31.184  29.571  24.435  1.00  0.00     0.275 C 
ENDROOT
BRANCH   1   2
ATOM      2  O   UNL A   1      30.725  28.219  24.235  1.00  0.00    -0.458 OA
BRANCH   2   3
ATOM      3  C   UNL A   1      30.854  27.726  22.964  1.00  0.00     0.350 C 
ATOM      4  O   UNL A   1      30.246  28.164  22.000  1.00  0.00    -0.245 OA
BRANCH   3   5
ATOM      5  C   UNL A   1      31.849  26.677  22.929  1.00  0.00     0.132 A 
ATOM      6  C   UNL A   1      32.954  24.506  23.081  1.00  0.00     0.116 A 
ATOM      7  N   UNL A   1      33.659  25.324  22.322  1.00  0.00    -0.244 NA
ATOM      8  S   UNL A   1      31.639  25.270  23.895  1.00  0.00    -0.107 S 
ATOM      9  C   UNL A   1      33.010  26.544  22.201  1.00  0.00     0.139 A 
BRANCH   6  10
ATOM     10  C   UNL A   1      33.167  23.114  23.276  1.00  0.00     0.040 C 
ATOM     11  C   UNL A   1      32.123  22.274  23.345  1.00  0.00     0.011 C 
BRANCH  11  12
ATOM     12  C   UNL A   1      32.171  20.819  23.593  1.00  0.00    -0.022 A 
ATOM     13  C   UNL A   1      32.547  18.092  24.215  1.00  0.00     0.160 A 
ATOM     14  C   UNL A   1      32.339  18.482  22.894  1.00  0.00     0.051 A 
ATOM     15  C   UNL A   1      32.565  19.060  25.216  1.00  0.00     0.158 A 
ATOM     16  C   UNL A   1      32.153  19.840  22.585  1.00  0.00     0.012 A 
ATOM     17  C   UNL A   1      32.343  20.401  24.921  1.00  0.00     0.058 A 
BRANCH  13  18
ATOM     18  O   UNL A   1      32.898  16.794  24.477  1.00  0.00    -0.493 OA
ATOM     19  C   UNL A   1      34.143  16.436  23.875  1.00  0.00     0.278 C 
ENDBRANCH  13  18
BRANCH  15  20
ATOM     20  O   UNL A   1      32.895  18.743  26.505  1.00  0.00    -0.504 OA
ATOM     21  H   UNL A   1      33.773  18.868  26.808  1.00  0.00     0.293 HD
ENDBRANCH  15  20
ENDBRANCH  11  12
ENDBRANCH   6  10
ENDBRANCH   3   5
ENDBRANCH   2   3
ENDBRANCH   1   2
BRANCH   1  22
ATOM     22  C   UNL A   1      31.615  29.823  25.885  1.00  0.00     0.275 C 
BRANCH  22  23
ATOM     23  O   UNL A   1      33.004  30.189  25.984  1.00  0.00    -0.458 OA
BRANCH  23  24
ATOM     24  C   UNL A   1      33.270  31.169  26.880  1.00  0.00     0.338 C 
ATOM     25  O   UNL A   1      32.509  32.052  27.238  1.00  0.00    -0.246 OA
BRANCH  24  26
ATOM     26  C   UNL A   1      34.581  30.944  27.508  1.00  0.00     0.060 A 
ATOM     27  C   UNL A   1      34.943  29.622  27.760  1.00  0.00     0.016 A 
ATOM     28  C   UNL A   1      35.386  31.989  27.958  1.00  0.00     0.016 A 
ATOM     29  C   UNL A   1      36.088  29.327  28.491  1.00  0.00     0.010 A 
ATOM     30  C   UNL A   1      36.558  31.692  28.671  1.00  0.00     0.010 A 
ATOM     31  C   UNL A   1      36.909  30.358  28.960  1.00  0.00    -0.014 A 
BRANCH  31  32
ATOM     32  C   UNL A   1      38.088  30.024  29.806  1.00  0.00     0.031 A 
ATOM     33  C   UNL A   1      39.168  29.126  29.267  1.00  0.00     0.074 A 
ATOM     34  C   UNL A   1      38.221  30.573  31.029  1.00  0.00     0.049 A 
ATOM     35  N   UNL A   1      40.228  28.648  29.867  1.00  0.00    -0.248 NA
ATOM     36  C   UNL A   1      39.032  28.709  27.864  1.00  0.00     0.031 C 
ATOM     37  C   UNL A   1      37.281  31.517  31.637  1.00  0.00     0.029 A 
ATOM     38  N   UNL A   1      39.203  30.428  31.978  1.00  0.00    -0.354 N 
ATOM     39  C   UNL A   1      40.873  27.851  28.925  1.00  0.00     0.074 A 
ATOM     40  C   UNL A   1      40.063  27.890  27.724  1.00  0.00     0.031 C 
ATOM     41  C   UNL A   1      37.743  31.884  32.842  1.00  0.00     0.029 A 
ATOM     42  C   UNL A   1      38.971  31.148  33.128  1.00  0.00     0.049 A 
ATOM     43  H   UNL A   1      39.999  29.863  31.847  1.00  0.00     0.167 HD
ATOM     44  C   UNL A   1      42.034  27.159  29.050  1.00  0.00     0.034 A 
ATOM     45  C   UNL A   1      39.647  31.182  34.293  1.00  0.00     0.034 A 
ATOM     46  C   UNL A   1      42.832  27.141  30.254  1.00  0.00     0.049 A 
ATOM     47  C   UNL A   1      40.882  30.330  34.443  1.00  0.00     0.074 A 
ATOM     48  C   UNL A   1      44.018  26.467  30.494  1.00  0.00     0.029 A 
ATOM     49  N   UNL A   1      42.528  27.828  31.423  1.00  0.00    -0.354 N 
ATOM     50  N   UNL A   1      41.454  29.541  33.562  1.00  0.00    -0.248 NA
ATOM     51  C   UNL A   1      41.561  30.371  35.744  1.00  0.00     0.031 C 
ATOM     52  C   UNL A   1      44.392  26.690  31.825  1.00  0.00     0.029 A 
ATOM     53  C   UNL A   1      43.486  27.571  32.394  1.00  0.00     0.049 A 
ATOM     54  H   UNL A   1      41.745  28.412  31.545  1.00  0.00     0.167 HD
ATOM     55  C   UNL A   1      42.576  29.015  34.197  1.00  0.00     0.074 A 
ATOM     56  C   UNL A   1      42.607  29.588  35.527  1.00  0.00     0.031 C 
ATOM     57  C   UNL A   1      43.500  28.141  33.721  1.00  0.00     0.034 A 
BRANCH  44  58
ATOM     58  C   UNL A   1      42.469  26.317  27.872  1.00  0.00     0.023 A 
ATOM     59  C   UNL A   1      42.134  24.956  27.765  1.00  0.00     0.031 A 
ATOM     60  C   UNL A   1      43.271  26.876  26.859  1.00  0.00     0.131 A 
ATOM     61  C   UNL A   1      42.666  24.182  26.722  1.00  0.00     0.055 A 
ATOM     62  C   UNL A   1      43.725  26.120  25.776  1.00  0.00     0.041 A 
ATOM     63  F   UNL A   1      43.642  28.164  26.915  1.00  0.00    -0.206 F 
ATOM     64  C   UNL A   1      43.439  24.761  25.712  1.00  0.00     0.022 A 
BRANCH  61  65
ATOM     65  S   UNL A   1      42.471  22.379  26.792  1.00  0.00     0.124 S 
ATOM     66  O   UNL A   1      42.047  22.184  28.176  1.00  0.00    -0.237 OA
ATOM     67  O   UNL A   1      41.459  22.132  25.772  1.00  0.00    -0.237 OA
ATOM     68  O   UNL A   1      43.808  21.878  26.481  1.00  0.00    -0.744 OA
ENDBRANCH  61  65
ENDBRANCH  44  58
BRANCH  45  69
ATOM     69  C   UNL A   1      39.149  32.007  35.432  1.00  0.00     0.023 A 
ATOM     70  C   UNL A   1      38.514  31.417  36.536  1.00  0.00     0.031 A 
ATOM     71  C   UNL A   1      39.259  33.410  35.411  1.00  0.00     0.131 A 
ATOM     72  C   UNL A   1      37.978  32.225  37.551  1.00  0.00     0.055 A 
ATOM     73  C   UNL A   1      38.777  34.206  36.451  1.00  0.00     0.041 A 
ATOM     74  F   UNL A   1      39.851  34.030  34.377  1.00  0.00    -0.206 F 
ATOM     75  C   UNL A   1      38.120  33.614  37.523  1.00  0.00     0.022 A 
BRANCH  72  76
ATOM     76  S   UNL A   1      37.009  31.439  38.868  1.00  0.00     0.124 S 
ATOM     77  O   UNL A   1      37.898  31.582  40.015  1.00  0.00    -0.237 OA
ATOM     78  O   UNL A   1      35.802  32.258  38.886  1.00  0.00    -0.237 OA
ATOM     79  O   UNL A   1      36.825  30.072  38.386  1.00  0.00    -0.744 OA
ENDBRANCH  72  76
ENDBRANCH  45  69
BRANCH  57  80
ATOM     80  C   UNL A   1      44.653  27.798  34.636  1.00  0.00     0.023 A 
ATOM     81  C   UNL A   1      44.613  26.689  35.498  1.00  0.00     0.031 A 
ATOM     82  C   UNL A   1      45.800  28.611  34.657  1.00  0.00     0.131 A 
ATOM     83  C   UNL A   1      45.674  26.456  36.386  1.00  0.00     0.055 A 
ATOM     84  C   UNL A   1      46.880  28.339  35.498  1.00  0.00     0.041 A 
ATOM     85  F   UNL A   1      45.891  29.687  33.858  1.00  0.00    -0.206 F 
ATOM     86  C   UNL A   1      46.814  27.263  36.379  1.00  0.00     0.022 A 
BRANCH  83  87
ATOM     87  S   UNL A   1      45.506  25.137  37.621  1.00  0.00     0.124 S 
ATOM     88  O   UNL A   1      44.718  25.793  38.660  1.00  0.00    -0.237 OA
ATOM     89  O   UNL A   1      44.823  24.089  36.869  1.00  0.00    -0.237 OA
ATOM     90  O   UNL A   1      46.887  24.833  37.990  1.00  0.00    -0.744 OA
ENDBRANCH  83  87
ENDBRANCH  57  80
ENDBRANCH  31  32
ENDBRANCH  24  26
ENDBRANCH  23  24
ENDBRANCH  22  23
ENDBRANCH   1  22
TORSDOF 18
ENDMDL
MODEL 3
REMARK VINA RESULT:     -11.6      5.195     10.762
REMARK SMILES COc1ccc(/C=C/c2ncc(C(=O)OCCOC(=O)c3ccc(-c4c5nc(c(-c6cc(S(=O)(=O)[O-])ccc6F)c6ccc([nH]6)c(-c6cc(S(=O)(=O)[O-])ccc6F)c6nc(c(-c7cc(S(=O)(=O)[O-])ccc7F)c7ccc4[nH]7)C=C6)C=C5)cc3)s2)cc1O
REMARK SMILES IDX 16 1 15 2 13 3 14 4 12 5 9 6 10 7 84 8 11 9 8 10 7 11 6 12
REMARK SMILES IDX 3 13 4 14 86 15 5 16 85 17 2 18 1 19 87 20 17 22 18 23 19 24
REMARK SMILES IDX 20 25 21 26 22 27 83 28 23 29 82 30 24 31 25 32 26 33 76 34
REMARK SMILES IDX 27 35 81 36 75 37 77 38 28 39 80 40 74 41 73 42 29 44 61 45
REMARK SMILES IDX 41 46 60 47 42 48 45 49 59 50 78 51 43 52 44 53 58 55 79 56
REMARK SMILES IDX 46 57 30 58 31 59 39 60 32 61 38 62 40 63 37 64 33 65 34 66
REMARK SMILES IDX 35 67 36 68 62 69 63 70 71 71 64 72 70 73 72 74 69 75 65 76
REMARK SMILES IDX 66 77 67 78 68 79 47 80 48 81 56 82 49 83 55 84 57 85 54 86
REMARK SMILES IDX 50 87 51 88 52 89 53 90
REMARK H PARENT 87 21 77 43 45 54
REMARK Flexibility Score: inf
ROOT
ATOM      1  C   UNL A   1      31.687  29.299  24.669  1.00  0.00     0.275 C 
ENDROOT
BRANCH   1   2
ATOM      2  O   UNL A   1      30.688  28.269  24.815  1.00  0.00    -0.458 OA
BRANCH   2   3
ATOM      3  C   UNL A   1      31.094  27.131  25.460  1.00  0.00     0.350 C 
ATOM      4  O   UNL A   1      31.025  26.973  26.668  1.00  0.00    -0.245 OA
BRANCH   3   5
ATOM      5  C   UNL A   1      31.543  26.143  24.503  1.00  0.00     0.132 A 
ATOM      6  C   UNL A   1      32.099  24.026  23.425  1.00  0.00     0.116 A 
ATOM      7  N   UNL A   1      31.973  24.978  22.520  1.00  0.00    -0.244 NA
ATOM      8  S   UNL A   1      32.067  24.600  25.051  1.00  0.00    -0.107 S 
ATOM      9  C   UNL A   1      31.616  26.173  23.128  1.00  0.00     0.139 A 
BRANCH   6  10
ATOM     10  C   UNL A   1      32.247  22.630  23.193  1.00  0.00     0.040 C 
ATOM     11  C   UNL A   1      32.842  21.852  24.109  1.00  0.00     0.011 C 
BRANCH  11  12
ATOM     12  C   UNL A   1      33.117  20.406  24.000  1.00  0.00    -0.022 A 
ATOM     13  C   UNL A   1      33.319  17.598  23.801  1.00  0.00     0.160 A 
ATOM     14  C   UNL A   1      33.987  18.273  24.820  1.00  0.00     0.051 A 
ATOM     15  C   UNL A   1      32.557  18.323  22.888  1.00  0.00     0.158 A 
ATOM     16  C   UNL A   1      33.885  19.671  24.919  1.00  0.00     0.012 A 
ATOM     17  C   UNL A   1      32.485  19.710  22.958  1.00  0.00     0.058 A 
BRANCH  13  18
ATOM     18  O   UNL A   1      33.288  16.228  23.821  1.00  0.00    -0.493 OA
ATOM     19  C   UNL A   1      33.812  15.692  25.037  1.00  0.00     0.278 C 
ENDBRANCH  13  18
BRANCH  15  20
ATOM     20  O   UNL A   1      31.781  17.696  21.954  1.00  0.00    -0.504 OA
ATOM     21  H   UNL A   1      31.875  16.775  21.809  1.00  0.00     0.293 HD
ENDBRANCH  15  20
ENDBRANCH  11  12
ENDBRANCH   6  10
ENDBRANCH   3   5
ENDBRANCH   2   3
ENDBRANCH   1   2
BRANCH   1  22
ATOM     22  C   UNL A   1      31.482  30.444  25.667  1.00  0.00     0.275 C 
BRANCH  22  23
ATOM     23  O   UNL A   1      32.380  30.354  26.790  1.00  0.00    -0.458 OA
BRANCH  23  24
ATOM     24  C   UNL A   1      32.980  31.520  27.129  1.00  0.00     0.338 C 
ATOM     25  O   UNL A   1      32.479  32.631  27.102  1.00  0.00    -0.246 OA
BRANCH  24  26
ATOM     26  C   UNL A   1      34.311  31.261  27.699  1.00  0.00     0.060 A 
ATOM     27  C   UNL A   1      34.614  29.941  28.027  1.00  0.00     0.016 A 
ATOM     28  C   UNL A   1      35.198  32.285  28.028  1.00  0.00     0.016 A 
ATOM     29  C   UNL A   1      35.781  29.630  28.714  1.00  0.00     0.010 A 
ATOM     30  C   UNL A   1      36.392  31.969  28.695  1.00  0.00     0.010 A 
ATOM     31  C   UNL A   1      36.684  30.640  29.061  1.00  0.00    -0.014 A 
BRANCH  31  32
ATOM     32  C   UNL A   1      37.890  30.295  29.864  1.00  0.00     0.031 A 
ATOM     33  C   UNL A   1      38.954  29.408  29.277  1.00  0.00     0.074 A 
ATOM     34  C   UNL A   1      38.061  30.825  31.091  1.00  0.00     0.049 A 
ATOM     35  N   UNL A   1      40.034  28.923  29.835  1.00  0.00    -0.248 NA
ATOM     36  C   UNL A   1      38.774  29.013  27.872  1.00  0.00     0.031 C 
ATOM     37  C   UNL A   1      37.139  31.757  31.742  1.00  0.00     0.029 A 
ATOM     38  N   UNL A   1      39.073  30.668  32.006  1.00  0.00    -0.354 N 
ATOM     39  C   UNL A   1      40.650  28.142  28.861  1.00  0.00     0.074 A 
ATOM     40  C   UNL A   1      39.802  28.198  27.687  1.00  0.00     0.031 C 
ATOM     41  C   UNL A   1      37.639  32.106  32.938  1.00  0.00     0.029 A 
ATOM     42  C   UNL A   1      38.877  31.369  33.173  1.00  0.00     0.049 A 
ATOM     43  H   UNL A   1      39.865  30.106  31.841  1.00  0.00     0.167 HD
ATOM     44  C   UNL A   1      41.815  27.451  28.938  1.00  0.00     0.034 A 
ATOM     45  C   UNL A   1      39.589  31.387  34.317  1.00  0.00     0.034 A 
ATOM     46  C   UNL A   1      42.652  27.416  30.115  1.00  0.00     0.049 A 
ATOM     47  C   UNL A   1      40.830  30.535  34.414  1.00  0.00     0.074 A 
ATOM     48  C   UNL A   1      43.846  26.741  30.308  1.00  0.00     0.029 A 
ATOM     49  N   UNL A   1      42.383  28.084  31.304  1.00  0.00    -0.354 N 
ATOM     50  N   UNL A   1      41.375  29.761  33.503  1.00  0.00    -0.248 NA
ATOM     51  C   UNL A   1      41.550  30.557  35.693  1.00  0.00     0.031 C 
ATOM     52  C   UNL A   1      44.261  26.944  31.628  1.00  0.00     0.029 A 
ATOM     53  C   UNL A   1      43.372  27.814  32.240  1.00  0.00     0.049 A 
ATOM     54  H   UNL A   1      41.603  28.664  31.460  1.00  0.00     0.167 HD
ATOM     55  C   UNL A   1      42.518  29.228  34.094  1.00  0.00     0.074 A 
ATOM     56  C   UNL A   1      42.590  29.780  35.431  1.00  0.00     0.031 C 
ATOM     57  C   UNL A   1      43.428  28.363  33.575  1.00  0.00     0.034 A 
BRANCH  44  58
ATOM     58  C   UNL A   1      42.214  26.629  27.734  1.00  0.00     0.023 A 
ATOM     59  C   UNL A   1      42.000  25.240  27.676  1.00  0.00     0.031 A 
ATOM     60  C   UNL A   1      42.860  27.238  26.642  1.00  0.00     0.131 A 
ATOM     61  C   UNL A   1      42.501  24.498  26.595  1.00  0.00     0.055 A 
ATOM     62  C   UNL A   1      43.279  26.505  25.529  1.00  0.00     0.041 A 
ATOM     63  F   UNL A   1      43.112  28.556  26.647  1.00  0.00    -0.206 F 
ATOM     64  C   UNL A   1      43.117  25.125  25.509  1.00  0.00     0.022 A 
BRANCH  61  65
ATOM     65  S   UNL A   1      42.484  22.686  26.705  1.00  0.00     0.124 S 
ATOM     66  O   UNL A   1      43.885  22.398  27.005  1.00  0.00    -0.237 OA
ATOM     67  O   UNL A   1      41.536  22.446  27.787  1.00  0.00    -0.237 OA
ATOM     68  O   UNL A   1      42.039  22.267  25.379  1.00  0.00    -0.744 OA
ENDBRANCH  61  65
ENDBRANCH  44  58
BRANCH  45  69
ATOM     69  C   UNL A   1      39.127  32.193  35.484  1.00  0.00     0.023 A 
ATOM     70  C   UNL A   1      39.590  33.500  35.694  1.00  0.00     0.031 A 
ATOM     71  C   UNL A   1      38.248  31.645  36.438  1.00  0.00     0.131 A 
ATOM     72  C   UNL A   1      39.206  34.202  36.848  1.00  0.00     0.055 A 
ATOM     73  C   UNL A   1      37.822  32.369  37.553  1.00  0.00     0.041 A 
ATOM     74  F   UNL A   1      37.779  30.396  36.292  1.00  0.00    -0.206 F 
ATOM     75  C   UNL A   1      38.312  33.651  37.769  1.00  0.00     0.022 A 
BRANCH  72  76
ATOM     76  S   UNL A   1      39.963  35.818  37.177  1.00  0.00     0.124 S 
ATOM     77  O   UNL A   1      39.652  36.546  35.952  1.00  0.00    -0.237 OA
ATOM     78  O   UNL A   1      39.254  36.247  38.377  1.00  0.00    -0.237 OA
ATOM     79  O   UNL A   1      41.376  35.498  37.372  1.00  0.00    -0.744 OA
ENDBRANCH  72  76
ENDBRANCH  45  69
BRANCH  57  80
ATOM     80  C   UNL A   1      44.609  28.009  34.447  1.00  0.00     0.023 A 
ATOM     81  C   UNL A   1      44.594  26.895  35.303  1.00  0.00     0.031 A 
ATOM     82  C   UNL A   1      45.761  28.815  34.433  1.00  0.00     0.131 A 
ATOM     83  C   UNL A   1      45.684  26.651  36.153  1.00  0.00     0.055 A 
ATOM     84  C   UNL A   1      46.868  28.533  35.235  1.00  0.00     0.041 A 
ATOM     85  F   UNL A   1      45.830  29.896  33.637  1.00  0.00    -0.206 F 
ATOM     86  C   UNL A   1      46.827  27.452  36.111  1.00  0.00     0.022 A 
BRANCH  83  87
ATOM     87  S   UNL A   1      45.551  25.325  37.385  1.00  0.00     0.124 S 
ATOM     88  O   UNL A   1      46.952  24.997  37.630  1.00  0.00    -0.237 OA
ATOM     89  O   UNL A   1      44.851  25.987  38.481  1.00  0.00    -0.237 OA
ATOM     90  O   UNL A   1      44.783  24.291  36.696  1.00  0.00    -0.744 OA
ENDBRANCH  83  87
ENDBRANCH  57  80
ENDBRANCH  31  32
ENDBRANCH  24  26
ENDBRANCH  23  24
ENDBRANCH  22  23
ENDBRANCH   1  22
TORSDOF 18
ENDMDL
