MODEL 1
REMARK VINA RESULT:     -11.6      0.000      0.000
REMARK SMILES CCN(CC)c1ccc(NS(=O)(=O)c2ccc(Cl)s2)cc1C(=O)OCCOC(=O)c1ccc(-c2c3nc(c(-c4cc(S(=O)(=O)[O-])ccc4F)c4ccc([nH]4)c(-c4cc(S(=O)(=O)[O-])ccc4F)c4nc(c(-c5cc(S(=O)(=O)[O-])ccc5F)c5ccc2[nH]5)C=C4)C=C3)cc1
REMARK SMILES IDX 25 1 24 2 22 3 23 4 21 5 6 6 7 7 8 8 20 9 9 10 3 11 2 12
REMARK SMILES IDX 1 13 4 14 5 15 10 16 11 18 12 19 13 20 14 21 15 22 19 23
REMARK SMILES IDX 16 24 17 25 18 26 26 27 27 28 28 29 29 30 30 31 31 32 92 33
REMARK SMILES IDX 32 34 91 35 33 36 34 37 35 38 85 39 36 40 90 41 84 42 86 43
REMARK SMILES IDX 37 44 89 45 83 46 82 47 38 49 70 50 50 51 69 52 51 53 54 54
REMARK SMILES IDX 68 55 87 56 52 57 53 58 67 60 88 61 55 62 39 63 40 64 48 65
REMARK SMILES IDX 41 66 47 67 49 68 46 69 42 70 43 71 44 72 45 73 71 74 72 75
REMARK SMILES IDX 80 76 73 77 79 78 81 79 78 80 74 81 75 82 76 83 77 84 56 85
REMARK SMILES IDX 57 86 65 87 58 88 64 89 66 90 63 91 59 92 60 93 61 94 62 95
REMARK H PARENT 10 17 86 48 54 59
REMARK Flexibility Score: inf
ROOT
ATOM      1  C   UNL A   1      36.591  22.808  23.292  1.00  0.00     0.275 C 
ENDROOT
BRANCH   1   2
ATOM      2  O   UNL A   1      35.288  23.289  22.890  1.00  0.00    -0.458 OA
BRANCH   2   3
ATOM      3  C   UNL A   1      34.658  24.075  23.797  1.00  0.00     0.340 C 
ATOM      4  O   UNL A   1      35.172  24.586  24.784  1.00  0.00    -0.246 OA
BRANCH   3   5
ATOM      5  C   UNL A   1      33.227  24.310  23.510  1.00  0.00     0.085 A 
ATOM      6  C   UNL A   1      32.241  23.420  23.953  1.00  0.00     0.051 A 
ATOM      7  C   UNL A   1      30.943  23.926  24.086  1.00  0.00     0.029 A 
ATOM      8  C   UNL A   1      30.601  25.204  23.635  1.00  0.00     0.029 A 
ATOM      9  C   UNL A   1      32.865  25.572  22.999  1.00  0.00     0.044 A 
ATOM     10  C   UNL A   1      31.542  26.007  23.002  1.00  0.00     0.050 A 
BRANCH   6  11
ATOM     11  N   UNL A   1      32.465  22.069  24.155  1.00  0.00    -0.371 N 
BRANCH  11  12
ATOM     12  C   UNL A   1      32.342  21.492  25.485  1.00  0.00     0.113 C 
ATOM     13  C   UNL A   1      33.130  22.319  26.488  1.00  0.00     0.027 C 
ENDBRANCH  11  12
BRANCH  11  14
ATOM     14  C   UNL A   1      32.407  21.204  22.969  1.00  0.00     0.113 C 
ATOM     15  C   UNL A   1      32.419  19.721  23.330  1.00  0.00     0.027 C 
ENDBRANCH  11  14
ENDBRANCH   6  11
BRANCH  10  16
ATOM     16  N   UNL A   1      31.211  27.108  22.148  1.00  0.00    -0.279 N 
ATOM     17  H   UNL A   1      31.528  27.089  21.215  1.00  0.00     0.180 HD
BRANCH  16  18
ATOM     18  S   UNL A   1      30.308  28.434  22.659  1.00  0.00     0.271 S 
ATOM     19  O   UNL A   1      30.244  29.374  21.563  1.00  0.00    -0.200 OA
ATOM     20  O   UNL A   1      29.122  27.912  23.302  1.00  0.00    -0.200 OA
BRANCH  18  21
ATOM     21  C   UNL A   1      31.209  29.244  23.966  1.00  0.00     0.141 A 
ATOM     22  C   UNL A   1      30.838  30.193  24.907  1.00  0.00     0.036 A 
ATOM     23  S   UNL A   1      32.821  28.714  24.212  1.00  0.00    -0.110 S 
ATOM     24  C   UNL A   1      31.830  30.354  25.920  1.00  0.00     0.034 A 
ATOM     25  C   UNL A   1      32.936  29.590  25.651  1.00  0.00     0.094 A 
ATOM     26  Cl  UNL A   1      34.343  29.443  26.625  1.00  0.00    -0.072 Cl
ENDBRANCH  18  21
ENDBRANCH  16  18
ENDBRANCH  10  16
ENDBRANCH   3   5
ENDBRANCH   2   3
ENDBRANCH   1   2
BRANCH   1  27
ATOM     27  C   UNL A   1      36.495  21.572  24.183  1.00  0.00     0.275 C 
BRANCH  27  28
ATOM     28  O   UNL A   1      36.970  21.891  25.498  1.00  0.00    -0.458 OA
BRANCH  28  29
ATOM     29  C   UNL A   1      38.254  21.542  25.730  1.00  0.00     0.338 C 
ATOM     30  O   UNL A   1      38.862  20.585  25.283  1.00  0.00    -0.246 OA
BRANCH  29  31
ATOM     31  C   UNL A   1      38.895  22.602  26.513  1.00  0.00     0.060 A 
ATOM     32  C   UNL A   1      38.391  23.890  26.375  1.00  0.00     0.016 A 
ATOM     33  C   UNL A   1      40.063  22.373  27.230  1.00  0.00     0.016 A 
ATOM     34  C   UNL A   1      39.119  24.981  26.823  1.00  0.00     0.010 A 
ATOM     35  C   UNL A   1      40.734  23.465  27.788  1.00  0.00     0.010 A 
ATOM     36  C   UNL A   1      40.301  24.785  27.544  1.00  0.00    -0.014 A 
BRANCH  36  37
ATOM     37  C   UNL A   1      41.131  25.945  27.971  1.00  0.00     0.031 A 
ATOM     38  C   UNL A   1      40.501  27.020  28.819  1.00  0.00     0.074 A 
ATOM     39  C   UNL A   1      42.431  26.038  27.626  1.00  0.00     0.049 A 
ATOM     40  N   UNL A   1      40.907  28.238  29.055  1.00  0.00    -0.248 NA
ATOM     41  C   UNL A   1      39.222  26.678  29.461  1.00  0.00     0.031 C 
ATOM     42  C   UNL A   1      43.193  25.024  26.892  1.00  0.00     0.029 A 
ATOM     43  N   UNL A   1      43.346  27.038  27.844  1.00  0.00    -0.354 N 
ATOM     44  C   UNL A   1      39.899  28.836  29.807  1.00  0.00     0.074 A 
ATOM     45  C   UNL A   1      38.862  27.841  29.984  1.00  0.00     0.031 C 
ATOM     46  C   UNL A   1      44.459  25.439  26.748  1.00  0.00     0.029 A 
ATOM     47  C   UNL A   1      44.572  26.797  27.264  1.00  0.00     0.049 A 
ATOM     48  H   UNL A   1      43.146  27.849  28.365  1.00  0.00     0.167 HD
ATOM     49  C   UNL A   1      39.848  30.102  30.289  1.00  0.00     0.034 A 
ATOM     50  C   UNL A   1      45.639  27.603  27.100  1.00  0.00     0.034 A 
ATOM     51  C   UNL A   1      40.929  31.048  30.139  1.00  0.00     0.049 A 
ATOM     52  C   UNL A   1      45.546  29.021  27.598  1.00  0.00     0.074 A 
ATOM     53  C   UNL A   1      40.999  32.360  30.571  1.00  0.00     0.029 A 
ATOM     54  N   UNL A   1      42.144  30.770  29.521  1.00  0.00    -0.354 N 
ATOM     55  N   UNL A   1      44.543  29.619  28.203  1.00  0.00    -0.248 NA
ATOM     56  C   UNL A   1      46.715  29.879  27.374  1.00  0.00     0.031 C 
ATOM     57  C   UNL A   1      42.230  32.891  30.168  1.00  0.00     0.029 A 
ATOM     58  C   UNL A   1      42.960  31.889  29.547  1.00  0.00     0.049 A 
ATOM     59  H   UNL A   1      42.388  29.903  29.122  1.00  0.00     0.167 HD
ATOM     60  C   UNL A   1      44.971  30.920  28.448  1.00  0.00     0.074 A 
ATOM     61  C   UNL A   1      46.328  31.010  27.944  1.00  0.00     0.031 C 
ATOM     62  C   UNL A   1      44.307  31.951  29.029  1.00  0.00     0.034 A 
BRANCH  49  63
ATOM     63  C   UNL A   1      38.563  30.552  30.945  1.00  0.00     0.023 A 
ATOM     64  C   UNL A   1      37.523  31.167  30.226  1.00  0.00     0.031 A 
ATOM     65  C   UNL A   1      38.395  30.395  32.334  1.00  0.00     0.131 A 
ATOM     66  C   UNL A   1      36.399  31.665  30.906  1.00  0.00     0.055 A 
ATOM     67  C   UNL A   1      37.238  30.818  32.992  1.00  0.00     0.041 A 
ATOM     68  F   UNL A   1      39.362  29.840  33.080  1.00  0.00    -0.206 F 
ATOM     69  C   UNL A   1      36.238  31.470  32.281  1.00  0.00     0.022 A 
BRANCH  66  70
ATOM     70  S   UNL A   1      35.215  32.695  29.995  1.00  0.00     0.124 S 
ATOM     71  O   UNL A   1      36.072  33.782  29.525  1.00  0.00    -0.237 OA
ATOM     72  O   UNL A   1      34.721  31.782  28.973  1.00  0.00    -0.237 OA
ATOM     73  O   UNL A   1      34.240  33.079  31.013  1.00  0.00    -0.744 OA
ENDBRANCH  66  70
ENDBRANCH  49  63
BRANCH  50  74
ATOM     74  C   UNL A   1      46.843  27.126  26.354  1.00  0.00     0.023 A 
ATOM     75  C   UNL A   1      47.922  26.526  27.021  1.00  0.00     0.031 A 
ATOM     76  C   UNL A   1      46.947  27.297  24.960  1.00  0.00     0.131 A 
ATOM     77  C   UNL A   1      49.069  26.154  26.303  1.00  0.00     0.055 A 
ATOM     78  C   UNL A   1      48.063  26.868  24.241  1.00  0.00     0.041 A 
ATOM     79  F   UNL A   1      45.949  27.872  24.269  1.00  0.00    -0.206 F 
ATOM     80  C   UNL A   1      49.139  26.304  24.916  1.00  0.00     0.022 A 
BRANCH  77  81
ATOM     81  S   UNL A   1      50.514  25.555  27.222  1.00  0.00     0.124 S 
ATOM     82  O   UNL A   1      50.058  24.246  27.673  1.00  0.00    -0.237 OA
ATOM     83  O   UNL A   1      51.550  25.557  26.194  1.00  0.00    -0.237 OA
ATOM     84  O   UNL A   1      50.684  26.553  28.276  1.00  0.00    -0.744 OA
ENDBRANCH  77  81
ENDBRANCH  50  74
BRANCH  62  85
ATOM     85  C   UNL A   1      45.071  33.239  29.192  1.00  0.00     0.023 A 
ATOM     86  C   UNL A   1      44.925  34.303  28.285  1.00  0.00     0.031 A 
ATOM     87  C   UNL A   1      45.976  33.391  30.256  1.00  0.00     0.131 A 
ATOM     88  C   UNL A   1      45.718  35.451  28.425  1.00  0.00     0.055 A 
ATOM     89  C   UNL A   1      46.718  34.560  30.426  1.00  0.00     0.041 A 
ATOM     90  F   UNL A   1      46.152  32.404  31.150  1.00  0.00    -0.206 F 
ATOM     91  C   UNL A   1      46.603  35.592  29.498  1.00  0.00     0.022 A 
BRANCH  88  92
ATOM     92  S   UNL A   1      45.649  36.720  27.132  1.00  0.00     0.124 S 
ATOM     93  O   UNL A   1      44.262  36.623  26.687  1.00  0.00    -0.237 OA
ATOM     94  O   UNL A   1      46.000  37.932  27.864  1.00  0.00    -0.237 OA
ATOM     95  O   UNL A   1      46.645  36.274  26.160  1.00  0.00    -0.744 OA
ENDBRANCH  88  92
ENDBRANCH  62  85
ENDBRANCH  36  37
ENDBRANCH  29  31
ENDBRANCH  28  29
ENDBRANCH  27  28
ENDBRANCH   1  27
TORSDOF 20
ENDMDL
MODEL 2
REMARK VINA RESULT:     -11.6      5.222     10.012
REMARK SMILES CCN(CC)c1ccc(NS(=O)(=O)c2ccc(Cl)s2)cc1C(=O)OCCOC(=O)c1ccc(-c2c3nc(c(-c4cc(S(=O)(=O)[O-])ccc4F)c4ccc([nH]4)c(-c4cc(S(=O)(=O)[O-])ccc4F)c4nc(c(-c5cc(S(=O)(=O)[O-])ccc5F)c5ccc2[nH]5)C=C4)C=C3)cc1
REMARK SMILES IDX 25 1 24 2 22 3 23 4 21 5 6 6 7 7 8 8 20 9 9 10 3 11 2 12
REMARK SMILES IDX 1 13 4 14 5 15 10 16 11 18 12 19 13 20 14 21 15 22 19 23
REMARK SMILES IDX 16 24 17 25 18 26 26 27 27 28 28 29 29 30 30 31 31 32 92 33
REMARK SMILES IDX 32 34 91 35 33 36 34 37 35 38 85 39 36 40 90 41 84 42 86 43
REMARK SMILES IDX 37 44 89 45 83 46 82 47 38 49 70 50 50 51 69 52 51 53 54 54
REMARK SMILES IDX 68 55 87 56 52 57 53 58 67 60 88 61 55 62 39 63 40 64 48 65
REMARK SMILES IDX 41 66 47 67 49 68 46 69 42 70 43 71 44 72 45 73 71 74 72 75
REMARK SMILES IDX 80 76 73 77 79 78 81 79 78 80 74 81 75 82 76 83 77 84 56 85
REMARK SMILES IDX 57 86 65 87 58 88 64 89 66 90 63 91 59 92 60 93 61 94 62 95
REMARK H PARENT 10 17 86 48 54 59
REMARK Flexibility Score: inf
ROOT
ATOM      1  C   UNL A   1      31.893  28.371  27.512  1.00  0.00     0.275 C 
ENDROOT
BRANCH   1   2
ATOM      2  O   UNL A   1      31.795  27.346  26.497  1.00  0.00    -0.458 OA
BRANCH   2   3
ATOM      3  C   UNL A   1      32.978  26.909  26.002  1.00  0.00     0.340 C 
ATOM      4  O   UNL A   1      34.087  27.188  26.441  1.00  0.00    -0.246 OA
BRANCH   3   5
ATOM      5  C   UNL A   1      32.855  26.009  24.836  1.00  0.00     0.085 A 
ATOM      6  C   UNL A   1      32.466  26.494  23.582  1.00  0.00     0.051 A 
ATOM      7  C   UNL A   1      32.838  25.737  22.464  1.00  0.00     0.029 A 
ATOM      8  C   UNL A   1      33.415  24.470  22.593  1.00  0.00     0.029 A 
ATOM      9  C   UNL A   1      33.378  24.707  24.961  1.00  0.00     0.044 A 
ATOM     10  C   UNL A   1      33.607  23.904  23.847  1.00  0.00     0.050 A 
BRANCH   6  11
ATOM     11  N   UNL A   1      31.655  27.603  23.408  1.00  0.00    -0.371 N 
BRANCH  11  12
ATOM     12  C   UNL A   1      32.176  28.804  22.774  1.00  0.00     0.113 C 
ATOM     13  C   UNL A   1      33.624  29.025  23.180  1.00  0.00     0.027 C 
ENDBRANCH  11  12
BRANCH  11  14
ATOM     14  C   UNL A   1      30.205  27.381  23.488  1.00  0.00     0.113 C 
ATOM     15  C   UNL A   1      29.406  28.563  22.944  1.00  0.00     0.027 C 
ENDBRANCH  11  14
ENDBRANCH   6  11
BRANCH  10  16
ATOM     16  N   UNL A   1      33.777  22.499  24.074  1.00  0.00    -0.279 N 
ATOM     17  H   UNL A   1      34.585  22.062  23.718  1.00  0.00     0.180 HD
BRANCH  16  18
ATOM     18  S   UNL A   1      32.664  21.558  24.916  1.00  0.00     0.271 S 
ATOM     19  O   UNL A   1      33.194  21.327  26.241  1.00  0.00    -0.200 OA
ATOM     20  O   UNL A   1      31.363  22.147  24.694  1.00  0.00    -0.200 OA
BRANCH  18  21
ATOM     21  C   UNL A   1      32.577  19.964  24.124  1.00  0.00     0.141 A 
ATOM     22  C   UNL A   1      32.132  19.566  22.872  1.00  0.00     0.036 A 
ATOM     23  S   UNL A   1      33.250  18.650  24.996  1.00  0.00    -0.110 S 
ATOM     24  C   UNL A   1      32.497  18.218  22.580  1.00  0.00     0.034 A 
ATOM     25  C   UNL A   1      33.120  17.634  23.653  1.00  0.00     0.094 A 
ATOM     26  Cl  UNL A   1      33.765  16.044  23.724  1.00  0.00    -0.072 Cl
ENDBRANCH  18  21
ENDBRANCH  16  18
ENDBRANCH  10  16
ENDBRANCH   3   5
ENDBRANCH   2   3
ENDBRANCH   1   2
BRANCH   1  27
ATOM     27  C   UNL A   1      31.775  29.774  26.922  1.00  0.00     0.275 C 
BRANCH  27  28
ATOM     28  O   UNL A   1      33.078  30.254  26.562  1.00  0.00    -0.458 OA
BRANCH  28  29
ATOM     29  C   UNL A   1      33.519  31.291  27.306  1.00  0.00     0.338 C 
ATOM     30  O   UNL A   1      32.871  32.224  27.748  1.00  0.00    -0.246 OA
BRANCH  29  31
ATOM     31  C   UNL A   1      34.923  31.058  27.652  1.00  0.00     0.060 A 
ATOM     32  C   UNL A   1      35.316  29.743  27.870  1.00  0.00     0.016 A 
ATOM     33  C   UNL A   1      35.791  32.109  27.923  1.00  0.00     0.016 A 
ATOM     34  C   UNL A   1      36.521  29.464  28.497  1.00  0.00     0.010 A 
ATOM     35  C   UNL A   1      37.056  31.820  28.442  1.00  0.00     0.010 A 
ATOM     36  C   UNL A   1      37.414  30.500  28.787  1.00  0.00    -0.014 A 
BRANCH  36  37
ATOM     37  C   UNL A   1      38.680  30.226  29.522  1.00  0.00     0.031 A 
ATOM     38  C   UNL A   1      39.688  29.285  28.916  1.00  0.00     0.074 A 
ATOM     39  C   UNL A   1      38.941  30.818  30.706  1.00  0.00     0.049 A 
ATOM     40  N   UNL A   1      40.691  28.665  29.477  1.00  0.00    -0.248 NA
ATOM     41  C   UNL A   1      39.517  28.980  27.486  1.00  0.00     0.031 C 
ATOM     42  C   UNL A   1      38.100  31.823  31.361  1.00  0.00     0.029 A 
ATOM     43  N   UNL A   1      39.991  30.656  31.575  1.00  0.00    -0.354 N 
ATOM     44  C   UNL A   1      41.223  27.837  28.492  1.00  0.00     0.074 A 
ATOM     45  C   UNL A   1      40.428  28.036  27.300  1.00  0.00     0.031 C 
ATOM     46  C   UNL A   1      38.680  32.207  32.507  1.00  0.00     0.029 A 
ATOM     47  C   UNL A   1      39.864  31.390  32.733  1.00  0.00     0.049 A 
ATOM     48  H   UNL A   1      40.762  30.072  31.388  1.00  0.00     0.167 HD
ATOM     49  C   UNL A   1      42.274  26.983  28.590  1.00  0.00     0.034 A 
ATOM     50  C   UNL A   1      40.575  31.355  33.877  1.00  0.00     0.034 A 
ATOM     51  C   UNL A   1      43.078  26.855  29.782  1.00  0.00     0.049 A 
ATOM     52  C   UNL A   1      41.706  30.366  33.985  1.00  0.00     0.074 A 
ATOM     53  C   UNL A   1      44.159  26.023  30.012  1.00  0.00     0.029 A 
ATOM     54  N   UNL A   1      42.897  27.599  30.943  1.00  0.00    -0.354 N 
ATOM     55  N   UNL A   1      42.132  29.499  33.093  1.00  0.00    -0.248 NA
ATOM     56  C   UNL A   1      42.438  30.335  35.256  1.00  0.00     0.031 C 
ATOM     57  C   UNL A   1      44.596  26.224  31.327  1.00  0.00     0.029 A 
ATOM     58  C   UNL A   1      43.835  27.234  31.896  1.00  0.00     0.049 A 
ATOM     59  H   UNL A   1      42.203  28.286  31.070  1.00  0.00     0.167 HD
ATOM     60  C   UNL A   1      43.195  28.831  33.693  1.00  0.00     0.074 A 
ATOM     61  C   UNL A   1      43.356  29.412  35.011  1.00  0.00     0.031 C 
ATOM     62  C   UNL A   1      43.967  27.827  33.206  1.00  0.00     0.034 A 
BRANCH  49  63
ATOM     63  C   UNL A   1      42.553  26.078  27.413  1.00  0.00     0.023 A 
ATOM     64  C   UNL A   1      42.021  24.780  27.315  1.00  0.00     0.031 A 
ATOM     65  C   UNL A   1      43.407  26.515  26.382  1.00  0.00     0.131 A 
ATOM     66  C   UNL A   1      42.404  23.944  26.253  1.00  0.00     0.055 A 
ATOM     67  C   UNL A   1      43.719  25.707  25.286  1.00  0.00     0.041 A 
ATOM     68  F   UNL A   1      43.967  27.733  26.430  1.00  0.00    -0.206 F 
ATOM     69  C   UNL A   1      43.228  24.408  25.224  1.00  0.00     0.022 A 
BRANCH  66  70
ATOM     70  S   UNL A   1      41.927  22.194  26.307  1.00  0.00     0.124 S 
ATOM     71  O   UNL A   1      42.298  21.829  27.673  1.00  0.00    -0.237 OA
ATOM     72  O   UNL A   1      40.498  22.247  26.024  1.00  0.00    -0.237 OA
ATOM     73  O   UNL A   1      42.746  21.582  25.263  1.00  0.00    -0.744 OA
ENDBRANCH  66  70
ENDBRANCH  49  63
BRANCH  50  74
ATOM     74  C   UNL A   1      40.184  32.208  35.040  1.00  0.00     0.023 A 
ATOM     75  C   UNL A   1      39.279  31.746  36.009  1.00  0.00     0.031 A 
ATOM     76  C   UNL A   1      40.683  33.517  35.180  1.00  0.00     0.131 A 
ATOM     77  C   UNL A   1      38.875  32.597  37.050  1.00  0.00     0.055 A 
ATOM     78  C   UNL A   1      40.327  34.336  36.252  1.00  0.00     0.041 A 
ATOM     79  F   UNL A   1      41.545  34.016  34.279  1.00  0.00    -0.206 F 
ATOM     80  C   UNL A   1      39.407  33.881  37.189  1.00  0.00     0.022 A 
BRANCH  77  81
ATOM     81  S   UNL A   1      37.567  32.034  38.175  1.00  0.00     0.124 S 
ATOM     82  O   UNL A   1      37.394  30.647  37.758  1.00  0.00    -0.237 OA
ATOM     83  O   UNL A   1      38.181  32.241  39.482  1.00  0.00    -0.237 OA
ATOM     84  O   UNL A   1      36.448  32.921  37.866  1.00  0.00    -0.744 OA
ENDBRANCH  77  81
ENDBRANCH  50  74
BRANCH  62  85
ATOM     85  C   UNL A   1      45.082  27.343  34.095  1.00  0.00     0.023 A 
ATOM     86  C   UNL A   1      44.894  26.291  35.010  1.00  0.00     0.031 A 
ATOM     87  C   UNL A   1      46.344  27.959  34.041  1.00  0.00     0.131 A 
ATOM     88  C   UNL A   1      45.933  25.929  35.877  1.00  0.00     0.055 A 
ATOM     89  C   UNL A   1      47.394  27.553  34.865  1.00  0.00     0.041 A 
ATOM     90  F   UNL A   1      46.575  28.967  33.185  1.00  0.00    -0.206 F 
ATOM     91  C   UNL A   1      47.187  26.543  35.800  1.00  0.00     0.022 A 
BRANCH  88  92
ATOM     92  S   UNL A   1      45.598  24.707  37.174  1.00  0.00     0.124 S 
ATOM     93  O   UNL A   1      46.080  25.393  38.368  1.00  0.00    -0.237 OA
ATOM     94  O   UNL A   1      44.153  24.537  37.077  1.00  0.00    -0.237 OA
ATOM     95  O   UNL A   1      46.387  23.546  36.764  1.00  0.00    -0.744 OA
ENDBRANCH  88  92
ENDBRANCH  62  85
ENDBRANCH  36  37
ENDBRANCH  29  31
ENDBRANCH  28  29
ENDBRANCH  27  28
ENDBRANCH   1  27
TORSDOF 20
ENDMDL
MODEL 3
REMARK VINA RESULT:     -11.5      1.893      2.385
REMARK SMILES CCN(CC)c1ccc(NS(=O)(=O)c2ccc(Cl)s2)cc1C(=O)OCCOC(=O)c1ccc(-c2c3nc(c(-c4cc(S(=O)(=O)[O-])ccc4F)c4ccc([nH]4)c(-c4cc(S(=O)(=O)[O-])ccc4F)c4nc(c(-c5cc(S(=O)(=O)[O-])ccc5F)c5ccc2[nH]5)C=C4)C=C3)cc1
REMARK SMILES IDX 25 1 24 2 22 3 23 4 21 5 6 6 7 7 8 8 20 9 9 10 3 11 2 12
REMARK SMILES IDX 1 13 4 14 5 15 10 16 11 18 12 19 13 20 14 21 15 22 19 23
REMARK SMILES IDX 16 24 17 25 18 26 26 27 27 28 28 29 29 30 30 31 31 32 92 33
REMARK SMILES IDX 32 34 91 35 33 36 34 37 35 38 85 39 36 40 90 41 84 42 86 43
REMARK SMILES IDX 37 44 89 45 83 46 82 47 38 49 70 50 50 51 69 52 51 53 54 54
REMARK SMILES IDX 68 55 87 56 52 57 53 58 67 60 88 61 55 62 39 63 40 64 48 65
REMARK SMILES IDX 41 66 47 67 49 68 46 69 42 70 43 71 44 72 45 73 71 74 72 75
REMARK SMILES IDX 80 76 73 77 79 78 81 79 78 80 74 81 75 82 76 83 77 84 56 85
REMARK SMILES IDX 57 86 65 87 58 88 64 89 66 90 63 91 59 92 60 93 61 94 62 95
REMARK H PARENT 10 17 86 48 54 59
REMARK Flexibility Score: inf
ROOT
ATOM      1  C   UNL A   1      36.385  23.301  23.384  1.00  0.00     0.275 C 
ENDROOT
BRANCH   1   2
ATOM      2  O   UNL A   1      35.277  23.945  24.055  1.00  0.00    -0.458 OA
BRANCH   2   3
ATOM      3  C   UNL A   1      34.106  23.939  23.371  1.00  0.00     0.340 C 
ATOM      4  O   UNL A   1      33.956  23.584  22.208  1.00  0.00    -0.246 OA
BRANCH   3   5
ATOM      5  C   UNL A   1      32.941  24.401  24.154  1.00  0.00     0.085 A 
ATOM      6  C   UNL A   1      32.525  23.723  25.306  1.00  0.00     0.051 A 
ATOM      7  C   UNL A   1      31.777  24.454  26.238  1.00  0.00     0.029 A 
ATOM      8  C   UNL A   1      31.314  25.743  25.960  1.00  0.00     0.029 A 
ATOM      9  C   UNL A   1      32.419  25.675  23.854  1.00  0.00     0.044 A 
ATOM     10  C   UNL A   1      31.555  26.332  24.725  1.00  0.00     0.050 A 
BRANCH   6  11
ATOM     11  N   UNL A   1      32.720  22.367  25.510  1.00  0.00    -0.371 N 
BRANCH  11  12
ATOM     12  C   UNL A   1      32.138  21.394  24.599  1.00  0.00     0.113 C 
ATOM     13  C   UNL A   1      32.930  20.097  24.643  1.00  0.00     0.027 C 
ENDBRANCH  11  12
BRANCH  11  14
ATOM     14  C   UNL A   1      33.839  21.984  26.380  1.00  0.00     0.113 C 
ATOM     15  C   UNL A   1      33.460  22.011  27.859  1.00  0.00     0.027 C 
ENDBRANCH  11  14
ENDBRANCH   6  11
BRANCH  10  16
ATOM     16  N   UNL A   1      30.791  27.422  24.195  1.00  0.00    -0.279 N 
ATOM     17  H   UNL A   1      29.889  27.235  23.847  1.00  0.00     0.180 HD
BRANCH  16  18
ATOM     18  S   UNL A   1      31.361  29.005  24.135  1.00  0.00     0.271 S 
ATOM     19  O   UNL A   1      31.620  29.433  25.491  1.00  0.00    -0.200 OA
ATOM     20  O   UNL A   1      32.372  29.049  23.102  1.00  0.00    -0.200 OA
BRANCH  18  21
ATOM     21  C   UNL A   1      30.046  30.042  23.522  1.00  0.00     0.141 A 
ATOM     22  C   UNL A   1      29.314  31.065  24.106  1.00  0.00     0.036 A 
ATOM     23  S   UNL A   1      29.636  29.841  21.870  1.00  0.00    -0.110 S 
ATOM     24  C   UNL A   1      28.540  31.781  23.145  1.00  0.00     0.034 A 
ATOM     25  C   UNL A   1      28.654  31.215  21.902  1.00  0.00     0.094 A 
ATOM     26  Cl  UNL A   1      27.933  31.778  20.448  1.00  0.00    -0.072 Cl
ENDBRANCH  18  21
ENDBRANCH  16  18
ENDBRANCH  10  16
ENDBRANCH   3   5
ENDBRANCH   2   3
ENDBRANCH   1   2
BRANCH   1  27
ATOM     27  C   UNL A   1      36.698  21.932  23.982  1.00  0.00     0.275 C 
BRANCH  27  28
ATOM     28  O   UNL A   1      37.011  22.077  25.375  1.00  0.00    -0.458 OA
BRANCH  28  29
ATOM     29  C   UNL A   1      38.246  21.652  25.718  1.00  0.00     0.338 C 
ATOM     30  O   UNL A   1      38.814  20.634  25.360  1.00  0.00    -0.246 OA
BRANCH  29  31
ATOM     31  C   UNL A   1      38.904  22.700  26.502  1.00  0.00     0.060 A 
ATOM     32  C   UNL A   1      38.423  23.997  26.361  1.00  0.00     0.016 A 
ATOM     33  C   UNL A   1      40.065  22.451  27.223  1.00  0.00     0.016 A 
ATOM     34  C   UNL A   1      39.170  25.075  26.811  1.00  0.00     0.010 A 
ATOM     35  C   UNL A   1      40.755  23.531  27.781  1.00  0.00     0.010 A 
ATOM     36  C   UNL A   1      40.346  24.859  27.535  1.00  0.00    -0.014 A 
BRANCH  36  37
ATOM     37  C   UNL A   1      41.195  26.004  27.963  1.00  0.00     0.031 A 
ATOM     38  C   UNL A   1      40.592  27.072  28.840  1.00  0.00     0.074 A 
ATOM     39  C   UNL A   1      42.489  26.090  27.594  1.00  0.00     0.049 A 
ATOM     40  N   UNL A   1      41.014  28.283  29.087  1.00  0.00    -0.248 NA
ATOM     41  C   UNL A   1      39.323  26.732  29.502  1.00  0.00     0.031 C 
ATOM     42  C   UNL A   1      43.226  25.080  26.830  1.00  0.00     0.029 A 
ATOM     43  N   UNL A   1      43.418  27.078  27.809  1.00  0.00    -0.354 N 
ATOM     44  C   UNL A   1      40.027  28.877  29.867  1.00  0.00     0.074 A 
ATOM     45  C   UNL A   1      38.984  27.890  30.049  1.00  0.00     0.031 C 
ATOM     46  C   UNL A   1      44.493  25.486  26.667  1.00  0.00     0.029 A 
ATOM     47  C   UNL A   1      44.629  26.834  27.202  1.00  0.00     0.049 A 
ATOM     48  H   UNL A   1      43.236  27.883  28.346  1.00  0.00     0.167 HD
ATOM     49  C   UNL A   1      39.998  30.137  30.370  1.00  0.00     0.034 A 
ATOM     50  C   UNL A   1      45.701  27.633  27.029  1.00  0.00     0.034 A 
ATOM     51  C   UNL A   1      41.085  31.074  30.213  1.00  0.00     0.049 A 
ATOM     52  C   UNL A   1      45.631  29.044  27.550  1.00  0.00     0.074 A 
ATOM     53  C   UNL A   1      41.176  32.379  30.664  1.00  0.00     0.029 A 
ATOM     54  N   UNL A   1      42.285  30.795  29.567  1.00  0.00    -0.354 N 
ATOM     55  N   UNL A   1      44.646  29.642  28.184  1.00  0.00    -0.248 NA
ATOM     56  C   UNL A   1      46.804  29.894  27.317  1.00  0.00     0.031 C 
ATOM     57  C   UNL A   1      42.404  32.905  30.244  1.00  0.00     0.029 A 
ATOM     58  C   UNL A   1      43.112  31.906  29.594  1.00  0.00     0.049 A 
ATOM     59  H   UNL A   1      42.513  29.932  29.150  1.00  0.00     0.167 HD
ATOM     60  C   UNL A   1      45.092  30.935  28.440  1.00  0.00     0.074 A 
ATOM     61  C   UNL A   1      46.439  31.020  27.911  1.00  0.00     0.031 C 
ATOM     62  C   UNL A   1      44.449  31.963  29.051  1.00  0.00     0.034 A 
BRANCH  49  63
ATOM     63  C   UNL A   1      38.730  30.588  31.057  1.00  0.00     0.023 A 
ATOM     64  C   UNL A   1      37.642  31.133  30.354  1.00  0.00     0.031 A 
ATOM     65  C   UNL A   1      38.628  30.506  32.459  1.00  0.00     0.131 A 
ATOM     66  C   UNL A   1      36.535  31.638  31.056  1.00  0.00     0.055 A 
ATOM     67  C   UNL A   1      37.490  30.935  33.145  1.00  0.00     0.041 A 
ATOM     68  F   UNL A   1      39.644  30.021  33.191  1.00  0.00    -0.206 F 
ATOM     69  C   UNL A   1      36.441  31.518  32.445  1.00  0.00     0.022 A 
BRANCH  66  70
ATOM     70  S   UNL A   1      35.282  32.583  30.144  1.00  0.00     0.124 S 
ATOM     71  O   UNL A   1      34.986  31.681  29.032  1.00  0.00    -0.237 OA
ATOM     72  O   UNL A   1      34.225  32.745  31.135  1.00  0.00    -0.237 OA
ATOM     73  O   UNL A   1      35.981  33.810  29.771  1.00  0.00    -0.744 OA
ENDBRANCH  66  70
ENDBRANCH  49  63
BRANCH  50  74
ATOM     74  C   UNL A   1      46.885  27.156  26.252  1.00  0.00     0.023 A 
ATOM     75  C   UNL A   1      47.955  26.503  26.884  1.00  0.00     0.031 A 
ATOM     76  C   UNL A   1      46.980  27.381  24.865  1.00  0.00     0.131 A 
ATOM     77  C   UNL A   1      49.086  26.133  26.139  1.00  0.00     0.055 A 
ATOM     78  C   UNL A   1      48.078  26.952  24.118  1.00  0.00     0.041 A 
ATOM     79  F   UNL A   1      45.991  28.008  24.207  1.00  0.00    -0.206 F 
ATOM     80  C   UNL A   1      49.147  26.335  24.759  1.00  0.00     0.022 A 
BRANCH  77  81
ATOM     81  S   UNL A   1      50.524  25.462  27.019  1.00  0.00     0.124 S 
ATOM     82  O   UNL A   1      50.878  26.570  27.898  1.00  0.00    -0.237 OA
ATOM     83  O   UNL A   1      49.960  24.282  27.666  1.00  0.00    -0.237 OA
ATOM     84  O   UNL A   1      51.479  25.185  25.947  1.00  0.00    -0.744 OA
ENDBRANCH  77  81
ENDBRANCH  50  74
BRANCH  62  85
ATOM     85  C   UNL A   1      45.229  33.241  29.217  1.00  0.00     0.023 A 
ATOM     86  C   UNL A   1      46.031  33.474  30.349  1.00  0.00     0.031 A 
ATOM     87  C   UNL A   1      45.148  34.248  28.240  1.00  0.00     0.131 A 
ATOM     88  C   UNL A   1      46.672  34.711  30.504  1.00  0.00     0.055 A 
ATOM     89  C   UNL A   1      45.837  35.454  28.371  1.00  0.00     0.041 A 
ATOM     90  F   UNL A   1      44.396  34.074  27.141  1.00  0.00    -0.206 F 
ATOM     91  C   UNL A   1      46.593  35.696  29.516  1.00  0.00     0.022 A 
BRANCH  88  92
ATOM     92  S   UNL A   1      47.536  35.053  32.061  1.00  0.00     0.124 S 
ATOM     93  O   UNL A   1      47.935  33.716  32.486  1.00  0.00    -0.237 OA
ATOM     94  O   UNL A   1      48.617  35.934  31.631  1.00  0.00    -0.237 OA
ATOM     95  O   UNL A   1      46.512  35.689  32.889  1.00  0.00    -0.744 OA
ENDBRANCH  88  92
ENDBRANCH  62  85
ENDBRANCH  36  37
ENDBRANCH  29  31
ENDBRANCH  28  29
ENDBRANCH  27  28
ENDBRANCH   1  27
TORSDOF 20
ENDMDL
