MODEL 1
REMARK VINA RESULT:     -10.9      0.000      0.000
REMARK SMILES CO[C@H](C)[C@@H](NC(=O)OCc1ccccc1)C(=O)OCCOC(=O)c1ccc(-c2c3nc(c(-c4cc(S(=O)(=O)[O-])ccc4F)c4ccc([nH]4)c(-c4cc(S(=O)(=O)[O-])ccc4F)c4nc(c(-c5cc(S(=O)(=O)[O-])ccc5F)c5ccc2[nH]5)C=C4)C=C3)cc1
REMARK SMILES IDX 20 1 19 2 17 3 18 4 5 5 3 6 4 7 2 8 1 9 6 10 7 11 8 13 9 14
REMARK SMILES IDX 10 15 11 16 12 17 16 18 13 19 15 20 14 21 21 22 22 23 23 24
REMARK SMILES IDX 24 25 25 26 26 27 87 28 27 29 86 30 28 31 29 32 30 33 80 34
REMARK SMILES IDX 31 35 85 36 79 37 81 38 32 39 84 40 78 41 77 42 33 44 65 45
REMARK SMILES IDX 45 46 64 47 46 48 49 49 63 50 82 51 47 52 48 53 62 55 83 56
REMARK SMILES IDX 50 57 34 58 35 59 43 60 36 61 42 62 44 63 41 64 37 65 38 66
REMARK SMILES IDX 39 67 40 68 66 69 67 70 75 71 68 72 74 73 76 74 73 75 69 76
REMARK SMILES IDX 70 77 71 78 72 79 51 80 52 81 60 82 53 83 59 84 61 85 58 86
REMARK SMILES IDX 54 87 55 88 56 89 57 90
REMARK H PARENT 6 12 81 43 49 54
REMARK Flexibility Score: inf
ROOT
ATOM      1  C   UNL A   1      35.526  20.320  24.978  1.00  0.00     0.274 C 
ENDROOT
BRANCH   1   2
ATOM      2  O   UNL A   1      35.205  21.729  24.936  1.00  0.00    -0.460 OA
BRANCH   2   3
ATOM      3  C   UNL A   1      34.582  22.185  26.061  1.00  0.00     0.331 C 
ATOM      4  O   UNL A   1      35.097  22.162  27.177  1.00  0.00    -0.250 OA
BRANCH   3   5
ATOM      5  C   UNL A   1      33.097  22.541  25.868  1.00  0.00     0.224 C 
BRANCH   5   6
ATOM      6  C   UNL A   1      32.444  23.572  26.832  1.00  0.00     0.148 C 
ATOM      7  C   UNL A   1      31.755  24.698  26.037  1.00  0.00     0.041 C 
BRANCH   6   8
ATOM      8  O   UNL A   1      31.320  23.042  27.552  1.00  0.00    -0.379 OA
ATOM      9  C   UNL A   1      30.097  22.948  26.852  1.00  0.00     0.195 C 
ENDBRANCH   6   8
ENDBRANCH   5   6
BRANCH   5  10
ATOM     10  N   UNL A   1      32.796  22.794  24.439  1.00  0.00    -0.305 N 
ATOM     11  C   UNL A   1      32.510  21.917  23.434  1.00  0.00     0.408 C 
ATOM     12  H   UNL A   1      32.804  23.742  24.174  1.00  0.00     0.168 HD
ATOM     13  O   UNL A   1      32.563  22.264  22.259  1.00  0.00    -0.225 OA
BRANCH  11  14
ATOM     14  O   UNL A   1      32.055  20.726  23.865  1.00  0.00    -0.445 OA
BRANCH  14  15
ATOM     15  C   UNL A   1      32.277  19.580  23.029  1.00  0.00     0.270 C 
BRANCH  15  16
ATOM     16  C   UNL A   1      32.816  18.363  23.761  1.00  0.00    -0.011 A 
ATOM     17  C   UNL A   1      32.468  18.075  25.089  1.00  0.00     0.007 A 
ATOM     18  C   UNL A   1      33.609  17.428  23.073  1.00  0.00     0.007 A 
ATOM     19  C   UNL A   1      32.884  16.892  25.707  1.00  0.00     0.000 A 
ATOM     20  C   UNL A   1      34.025  16.244  23.691  1.00  0.00     0.000 A 
ATOM     21  C   UNL A   1      33.657  15.973  25.005  1.00  0.00     0.000 A 
ENDBRANCH  15  16
ENDBRANCH  14  15
ENDBRANCH  11  14
ENDBRANCH   5  10
ENDBRANCH   3   5
ENDBRANCH   2   3
ENDBRANCH   1   2
BRANCH   1  22
ATOM     22  C   UNL A   1      37.023  20.026  24.863  1.00  0.00     0.275 C 
BRANCH  22  23
ATOM     23  O   UNL A   1      37.805  21.205  25.120  1.00  0.00    -0.458 OA
BRANCH  23  24
ATOM     24  C   UNL A   1      38.914  20.984  25.859  1.00  0.00     0.338 C 
ATOM     25  O   UNL A   1      39.523  19.929  25.954  1.00  0.00    -0.246 OA
BRANCH  24  26
ATOM     26  C   UNL A   1      39.385  22.205  26.533  1.00  0.00     0.060 A 
ATOM     27  C   UNL A   1      38.921  23.454  26.119  1.00  0.00     0.016 A 
ATOM     28  C   UNL A   1      40.488  22.121  27.380  1.00  0.00     0.016 A 
ATOM     29  C   UNL A   1      39.596  24.613  26.478  1.00  0.00     0.010 A 
ATOM     30  C   UNL A   1      41.118  23.293  27.807  1.00  0.00     0.010 A 
ATOM     31  C   UNL A   1      40.695  24.547  27.337  1.00  0.00    -0.014 A 
BRANCH  31  32
ATOM     32  C   UNL A   1      41.390  25.798  27.731  1.00  0.00     0.031 A 
ATOM     33  C   UNL A   1      40.677  26.848  28.536  1.00  0.00     0.074 A 
ATOM     34  C   UNL A   1      42.675  25.971  27.369  1.00  0.00     0.049 A 
ATOM     35  N   UNL A   1      41.080  28.047  28.870  1.00  0.00    -0.248 NA
ATOM     36  C   UNL A   1      39.329  26.511  29.019  1.00  0.00     0.031 C 
ATOM     37  C   UNL A   1      43.480  24.998  26.625  1.00  0.00     0.029 A 
ATOM     38  N   UNL A   1      43.533  27.019  27.577  1.00  0.00    -0.354 N 
ATOM     39  C   UNL A   1      40.027  28.623  29.572  1.00  0.00     0.074 A 
ATOM     40  C   UNL A   1      38.956  27.647  29.591  1.00  0.00     0.031 C 
ATOM     41  C   UNL A   1      44.718  25.483  26.464  1.00  0.00     0.029 A 
ATOM     42  C   UNL A   1      44.771  26.834  27.008  1.00  0.00     0.049 A 
ATOM     43  H   UNL A   1      43.287  27.827  28.083  1.00  0.00     0.167 HD
ATOM     44  C   UNL A   1      39.965  29.853  30.142  1.00  0.00     0.034 A 
ATOM     45  C   UNL A   1      45.818  27.671  26.893  1.00  0.00     0.034 A 
ATOM     46  C   UNL A   1      41.054  30.805  30.112  1.00  0.00     0.049 A 
ATOM     47  C   UNL A   1      45.699  29.052  27.477  1.00  0.00     0.074 A 
ATOM     48  C   UNL A   1      41.106  32.074  30.664  1.00  0.00     0.029 A 
ATOM     49  N   UNL A   1      42.282  30.598  29.492  1.00  0.00    -0.354 N 
ATOM     50  N   UNL A   1      44.688  29.598  28.112  1.00  0.00    -0.248 NA
ATOM     51  C   UNL A   1      46.869  29.926  27.335  1.00  0.00     0.031 C 
ATOM     52  C   UNL A   1      42.326  32.661  30.310  1.00  0.00     0.029 A 
ATOM     53  C   UNL A   1      43.082  31.725  29.622  1.00  0.00     0.049 A 
ATOM     54  H   UNL A   1      42.545  29.771  29.028  1.00  0.00     0.167 HD
ATOM     55  C   UNL A   1      45.114  30.872  28.475  1.00  0.00     0.074 A 
ATOM     56  C   UNL A   1      46.480  30.997  28.008  1.00  0.00     0.031 C 
ATOM     57  C   UNL A   1      44.439  31.847  29.138  1.00  0.00     0.034 A 
BRANCH  44  58
ATOM     58  C   UNL A   1      38.661  30.260  30.791  1.00  0.00     0.023 A 
ATOM     59  C   UNL A   1      37.632  30.896  30.073  1.00  0.00     0.031 A 
ATOM     60  C   UNL A   1      38.451  30.027  32.164  1.00  0.00     0.131 A 
ATOM     61  C   UNL A   1      36.478  31.336  30.742  1.00  0.00     0.055 A 
ATOM     62  C   UNL A   1      37.265  30.390  32.804  1.00  0.00     0.041 A 
ATOM     63  F   UNL A   1      39.404  29.448  32.912  1.00  0.00    -0.206 F 
ATOM     64  C   UNL A   1      36.275  31.062  32.096  1.00  0.00     0.022 A 
BRANCH  61  65
ATOM     65  S   UNL A   1      35.312  32.405  29.851  1.00  0.00     0.124 S 
ATOM     66  O   UNL A   1      34.315  32.678  30.883  1.00  0.00    -0.237 OA
ATOM     67  O   UNL A   1      36.153  33.531  29.461  1.00  0.00    -0.237 OA
ATOM     68  O   UNL A   1      34.845  31.563  28.752  1.00  0.00    -0.744 OA
ENDBRANCH  61  65
ENDBRANCH  44  58
BRANCH  45  69
ATOM     69  C   UNL A   1      47.045  27.245  26.162  1.00  0.00     0.023 A 
ATOM     70  C   UNL A   1      48.064  26.535  26.813  1.00  0.00     0.031 A 
ATOM     71  C   UNL A   1      47.232  27.573  24.806  1.00  0.00     0.131 A 
ATOM     72  C   UNL A   1      49.245  26.219  26.124  1.00  0.00     0.055 A 
ATOM     73  C   UNL A   1      48.378  27.196  24.106  1.00  0.00     0.041 A 
ATOM     74  F   UNL A   1      46.287  28.252  24.133  1.00  0.00    -0.206 F 
ATOM     75  C   UNL A   1      49.401  26.527  24.771  1.00  0.00     0.022 A 
BRANCH  72  76
ATOM     76  S   UNL A   1      50.617  25.483  27.052  1.00  0.00     0.124 S 
ATOM     77  O   UNL A   1      51.572  25.193  25.988  1.00  0.00    -0.237 OA
ATOM     78  O   UNL A   1      50.980  26.563  27.963  1.00  0.00    -0.237 OA
ATOM     79  O   UNL A   1      50.011  24.313  27.684  1.00  0.00    -0.744 OA
ENDBRANCH  72  76
ENDBRANCH  45  69
BRANCH  57  80
ATOM     80  C   UNL A   1      45.206  33.114  29.443  1.00  0.00     0.023 A 
ATOM     81  C   UNL A   1      45.189  34.222  28.576  1.00  0.00     0.031 A 
ATOM     82  C   UNL A   1      46.017  33.189  30.590  1.00  0.00     0.131 A 
ATOM     83  C   UNL A   1      46.034  35.314  28.820  1.00  0.00     0.055 A 
ATOM     84  C   UNL A   1      46.793  34.314  30.871  1.00  0.00     0.041 A 
ATOM     85  F   UNL A   1      46.080  32.162  31.452  1.00  0.00    -0.206 F 
ATOM     86  C   UNL A   1      46.821  35.377  29.973  1.00  0.00     0.022 A 
BRANCH  83  87
ATOM     87  S   UNL A   1      46.208  36.584  27.535  1.00  0.00     0.124 S 
ATOM     88  O   UNL A   1      44.889  36.560  26.908  1.00  0.00    -0.237 OA
ATOM     89  O   UNL A   1      46.520  37.776  28.315  1.00  0.00    -0.237 OA
ATOM     90  O   UNL A   1      47.300  36.082  26.703  1.00  0.00    -0.744 OA
ENDBRANCH  83  87
ENDBRANCH  57  80
ENDBRANCH  31  32
ENDBRANCH  24  26
ENDBRANCH  23  24
ENDBRANCH  22  23
ENDBRANCH   1  22
TORSDOF 20
ENDMDL
MODEL 2
REMARK VINA RESULT:     -10.8      1.406      3.502
REMARK SMILES CO[C@H](C)[C@@H](NC(=O)OCc1ccccc1)C(=O)OCCOC(=O)c1ccc(-c2c3nc(c(-c4cc(S(=O)(=O)[O-])ccc4F)c4ccc([nH]4)c(-c4cc(S(=O)(=O)[O-])ccc4F)c4nc(c(-c5cc(S(=O)(=O)[O-])ccc5F)c5ccc2[nH]5)C=C4)C=C3)cc1
REMARK SMILES IDX 20 1 19 2 17 3 18 4 5 5 3 6 4 7 2 8 1 9 6 10 7 11 8 13 9 14
REMARK SMILES IDX 10 15 11 16 12 17 16 18 13 19 15 20 14 21 21 22 22 23 23 24
REMARK SMILES IDX 24 25 25 26 26 27 87 28 27 29 86 30 28 31 29 32 30 33 80 34
REMARK SMILES IDX 31 35 85 36 79 37 81 38 32 39 84 40 78 41 77 42 33 44 65 45
REMARK SMILES IDX 45 46 64 47 46 48 49 49 63 50 82 51 47 52 48 53 62 55 83 56
REMARK SMILES IDX 50 57 34 58 35 59 43 60 36 61 42 62 44 63 41 64 37 65 38 66
REMARK SMILES IDX 39 67 40 68 66 69 67 70 75 71 68 72 74 73 76 74 73 75 69 76
REMARK SMILES IDX 70 77 71 78 72 79 51 80 52 81 60 82 53 83 59 84 61 85 58 86
REMARK SMILES IDX 54 87 55 88 56 89 57 90
REMARK H PARENT 6 12 81 43 49 54
REMARK Flexibility Score: inf
ROOT
ATOM      1  C   UNL A   1      35.481  20.432  24.978  1.00  0.00     0.274 C 
ENDROOT
BRANCH   1   2
ATOM      2  O   UNL A   1      35.034  21.707  25.492  1.00  0.00    -0.460 OA
BRANCH   2   3
ATOM      3  C   UNL A   1      33.758  21.688  25.975  1.00  0.00     0.331 C 
ATOM      4  O   UNL A   1      33.284  20.741  26.600  1.00  0.00    -0.250 OA
BRANCH   3   5
ATOM      5  C   UNL A   1      32.880  22.859  25.502  1.00  0.00     0.224 C 
BRANCH   5   6
ATOM      6  C   UNL A   1      32.927  23.272  24.003  1.00  0.00     0.148 C 
ATOM      7  C   UNL A   1      31.539  23.116  23.352  1.00  0.00     0.041 C 
BRANCH   6   8
ATOM      8  O   UNL A   1      33.144  24.679  23.809  1.00  0.00    -0.379 OA
ATOM      9  C   UNL A   1      34.158  25.284  24.584  1.00  0.00     0.195 C 
ENDBRANCH   6   8
ENDBRANCH   5   6
BRANCH   5  10
ATOM     10  N   UNL A   1      31.503  22.737  26.038  1.00  0.00    -0.305 N 
ATOM     11  C   UNL A   1      30.795  23.585  26.838  1.00  0.00     0.408 C 
ATOM     12  H   UNL A   1      31.026  21.917  25.777  1.00  0.00     0.168 HD
ATOM     13  O   UNL A   1      29.782  23.208  27.418  1.00  0.00    -0.225 OA
BRANCH  11  14
ATOM     14  O   UNL A   1      31.239  24.855  26.813  1.00  0.00    -0.445 OA
BRANCH  14  15
ATOM     15  C   UNL A   1      30.619  25.766  25.892  1.00  0.00     0.270 C 
BRANCH  15  16
ATOM     16  C   UNL A   1      31.106  27.201  26.004  1.00  0.00    -0.011 A 
ATOM     17  C   UNL A   1      31.594  27.733  27.206  1.00  0.00     0.007 A 
ATOM     18  C   UNL A   1      31.174  28.007  24.854  1.00  0.00     0.007 A 
ATOM     19  C   UNL A   1      32.141  29.018  27.260  1.00  0.00     0.000 A 
ATOM     20  C   UNL A   1      31.722  29.293  24.908  1.00  0.00     0.000 A 
ATOM     21  C   UNL A   1      32.212  29.795  26.110  1.00  0.00     0.000 A 
ENDBRANCH  15  16
ENDBRANCH  14  15
ENDBRANCH  11  14
ENDBRANCH   5  10
ENDBRANCH   3   5
ENDBRANCH   2   3
ENDBRANCH   1   2
BRANCH   1  22
ATOM     22  C   UNL A   1      37.002  20.269  24.973  1.00  0.00     0.275 C 
BRANCH  22  23
ATOM     23  O   UNL A   1      37.655  21.481  25.385  1.00  0.00    -0.458 OA
BRANCH  23  24
ATOM     24  C   UNL A   1      38.872  21.293  25.943  1.00  0.00     0.338 C 
ATOM     25  O   UNL A   1      39.539  20.272  25.898  1.00  0.00    -0.246 OA
BRANCH  24  26
ATOM     26  C   UNL A   1      39.377  22.512  26.598  1.00  0.00     0.060 A 
ATOM     27  C   UNL A   1      38.967  23.767  26.148  1.00  0.00     0.016 A 
ATOM     28  C   UNL A   1      40.461  22.406  27.465  1.00  0.00     0.016 A 
ATOM     29  C   UNL A   1      39.679  24.908  26.492  1.00  0.00     0.010 A 
ATOM     30  C   UNL A   1      41.128  23.564  27.878  1.00  0.00     0.010 A 
ATOM     31  C   UNL A   1      40.760  24.821  27.372  1.00  0.00    -0.014 A 
BRANCH  31  32
ATOM     32  C   UNL A   1      41.495  26.054  27.750  1.00  0.00     0.031 A 
ATOM     33  C   UNL A   1      40.812  27.143  28.529  1.00  0.00     0.074 A 
ATOM     34  C   UNL A   1      42.789  26.176  27.398  1.00  0.00     0.049 A 
ATOM     35  N   UNL A   1      41.254  28.333  28.845  1.00  0.00    -0.248 NA
ATOM     36  C   UNL A   1      39.449  26.862  29.004  1.00  0.00     0.031 C 
ATOM     37  C   UNL A   1      43.565  25.161  26.680  1.00  0.00     0.029 A 
ATOM     38  N   UNL A   1      43.681  27.196  27.594  1.00  0.00    -0.354 N 
ATOM     39  C   UNL A   1      40.215  28.959  29.526  1.00  0.00     0.074 A 
ATOM     40  C   UNL A   1      39.110  28.021  29.552  1.00  0.00     0.031 C 
ATOM     41  C   UNL A   1      44.821  25.600  26.522  1.00  0.00     0.029 A 
ATOM     42  C   UNL A   1      44.916  26.958  27.041  1.00  0.00     0.049 A 
ATOM     43  H   UNL A   1      43.459  28.021  28.083  1.00  0.00     0.167 HD
ATOM     44  C   UNL A   1      40.191  30.200  30.073  1.00  0.00     0.034 A 
ATOM     45  C   UNL A   1      45.993  27.756  26.922  1.00  0.00     0.034 A 
ATOM     46  C   UNL A   1      41.313  31.113  30.036  1.00  0.00     0.049 A 
ATOM     47  C   UNL A   1      45.918  29.151  27.480  1.00  0.00     0.074 A 
ATOM     48  C   UNL A   1      41.404  32.390  30.565  1.00  0.00     0.029 A 
ATOM     49  N   UNL A   1      42.538  30.852  29.432  1.00  0.00    -0.354 N 
ATOM     50  N   UNL A   1      44.921  29.743  28.095  1.00  0.00    -0.248 NA
ATOM     51  C   UNL A   1      47.118  29.980  27.333  1.00  0.00     0.031 C 
ATOM     52  C   UNL A   1      42.648  32.927  30.213  1.00  0.00     0.029 A 
ATOM     53  C   UNL A   1      43.376  31.952  29.550  1.00  0.00     0.049 A 
ATOM     54  H   UNL A   1      42.777  30.007  28.986  1.00  0.00     0.167 HD
ATOM     55  C   UNL A   1      45.388  31.008  28.439  1.00  0.00     0.074 A 
ATOM     56  C   UNL A   1      46.762  31.077  27.982  1.00  0.00     0.031 C 
ATOM     57  C   UNL A   1      44.741  32.018  29.077  1.00  0.00     0.034 A 
BRANCH  44  58
ATOM     58  C   UNL A   1      38.896  30.665  30.702  1.00  0.00     0.023 A 
ATOM     59  C   UNL A   1      37.872  31.268  29.951  1.00  0.00     0.031 A 
ATOM     60  C   UNL A   1      38.691  30.520  32.088  1.00  0.00     0.131 A 
ATOM     61  C   UNL A   1      36.727  31.764  30.596  1.00  0.00     0.055 A 
ATOM     62  C   UNL A   1      37.514  30.938  32.710  1.00  0.00     0.041 A 
ATOM     63  F   UNL A   1      39.641  29.976  32.866  1.00  0.00    -0.206 F 
ATOM     64  C   UNL A   1      36.528  31.578  31.966  1.00  0.00     0.022 A 
BRANCH  61  65
ATOM     65  S   UNL A   1      35.571  32.792  29.647  1.00  0.00     0.124 S 
ATOM     66  O   UNL A   1      34.307  32.518  30.326  1.00  0.00    -0.237 OA
ATOM     67  O   UNL A   1      36.117  34.132  29.829  1.00  0.00    -0.237 OA
ATOM     68  O   UNL A   1      35.670  32.256  28.291  1.00  0.00    -0.744 OA
ENDBRANCH  61  65
ENDBRANCH  44  58
BRANCH  45  69
ATOM     69  C   UNL A   1      47.211  27.273  26.210  1.00  0.00     0.023 A 
ATOM     70  C   UNL A   1      48.185  26.517  26.877  1.00  0.00     0.031 A 
ATOM     71  C   UNL A   1      47.435  27.593  24.858  1.00  0.00     0.131 A 
ATOM     72  C   UNL A   1      49.362  26.147  26.207  1.00  0.00     0.055 A 
ATOM     73  C   UNL A   1      48.574  27.164  24.177  1.00  0.00     0.041 A 
ATOM     74  F   UNL A   1      46.535  28.315  24.171  1.00  0.00    -0.206 F 
ATOM     75  C   UNL A   1      49.554  26.448  24.858  1.00  0.00     0.022 A 
BRANCH  72  76
ATOM     76  S   UNL A   1      50.683  25.349  27.157  1.00  0.00     0.124 S 
ATOM     77  O   UNL A   1      51.595  24.928  26.100  1.00  0.00    -0.237 OA
ATOM     78  O   UNL A   1      51.146  26.439  28.008  1.00  0.00    -0.237 OA
ATOM     79  O   UNL A   1      49.993  24.266  27.855  1.00  0.00    -0.744 OA
ENDBRANCH  72  76
ENDBRANCH  45  69
BRANCH  57  80
ATOM     80  C   UNL A   1      45.549  33.263  29.366  1.00  0.00     0.023 A 
ATOM     81  C   UNL A   1      45.603  34.342  28.466  1.00  0.00     0.031 A 
ATOM     82  C   UNL A   1      46.328  33.342  30.535  1.00  0.00     0.131 A 
ATOM     83  C   UNL A   1      46.484  35.407  28.702  1.00  0.00     0.055 A 
ATOM     84  C   UNL A   1      47.140  34.445  30.806  1.00  0.00     0.041 A 
ATOM     85  F   UNL A   1      46.323  32.342  31.430  1.00  0.00    -0.206 F 
ATOM     86  C   UNL A   1      47.238  35.476  29.876  1.00  0.00     0.022 A 
BRANCH  83  87
ATOM     87  S   UNL A   1      46.748  36.627  27.384  1.00  0.00     0.124 S 
ATOM     88  O   UNL A   1      48.017  37.229  27.779  1.00  0.00    -0.237 OA
ATOM     89  O   UNL A   1      46.785  35.790  26.189  1.00  0.00    -0.237 OA
ATOM     90  O   UNL A   1      45.584  37.504  27.491  1.00  0.00    -0.744 OA
ENDBRANCH  83  87
ENDBRANCH  57  80
ENDBRANCH  31  32
ENDBRANCH  24  26
ENDBRANCH  23  24
ENDBRANCH  22  23
ENDBRANCH   1  22
TORSDOF 20
ENDMDL
MODEL 3
REMARK VINA RESULT:     -10.7      2.165      8.477
REMARK SMILES CO[C@H](C)[C@@H](NC(=O)OCc1ccccc1)C(=O)OCCOC(=O)c1ccc(-c2c3nc(c(-c4cc(S(=O)(=O)[O-])ccc4F)c4ccc([nH]4)c(-c4cc(S(=O)(=O)[O-])ccc4F)c4nc(c(-c5cc(S(=O)(=O)[O-])ccc5F)c5ccc2[nH]5)C=C4)C=C3)cc1
REMARK SMILES IDX 20 1 19 2 17 3 18 4 5 5 3 6 4 7 2 8 1 9 6 10 7 11 8 13 9 14
REMARK SMILES IDX 10 15 11 16 12 17 16 18 13 19 15 20 14 21 21 22 22 23 23 24
REMARK SMILES IDX 24 25 25 26 26 27 87 28 27 29 86 30 28 31 29 32 30 33 80 34
REMARK SMILES IDX 31 35 85 36 79 37 81 38 32 39 84 40 78 41 77 42 33 44 65 45
REMARK SMILES IDX 45 46 64 47 46 48 49 49 63 50 82 51 47 52 48 53 62 55 83 56
REMARK SMILES IDX 50 57 34 58 35 59 43 60 36 61 42 62 44 63 41 64 37 65 38 66
REMARK SMILES IDX 39 67 40 68 66 69 67 70 75 71 68 72 74 73 76 74 73 75 69 76
REMARK SMILES IDX 70 77 71 78 72 79 51 80 52 81 60 82 53 83 59 84 61 85 58 86
REMARK SMILES IDX 54 87 55 88 56 89 57 90
REMARK H PARENT 6 12 81 43 49 54
REMARK Flexibility Score: inf
ROOT
ATOM      1  C   UNL A   1      35.700  21.100  25.755  1.00  0.00     0.274 C 
ENDROOT
BRANCH   1   2
ATOM      2  O   UNL A   1      35.266  22.380  25.241  1.00  0.00    -0.460 OA
BRANCH   2   3
ATOM      3  C   UNL A   1      34.381  23.027  26.053  1.00  0.00     0.331 C 
ATOM      4  O   UNL A   1      34.435  22.989  27.281  1.00  0.00    -0.250 OA
BRANCH   3   5
ATOM      5  C   UNL A   1      33.177  23.645  25.320  1.00  0.00     0.224 C 
BRANCH   5   6
ATOM      6  C   UNL A   1      33.210  23.731  23.767  1.00  0.00     0.148 C 
ATOM      7  C   UNL A   1      32.215  22.733  23.146  1.00  0.00     0.041 C 
BRANCH   6   8
ATOM      8  O   UNL A   1      32.685  24.967  23.257  1.00  0.00    -0.379 OA
ATOM      9  C   UNL A   1      33.586  25.810  22.568  1.00  0.00     0.195 C 
ENDBRANCH   6   8
ENDBRANCH   5   6
BRANCH   5  10
ATOM     10  N   UNL A   1      31.902  23.112  25.856  1.00  0.00    -0.305 N 
ATOM     11  C   UNL A   1      31.067  23.623  26.805  1.00  0.00     0.408 C 
ATOM     12  H   UNL A   1      31.613  22.255  25.466  1.00  0.00     0.168 HD
ATOM     13  O   UNL A   1      30.206  22.926  27.331  1.00  0.00    -0.225 OA
BRANCH  11  14
ATOM     14  O   UNL A   1      31.202  24.950  26.990  1.00  0.00    -0.445 OA
BRANCH  14  15
ATOM     15  C   UNL A   1      30.498  25.828  26.100  1.00  0.00     0.270 C 
BRANCH  15  16
ATOM     16  C   UNL A   1      31.097  27.220  25.986  1.00  0.00    -0.011 A 
ATOM     17  C   UNL A   1      31.148  27.914  24.768  1.00  0.00     0.007 A 
ATOM     18  C   UNL A   1      31.527  27.892  27.144  1.00  0.00     0.007 A 
ATOM     19  C   UNL A   1      31.599  29.236  24.707  1.00  0.00     0.000 A 
ATOM     20  C   UNL A   1      31.978  29.215  27.082  1.00  0.00     0.000 A 
ATOM     21  C   UNL A   1      32.007  29.889  25.865  1.00  0.00     0.000 A 
ENDBRANCH  15  16
ENDBRANCH  14  15
ENDBRANCH  11  14
ENDBRANCH   5  10
ENDBRANCH   3   5
ENDBRANCH   2   3
ENDBRANCH   1   2
BRANCH   1  22
ATOM     22  C   UNL A   1      36.826  20.460  24.942  1.00  0.00     0.275 C 
BRANCH  22  23
ATOM     23  O   UNL A   1      37.960  21.338  24.844  1.00  0.00    -0.458 OA
BRANCH  23  24
ATOM     24  C   UNL A   1      38.916  21.113  25.773  1.00  0.00     0.338 C 
ATOM     25  O   UNL A   1      39.400  20.031  26.067  1.00  0.00    -0.246 OA
BRANCH  24  26
ATOM     26  C   UNL A   1      39.390  22.361  26.395  1.00  0.00     0.060 A 
ATOM     27  C   UNL A   1      38.734  23.564  26.135  1.00  0.00     0.016 A 
ATOM     28  C   UNL A   1      40.642  22.371  27.006  1.00  0.00     0.016 A 
ATOM     29  C   UNL A   1      39.350  24.778  26.405  1.00  0.00     0.010 A 
ATOM     30  C   UNL A   1      41.228  23.593  27.353  1.00  0.00     0.010 A 
ATOM     31  C   UNL A   1      40.599  24.807  27.029  1.00  0.00    -0.014 A 
BRANCH  31  32
ATOM     32  C   UNL A   1      41.233  26.113  27.335  1.00  0.00     0.031 A 
ATOM     33  C   UNL A   1      42.598  26.445  26.801  1.00  0.00     0.074 A 
ATOM     34  C   UNL A   1      40.559  27.004  28.087  1.00  0.00     0.049 A 
ATOM     35  N   UNL A   1      43.356  27.480  27.058  1.00  0.00    -0.248 NA
ATOM     36  C   UNL A   1      43.195  25.481  25.864  1.00  0.00     0.031 C 
ATOM     37  C   UNL A   1      39.209  26.806  28.622  1.00  0.00     0.029 A 
ATOM     38  N   UNL A   1      40.910  28.252  28.531  1.00  0.00    -0.354 N 
ATOM     39  C   UNL A   1      44.533  27.280  26.344  1.00  0.00     0.074 A 
ATOM     40  C   UNL A   1      44.395  26.007  25.664  1.00  0.00     0.031 C 
ATOM     41  C   UNL A   1      38.838  27.902  29.297  1.00  0.00     0.029 A 
ATOM     42  C   UNL A   1      39.953  28.841  29.323  1.00  0.00     0.049 A 
ATOM     43  H   UNL A   1      41.766  28.684  28.307  1.00  0.00     0.167 HD
ATOM     44  C   UNL A   1      45.622  28.085  26.269  1.00  0.00     0.034 A 
ATOM     45  C   UNL A   1      39.981  29.985  30.029  1.00  0.00     0.034 A 
ATOM     46  C   UNL A   1      45.728  29.354  26.955  1.00  0.00     0.049 A 
ATOM     47  C   UNL A   1      41.226  30.828  29.981  1.00  0.00     0.074 A 
ATOM     48  C   UNL A   1      46.779  30.256  26.944  1.00  0.00     0.029 A 
ATOM     49  N   UNL A   1      44.752  29.902  27.781  1.00  0.00    -0.354 N 
ATOM     50  N   UNL A   1      42.345  30.614  29.328  1.00  0.00    -0.248 NA
ATOM     51  C   UNL A   1      41.207  32.070  30.760  1.00  0.00     0.031 C 
ATOM     52  C   UNL A   1      46.473  31.303  27.821  1.00  0.00     0.029 A 
ATOM     53  C   UNL A   1      45.189  31.111  28.306  1.00  0.00     0.049 A 
ATOM     54  H   UNL A   1      43.876  29.492  27.966  1.00  0.00     0.167 HD
ATOM     55  C   UNL A   1      43.152  31.716  29.593  1.00  0.00     0.074 A 
ATOM     56  C   UNL A   1      42.378  32.598  30.444  1.00  0.00     0.031 C 
ATOM     57  C   UNL A   1      44.416  31.977  29.168  1.00  0.00     0.034 A 
BRANCH  44  58
ATOM     58  C   UNL A   1      46.807  27.590  25.469  1.00  0.00     0.023 A 
ATOM     59  C   UNL A   1      47.054  28.017  24.152  1.00  0.00     0.031 A 
ATOM     60  C   UNL A   1      47.696  26.653  26.030  1.00  0.00     0.131 A 
ATOM     61  C   UNL A   1      48.115  27.459  23.421  1.00  0.00     0.055 A 
ATOM     62  C   UNL A   1      48.799  26.167  25.327  1.00  0.00     0.041 A 
ATOM     63  F   UNL A   1      47.501  26.185  27.273  1.00  0.00    -0.206 F 
ATOM     64  C   UNL A   1      49.006  26.558  24.008  1.00  0.00     0.022 A 
BRANCH  61  65
ATOM     65  S   UNL A   1      48.225  27.810  21.644  1.00  0.00     0.124 S 
ATOM     66  O   UNL A   1      49.271  28.829  21.608  1.00  0.00    -0.237 OA
ATOM     67  O   UNL A   1      48.580  26.509  21.086  1.00  0.00    -0.237 OA
ATOM     68  O   UNL A   1      46.887  28.290  21.305  1.00  0.00    -0.744 OA
ENDBRANCH  61  65
ENDBRANCH  44  58
BRANCH  45  69
ATOM     69  C   UNL A   1      38.816  30.376  30.873  1.00  0.00     0.023 A 
ATOM     70  C   UNL A   1      37.767  31.144  30.346  1.00  0.00     0.031 A 
ATOM     71  C   UNL A   1      38.752  30.017  32.232  1.00  0.00     0.131 A 
ATOM     72  C   UNL A   1      36.724  31.569  31.183  1.00  0.00     0.055 A 
ATOM     73  C   UNL A   1      37.678  30.384  33.044  1.00  0.00     0.041 A 
ATOM     74  F   UNL A   1      39.729  29.282  32.789  1.00  0.00    -0.206 F 
ATOM     75  C   UNL A   1      36.663  31.179  32.522  1.00  0.00     0.022 A 
BRANCH  72  76
ATOM     76  S   UNL A   1      35.498  32.725  30.516  1.00  0.00     0.124 S 
ATOM     77  O   UNL A   1      34.371  32.514  31.419  1.00  0.00    -0.237 OA
ATOM     78  O   UNL A   1      36.188  34.004  30.639  1.00  0.00    -0.237 OA
ATOM     79  O   UNL A   1      35.298  32.255  29.147  1.00  0.00    -0.744 OA
ENDBRANCH  72  76
ENDBRANCH  45  69
BRANCH  57  80
ATOM     80  C   UNL A   1      45.008  33.306  29.580  1.00  0.00     0.023 A 
ATOM     81  C   UNL A   1      44.790  34.480  28.837  1.00  0.00     0.031 A 
ATOM     82  C   UNL A   1      45.855  33.384  30.700  1.00  0.00     0.131 A 
ATOM     83  C   UNL A   1      45.482  35.655  29.167  1.00  0.00     0.055 A 
ATOM     84  C   UNL A   1      46.475  34.577  31.074  1.00  0.00     0.041 A 
ATOM     85  F   UNL A   1      46.106  32.296  31.446  1.00  0.00    -0.206 F 
ATOM     86  C   UNL A   1      46.307  35.717  30.293  1.00  0.00     0.022 A 
BRANCH  83  87
ATOM     87  S   UNL A   1      45.409  37.059  28.019  1.00  0.00     0.124 S 
ATOM     88  O   UNL A   1      44.096  36.880  27.407  1.00  0.00    -0.237 OA
ATOM     89  O   UNL A   1      45.544  38.201  28.916  1.00  0.00    -0.237 OA
ATOM     90  O   UNL A   1      46.545  36.832  27.127  1.00  0.00    -0.744 OA
ENDBRANCH  83  87
ENDBRANCH  57  80
ENDBRANCH  31  32
ENDBRANCH  24  26
ENDBRANCH  23  24
ENDBRANCH  22  23
ENDBRANCH   1  22
TORSDOF 20
ENDMDL
