MODEL 1
REMARK VINA RESULT:     -10.0      0.000      0.000
REMARK SMILES C[N@H+](CCC(=O)Nc1sccc1C#N)CC(=O)OCCOC(=O)c1ccc(-c2c3nc(c(-c4cc(S(=O)(=O)[O-])ccc4F)c4ccc([nH]4)c(-c4cc(S(=O)(=O)[O-])ccc4F)c4nc(c(-c5cc(S(=O)(=O)[O-])ccc5F)c5ccc2[nH]5)C=C4)C=C3)cc1
REMARK SMILES IDX 18 1 16 2 17 3 15 4 2 5 1 6 3 8 4 9 5 10 6 11 7 12 8 14 9 15
REMARK SMILES IDX 12 16 10 17 11 18 13 19 14 20 19 21 20 22 21 23 22 24 23 25
REMARK SMILES IDX 24 26 25 27 86 28 26 29 85 30 27 31 28 32 29 33 79 34 30 35
REMARK SMILES IDX 84 36 78 37 80 38 31 39 83 40 77 41 76 42 32 44 64 45 44 46
REMARK SMILES IDX 63 47 45 48 48 49 62 50 81 51 46 52 47 53 61 55 82 56 49 57
REMARK SMILES IDX 33 58 34 59 42 60 35 61 41 62 43 63 40 64 36 65 37 66 38 67
REMARK SMILES IDX 39 68 65 69 66 70 74 71 67 72 73 73 75 74 72 75 68 76 69 77
REMARK SMILES IDX 70 78 71 79 50 80 51 81 59 82 52 83 58 84 60 85 57 86 53 87
REMARK SMILES IDX 54 88 55 89 56 90
REMARK H PARENT 2 7 7 13 80 43 48 54
REMARK Flexibility Score: inf
ROOT
ATOM      1  O   UNL A   1      33.238  28.748  24.264  1.00  0.00    -0.458 OA
ENDROOT
BRANCH   1   2
ATOM      2  C   UNL A   1      32.432  28.603  23.180  1.00  0.00     0.361 C 
ATOM      3  O   UNL A   1      32.480  29.301  22.175  1.00  0.00    -0.245 OA
BRANCH   2   4
ATOM      4  C   UNL A   1      31.512  27.414  23.348  1.00  0.00     0.386 C 
BRANCH   4   5
ATOM      5  N   UNL A   1      32.280  26.162  23.440  1.00  0.00    -0.328 N 
ATOM      6  C   UNL A   1      32.700  25.776  22.088  1.00  0.00     0.333 C 
ATOM      7  H   UNL A   1      33.090  26.338  24.034  1.00  0.00     0.348 HD
BRANCH   5   8
ATOM      8  C   UNL A   1      31.559  25.064  24.107  1.00  0.00     0.272 C 
BRANCH   8   9
ATOM      9  C   UNL A   1      31.690  24.892  25.621  1.00  0.00     0.161 C 
BRANCH   9  10
ATOM     10  C   UNL A   1      31.418  23.662  26.488  1.00  0.00     0.230 C 
ATOM     11  O   UNL A   1      30.473  23.765  27.293  1.00  0.00    -0.274 OA
ATOM     12  N   UNL A   1      31.990  22.441  26.446  1.00  0.00    -0.316 N 
ATOM     13  H   UNL A   1      31.473  21.761  26.936  1.00  0.00     0.170 HD
BRANCH  12  14
ATOM     14  C   UNL A   1      33.123  21.935  25.877  1.00  0.00     0.113 A 
ATOM     15  S   UNL A   1      34.489  22.205  26.870  1.00  0.00    -0.125 S 
ATOM     16  C   UNL A   1      33.488  21.343  24.692  1.00  0.00     0.087 A 
ATOM     17  C   UNL A   1      35.429  21.097  25.969  1.00  0.00     0.068 A 
ATOM     18  C   UNL A   1      34.803  20.775  24.783  1.00  0.00     0.033 A 
BRANCH  16  19
ATOM     19  C   UNL A   1      32.680  21.324  23.512  1.00  0.00     0.102 C 
ATOM     20  N   UNL A   1      32.036  21.308  22.548  1.00  0.00    -0.192 NA
ENDBRANCH  16  19
ENDBRANCH  12  14
ENDBRANCH   9  10
ENDBRANCH   8   9
ENDBRANCH   5   8
ENDBRANCH   4   5
ENDBRANCH   2   4
ENDBRANCH   1   2
BRANCH   1  21
ATOM     21  C   UNL A   1      32.578  28.672  25.530  1.00  0.00     0.274 C 
BRANCH  21  22
ATOM     22  C   UNL A   1      32.027  30.050  25.895  1.00  0.00     0.275 C 
BRANCH  22  23
ATOM     23  O   UNL A   1      32.372  30.405  27.253  1.00  0.00    -0.458 OA
BRANCH  23  24
ATOM     24  C   UNL A   1      33.132  31.519  27.390  1.00  0.00     0.338 C 
ATOM     25  O   UNL A   1      32.765  32.674  27.237  1.00  0.00    -0.246 OA
BRANCH  24  26
ATOM     26  C   UNL A   1      34.513  31.194  27.799  1.00  0.00     0.060 A 
ATOM     27  C   UNL A   1      34.863  29.903  28.181  1.00  0.00     0.016 A 
ATOM     28  C   UNL A   1      35.423  32.235  27.980  1.00  0.00     0.016 A 
ATOM     29  C   UNL A   1      36.076  29.678  28.841  1.00  0.00     0.010 A 
ATOM     30  C   UNL A   1      36.686  31.976  28.529  1.00  0.00     0.010 A 
ATOM     31  C   UNL A   1      37.024  30.699  29.009  1.00  0.00    -0.014 A 
BRANCH  31  32
ATOM     32  C   UNL A   1      38.345  30.466  29.684  1.00  0.00     0.031 A 
ATOM     33  C   UNL A   1      39.361  29.536  29.060  1.00  0.00     0.074 A 
ATOM     34  C   UNL A   1      38.645  31.040  30.869  1.00  0.00     0.049 A 
ATOM     35  N   UNL A   1      40.365  28.902  29.612  1.00  0.00    -0.248 NA
ATOM     36  C   UNL A   1      39.209  29.268  27.621  1.00  0.00     0.031 C 
ATOM     37  C   UNL A   1      37.830  32.032  31.575  1.00  0.00     0.029 A 
ATOM     38  N   UNL A   1      39.721  30.852  31.709  1.00  0.00    -0.354 N 
ATOM     39  C   UNL A   1      40.913  28.099  28.615  1.00  0.00     0.074 A 
ATOM     40  C   UNL A   1      40.126  28.332  27.420  1.00  0.00     0.031 C 
ATOM     41  C   UNL A   1      38.442  32.383  32.713  1.00  0.00     0.029 A 
ATOM     42  C   UNL A   1      39.603  31.528  32.904  1.00  0.00     0.049 A 
ATOM     43  H   UNL A   1      40.497  30.292  31.478  1.00  0.00     0.167 HD
ATOM     44  C   UNL A   1      41.962  27.240  28.698  1.00  0.00     0.034 A 
ATOM     45  C   UNL A   1      40.269  31.408  34.070  1.00  0.00     0.034 A 
ATOM     46  C   UNL A   1      42.762  27.066  29.891  1.00  0.00     0.049 A 
ATOM     47  C   UNL A   1      41.365  30.387  34.181  1.00  0.00     0.074 A 
ATOM     48  C   UNL A   1      43.855  26.238  30.085  1.00  0.00     0.029 A 
ATOM     49  N   UNL A   1      42.564  27.740  31.090  1.00  0.00    -0.354 N 
ATOM     50  N   UNL A   1      41.806  29.548  33.273  1.00  0.00    -0.248 NA
ATOM     51  C   UNL A   1      42.043  30.286  35.478  1.00  0.00     0.031 C 
ATOM     52  C   UNL A   1      44.268  26.354  31.417  1.00  0.00     0.029 A 
ATOM     53  C   UNL A   1      43.494  27.324  32.033  1.00  0.00     0.049 A 
ATOM     54  H   UNL A   1      41.865  28.415  31.248  1.00  0.00     0.167 HD
ATOM     55  C   UNL A   1      42.830  28.833  33.886  1.00  0.00     0.074 A 
ATOM     56  C   UNL A   1      42.951  29.354  35.232  1.00  0.00     0.031 C 
ATOM     57  C   UNL A   1      43.601  27.838  33.378  1.00  0.00     0.034 A 
BRANCH  44  58
ATOM     58  C   UNL A   1      42.265  26.368  27.497  1.00  0.00     0.023 A 
ATOM     59  C   UNL A   1      41.836  25.034  27.401  1.00  0.00     0.031 A 
ATOM     60  C   UNL A   1      43.010  26.891  26.421  1.00  0.00     0.131 A 
ATOM     61  C   UNL A   1      42.212  24.252  26.295  1.00  0.00     0.055 A 
ATOM     62  C   UNL A   1      43.306  26.135  25.283  1.00  0.00     0.041 A 
ATOM     63  F   UNL A   1      43.470  28.152  26.457  1.00  0.00    -0.206 F 
ATOM     64  C   UNL A   1      42.919  24.801  25.223  1.00  0.00     0.022 A 
BRANCH  61  65
ATOM     65  S   UNL A   1      41.895  22.466  26.347  1.00  0.00     0.124 S 
ATOM     66  O   UNL A   1      42.385  22.118  27.680  1.00  0.00    -0.237 OA
ATOM     67  O   UNL A   1      40.450  22.397  26.162  1.00  0.00    -0.237 OA
ATOM     68  O   UNL A   1      42.693  21.942  25.242  1.00  0.00    -0.744 OA
ENDBRANCH  61  65
ENDBRANCH  44  58
BRANCH  45  69
ATOM     69  C   UNL A   1      39.836  32.204  35.257  1.00  0.00     0.023 A 
ATOM     70  C   UNL A   1      40.406  33.453  35.541  1.00  0.00     0.031 A 
ATOM     71  C   UNL A   1      38.846  31.716  36.134  1.00  0.00     0.131 A 
ATOM     72  C   UNL A   1      39.996  34.163  36.680  1.00  0.00     0.055 A 
ATOM     73  C   UNL A   1      38.395  32.456  37.225  1.00  0.00     0.041 A 
ATOM     74  F   UNL A   1      38.275  30.519  35.916  1.00  0.00    -0.206 F 
ATOM     75  C   UNL A   1      38.978  33.685  37.509  1.00  0.00     0.022 A 
BRANCH  72  76
ATOM     76  S   UNL A   1      40.874  35.689  37.110  1.00  0.00     0.124 S 
ATOM     77  O   UNL A   1      39.771  36.631  37.265  1.00  0.00    -0.237 OA
ATOM     78  O   UNL A   1      41.567  35.305  38.334  1.00  0.00    -0.237 OA
ATOM     79  O   UNL A   1      41.736  35.923  35.953  1.00  0.00    -0.744 OA
ENDBRANCH  72  76
ENDBRANCH  45  69
BRANCH  57  80
ATOM     80  C   UNL A   1      44.687  27.296  34.274  1.00  0.00     0.023 A 
ATOM     81  C   UNL A   1      44.530  26.095  34.987  1.00  0.00     0.031 A 
ATOM     82  C   UNL A   1      45.883  28.016  34.448  1.00  0.00     0.131 A 
ATOM     83  C   UNL A   1      45.520  25.688  35.895  1.00  0.00     0.055 A 
ATOM     84  C   UNL A   1      46.895  27.568  35.297  1.00  0.00     0.041 A 
ATOM     85  F   UNL A   1      46.084  29.174  33.797  1.00  0.00    -0.206 F 
ATOM     86  C   UNL A   1      46.710  26.406  36.039  1.00  0.00     0.022 A 
BRANCH  83  87
ATOM     87  S   UNL A   1      45.180  24.269  36.974  1.00  0.00     0.124 S 
ATOM     88  O   UNL A   1      44.278  23.473  36.148  1.00  0.00    -0.237 OA
ATOM     89  O   UNL A   1      46.512  23.711  37.185  1.00  0.00    -0.237 OA
ATOM     90  O   UNL A   1      44.569  24.876  38.154  1.00  0.00    -0.744 OA
ENDBRANCH  83  87
ENDBRANCH  57  80
ENDBRANCH  31  32
ENDBRANCH  24  26
ENDBRANCH  23  24
ENDBRANCH  22  23
ENDBRANCH  21  22
ENDBRANCH   1  21
TORSDOF 20
ENDMDL
MODEL 2
REMARK VINA RESULT:     -10.0      4.709      7.796
REMARK SMILES C[N@H+](CCC(=O)Nc1sccc1C#N)CC(=O)OCCOC(=O)c1ccc(-c2c3nc(c(-c4cc(S(=O)(=O)[O-])ccc4F)c4ccc([nH]4)c(-c4cc(S(=O)(=O)[O-])ccc4F)c4nc(c(-c5cc(S(=O)(=O)[O-])ccc5F)c5ccc2[nH]5)C=C4)C=C3)cc1
REMARK SMILES IDX 18 1 16 2 17 3 15 4 2 5 1 6 3 8 4 9 5 10 6 11 7 12 8 14 9 15
REMARK SMILES IDX 12 16 10 17 11 18 13 19 14 20 19 21 20 22 21 23 22 24 23 25
REMARK SMILES IDX 24 26 25 27 86 28 26 29 85 30 27 31 28 32 29 33 79 34 30 35
REMARK SMILES IDX 84 36 78 37 80 38 31 39 83 40 77 41 76 42 32 44 64 45 44 46
REMARK SMILES IDX 63 47 45 48 48 49 62 50 81 51 46 52 47 53 61 55 82 56 49 57
REMARK SMILES IDX 33 58 34 59 42 60 35 61 41 62 43 63 40 64 36 65 37 66 38 67
REMARK SMILES IDX 39 68 65 69 66 70 74 71 67 72 73 73 75 74 72 75 68 76 69 77
REMARK SMILES IDX 70 78 71 79 50 80 51 81 59 82 52 83 58 84 60 85 57 86 53 87
REMARK SMILES IDX 54 88 55 89 56 90
REMARK H PARENT 2 7 7 13 80 43 48 54
REMARK Flexibility Score: inf
ROOT
ATOM      1  O   UNL A   1      37.734  21.228  24.768  1.00  0.00    -0.458 OA
ENDROOT
BRANCH   1   2
ATOM      2  C   UNL A   1      36.608  21.840  24.314  1.00  0.00     0.361 C 
ATOM      3  O   UNL A   1      36.548  22.528  23.303  1.00  0.00    -0.245 OA
BRANCH   2   4
ATOM      4  C   UNL A   1      35.420  21.499  25.185  1.00  0.00     0.386 C 
BRANCH   4   5
ATOM      5  N   UNL A   1      34.604  22.693  25.456  1.00  0.00    -0.328 N 
ATOM      6  C   UNL A   1      34.884  23.144  26.825  1.00  0.00     0.333 C 
ATOM      7  H   UNL A   1      34.868  23.409  24.780  1.00  0.00     0.348 HD
BRANCH   5   8
ATOM      8  C   UNL A   1      33.160  22.494  25.247  1.00  0.00     0.272 C 
BRANCH   8   9
ATOM      9  C   UNL A   1      32.225  23.704  25.268  1.00  0.00     0.161 C 
BRANCH   9  10
ATOM     10  C   UNL A   1      31.499  24.352  26.446  1.00  0.00     0.230 C 
ATOM     11  O   UNL A   1      31.039  23.568  27.297  1.00  0.00    -0.274 OA
ATOM     12  N   UNL A   1      31.362  25.659  26.755  1.00  0.00    -0.316 N 
ATOM     13  H   UNL A   1      31.068  25.802  27.684  1.00  0.00     0.170 HD
BRANCH  12  14
ATOM     14  C   UNL A   1      31.540  26.826  26.070  1.00  0.00     0.113 A 
ATOM     15  S   UNL A   1      32.625  27.866  26.887  1.00  0.00    -0.125 S 
ATOM     16  C   UNL A   1      31.028  27.434  24.949  1.00  0.00     0.087 A 
ATOM     17  C   UNL A   1      32.791  28.863  25.508  1.00  0.00     0.068 A 
ATOM     18  C   UNL A   1      31.818  28.572  24.574  1.00  0.00     0.033 A 
BRANCH  16  19
ATOM     19  C   UNL A   1      29.844  27.013  24.267  1.00  0.00     0.102 C 
ATOM     20  N   UNL A   1      28.886  26.660  23.719  1.00  0.00    -0.192 NA
ENDBRANCH  16  19
ENDBRANCH  12  14
ENDBRANCH   9  10
ENDBRANCH   8   9
ENDBRANCH   5   8
ENDBRANCH   4   5
ENDBRANCH   2   4
ENDBRANCH   1   2
BRANCH   1  21
ATOM     21  C   UNL A   1      37.691  19.798  24.772  1.00  0.00     0.274 C 
BRANCH  21  22
ATOM     22  C   UNL A   1      38.758  19.265  25.726  1.00  0.00     0.275 C 
BRANCH  22  23
ATOM     23  O   UNL A   1      39.915  20.131  25.750  1.00  0.00    -0.458 OA
BRANCH  23  24
ATOM     24  C   UNL A   1      40.434  20.379  26.977  1.00  0.00     0.338 C 
ATOM     25  O   UNL A   1      40.783  19.546  27.801  1.00  0.00    -0.246 OA
BRANCH  24  26
ATOM     26  C   UNL A   1      40.583  21.826  27.228  1.00  0.00     0.060 A 
ATOM     27  C   UNL A   1      39.797  22.756  26.555  1.00  0.00     0.016 A 
ATOM     28  C   UNL A   1      41.650  22.266  28.011  1.00  0.00     0.016 A 
ATOM     29  C   UNL A   1      40.147  24.109  26.579  1.00  0.00     0.010 A 
ATOM     30  C   UNL A   1      41.917  23.637  28.128  1.00  0.00     0.010 A 
ATOM     31  C   UNL A   1      41.196  24.585  27.382  1.00  0.00    -0.014 A 
BRANCH  31  32
ATOM     32  C   UNL A   1      41.562  26.040  27.446  1.00  0.00     0.031 A 
ATOM     33  C   UNL A   1      42.875  26.517  26.866  1.00  0.00     0.074 A 
ATOM     34  C   UNL A   1      40.761  26.946  28.048  1.00  0.00     0.049 A 
ATOM     35  N   UNL A   1      43.560  27.602  27.127  1.00  0.00    -0.248 NA
ATOM     36  C   UNL A   1      43.513  25.636  25.874  1.00  0.00     0.031 C 
ATOM     37  C   UNL A   1      39.422  26.689  28.581  1.00  0.00     0.029 A 
ATOM     38  N   UNL A   1      40.971  28.277  28.334  1.00  0.00    -0.354 N 
ATOM     39  C   UNL A   1      44.743  27.499  26.399  1.00  0.00     0.074 A 
ATOM     40  C   UNL A   1      44.677  26.241  25.682  1.00  0.00     0.031 C 
ATOM     41  C   UNL A   1      38.923  27.819  29.097  1.00  0.00     0.029 A 
ATOM     42  C   UNL A   1      39.962  28.838  29.085  1.00  0.00     0.049 A 
ATOM     43  H   UNL A   1      41.763  28.779  28.031  1.00  0.00     0.167 HD
ATOM     44  C   UNL A   1      45.787  28.366  26.349  1.00  0.00     0.034 A 
ATOM     45  C   UNL A   1      39.900  29.988  29.786  1.00  0.00     0.034 A 
ATOM     46  C   UNL A   1      45.803  29.641  27.035  1.00  0.00     0.049 A 
ATOM     47  C   UNL A   1      41.096  30.896  29.802  1.00  0.00     0.074 A 
ATOM     48  C   UNL A   1      46.797  30.605  27.044  1.00  0.00     0.029 A 
ATOM     49  N   UNL A   1      44.772  30.135  27.826  1.00  0.00    -0.354 N 
ATOM     50  N   UNL A   1      42.257  30.742  29.208  1.00  0.00    -0.248 NA
ATOM     51  C   UNL A   1      40.982  32.124  30.597  1.00  0.00     0.031 C 
ATOM     52  C   UNL A   1      46.402  31.641  27.897  1.00  0.00     0.029 A 
ATOM     53  C   UNL A   1      45.120  31.373  28.349  1.00  0.00     0.049 A 
ATOM     54  H   UNL A   1      43.918  29.673  27.991  1.00  0.00     0.167 HD
ATOM     55  C   UNL A   1      43.002  31.869  29.541  1.00  0.00     0.074 A 
ATOM     56  C   UNL A   1      42.153  32.698  30.372  1.00  0.00     0.031 C 
ATOM     57  C   UNL A   1      44.274  32.187  29.188  1.00  0.00     0.034 A 
BRANCH  44  58
ATOM     58  C   UNL A   1      47.028  27.945  25.590  1.00  0.00     0.023 A 
ATOM     59  C   UNL A   1      47.190  28.180  24.214  1.00  0.00     0.031 A 
ATOM     60  C   UNL A   1      48.075  27.286  26.265  1.00  0.00     0.131 A 
ATOM     61  C   UNL A   1      48.332  27.700  23.549  1.00  0.00     0.055 A 
ATOM     62  C   UNL A   1      49.247  26.890  25.616  1.00  0.00     0.041 A 
ATOM     63  F   UNL A   1      47.976  27.011  27.576  1.00  0.00    -0.206 F 
ATOM     64  C   UNL A   1      49.373  27.082  24.245  1.00  0.00     0.022 A 
BRANCH  61  65
ATOM     65  S   UNL A   1      48.368  27.759  21.736  1.00  0.00     0.124 S 
ATOM     66  O   UNL A   1      49.470  28.688  21.492  1.00  0.00    -0.237 OA
ATOM     67  O   UNL A   1      48.619  26.367  21.380  1.00  0.00    -0.237 OA
ATOM     68  O   UNL A   1      47.044  28.267  21.381  1.00  0.00    -0.744 OA
ENDBRANCH  61  65
ENDBRANCH  44  58
BRANCH  45  69
ATOM     69  C   UNL A   1      38.698  30.285  30.621  1.00  0.00     0.023 A 
ATOM     70  C   UNL A   1      37.637  31.052  30.119  1.00  0.00     0.031 A 
ATOM     71  C   UNL A   1      38.599  29.808  31.943  1.00  0.00     0.131 A 
ATOM     72  C   UNL A   1      36.534  31.336  30.939  1.00  0.00     0.055 A 
ATOM     73  C   UNL A   1      37.471  30.035  32.729  1.00  0.00     0.041 A 
ATOM     74  F   UNL A   1      39.591  29.076  32.479  1.00  0.00    -0.206 F 
ATOM     75  C   UNL A   1      36.432  30.813  32.231  1.00  0.00     0.022 A 
BRANCH  72  76
ATOM     76  S   UNL A   1      35.265  32.472  30.319  1.00  0.00     0.124 S 
ATOM     77  O   UNL A   1      36.061  33.647  29.979  1.00  0.00    -0.237 OA
ATOM     78  O   UNL A   1      34.713  31.724  29.195  1.00  0.00    -0.237 OA
ATOM     79  O   UNL A   1      34.368  32.635  31.460  1.00  0.00    -0.744 OA
ENDBRANCH  72  76
ENDBRANCH  45  69
BRANCH  57  80
ATOM     80  C   UNL A   1      44.793  33.525  29.655  1.00  0.00     0.023 A 
ATOM     81  C   UNL A   1      45.483  33.670  30.871  1.00  0.00     0.031 A 
ATOM     82  C   UNL A   1      44.556  34.681  28.888  1.00  0.00     0.131 A 
ATOM     83  C   UNL A   1      45.848  34.949  31.318  1.00  0.00     0.055 A 
ATOM     84  C   UNL A   1      44.986  35.941  29.304  1.00  0.00     0.041 A 
ATOM     85  F   UNL A   1      43.896  34.602  27.721  1.00  0.00    -0.206 F 
ATOM     86  C   UNL A   1      45.622  36.082  30.533  1.00  0.00     0.022 A 
BRANCH  83  87
ATOM     87  S   UNL A   1      46.515  35.125  32.996  1.00  0.00     0.124 S 
ATOM     88  O   UNL A   1      47.023  36.493  32.975  1.00  0.00    -0.237 OA
ATOM     89  O   UNL A   1      45.338  34.894  33.826  1.00  0.00    -0.237 OA
ATOM     90  O   UNL A   1      47.539  34.085  33.068  1.00  0.00    -0.744 OA
ENDBRANCH  83  87
ENDBRANCH  57  80
ENDBRANCH  31  32
ENDBRANCH  24  26
ENDBRANCH  23  24
ENDBRANCH  22  23
ENDBRANCH  21  22
ENDBRANCH   1  21
TORSDOF 20
ENDMDL
MODEL 3
REMARK VINA RESULT:      -9.9      1.771      2.125
REMARK SMILES C[N@H+](CCC(=O)Nc1sccc1C#N)CC(=O)OCCOC(=O)c1ccc(-c2c3nc(c(-c4cc(S(=O)(=O)[O-])ccc4F)c4ccc([nH]4)c(-c4cc(S(=O)(=O)[O-])ccc4F)c4nc(c(-c5cc(S(=O)(=O)[O-])ccc5F)c5ccc2[nH]5)C=C4)C=C3)cc1
REMARK SMILES IDX 18 1 16 2 17 3 15 4 2 5 1 6 3 8 4 9 5 10 6 11 7 12 8 14 9 15
REMARK SMILES IDX 12 16 10 17 11 18 13 19 14 20 19 21 20 22 21 23 22 24 23 25
REMARK SMILES IDX 24 26 25 27 86 28 26 29 85 30 27 31 28 32 29 33 79 34 30 35
REMARK SMILES IDX 84 36 78 37 80 38 31 39 83 40 77 41 76 42 32 44 64 45 44 46
REMARK SMILES IDX 63 47 45 48 48 49 62 50 81 51 46 52 47 53 61 55 82 56 49 57
REMARK SMILES IDX 33 58 34 59 42 60 35 61 41 62 43 63 40 64 36 65 37 66 38 67
REMARK SMILES IDX 39 68 65 69 66 70 74 71 67 72 73 73 75 74 72 75 68 76 69 77
REMARK SMILES IDX 70 78 71 79 50 80 51 81 59 82 52 83 58 84 60 85 57 86 53 87
REMARK SMILES IDX 54 88 55 89 56 90
REMARK H PARENT 2 7 7 13 80 43 48 54
REMARK Flexibility Score: inf
ROOT
ATOM      1  O   UNL A   1      31.849  28.879  24.528  1.00  0.00    -0.458 OA
ENDROOT
BRANCH   1   2
ATOM      2  C   UNL A   1      31.102  27.769  24.289  1.00  0.00     0.361 C 
ATOM      3  O   UNL A   1      30.061  27.753  23.644  1.00  0.00    -0.245 OA
BRANCH   2   4
ATOM      4  C   UNL A   1      31.768  26.538  24.864  1.00  0.00     0.386 C 
BRANCH   4   5
ATOM      5  N   UNL A   1      32.992  26.204  24.119  1.00  0.00    -0.328 N 
ATOM      6  C   UNL A   1      32.636  25.291  23.027  1.00  0.00     0.333 C 
ATOM      7  H   UNL A   1      33.379  27.073  23.752  1.00  0.00     0.348 HD
BRANCH   5   8
ATOM      8  C   UNL A   1      34.067  25.640  24.954  1.00  0.00     0.272 C 
BRANCH   8   9
ATOM      9  C   UNL A   1      34.483  24.182  24.756  1.00  0.00     0.161 C 
BRANCH   9  10
ATOM     10  C   UNL A   1      35.184  23.229  25.725  1.00  0.00     0.230 C 
ATOM     11  O   UNL A   1      36.114  23.722  26.391  1.00  0.00    -0.274 OA
ATOM     12  N   UNL A   1      34.884  21.952  26.039  1.00  0.00    -0.316 N 
ATOM     13  H   UNL A   1      35.330  21.647  26.861  1.00  0.00     0.170 HD
BRANCH  12  14
ATOM     14  C   UNL A   1      34.100  20.988  25.473  1.00  0.00     0.113 A 
ATOM     15  S   UNL A   1      35.045  19.710  24.843  1.00  0.00    -0.125 S 
ATOM     16  C   UNL A   1      32.768  20.796  25.195  1.00  0.00     0.087 A 
ATOM     17  C   UNL A   1      33.673  18.704  24.681  1.00  0.00     0.068 A 
ATOM     18  C   UNL A   1      32.511  19.435  24.820  1.00  0.00     0.033 A 
BRANCH  16  19
ATOM     19  C   UNL A   1      31.773  21.823  25.239  1.00  0.00     0.102 C 
ATOM     20  N   UNL A   1      30.962  22.649  25.284  1.00  0.00    -0.192 NA
ENDBRANCH  16  19
ENDBRANCH  12  14
ENDBRANCH   9  10
ENDBRANCH   8   9
ENDBRANCH   5   8
ENDBRANCH   4   5
ENDBRANCH   2   4
ENDBRANCH   1   2
BRANCH   1  21
ATOM     21  C   UNL A   1      31.191  29.907  25.273  1.00  0.00     0.274 C 
BRANCH  21  22
ATOM     22  C   UNL A   1      31.886  30.076  26.623  1.00  0.00     0.275 C 
BRANCH  22  23
ATOM     23  O   UNL A   1      33.292  30.364  26.451  1.00  0.00    -0.458 OA
BRANCH  23  24
ATOM     24  C   UNL A   1      33.806  31.291  27.297  1.00  0.00     0.338 C 
ATOM     25  O   UNL A   1      33.229  32.274  27.737  1.00  0.00    -0.246 OA
BRANCH  24  26
ATOM     26  C   UNL A   1      35.193  30.969  27.687  1.00  0.00     0.060 A 
ATOM     27  C   UNL A   1      35.578  29.658  27.950  1.00  0.00     0.016 A 
ATOM     28  C   UNL A   1      36.070  32.014  27.974  1.00  0.00     0.016 A 
ATOM     29  C   UNL A   1      36.792  29.408  28.598  1.00  0.00     0.010 A 
ATOM     30  C   UNL A   1      37.336  31.741  28.509  1.00  0.00     0.010 A 
ATOM     31  C   UNL A   1      37.708  30.435  28.871  1.00  0.00    -0.014 A 
BRANCH  31  32
ATOM     32  C   UNL A   1      39.030  30.178  29.534  1.00  0.00     0.031 A 
ATOM     33  C   UNL A   1      40.003  29.191  28.928  1.00  0.00     0.074 A 
ATOM     34  C   UNL A   1      39.369  30.780  30.695  1.00  0.00     0.049 A 
ATOM     35  N   UNL A   1      40.992  28.540  29.488  1.00  0.00    -0.248 NA
ATOM     36  C   UNL A   1      39.819  28.879  27.502  1.00  0.00     0.031 C 
ATOM     37  C   UNL A   1      38.601  31.824  31.377  1.00  0.00     0.029 A 
ATOM     38  N   UNL A   1      40.451  30.582  31.525  1.00  0.00    -0.354 N 
ATOM     39  C   UNL A   1      41.495  27.684  28.511  1.00  0.00     0.074 A 
ATOM     40  C   UNL A   1      40.699  27.904  27.321  1.00  0.00     0.031 C 
ATOM     41  C   UNL A   1      39.243  32.192  32.493  1.00  0.00     0.029 A 
ATOM     42  C   UNL A   1      40.375  31.302  32.697  1.00  0.00     0.049 A 
ATOM     43  H   UNL A   1      41.203  29.987  31.303  1.00  0.00     0.167 HD
ATOM     44  C   UNL A   1      42.514  26.791  28.609  1.00  0.00     0.034 A 
ATOM     45  C   UNL A   1      41.055  31.198  33.857  1.00  0.00     0.034 A 
ATOM     46  C   UNL A   1      43.327  26.630  29.796  1.00  0.00     0.049 A 
ATOM     47  C   UNL A   1      42.116  30.143  33.987  1.00  0.00     0.074 A 
ATOM     48  C   UNL A   1      44.392  25.769  30.003  1.00  0.00     0.029 A 
ATOM     49  N   UNL A   1      43.172  27.351  30.974  1.00  0.00    -0.354 N 
ATOM     50  N   UNL A   1      42.512  29.258  33.103  1.00  0.00    -0.248 NA
ATOM     51  C   UNL A   1      42.810  30.062  35.278  1.00  0.00     0.031 C 
ATOM     52  C   UNL A   1      44.830  25.915  31.323  1.00  0.00     0.029 A 
ATOM     53  C   UNL A   1      44.101  26.933  31.917  1.00  0.00     0.049 A 
ATOM     54  H   UNL A   1      42.499  28.055  31.118  1.00  0.00     0.167 HD
ATOM     55  C   UNL A   1      43.520  28.528  33.726  1.00  0.00     0.074 A 
ATOM     56  C   UNL A   1      43.680  29.090  35.051  1.00  0.00     0.031 C 
ATOM     57  C   UNL A   1      44.246  27.488  33.242  1.00  0.00     0.034 A 
BRANCH  44  58
ATOM     58  C   UNL A   1      42.768  25.868  27.435  1.00  0.00     0.023 A 
ATOM     59  C   UNL A   1      42.216  24.579  27.351  1.00  0.00     0.031 A 
ATOM     60  C   UNL A   1      43.590  26.294  26.373  1.00  0.00     0.131 A 
ATOM     61  C   UNL A   1      42.548  23.741  26.272  1.00  0.00     0.055 A 
ATOM     62  C   UNL A   1      43.845  25.489  25.259  1.00  0.00     0.041 A 
ATOM     63  F   UNL A   1      44.167  27.506  26.399  1.00  0.00    -0.206 F 
ATOM     64  C   UNL A   1      43.334  24.197  25.213  1.00  0.00     0.022 A 
BRANCH  61  65
ATOM     65  S   UNL A   1      42.060  21.995  26.349  1.00  0.00     0.124 S 
ATOM     66  O   UNL A   1      42.857  21.418  25.267  1.00  0.00    -0.237 OA
ATOM     67  O   UNL A   1      42.453  21.617  27.700  1.00  0.00    -0.237 OA
ATOM     68  O   UNL A   1      40.620  22.028  26.102  1.00  0.00    -0.744 OA
ENDBRANCH  61  65
ENDBRANCH  44  58
BRANCH  45  69
ATOM     69  C   UNL A   1      40.669  32.049  35.022  1.00  0.00     0.023 A 
ATOM     70  C   UNL A   1      39.628  31.672  35.883  1.00  0.00     0.031 A 
ATOM     71  C   UNL A   1      41.337  33.261  35.286  1.00  0.00     0.131 A 
ATOM     72  C   UNL A   1      39.272  32.508  36.953  1.00  0.00     0.055 A 
ATOM     73  C   UNL A   1      41.026  34.053  36.391  1.00  0.00     0.041 A 
ATOM     74  F   UNL A   1      42.335  33.676  34.488  1.00  0.00    -0.206 F 
ATOM     75  C   UNL A   1      39.979  33.682  37.227  1.00  0.00     0.022 A 
BRANCH  72  76
ATOM     76  S   UNL A   1      37.814  32.077  37.939  1.00  0.00     0.124 S 
ATOM     77  O   UNL A   1      38.335  32.178  39.297  1.00  0.00    -0.237 OA
ATOM     78  O   UNL A   1      36.863  33.108  37.538  1.00  0.00    -0.237 OA
ATOM     79  O   UNL A   1      37.489  30.724  37.493  1.00  0.00    -0.744 OA
ENDBRANCH  72  76
ENDBRANCH  45  69
BRANCH  57  80
ATOM     80  C   UNL A   1      45.327  26.938  34.141  1.00  0.00     0.023 A 
ATOM     81  C   UNL A   1      45.036  26.055  35.195  1.00  0.00     0.031 A 
ATOM     82  C   UNL A   1      46.663  27.339  33.963  1.00  0.00     0.131 A 
ATOM     83  C   UNL A   1      46.056  25.659  36.074  1.00  0.00     0.055 A 
ATOM     84  C   UNL A   1      47.685  26.883  34.797  1.00  0.00     0.041 A 
ATOM     85  F   UNL A   1      46.997  28.187  32.976  1.00  0.00    -0.206 F 
ATOM     86  C   UNL A   1      47.381  26.051  35.870  1.00  0.00     0.022 A 
BRANCH  83  87
ATOM     87  S   UNL A   1      45.606  24.720  37.559  1.00  0.00     0.124 S 
ATOM     88  O   UNL A   1      46.368  23.489  37.379  1.00  0.00    -0.237 OA
ATOM     89  O   UNL A   1      46.058  25.599  38.633  1.00  0.00    -0.237 OA
ATOM     90  O   UNL A   1      44.156  24.574  37.446  1.00  0.00    -0.744 OA
ENDBRANCH  83  87
ENDBRANCH  57  80
ENDBRANCH  31  32
ENDBRANCH  24  26
ENDBRANCH  23  24
ENDBRANCH  22  23
ENDBRANCH  21  22
ENDBRANCH   1  21
TORSDOF 20
ENDMDL
