MODEL 1
REMARK VINA RESULT:     -13.2      0.000      0.000
REMARK SMILES Cc1cc(/C=C2/C(=O)NC(=S)N=C2OCCOC(=O)c2ccc(-c3c4nc(c(-c5cc(S(=O)(=O)[O-])ccc5F)c5ccc([nH]5)c(-c5cc(S(=O)(=O)[O-])ccc5F)c5nc(c(-c6cc(S(=O)(=O)[O-])ccc6F)c6ccc3[nH]6)C=C5)C=C4)cc2)c(C)n1-c1cccc(C(=O)[O-])c1
REMARK SMILES IDX 16 1 15 2 14 3 13 4 5 5 6 6 7 7 8 8 9 9 12 10 10 11 11 13
REMARK SMILES IDX 4 14 1 15 2 16 3 17 85 18 83 19 84 20 86 21 87 22 94 23
REMARK SMILES IDX 88 24 90 25 89 26 91 27 92 28 93 29 17 30 18 31 19 32 20 33
REMARK SMILES IDX 21 34 82 35 22 36 81 37 23 38 24 39 25 40 75 41 26 42 80 43
REMARK SMILES IDX 74 44 76 45 27 46 79 47 73 48 72 49 28 51 60 52 40 53 59 54
REMARK SMILES IDX 41 55 44 56 58 57 77 58 42 59 43 60 57 62 78 63 45 64 29 65
REMARK SMILES IDX 30 66 38 67 31 68 37 69 39 70 36 71 32 72 33 73 34 74 35 75
REMARK SMILES IDX 61 76 62 77 70 78 63 79 69 80 71 81 68 82 64 83 65 84 66 85
REMARK SMILES IDX 67 86 46 87 47 88 55 89 48 90 54 91 56 92 53 93 49 94 50 95
REMARK SMILES IDX 51 96 52 97
REMARK H PARENT 9 12 76 50 44 61
REMARK Flexibility Score: inf
ROOT
ATOM      1  C   UNL A   1      31.763  28.589  25.853  1.00  0.00     0.274 C 
ENDROOT
BRANCH   1   2
ATOM      2  C   UNL A   1      31.978  27.492  26.963  1.00  0.00     0.273 C 
BRANCH   2   3
ATOM      3  O   UNL A   1      31.423  26.177  26.637  1.00  0.00    -0.473 OA
BRANCH   3   4
ATOM      4  C   UNL A   1      32.191  25.447  25.803  1.00  0.00     0.229 C 
ATOM      5  C   UNL A   1      30.500  25.147  23.835  1.00  0.00     0.029 C 
ATOM      6  C   UNL A   1      31.488  24.782  24.686  1.00  0.00     0.103 C 
ATOM      7  C   UNL A   1      32.127  23.474  24.342  1.00  0.00     0.262 C 
ATOM      8  O   UNL A   1      31.609  22.620  23.630  1.00  0.00    -0.269 OA
ATOM      9  N   UNL A   1      33.417  23.345  24.785  1.00  0.00    -0.297 N 
ATOM     10  N   UNL A   1      33.431  25.274  26.104  1.00  0.00    -0.184 NA
ATOM     11  C   UNL A   1      34.115  24.258  25.525  1.00  0.00     0.203 C 
ATOM     12  H   UNL A   1      33.887  22.513  24.547  1.00  0.00     0.172 HD
ATOM     13  S   UNL A   1      35.756  24.018  25.763  1.00  0.00    -0.038 S 
BRANCH   5  14
ATOM     14  C   UNL A   1      29.726  26.338  23.616  1.00  0.00    -0.003 A 
ATOM     15  C   UNL A   1      26.492  28.218  23.609  1.00  0.00     0.065 C 
ATOM     16  C   UNL A   1      27.886  27.683  23.559  1.00  0.00     0.020 A 
ATOM     17  C   UNL A   1      28.341  26.434  23.935  1.00  0.00     0.031 A 
ATOM     18  N   UNL A   1      28.979  28.389  23.071  1.00  0.00    -0.318 N 
ATOM     19  C   UNL A   1      30.047  27.488  22.912  1.00  0.00     0.027 A 
ATOM     20  C   UNL A   1      31.298  27.822  22.177  1.00  0.00     0.065 C 
BRANCH  18  21
ATOM     21  C   UNL A   1      29.054  29.807  22.928  1.00  0.00     0.046 A 
ATOM     22  C   UNL A   1      29.493  30.618  23.979  1.00  0.00     0.026 A 
ATOM     23  C   UNL A   1      28.525  30.393  21.767  1.00  0.00     0.036 A 
ATOM     24  C   UNL A   1      29.304  31.998  23.926  1.00  0.00     0.003 A 
ATOM     25  C   UNL A   1      28.339  31.783  21.714  1.00  0.00    -0.001 A 
ATOM     26  C   UNL A   1      28.705  32.576  22.810  1.00  0.00     0.010 A 
BRANCH  25  27
ATOM     27  C   UNL A   1      27.714  32.440  20.552  1.00  0.00     0.072 C 
ATOM     28  O   UNL A   1      27.449  31.886  19.471  1.00  0.00    -0.545 OA
ATOM     29  O   UNL A   1      27.418  33.725  20.752  1.00  0.00    -0.545 OA
ENDBRANCH  25  27
ENDBRANCH  18  21
ENDBRANCH   5  14
ENDBRANCH   3   4
ENDBRANCH   2   3
ENDBRANCH   1   2
BRANCH   1  30
ATOM     30  O   UNL A   1      32.636  29.802  25.700  1.00  0.00    -0.458 OA
BRANCH  30  31
ATOM     31  C   UNL A   1      32.748  30.795  26.682  1.00  0.00     0.338 C 
ATOM     32  O   UNL A   1      31.915  31.688  26.771  1.00  0.00    -0.246 OA
BRANCH  31  33
ATOM     33  C   UNL A   1      34.026  30.702  27.625  1.00  0.00     0.060 A 
ATOM     34  C   UNL A   1      34.439  31.434  28.789  1.00  0.00     0.016 A 
ATOM     35  C   UNL A   1      34.982  29.805  27.309  1.00  0.00     0.016 A 
ATOM     36  C   UNL A   1      35.756  31.195  29.666  1.00  0.00     0.010 A 
ATOM     37  C   UNL A   1      36.159  29.640  28.175  1.00  0.00     0.010 A 
ATOM     38  C   UNL A   1      36.771  30.242  29.398  1.00  0.00    -0.014 A 
BRANCH  38  39
ATOM     39  C   UNL A   1      37.862  29.294  30.592  1.00  0.00     0.031 A 
ATOM     40  C   UNL A   1      38.808  28.794  29.544  1.00  0.00     0.074 A 
ATOM     41  C   UNL A   1      38.560  29.146  31.970  1.00  0.00     0.049 A 
ATOM     42  N   UNL A   1      38.986  29.687  28.597  1.00  0.00    -0.248 NA
ATOM     43  C   UNL A   1      40.056  28.105  29.767  1.00  0.00     0.031 C 
ATOM     44  C   UNL A   1      38.409  29.957  33.214  1.00  0.00     0.029 A 
ATOM     45  N   UNL A   1      39.780  28.245  32.579  1.00  0.00    -0.354 N 
ATOM     46  C   UNL A   1      40.014  30.378  29.177  1.00  0.00     0.074 A 
ATOM     47  C   UNL A   1      40.841  29.141  29.406  1.00  0.00     0.031 C 
ATOM     48  C   UNL A   1      39.354  29.735  34.193  1.00  0.00     0.029 A 
ATOM     49  C   UNL A   1      40.383  28.658  33.931  1.00  0.00     0.049 A 
ATOM     50  H   UNL A   1      40.120  27.460  32.094  1.00  0.00     0.167 HD
ATOM     51  C   UNL A   1      39.997  31.601  29.919  1.00  0.00     0.034 A 
ATOM     52  C   UNL A   1      41.492  28.416  34.937  1.00  0.00     0.034 A 
ATOM     53  C   UNL A   1      41.347  32.077  30.068  1.00  0.00     0.049 A 
ATOM     54  C   UNL A   1      42.216  29.646  34.500  1.00  0.00     0.074 A 
ATOM     55  C   UNL A   1      42.549  31.431  29.884  1.00  0.00     0.029 A 
ATOM     56  N   UNL A   1      41.652  32.958  31.091  1.00  0.00    -0.354 N 
ATOM     57  N   UNL A   1      42.193  30.826  35.033  1.00  0.00    -0.248 NA
ATOM     58  C   UNL A   1      43.263  29.412  33.466  1.00  0.00     0.031 C 
ATOM     59  C   UNL A   1      42.534  31.014  31.215  1.00  0.00     0.029 A 
ATOM     60  C   UNL A   1      42.255  32.143  31.999  1.00  0.00     0.049 A 
ATOM     61  H   UNL A   1      41.477  33.926  31.147  1.00  0.00     0.167 HD
ATOM     62  C   UNL A   1      42.947  31.543  34.127  1.00  0.00     0.074 A 
ATOM     63  C   UNL A   1      43.848  30.612  33.470  1.00  0.00     0.031 C 
ATOM     64  C   UNL A   1      42.259  32.453  33.397  1.00  0.00     0.034 A 
BRANCH  51  65
ATOM     65  C   UNL A   1      38.807  32.694  30.527  1.00  0.00     0.023 A 
ATOM     66  C   UNL A   1      38.258  32.840  31.860  1.00  0.00     0.031 A 
ATOM     67  C   UNL A   1      38.088  33.466  29.588  1.00  0.00     0.131 A 
ATOM     68  C   UNL A   1      36.971  33.416  32.110  1.00  0.00     0.055 A 
ATOM     69  C   UNL A   1      36.945  34.234  29.892  1.00  0.00     0.041 A 
ATOM     70  F   UNL A   1      38.445  33.474  28.297  1.00  0.00    -0.206 F 
ATOM     71  C   UNL A   1      36.339  34.159  31.133  1.00  0.00     0.022 A 
BRANCH  68  72
ATOM     72  S   UNL A   1      35.957  32.972  33.601  1.00  0.00     0.124 S 
ATOM     73  O   UNL A   1      35.825  34.251  34.292  1.00  0.00    -0.237 OA
ATOM     74  O   UNL A   1      34.729  32.428  33.033  1.00  0.00    -0.237 OA
ATOM     75  O   UNL A   1      36.797  32.004  34.307  1.00  0.00    -0.744 OA
ENDBRANCH  68  72
ENDBRANCH  51  65
BRANCH  52  76
ATOM     76  C   UNL A   1      42.912  27.741  35.837  1.00  0.00     0.023 A 
ATOM     77  C   UNL A   1      43.789  28.367  36.794  1.00  0.00     0.031 A 
ATOM     78  C   UNL A   1      43.662  26.541  35.396  1.00  0.00     0.131 A 
ATOM     79  C   UNL A   1      45.047  27.703  37.295  1.00  0.00     0.055 A 
ATOM     80  C   UNL A   1      44.692  25.797  36.010  1.00  0.00     0.041 A 
ATOM     81  F   UNL A   1      43.795  26.248  34.099  1.00  0.00    -0.206 F 
ATOM     82  C   UNL A   1      45.421  26.398  36.974  1.00  0.00     0.022 A 
BRANCH  79  83
ATOM     83  S   UNL A   1      46.401  28.507  38.281  1.00  0.00     0.124 S 
ATOM     84  O   UNL A   1      46.560  29.793  37.609  1.00  0.00    -0.237 OA
ATOM     85  O   UNL A   1      45.859  28.537  39.630  1.00  0.00    -0.237 OA
ATOM     86  O   UNL A   1      47.533  27.592  38.094  1.00  0.00    -0.744 OA
ENDBRANCH  79  83
ENDBRANCH  52  76
BRANCH  64  87
ATOM     87  C   UNL A   1      41.337  33.299  34.212  1.00  0.00     0.023 A 
ATOM     88  C   UNL A   1      40.600  32.689  35.237  1.00  0.00     0.031 A 
ATOM     89  C   UNL A   1      41.045  34.636  33.931  1.00  0.00     0.131 A 
ATOM     90  C   UNL A   1      39.617  33.404  35.934  1.00  0.00     0.055 A 
ATOM     91  C   UNL A   1      40.049  35.351  34.603  1.00  0.00     0.041 A 
ATOM     92  F   UNL A   1      41.709  35.270  32.965  1.00  0.00    -0.206 F 
ATOM     93  C   UNL A   1      39.322  34.729  35.614  1.00  0.00     0.022 A 
BRANCH  90  94
ATOM     94  S   UNL A   1      38.798  32.578  37.318  1.00  0.00     0.124 S 
ATOM     95  O   UNL A   1      39.712  32.822  38.428  1.00  0.00    -0.237 OA
ATOM     96  O   UNL A   1      37.524  33.291  37.380  1.00  0.00    -0.237 OA
ATOM     97  O   UNL A   1      38.700  31.187  36.883  1.00  0.00    -0.744 OA
ENDBRANCH  90  94
ENDBRANCH  64  87
ENDBRANCH  38  39
ENDBRANCH  31  33
ENDBRANCH  30  31
ENDBRANCH   1  30
TORSDOF 16
ENDMDL
MODEL 2
REMARK VINA RESULT:     -12.9      6.646     10.797
REMARK SMILES Cc1cc(/C=C2/C(=O)NC(=S)N=C2OCCOC(=O)c2ccc(-c3c4nc(c(-c5cc(S(=O)(=O)[O-])ccc5F)c5ccc([nH]5)c(-c5cc(S(=O)(=O)[O-])ccc5F)c5nc(c(-c6cc(S(=O)(=O)[O-])ccc6F)c6ccc3[nH]6)C=C5)C=C4)cc2)c(C)n1-c1cccc(C(=O)[O-])c1
REMARK SMILES IDX 16 1 15 2 14 3 13 4 5 5 6 6 7 7 8 8 9 9 12 10 10 11 11 13
REMARK SMILES IDX 4 14 1 15 2 16 3 17 85 18 83 19 84 20 86 21 87 22 94 23
REMARK SMILES IDX 88 24 90 25 89 26 91 27 92 28 93 29 17 30 18 31 19 32 20 33
REMARK SMILES IDX 21 34 82 35 22 36 81 37 23 38 24 39 25 40 75 41 26 42 80 43
REMARK SMILES IDX 74 44 76 45 27 46 79 47 73 48 72 49 28 51 60 52 40 53 59 54
REMARK SMILES IDX 41 55 44 56 58 57 77 58 42 59 43 60 57 62 78 63 45 64 29 65
REMARK SMILES IDX 30 66 38 67 31 68 37 69 39 70 36 71 32 72 33 73 34 74 35 75
REMARK SMILES IDX 61 76 62 77 70 78 63 79 69 80 71 81 68 82 64 83 65 84 66 85
REMARK SMILES IDX 67 86 46 87 47 88 55 89 48 90 54 91 56 92 53 93 49 94 50 95
REMARK SMILES IDX 51 96 52 97
REMARK H PARENT 9 12 76 50 44 61
REMARK Flexibility Score: inf
ROOT
ATOM      1  C   UNL A   1      35.387  22.526  24.734  1.00  0.00     0.274 C 
ENDROOT
BRANCH   1   2
ATOM      2  C   UNL A   1      35.709  23.369  23.441  1.00  0.00     0.273 C 
BRANCH   2   3
ATOM      3  O   UNL A   1      34.537  23.955  22.788  1.00  0.00    -0.473 OA
BRANCH   3   4
ATOM      4  C   UNL A   1      33.726  24.637  23.620  1.00  0.00     0.229 C 
ATOM      5  C   UNL A   1      31.604  23.121  23.469  1.00  0.00     0.029 C 
ATOM      6  C   UNL A   1      32.292  24.283  23.566  1.00  0.00     0.103 C 
ATOM      7  C   UNL A   1      31.427  25.476  23.826  1.00  0.00     0.262 C 
ATOM      8  O   UNL A   1      30.221  25.515  23.603  1.00  0.00    -0.269 OA
ATOM      9  N   UNL A   1      32.066  26.506  24.465  1.00  0.00    -0.297 N 
ATOM     10  N   UNL A   1      34.221  25.616  24.294  1.00  0.00    -0.184 NA
ATOM     11  C   UNL A   1      33.386  26.544  24.821  1.00  0.00     0.203 C 
ATOM     12  H   UNL A   1      31.522  27.295  24.688  1.00  0.00     0.172 HD
ATOM     13  S   UNL A   1      33.919  27.790  25.805  1.00  0.00    -0.038 S 
BRANCH   5  14
ATOM     14  C   UNL A   1      31.951  21.728  23.412  1.00  0.00    -0.003 A 
ATOM     15  C   UNL A   1      32.219  18.465  21.602  1.00  0.00     0.065 C 
ATOM     16  C   UNL A   1      32.230  19.654  22.507  1.00  0.00     0.020 A 
ATOM     17  C   UNL A   1      31.881  20.959  22.215  1.00  0.00     0.031 A 
ATOM     18  N   UNL A   1      32.580  19.613  23.851  1.00  0.00    -0.318 N 
ATOM     19  C   UNL A   1      32.201  20.832  24.439  1.00  0.00     0.027 A 
ATOM     20  C   UNL A   1      32.184  21.062  25.910  1.00  0.00     0.065 C 
BRANCH  18  21
ATOM     21  C   UNL A   1      33.348  18.585  24.476  1.00  0.00     0.046 A 
ATOM     22  C   UNL A   1      34.746  18.605  24.442  1.00  0.00     0.026 A 
ATOM     23  C   UNL A   1      32.676  17.465  24.990  1.00  0.00     0.036 A 
ATOM     24  C   UNL A   1      35.472  17.473  24.810  1.00  0.00     0.003 A 
ATOM     25  C   UNL A   1      33.409  16.328  25.364  1.00  0.00    -0.001 A 
ATOM     26  C   UNL A   1      34.805  16.329  25.244  1.00  0.00     0.010 A 
BRANCH  25  27
ATOM     27  C   UNL A   1      32.749  15.097  25.834  1.00  0.00     0.072 C 
ATOM     28  O   UNL A   1      31.704  15.055  26.508  1.00  0.00    -0.545 OA
ATOM     29  O   UNL A   1      33.362  13.975  25.453  1.00  0.00    -0.545 OA
ENDBRANCH  25  27
ENDBRANCH  18  21
ENDBRANCH   5  14
ENDBRANCH   3   4
ENDBRANCH   2   3
ENDBRANCH   1   2
BRANCH   1  30
ATOM     30  O   UNL A   1      36.315  22.420  25.911  1.00  0.00    -0.458 OA
BRANCH  30  31
ATOM     31  C   UNL A   1      37.658  22.037  25.797  1.00  0.00     0.338 C 
ATOM     32  O   UNL A   1      37.962  20.924  25.388  1.00  0.00    -0.246 OA
BRANCH  31  33
ATOM     33  C   UNL A   1      38.732  23.114  26.263  1.00  0.00     0.060 A 
ATOM     34  C   UNL A   1      40.167  23.128  26.267  1.00  0.00     0.016 A 
ATOM     35  C   UNL A   1      38.281  24.259  26.816  1.00  0.00     0.016 A 
ATOM     36  C   UNL A   1      41.123  24.320  26.742  1.00  0.00     0.010 A 
ATOM     37  C   UNL A   1      39.227  25.311  27.216  1.00  0.00     0.010 A 
ATOM     38  C   UNL A   1      40.699  25.555  27.294  1.00  0.00    -0.014 A 
BRANCH  38  39
ATOM     39  C   UNL A   1      41.483  27.253  27.160  1.00  0.00     0.031 A 
ATOM     40  C   UNL A   1      40.783  27.821  28.356  1.00  0.00     0.074 A 
ATOM     41  C   UNL A   1      42.695  28.169  26.841  1.00  0.00     0.049 A 
ATOM     42  N   UNL A   1      40.632  26.914  29.296  1.00  0.00    -0.248 NA
ATOM     43  C   UNL A   1      41.043  29.093  28.984  1.00  0.00     0.031 C 
ATOM     44  C   UNL A   1      44.011  27.837  26.221  1.00  0.00     0.029 A 
ATOM     45  N   UNL A   1      43.116  29.715  27.162  1.00  0.00    -0.354 N 
ATOM     46  C   UNL A   1      41.831  27.093  29.928  1.00  0.00     0.074 A 
ATOM     47  C   UNL A   1      41.636  28.577  30.080  1.00  0.00     0.031 C 
ATOM     48  C   UNL A   1      44.977  28.817  26.303  1.00  0.00     0.029 A 
ATOM     49  C   UNL A   1      44.579  30.129  26.941  1.00  0.00     0.049 A 
ATOM     50  H   UNL A   1      42.451  30.363  27.488  1.00  0.00     0.167 HD
ATOM     51  C   UNL A   1      43.049  26.350  29.819  1.00  0.00     0.034 A 
ATOM     52  C   UNL A   1      45.616  31.221  27.128  1.00  0.00     0.034 A 
ATOM     53  C   UNL A   1      43.930  26.734  30.889  1.00  0.00     0.049 A 
ATOM     54  C   UNL A   1      46.236  30.496  28.275  1.00  0.00     0.074 A 
ATOM     55  C   UNL A   1      43.891  27.822  31.733  1.00  0.00     0.029 A 
ATOM     56  N   UNL A   1      45.291  26.519  30.765  1.00  0.00    -0.354 N 
ATOM     57  N   UNL A   1      47.272  29.719  28.272  1.00  0.00    -0.248 NA
ATOM     58  C   UNL A   1      45.730  30.912  29.614  1.00  0.00     0.031 C 
ATOM     59  C   UNL A   1      44.651  28.558  30.825  1.00  0.00     0.029 A 
ATOM     60  C   UNL A   1      45.750  27.765  30.465  1.00  0.00     0.049 A 
ATOM     61  H   UNL A   1      45.797  25.680  30.868  1.00  0.00     0.167 HD
ATOM     62  C   UNL A   1      47.272  29.268  29.576  1.00  0.00     0.074 A 
ATOM     63  C   UNL A   1      46.611  30.274  30.389  1.00  0.00     0.031 C 
ATOM     64  C   UNL A   1      46.966  27.959  29.734  1.00  0.00     0.034 A 
BRANCH  51  65
ATOM     65  C   UNL A   1      43.653  25.048  28.859  1.00  0.00     0.023 A 
ATOM     66  C   UNL A   1      44.220  25.047  27.526  1.00  0.00     0.031 A 
ATOM     67  C   UNL A   1      43.415  23.733  29.318  1.00  0.00     0.131 A 
ATOM     68  C   UNL A   1      44.217  23.890  26.682  1.00  0.00     0.055 A 
ATOM     69  C   UNL A   1      43.643  22.568  28.556  1.00  0.00     0.041 A 
ATOM     70  F   UNL A   1      42.900  23.519  30.535  1.00  0.00    -0.206 F 
ATOM     71  C   UNL A   1      43.975  22.640  27.215  1.00  0.00     0.022 A 
BRANCH  68  72
ATOM     72  S   UNL A   1      44.232  24.013  24.829  1.00  0.00     0.124 S 
ATOM     73  O   UNL A   1      43.429  22.862  24.425  1.00  0.00    -0.237 OA
ATOM     74  O   UNL A   1      43.644  25.321  24.565  1.00  0.00    -0.237 OA
ATOM     75  O   UNL A   1      45.651  23.889  24.493  1.00  0.00    -0.744 OA
ENDBRANCH  68  72
ENDBRANCH  51  65
BRANCH  52  76
ATOM     76  C   UNL A   1      46.454  32.786  27.492  1.00  0.00     0.023 A 
ATOM     77  C   UNL A   1      45.937  34.130  27.527  1.00  0.00     0.031 A 
ATOM     78  C   UNL A   1      47.921  32.968  27.387  1.00  0.00     0.131 A 
ATOM     79  C   UNL A   1      46.831  35.338  27.656  1.00  0.00     0.055 A 
ATOM     80  C   UNL A   1      48.762  34.045  27.741  1.00  0.00     0.041 A 
ATOM     81  F   UNL A   1      48.637  32.296  26.482  1.00  0.00    -0.206 F 
ATOM     82  C   UNL A   1      48.209  35.270  27.861  1.00  0.00     0.022 A 
BRANCH  79  83
ATOM     83  S   UNL A   1      46.331  37.111  27.415  1.00  0.00     0.124 S 
ATOM     84  O   UNL A   1      44.923  37.098  27.802  1.00  0.00    -0.237 OA
ATOM     85  O   UNL A   1      47.242  37.836  28.287  1.00  0.00    -0.237 OA
ATOM     86  O   UNL A   1      46.553  37.325  25.981  1.00  0.00    -0.744 OA
ENDBRANCH  79  83
ENDBRANCH  52  76
BRANCH  64  87
ATOM     87  C   UNL A   1      47.690  27.058  28.789  1.00  0.00     0.023 A 
ATOM     88  C   UNL A   1      47.619  27.332  27.416  1.00  0.00     0.031 A 
ATOM     89  C   UNL A   1      48.319  25.868  29.165  1.00  0.00     0.131 A 
ATOM     90  C   UNL A   1      48.158  26.441  26.479  1.00  0.00     0.055 A 
ATOM     91  C   UNL A   1      48.837  24.960  28.237  1.00  0.00     0.041 A 
ATOM     92  F   UNL A   1      48.415  25.549  30.455  1.00  0.00    -0.206 F 
ATOM     93  C   UNL A   1      48.753  25.244  26.878  1.00  0.00     0.022 A 
BRANCH  90  94
ATOM     94  S   UNL A   1      48.128  26.929  24.739  1.00  0.00     0.124 S 
ATOM     95  O   UNL A   1      46.739  26.698  24.359  1.00  0.00    -0.237 OA
ATOM     96  O   UNL A   1      48.538  28.330  24.813  1.00  0.00    -0.237 OA
ATOM     97  O   UNL A   1      49.103  26.039  24.112  1.00  0.00    -0.744 OA
ENDBRANCH  90  94
ENDBRANCH  64  87
ENDBRANCH  38  39
ENDBRANCH  31  33
ENDBRANCH  30  31
ENDBRANCH   1  30
TORSDOF 16
ENDMDL
MODEL 3
REMARK VINA RESULT:     -12.7      6.818      9.878
REMARK SMILES Cc1cc(/C=C2/C(=O)NC(=S)N=C2OCCOC(=O)c2ccc(-c3c4nc(c(-c5cc(S(=O)(=O)[O-])ccc5F)c5ccc([nH]5)c(-c5cc(S(=O)(=O)[O-])ccc5F)c5nc(c(-c6cc(S(=O)(=O)[O-])ccc6F)c6ccc3[nH]6)C=C5)C=C4)cc2)c(C)n1-c1cccc(C(=O)[O-])c1
REMARK SMILES IDX 16 1 15 2 14 3 13 4 5 5 6 6 7 7 8 8 9 9 12 10 10 11 11 13
REMARK SMILES IDX 4 14 1 15 2 16 3 17 85 18 83 19 84 20 86 21 87 22 94 23
REMARK SMILES IDX 88 24 90 25 89 26 91 27 92 28 93 29 17 30 18 31 19 32 20 33
REMARK SMILES IDX 21 34 82 35 22 36 81 37 23 38 24 39 25 40 75 41 26 42 80 43
REMARK SMILES IDX 74 44 76 45 27 46 79 47 73 48 72 49 28 51 60 52 40 53 59 54
REMARK SMILES IDX 41 55 44 56 58 57 77 58 42 59 43 60 57 62 78 63 45 64 29 65
REMARK SMILES IDX 30 66 38 67 31 68 37 69 39 70 36 71 32 72 33 73 34 74 35 75
REMARK SMILES IDX 61 76 62 77 70 78 63 79 69 80 71 81 68 82 64 83 65 84 66 85
REMARK SMILES IDX 67 86 46 87 47 88 55 89 48 90 54 91 56 92 53 93 49 94 50 95
REMARK SMILES IDX 51 96 52 97
REMARK H PARENT 9 12 76 50 44 61
REMARK Flexibility Score: inf
ROOT
ATOM      1  C   UNL A   1      37.256  23.354  24.406  1.00  0.00     0.274 C 
ENDROOT
BRANCH   1   2
ATOM      2  C   UNL A   1      35.962  22.924  23.615  1.00  0.00     0.273 C 
BRANCH   2   3
ATOM      3  O   UNL A   1      34.754  23.671  23.969  1.00  0.00    -0.473 OA
BRANCH   3   4
ATOM      4  C   UNL A   1      33.812  22.932  24.590  1.00  0.00     0.229 C 
ATOM      5  C   UNL A   1      32.796  24.771  26.142  1.00  0.00     0.029 C 
ATOM      6  C   UNL A   1      33.212  23.528  25.801  1.00  0.00     0.103 C 
ATOM      7  C   UNL A   1      32.857  22.478  26.806  1.00  0.00     0.262 C 
ATOM      8  O   UNL A   1      32.575  22.711  27.977  1.00  0.00    -0.269 OA
ATOM      9  N   UNL A   1      32.743  21.216  26.285  1.00  0.00    -0.297 N 
ATOM     10  N   UNL A   1      33.599  21.733  24.172  1.00  0.00    -0.184 NA
ATOM     11  C   UNL A   1      32.967  20.853  24.985  1.00  0.00     0.203 C 
ATOM     12  H   UNL A   1      32.475  20.502  26.906  1.00  0.00     0.172 HD
ATOM     13  S   UNL A   1      32.543  19.308  24.496  1.00  0.00    -0.038 S 
BRANCH   5  14
ATOM     14  C   UNL A   1      32.721  26.042  25.477  1.00  0.00    -0.003 A 
ATOM     15  C   UNL A   1      34.014  28.580  23.050  1.00  0.00     0.065 C 
ATOM     16  C   UNL A   1      33.306  27.717  24.044  1.00  0.00     0.020 A 
ATOM     17  C   UNL A   1      33.610  26.426  24.432  1.00  0.00     0.031 A 
ATOM     18  N   UNL A   1      32.201  28.119  24.785  1.00  0.00    -0.318 N 
ATOM     19  C   UNL A   1      31.988  27.173  25.802  1.00  0.00     0.027 A 
ATOM     20  C   UNL A   1      31.058  27.393  26.944  1.00  0.00     0.065 C 
BRANCH  18  21
ATOM     21  C   UNL A   1      31.333  29.204  24.457  1.00  0.00     0.046 A 
ATOM     22  C   UNL A   1      31.370  30.402  25.177  1.00  0.00     0.026 A 
ATOM     23  C   UNL A   1      30.327  28.993  23.500  1.00  0.00     0.036 A 
ATOM     24  C   UNL A   1      30.348  31.339  25.031  1.00  0.00     0.003 A 
ATOM     25  C   UNL A   1      29.302  29.939  23.351  1.00  0.00    -0.001 A 
ATOM     26  C   UNL A   1      29.303  31.097  24.142  1.00  0.00     0.010 A 
BRANCH  25  27
ATOM     27  C   UNL A   1      28.179  29.730  22.420  1.00  0.00     0.072 C 
ATOM     28  O   UNL A   1      28.196  29.994  21.205  1.00  0.00    -0.545 OA
ATOM     29  O   UNL A   1      27.099  29.192  22.987  1.00  0.00    -0.545 OA
ENDBRANCH  25  27
ENDBRANCH  18  21
ENDBRANCH   5  14
ENDBRANCH   3   4
ENDBRANCH   2   3
ENDBRANCH   1   2
BRANCH   1  30
ATOM     30  O   UNL A   1      37.574  22.890  25.798  1.00  0.00    -0.458 OA
BRANCH  30  31
ATOM     31  C   UNL A   1      38.829  22.391  26.173  1.00  0.00     0.338 C 
ATOM     32  O   UNL A   1      39.023  21.186  26.268  1.00  0.00    -0.246 OA
BRANCH  31  33
ATOM     33  C   UNL A   1      39.944  23.478  26.496  1.00  0.00     0.060 A 
ATOM     34  C   UNL A   1      41.377  23.469  26.406  1.00  0.00     0.016 A 
ATOM     35  C   UNL A   1      39.544  24.665  26.999  1.00  0.00     0.016 A 
ATOM     36  C   UNL A   1      42.376  24.674  26.736  1.00  0.00     0.010 A 
ATOM     37  C   UNL A   1      40.528  25.725  27.266  1.00  0.00     0.010 A 
ATOM     38  C   UNL A   1      42.004  25.949  27.232  1.00  0.00    -0.014 A 
BRANCH  38  39
ATOM     39  C   UNL A   1      42.798  27.622  26.935  1.00  0.00     0.031 A 
ATOM     40  C   UNL A   1      42.020  28.332  27.998  1.00  0.00     0.074 A 
ATOM     41  C   UNL A   1      44.030  28.498  26.583  1.00  0.00     0.049 A 
ATOM     42  N   UNL A   1      41.805  27.552  29.034  1.00  0.00    -0.248 NA
ATOM     43  C   UNL A   1      42.239  29.677  28.475  1.00  0.00     0.031 C 
ATOM     44  C   UNL A   1      45.385  28.099  26.099  1.00  0.00     0.029 A 
ATOM     45  N   UNL A   1      44.431  30.075  26.731  1.00  0.00    -0.354 N 
ATOM     46  C   UNL A   1      42.959  27.819  29.718  1.00  0.00     0.074 A 
ATOM     47  C   UNL A   1      42.756  29.309  29.665  1.00  0.00     0.031 C 
ATOM     48  C   UNL A   1      46.343  29.088  26.121  1.00  0.00     0.029 A 
ATOM     49  C   UNL A   1      45.906  30.469  26.557  1.00  0.00     0.049 A 
ATOM     50  H   UNL A   1      43.746  30.755  26.926  1.00  0.00     0.167 HD
ATOM     51  C   UNL A   1      44.180  27.077  29.786  1.00  0.00     0.034 A 
ATOM     52  C   UNL A   1      46.929  31.582  26.672  1.00  0.00     0.034 A 
ATOM     53  C   UNL A   1      44.987  27.601  30.855  1.00  0.00     0.049 A 
ATOM     54  C   UNL A   1      47.470  31.014  27.941  1.00  0.00     0.074 A 
ATOM     55  C   UNL A   1      44.894  28.787  31.548  1.00  0.00     0.029 A 
ATOM     56  N   UNL A   1      46.354  27.381  30.850  1.00  0.00    -0.354 N 
ATOM     57  N   UNL A   1      48.503  30.250  28.107  1.00  0.00    -0.248 NA
ATOM     58  C   UNL A   1      46.876  31.594  29.179  1.00  0.00     0.031 C 
ATOM     59  C   UNL A   1      45.715  29.407  30.606  1.00  0.00     0.029 A 
ATOM     60  C   UNL A   1      46.834  28.581  30.425  1.00  0.00     0.049 A 
ATOM     61  H   UNL A   1      46.851  26.566  31.093  1.00  0.00     0.167 HD
ATOM     62  C   UNL A   1      48.415  29.970  29.455  1.00  0.00     0.074 A 
ATOM     63  C   UNL A   1      47.702  31.067  30.086  1.00  0.00     0.031 C 
ATOM     64  C   UNL A   1      48.097  28.689  29.758  1.00  0.00     0.034 A 
BRANCH  51  65
ATOM     65  C   UNL A   1      44.845  25.667  29.043  1.00  0.00     0.023 A 
ATOM     66  C   UNL A   1      45.698  25.531  27.879  1.00  0.00     0.031 A 
ATOM     67  C   UNL A   1      44.372  24.411  29.483  1.00  0.00     0.131 A 
ATOM     68  C   UNL A   1      45.764  24.330  27.102  1.00  0.00     0.055 A 
ATOM     69  C   UNL A   1      44.643  23.185  28.841  1.00  0.00     0.041 A 
ATOM     70  F   UNL A   1      43.574  24.322  30.555  1.00  0.00    -0.206 F 
ATOM     71  C   UNL A   1      45.276  23.143  27.612  1.00  0.00     0.022 A 
BRANCH  68  72
ATOM     72  S   UNL A   1      46.213  24.336  25.300  1.00  0.00     0.124 S 
ATOM     73  O   UNL A   1      46.601  22.949  25.062  1.00  0.00    -0.237 OA
ATOM     74  O   UNL A   1      44.988  24.775  24.641  1.00  0.00    -0.237 OA
ATOM     75  O   UNL A   1      47.329  25.281  25.232  1.00  0.00    -0.744 OA
ENDBRANCH  68  72
ENDBRANCH  51  65
BRANCH  52  76
ATOM     76  C   UNL A   1      47.743  33.187  26.888  1.00  0.00     0.023 A 
ATOM     77  C   UNL A   1      47.201  34.520  26.823  1.00  0.00     0.031 A 
ATOM     78  C   UNL A   1      49.204  33.386  26.737  1.00  0.00     0.131 A 
ATOM     79  C   UNL A   1      48.073  35.750  26.834  1.00  0.00     0.055 A 
ATOM     80  C   UNL A   1      50.031  34.504  26.984  1.00  0.00     0.041 A 
ATOM     81  F   UNL A   1      49.916  32.655  25.876  1.00  0.00    -0.206 F 
ATOM     82  C   UNL A   1      49.457  35.724  27.014  1.00  0.00     0.022 A 
BRANCH  79  83
ATOM     83  S   UNL A   1      47.534  37.488  26.458  1.00  0.00     0.124 S 
ATOM     84  O   UNL A   1      46.079  37.370  26.436  1.00  0.00    -0.237 OA
ATOM     85  O   UNL A   1      48.111  38.259  27.549  1.00  0.00    -0.237 OA
ATOM     86  O   UNL A   1      48.132  37.742  25.143  1.00  0.00    -0.744 OA
ENDBRANCH  79  83
ENDBRANCH  52  76
BRANCH  64  87
ATOM     87  C   UNL A   1      48.881  27.680  28.986  1.00  0.00     0.023 A 
ATOM     88  C   UNL A   1      49.242  27.981  27.665  1.00  0.00     0.031 A 
ATOM     89  C   UNL A   1      49.160  26.389  29.441  1.00  0.00     0.131 A 
ATOM     90  C   UNL A   1      49.851  27.016  26.852  1.00  0.00     0.055 A 
ATOM     91  C   UNL A   1      49.744  25.411  28.629  1.00  0.00     0.041 A 
ATOM     92  F   UNL A   1      48.838  26.040  30.685  1.00  0.00    -0.206 F 
ATOM     93  C   UNL A   1      50.090  25.723  27.319  1.00  0.00     0.022 A 
BRANCH  90  94
ATOM     94  S   UNL A   1      50.391  27.523  25.203  1.00  0.00     0.124 S 
ATOM     95  O   UNL A   1      49.152  27.974  24.580  1.00  0.00    -0.237 OA
ATOM     96  O   UNL A   1      51.359  28.573  25.514  1.00  0.00    -0.237 OA
ATOM     97  O   UNL A   1      50.968  26.306  24.637  1.00  0.00    -0.744 OA
ENDBRANCH  90  94
ENDBRANCH  64  87
ENDBRANCH  38  39
ENDBRANCH  31  33
ENDBRANCH  30  31
ENDBRANCH   1  30
TORSDOF 16
ENDMDL
