MODEL 1
REMARK VINA RESULT:     -11.1      0.000      0.000
REMARK SMILES CC[C@@](C)([NH3+])C(=O)N1CC[NH+]([C@H](C)C(=O)OCCOC(=O)c2ccc(-c3c4nc(c(-c5cc(S(=O)(=O)[O-])ccc5F)c5ccc([nH]5)c(-c5cc(S(=O)(=O)[O-])ccc5F)c5nc(c(-c6cc(S(=O)(=O)[O-])ccc6F)c6ccc3[nH]6)C=C5)C=C4)cc2)CC1
REMARK SMILES IDX 17 1 16 2 14 3 15 4 12 5 13 6 11 7 6 8 7 9 8 10 9 11 86 12
REMARK SMILES IDX 10 13 85 14 3 16 4 17 2 18 1 19 5 20 18 24 19 25 20 26 21 27
REMARK SMILES IDX 22 28 23 29 84 30 24 31 83 32 25 33 26 34 27 35 77 36 28 37
REMARK SMILES IDX 82 38 76 39 78 40 29 41 81 42 75 43 74 44 30 46 62 47 42 48
REMARK SMILES IDX 61 49 43 50 46 51 60 52 79 53 44 54 45 55 59 57 80 58 47 59
REMARK SMILES IDX 31 60 32 61 40 62 33 63 39 64 41 65 38 66 34 67 35 68 36 69
REMARK SMILES IDX 37 70 63 71 64 72 72 73 65 74 71 75 73 76 70 77 66 78 67 79
REMARK SMILES IDX 68 80 69 81 48 82 49 83 57 84 50 85 56 86 58 87 55 88 51 89
REMARK SMILES IDX 52 90 53 91 54 92
REMARK H PARENT 11 15 5 21 5 22 5 23 78 45 46 56
REMARK Flexibility Score: inf
ROOT
ATOM      1  C   UNL A   1      34.991  20.668  25.000  1.00  0.00     0.274 C 
ENDROOT
BRANCH   1   2
ATOM      2  O   UNL A   1      34.458  21.885  24.443  1.00  0.00    -0.458 OA
BRANCH   2   3
ATOM      3  C   UNL A   1      33.884  22.734  25.341  1.00  0.00     0.364 C 
ATOM      4  O   UNL A   1      34.176  22.776  26.532  1.00  0.00    -0.245 OA
BRANCH   3   5
ATOM      5  C   UNL A   1      32.804  23.632  24.709  1.00  0.00     0.292 C 
ATOM      6  C   UNL A   1      31.354  23.244  25.032  1.00  0.00     0.088 C 
BRANCH   5   7
ATOM      7  N   UNL A   1      33.161  25.058  24.889  1.00  0.00    -0.321 N 
ATOM      8  C   UNL A   1      31.670  28.879  24.535  1.00  0.00     0.283 C 
ATOM      9  O   UNL A   1      31.386  29.606  25.496  1.00  0.00    -0.268 OA
ATOM     10  N   UNL A   1      32.598  27.870  24.716  1.00  0.00    -0.326 N 
ATOM     11  C   UNL A   1      32.708  27.247  26.031  1.00  0.00     0.181 C 
ATOM     12  C   UNL A   1      33.509  27.274  23.743  1.00  0.00     0.181 C 
ATOM     13  C   UNL A   1      32.337  25.757  25.895  1.00  0.00     0.284 C 
ATOM     14  C   UNL A   1      33.245  25.765  23.597  1.00  0.00     0.284 C 
ATOM     15  H   UNL A   1      34.100  25.072  25.290  1.00  0.00     0.348 HD
BRANCH   8  16
ATOM     16  C   UNL A   1      30.815  28.954  23.211  1.00  0.00     0.171 C 
ATOM     17  C   UNL A   1      30.216  27.571  22.909  1.00  0.00     0.090 C 
BRANCH  16  18
ATOM     18  C   UNL A   1      29.679  30.007  23.376  1.00  0.00     0.075 C 
ATOM     19  C   UNL A   1      29.111  30.586  22.080  1.00  0.00     0.011 C 
ENDBRANCH  16  18
BRANCH  16  20
ATOM     20  N   UNL A   1      31.629  29.401  22.055  1.00  0.00    -0.345 N 
ATOM     21  H   UNL A   1      32.293  30.112  22.361  1.00  0.00     0.345 HD
ATOM     22  H   UNL A   1      31.016  29.792  21.339  1.00  0.00     0.345 HD
ATOM     23  H   UNL A   1      32.138  28.605  21.669  1.00  0.00     0.345 HD
ENDBRANCH  16  20
ENDBRANCH   8  16
ENDBRANCH   5   7
ENDBRANCH   3   5
ENDBRANCH   2   3
ENDBRANCH   1   2
BRANCH   1  24
ATOM     24  C   UNL A   1      36.506  20.573  24.798  1.00  0.00     0.275 C 
BRANCH  24  25
ATOM     25  O   UNL A   1      37.224  21.505  25.629  1.00  0.00    -0.458 OA
BRANCH  25  26
ATOM     26  C   UNL A   1      38.511  21.174  25.890  1.00  0.00     0.338 C 
ATOM     27  O   UNL A   1      39.069  20.122  25.629  1.00  0.00    -0.246 OA
BRANCH  26  28
ATOM     28  C   UNL A   1      39.218  22.331  26.454  1.00  0.00     0.060 A 
ATOM     29  C   UNL A   1      38.797  23.611  26.086  1.00  0.00     0.016 A 
ATOM     30  C   UNL A   1      40.339  22.160  27.262  1.00  0.00     0.016 A 
ATOM     31  C   UNL A   1      39.497  24.732  26.512  1.00  0.00     0.010 A 
ATOM     32  C   UNL A   1      41.032  23.289  27.711  1.00  0.00     0.010 A 
ATOM     33  C   UNL A   1      40.618  24.581  27.334  1.00  0.00    -0.014 A 
BRANCH  33  34
ATOM     34  C   UNL A   1      41.373  25.774  27.783  1.00  0.00     0.031 A 
ATOM     35  C   UNL A   1      40.674  26.839  28.573  1.00  0.00     0.074 A 
ATOM     36  C   UNL A   1      42.678  25.890  27.476  1.00  0.00     0.049 A 
ATOM     37  N   UNL A   1      41.092  28.032  28.906  1.00  0.00    -0.248 NA
ATOM     38  C   UNL A   1      39.320  26.517  29.048  1.00  0.00     0.031 C 
ATOM     39  C   UNL A   1      43.473  24.879  26.776  1.00  0.00     0.029 A 
ATOM     40  N   UNL A   1      43.560  26.916  27.696  1.00  0.00    -0.354 N 
ATOM     41  C   UNL A   1      40.043  28.618  29.605  1.00  0.00     0.074 A 
ATOM     42  C   UNL A   1      38.965  27.651  29.635  1.00  0.00     0.031 C 
ATOM     43  C   UNL A   1      44.723  25.342  26.615  1.00  0.00     0.029 A 
ATOM     44  C   UNL A   1      44.797  26.704  27.133  1.00  0.00     0.049 A 
ATOM     45  H   UNL A   1      43.331  27.725  28.209  1.00  0.00     0.167 HD
ATOM     46  C   UNL A   1      39.991  29.854  30.161  1.00  0.00     0.034 A 
ATOM     47  C   UNL A   1      45.848  27.536  26.996  1.00  0.00     0.034 A 
ATOM     48  C   UNL A   1      41.082  30.797  30.114  1.00  0.00     0.049 A 
ATOM     49  C   UNL A   1      45.731  28.939  27.533  1.00  0.00     0.074 A 
ATOM     50  C   UNL A   1      41.146  32.074  30.645  1.00  0.00     0.029 A 
ATOM     51  N   UNL A   1      42.303  30.567  29.489  1.00  0.00    -0.354 N 
ATOM     52  N   UNL A   1      44.720  29.503  28.154  1.00  0.00    -0.248 NA
ATOM     53  C   UNL A   1      46.890  29.819  27.341  1.00  0.00     0.031 C 
ATOM     54  C   UNL A   1      42.378  32.636  30.288  1.00  0.00     0.029 A 
ATOM     55  C   UNL A   1      43.112  31.688  29.593  1.00  0.00     0.049 A 
ATOM     56  H   UNL A   1      42.556  29.730  29.037  1.00  0.00     0.167 HD
ATOM     57  C   UNL A   1      45.130  30.802  28.441  1.00  0.00     0.074 A 
ATOM     58  C   UNL A   1      46.483  30.931  27.938  1.00  0.00     0.031 C 
ATOM     59  C   UNL A   1      44.452  31.798  29.065  1.00  0.00     0.034 A 
BRANCH  46  60
ATOM     60  C   UNL A   1      38.688  30.269  30.800  1.00  0.00     0.023 A 
ATOM     61  C   UNL A   1      37.672  30.910  30.071  1.00  0.00     0.031 A 
ATOM     62  C   UNL A   1      38.479  30.056  32.174  1.00  0.00     0.131 A 
ATOM     63  C   UNL A   1      36.524  31.376  30.732  1.00  0.00     0.055 A 
ATOM     64  C   UNL A   1      37.303  30.455  32.812  1.00  0.00     0.041 A 
ATOM     65  F   UNL A   1      39.424  29.470  32.927  1.00  0.00    -0.206 F 
ATOM     66  C   UNL A   1      36.323  31.132  32.093  1.00  0.00     0.022 A 
BRANCH  63  67
ATOM     67  S   UNL A   1      35.360  32.425  29.818  1.00  0.00     0.124 S 
ATOM     68  O   UNL A   1      34.334  32.677  30.826  1.00  0.00    -0.237 OA
ATOM     69  O   UNL A   1      36.189  33.568  29.450  1.00  0.00    -0.237 OA
ATOM     70  O   UNL A   1      34.936  31.579  28.705  1.00  0.00    -0.744 OA
ENDBRANCH  63  67
ENDBRANCH  46  60
BRANCH  47  71
ATOM     71  C   UNL A   1      47.063  27.097  26.256  1.00  0.00     0.023 A 
ATOM     72  C   UNL A   1      48.113  26.434  26.909  1.00  0.00     0.031 A 
ATOM     73  C   UNL A   1      47.205  27.365  24.882  1.00  0.00     0.131 A 
ATOM     74  C   UNL A   1      49.273  26.091  26.197  1.00  0.00     0.055 A 
ATOM     75  C   UNL A   1      48.339  26.977  24.167  1.00  0.00     0.041 A 
ATOM     76  F   UNL A   1      46.231  27.999  24.209  1.00  0.00    -0.206 F 
ATOM     77  C   UNL A   1      49.386  26.345  24.828  1.00  0.00     0.022 A 
BRANCH  74  78
ATOM     78  S   UNL A   1      50.667  25.369  27.104  1.00  0.00     0.124 S 
ATOM     79  O   UNL A   1      50.021  24.279  27.824  1.00  0.00    -0.237 OA
ATOM     80  O   UNL A   1      51.564  24.979  26.021  1.00  0.00    -0.237 OA
ATOM     81  O   UNL A   1      51.140  26.473  27.935  1.00  0.00    -0.744 OA
ENDBRANCH  74  78
ENDBRANCH  47  71
BRANCH  59  82
ATOM     82  C   UNL A   1      45.189  33.097  29.261  1.00  0.00     0.023 A 
ATOM     83  C   UNL A   1      45.124  34.133  28.313  1.00  0.00     0.031 A 
ATOM     84  C   UNL A   1      45.979  33.294  30.408  1.00  0.00     0.131 A 
ATOM     85  C   UNL A   1      45.874  35.302  28.505  1.00  0.00     0.055 A 
ATOM     86  C   UNL A   1      46.683  34.480  30.619  1.00  0.00     0.041 A 
ATOM     87  F   UNL A   1      46.077  32.335  31.343  1.00  0.00    -0.206 F 
ATOM     88  C   UNL A   1      46.641  35.488  29.659  1.00  0.00     0.022 A 
BRANCH  85  89
ATOM     89  S   UNL A   1      45.892  36.553  27.192  1.00  0.00     0.124 S 
ATOM     90  O   UNL A   1      47.037  37.375  27.573  1.00  0.00    -0.237 OA
ATOM     91  O   UNL A   1      46.061  35.744  25.990  1.00  0.00    -0.237 OA
ATOM     92  O   UNL A   1      44.590  37.205  27.322  1.00  0.00    -0.744 OA
ENDBRANCH  85  89
ENDBRANCH  59  82
ENDBRANCH  33  34
ENDBRANCH  26  28
ENDBRANCH  25  26
ENDBRANCH  24  25
ENDBRANCH   1  24
TORSDOF 18
ENDMDL
MODEL 2
REMARK VINA RESULT:     -11.1      5.121     10.120
REMARK SMILES CC[C@@](C)([NH3+])C(=O)N1CC[NH+]([C@H](C)C(=O)OCCOC(=O)c2ccc(-c3c4nc(c(-c5cc(S(=O)(=O)[O-])ccc5F)c5ccc([nH]5)c(-c5cc(S(=O)(=O)[O-])ccc5F)c5nc(c(-c6cc(S(=O)(=O)[O-])ccc6F)c6ccc3[nH]6)C=C5)C=C4)cc2)CC1
REMARK SMILES IDX 17 1 16 2 14 3 15 4 12 5 13 6 11 7 6 8 7 9 8 10 9 11 86 12
REMARK SMILES IDX 10 13 85 14 3 16 4 17 2 18 1 19 5 20 18 24 19 25 20 26 21 27
REMARK SMILES IDX 22 28 23 29 84 30 24 31 83 32 25 33 26 34 27 35 77 36 28 37
REMARK SMILES IDX 82 38 76 39 78 40 29 41 81 42 75 43 74 44 30 46 62 47 42 48
REMARK SMILES IDX 61 49 43 50 46 51 60 52 79 53 44 54 45 55 59 57 80 58 47 59
REMARK SMILES IDX 31 60 32 61 40 62 33 63 39 64 41 65 38 66 34 67 35 68 36 69
REMARK SMILES IDX 37 70 63 71 64 72 72 73 65 74 71 75 73 76 70 77 66 78 67 79
REMARK SMILES IDX 68 80 69 81 48 82 49 83 57 84 50 85 56 86 58 87 55 88 51 89
REMARK SMILES IDX 52 90 53 91 54 92
REMARK H PARENT 11 15 5 21 5 22 5 23 78 45 46 56
REMARK Flexibility Score: inf
ROOT
ATOM      1  C   UNL A   1      31.950  28.138  26.667  1.00  0.00     0.274 C 
ENDROOT
BRANCH   1   2
ATOM      2  O   UNL A   1      31.903  27.252  25.533  1.00  0.00    -0.458 OA
BRANCH   2   3
ATOM      3  C   UNL A   1      31.193  26.104  25.719  1.00  0.00     0.364 C 
ATOM      4  O   UNL A   1      30.295  25.977  26.544  1.00  0.00    -0.245 OA
BRANCH   3   5
ATOM      5  C   UNL A   1      31.651  24.962  24.793  1.00  0.00     0.292 C 
ATOM      6  C   UNL A   1      31.913  25.362  23.334  1.00  0.00     0.088 C 
BRANCH   5   7
ATOM      7  N   UNL A   1      32.707  24.163  25.458  1.00  0.00    -0.321 N 
ATOM      8  C   UNL A   1      34.604  20.511  25.355  1.00  0.00     0.283 C 
ATOM      9  O   UNL A   1      35.770  20.343  24.972  1.00  0.00    -0.268 OA
ATOM     10  N   UNL A   1      34.231  21.756  25.827  1.00  0.00    -0.326 N 
ATOM     11  C   UNL A   1      34.890  22.938  25.281  1.00  0.00     0.181 C 
ATOM     12  C   UNL A   1      33.207  22.098  26.810  1.00  0.00     0.181 C 
ATOM     13  C   UNL A   1      33.828  23.801  24.569  1.00  0.00     0.284 C 
ATOM     14  C   UNL A   1      32.139  23.016  26.192  1.00  0.00     0.284 C 
ATOM     15  H   UNL A   1      33.134  24.773  26.156  1.00  0.00     0.348 HD
BRANCH   8  16
ATOM     16  C   UNL A   1      33.518  19.398  25.084  1.00  0.00     0.171 C 
ATOM     17  C   UNL A   1      32.421  19.965  24.169  1.00  0.00     0.090 C 
BRANCH  16  18
ATOM     18  C   UNL A   1      34.188  18.160  24.416  1.00  0.00     0.075 C 
ATOM     19  C   UNL A   1      33.464  17.583  23.199  1.00  0.00     0.011 C 
ENDBRANCH  16  18
BRANCH  16  20
ATOM     20  N   UNL A   1      32.905  18.909  26.342  1.00  0.00    -0.345 N 
ATOM     21  H   UNL A   1      33.639  18.616  26.987  1.00  0.00     0.345 HD
ATOM     22  H   UNL A   1      32.295  18.117  26.138  1.00  0.00     0.345 HD
ATOM     23  H   UNL A   1      32.359  19.657  26.768  1.00  0.00     0.345 HD
ENDBRANCH  16  20
ENDBRANCH   8  16
ENDBRANCH   5   7
ENDBRANCH   3   5
ENDBRANCH   2   3
ENDBRANCH   1   2
BRANCH   1  24
ATOM     24  C   UNL A   1      31.936  29.608  26.235  1.00  0.00     0.275 C 
BRANCH  24  25
ATOM     25  O   UNL A   1      33.262  30.164  26.159  1.00  0.00    -0.458 OA
BRANCH  25  26
ATOM     26  C   UNL A   1      33.511  31.184  27.013  1.00  0.00     0.338 C 
ATOM     27  O   UNL A   1      32.812  32.161  27.219  1.00  0.00    -0.246 OA
BRANCH  26  28
ATOM     28  C   UNL A   1      34.733  30.904  27.779  1.00  0.00     0.060 A 
ATOM     29  C   UNL A   1      35.683  31.919  27.906  1.00  0.00     0.016 A 
ATOM     30  C   UNL A   1      34.984  29.632  28.286  1.00  0.00     0.016 A 
ATOM     31  C   UNL A   1      36.898  31.672  28.533  1.00  0.00     0.010 A 
ATOM     32  C   UNL A   1      36.198  29.387  28.937  1.00  0.00     0.010 A 
ATOM     33  C   UNL A   1      37.163  30.405  29.059  1.00  0.00    -0.014 A 
BRANCH  33  34
ATOM     34  C   UNL A   1      38.461  30.134  29.721  1.00  0.00     0.031 A 
ATOM     35  C   UNL A   1      39.429  29.178  29.090  1.00  0.00     0.074 A 
ATOM     36  C   UNL A   1      38.757  30.746  30.882  1.00  0.00     0.049 A 
ATOM     37  N   UNL A   1      40.526  28.665  29.582  1.00  0.00    -0.248 NA
ATOM     38  C   UNL A   1      39.114  28.738  27.723  1.00  0.00     0.031 C 
ATOM     39  C   UNL A   1      37.921  31.749  31.544  1.00  0.00     0.029 A 
ATOM     40  N   UNL A   1      39.834  30.603  31.719  1.00  0.00    -0.354 N 
ATOM     41  C   UNL A   1      41.021  27.818  28.597  1.00  0.00     0.074 A 
ATOM     42  C   UNL A   1      40.094  27.878  27.486  1.00  0.00     0.031 C 
ATOM     43  C   UNL A   1      38.511  32.122  32.691  1.00  0.00     0.029 A 
ATOM     44  C   UNL A   1      39.725  31.334  32.879  1.00  0.00     0.049 A 
ATOM     45  H   UNL A   1      40.610  30.033  31.509  1.00  0.00     0.167 HD
ATOM     46  C   UNL A   1      42.143  27.058  28.629  1.00  0.00     0.034 A 
ATOM     47  C   UNL A   1      40.485  31.323  33.991  1.00  0.00     0.034 A 
ATOM     48  C   UNL A   1      43.049  27.018  29.753  1.00  0.00     0.049 A 
ATOM     49  C   UNL A   1      41.671  30.396  34.045  1.00  0.00     0.074 A 
ATOM     50  C   UNL A   1      44.218  26.292  29.897  1.00  0.00     0.029 A 
ATOM     51  N   UNL A   1      42.879  27.734  30.933  1.00  0.00    -0.354 N 
ATOM     52  N   UNL A   1      42.110  29.563  33.128  1.00  0.00    -0.248 NA
ATOM     53  C   UNL A   1      42.457  30.398  35.285  1.00  0.00     0.031 C 
ATOM     54  C   UNL A   1      44.720  26.519  31.185  1.00  0.00     0.029 A 
ATOM     55  C   UNL A   1      43.902  27.440  31.821  1.00  0.00     0.049 A 
ATOM     56  H   UNL A   1      42.139  28.358  31.113  1.00  0.00     0.167 HD
ATOM     57  C   UNL A   1      43.234  28.954  33.678  1.00  0.00     0.074 A 
ATOM     58  C   UNL A   1      43.413  29.526  34.997  1.00  0.00     0.031 C 
ATOM     59  C   UNL A   1      44.047  28.010  33.141  1.00  0.00     0.034 A 
BRANCH  46  60
ATOM     60  C   UNL A   1      42.406  26.162  27.444  1.00  0.00     0.023 A 
ATOM     61  C   UNL A   1      41.929  24.841  27.388  1.00  0.00     0.031 A 
ATOM     62  C   UNL A   1      43.184  26.628  26.368  1.00  0.00     0.131 A 
ATOM     63  C   UNL A   1      42.290  24.012  26.314  1.00  0.00     0.055 A 
ATOM     64  C   UNL A   1      43.478  25.821  25.268  1.00  0.00     0.041 A 
ATOM     65  F   UNL A   1      43.687  27.873  26.377  1.00  0.00    -0.206 F 
ATOM     66  C   UNL A   1      43.043  24.500  25.243  1.00  0.00     0.022 A 
BRANCH  63  67
ATOM     67  S   UNL A   1      41.880  22.247  26.403  1.00  0.00     0.124 S 
ATOM     68  O   UNL A   1      42.404  21.887  27.719  1.00  0.00    -0.237 OA
ATOM     69  O   UNL A   1      40.427  22.254  26.274  1.00  0.00    -0.237 OA
ATOM     70  O   UNL A   1      42.603  21.669  25.273  1.00  0.00    -0.744 OA
ENDBRANCH  63  67
ENDBRANCH  46  60
BRANCH  47  71
ATOM     71  C   UNL A   1      40.105  32.151  35.169  1.00  0.00     0.023 A 
ATOM     72  C   UNL A   1      39.189  31.682  36.123  1.00  0.00     0.031 A 
ATOM     73  C   UNL A   1      40.631  33.445  35.339  1.00  0.00     0.131 A 
ATOM     74  C   UNL A   1      38.802  32.513  37.187  1.00  0.00     0.055 A 
ATOM     75  C   UNL A   1      40.281  34.248  36.425  1.00  0.00     0.041 A 
ATOM     76  F   UNL A   1      41.509  33.944  34.453  1.00  0.00    -0.206 F 
ATOM     77  C   UNL A   1      39.353  33.786  37.352  1.00  0.00     0.022 A 
BRANCH  74  78
ATOM     78  S   UNL A   1      37.509  31.931  38.317  1.00  0.00     0.124 S 
ATOM     79  O   UNL A   1      37.312  30.559  37.862  1.00  0.00    -0.237 OA
ATOM     80  O   UNL A   1      38.149  32.089  39.618  1.00  0.00    -0.237 OA
ATOM     81  O   UNL A   1      36.396  32.841  38.057  1.00  0.00    -0.744 OA
ENDBRANCH  74  78
ENDBRANCH  47  71
BRANCH  59  82
ATOM     82  C   UNL A   1      45.220  27.571  33.980  1.00  0.00     0.023 A 
ATOM     83  C   UNL A   1      45.133  26.469  34.848  1.00  0.00     0.031 A 
ATOM     84  C   UNL A   1      46.434  28.277  33.919  1.00  0.00     0.131 A 
ATOM     85  C   UNL A   1      46.228  26.132  35.657  1.00  0.00     0.055 A 
ATOM     86  C   UNL A   1      47.537  27.905  34.688  1.00  0.00     0.041 A 
ATOM     87  F   UNL A   1      46.567  29.338  33.108  1.00  0.00    -0.206 F 
ATOM     88  C   UNL A   1      47.434  26.834  35.571  1.00  0.00     0.022 A 
BRANCH  85  89
ATOM     89  S   UNL A   1      46.035  24.805  36.878  1.00  0.00     0.124 S 
ATOM     90  O   UNL A   1      45.173  23.865  36.168  1.00  0.00    -0.237 OA
ATOM     91  O   UNL A   1      47.411  24.371  37.090  1.00  0.00    -0.237 OA
ATOM     92  O   UNL A   1      45.415  25.476  38.019  1.00  0.00    -0.744 OA
ENDBRANCH  85  89
ENDBRANCH  59  82
ENDBRANCH  33  34
ENDBRANCH  26  28
ENDBRANCH  25  26
ENDBRANCH  24  25
ENDBRANCH   1  24
TORSDOF 18
ENDMDL
MODEL 3
REMARK VINA RESULT:     -11.0      4.660     10.040
REMARK SMILES CC[C@@](C)([NH3+])C(=O)N1CC[NH+]([C@H](C)C(=O)OCCOC(=O)c2ccc(-c3c4nc(c(-c5cc(S(=O)(=O)[O-])ccc5F)c5ccc([nH]5)c(-c5cc(S(=O)(=O)[O-])ccc5F)c5nc(c(-c6cc(S(=O)(=O)[O-])ccc6F)c6ccc3[nH]6)C=C5)C=C4)cc2)CC1
REMARK SMILES IDX 17 1 16 2 14 3 15 4 12 5 13 6 11 7 6 8 7 9 8 10 9 11 86 12
REMARK SMILES IDX 10 13 85 14 3 16 4 17 2 18 1 19 5 20 18 24 19 25 20 26 21 27
REMARK SMILES IDX 22 28 23 29 84 30 24 31 83 32 25 33 26 34 27 35 77 36 28 37
REMARK SMILES IDX 82 38 76 39 78 40 29 41 81 42 75 43 74 44 30 46 62 47 42 48
REMARK SMILES IDX 61 49 43 50 46 51 60 52 79 53 44 54 45 55 59 57 80 58 47 59
REMARK SMILES IDX 31 60 32 61 40 62 33 63 39 64 41 65 38 66 34 67 35 68 36 69
REMARK SMILES IDX 37 70 63 71 64 72 72 73 65 74 71 75 73 76 70 77 66 78 67 79
REMARK SMILES IDX 68 80 69 81 48 82 49 83 57 84 50 85 56 86 58 87 55 88 51 89
REMARK SMILES IDX 52 90 53 91 54 92
REMARK H PARENT 11 15 5 21 5 22 5 23 78 45 46 56
REMARK Flexibility Score: inf
ROOT
ATOM      1  C   UNL A   1      31.106  29.095  24.775  1.00  0.00     0.274 C 
ENDROOT
BRANCH   1   2
ATOM      2  O   UNL A   1      31.874  28.769  23.602  1.00  0.00    -0.458 OA
BRANCH   2   3
ATOM      3  C   UNL A   1      31.291  27.877  22.753  1.00  0.00     0.364 C 
ATOM      4  O   UNL A   1      30.286  28.114  22.090  1.00  0.00    -0.245 OA
BRANCH   3   5
ATOM      5  C   UNL A   1      32.016  26.519  22.723  1.00  0.00     0.292 C 
ATOM      6  C   UNL A   1      33.531  26.586  22.487  1.00  0.00     0.088 C 
BRANCH   5   7
ATOM      7  N   UNL A   1      31.561  25.677  23.854  1.00  0.00    -0.321 N 
ATOM      8  C   UNL A   1      32.667  22.498  26.224  1.00  0.00     0.283 C 
ATOM      9  O   UNL A   1      32.997  22.599  27.413  1.00  0.00    -0.268 OA
ATOM     10  N   UNL A   1      31.856  23.473  25.673  1.00  0.00    -0.326 N 
ATOM     11  C   UNL A   1      31.954  24.836  26.186  1.00  0.00     0.181 C 
ATOM     12  C   UNL A   1      30.893  23.360  24.583  1.00  0.00     0.181 C 
ATOM     13  C   UNL A   1      32.434  25.752  25.042  1.00  0.00     0.284 C 
ATOM     14  C   UNL A   1      31.267  24.297  23.421  1.00  0.00     0.284 C 
ATOM     15  H   UNL A   1      30.677  26.076  24.173  1.00  0.00     0.348 HD
BRANCH   8  16
ATOM     16  C   UNL A   1      33.352  21.413  25.306  1.00  0.00     0.171 C 
ATOM     17  C   UNL A   1      32.289  20.428  24.796  1.00  0.00     0.090 C 
BRANCH  16  18
ATOM     18  C   UNL A   1      34.059  22.109  24.104  1.00  0.00     0.075 C 
ATOM     19  C   UNL A   1      35.208  23.054  24.461  1.00  0.00     0.011 C 
ENDBRANCH  16  18
BRANCH  16  20
ATOM     20  N   UNL A   1      34.408  20.665  26.031  1.00  0.00    -0.345 N 
ATOM     21  H   UNL A   1      34.840  21.274  26.726  1.00  0.00     0.345 HD
ATOM     22  H   UNL A   1      35.117  20.349  25.368  1.00  0.00     0.345 HD
ATOM     23  H   UNL A   1      33.995  19.858  26.497  1.00  0.00     0.345 HD
ENDBRANCH  16  20
ENDBRANCH   8  16
ENDBRANCH   5   7
ENDBRANCH   3   5
ENDBRANCH   2   3
ENDBRANCH   1   2
BRANCH   1  24
ATOM     24  C   UNL A   1      31.567  30.414  25.403  1.00  0.00     0.275 C 
BRANCH  24  25
ATOM     25  O   UNL A   1      32.748  30.249  26.209  1.00  0.00    -0.458 OA
BRANCH  25  26
ATOM     26  C   UNL A   1      33.089  31.320  26.962  1.00  0.00     0.338 C 
ATOM     27  O   UNL A   1      32.407  32.302  27.199  1.00  0.00    -0.246 OA
BRANCH  26  28
ATOM     28  C   UNL A   1      34.404  31.098  27.578  1.00  0.00     0.060 A 
ATOM     29  C   UNL A   1      34.737  29.805  27.985  1.00  0.00     0.016 A 
ATOM     30  C   UNL A   1      35.263  32.164  27.837  1.00  0.00     0.016 A 
ATOM     31  C   UNL A   1      35.925  29.563  28.664  1.00  0.00     0.010 A 
ATOM     32  C   UNL A   1      36.469  31.920  28.501  1.00  0.00     0.010 A 
ATOM     33  C   UNL A   1      36.804  30.619  28.922  1.00  0.00    -0.014 A 
BRANCH  33  34
ATOM     34  C   UNL A   1      38.068  30.367  29.653  1.00  0.00     0.031 A 
ATOM     35  C   UNL A   1      39.095  29.449  29.064  1.00  0.00     0.074 A 
ATOM     36  C   UNL A   1      38.279  30.964  30.841  1.00  0.00     0.049 A 
ATOM     37  N   UNL A   1      40.175  28.954  29.610  1.00  0.00    -0.248 NA
ATOM     38  C   UNL A   1      38.873  29.028  27.673  1.00  0.00     0.031 C 
ATOM     39  C   UNL A   1      37.380  31.933  31.471  1.00  0.00     0.029 A 
ATOM     40  N   UNL A   1      39.308  30.832  31.737  1.00  0.00    -0.354 N 
ATOM     41  C   UNL A   1      40.749  28.139  28.641  1.00  0.00     0.074 A 
ATOM     42  C   UNL A   1      39.887  28.198  27.478  1.00  0.00     0.031 C 
ATOM     43  C   UNL A   1      37.892  32.297  32.657  1.00  0.00     0.029 A 
ATOM     44  C   UNL A   1      39.112  31.536  32.902  1.00  0.00     0.049 A 
ATOM     45  H   UNL A   1      40.110  30.286  31.564  1.00  0.00     0.167 HD
ATOM     46  C   UNL A   1      41.887  27.407  28.726  1.00  0.00     0.034 A 
ATOM     47  C   UNL A   1      39.806  31.522  34.057  1.00  0.00     0.034 A 
ATOM     48  C   UNL A   1      42.726  27.368  29.900  1.00  0.00     0.049 A 
ATOM     49  C   UNL A   1      41.011  30.625  34.164  1.00  0.00     0.074 A 
ATOM     50  C   UNL A   1      43.903  26.669  30.100  1.00  0.00     0.029 A 
ATOM     51  N   UNL A   1      42.469  28.055  31.081  1.00  0.00    -0.354 N 
ATOM     52  N   UNL A   1      41.524  29.822  33.260  1.00  0.00    -0.248 NA
ATOM     53  C   UNL A   1      41.722  30.622  35.448  1.00  0.00     0.031 C 
ATOM     54  C   UNL A   1      44.323  26.883  31.419  1.00  0.00     0.029 A 
ATOM     55  C   UNL A   1      43.445  27.770  32.022  1.00  0.00     0.049 A 
ATOM     56  H   UNL A   1      41.703  28.657  31.228  1.00  0.00     0.167 HD
ATOM     57  C   UNL A   1      42.630  29.230  33.863  1.00  0.00     0.074 A 
ATOM     58  C   UNL A   1      42.716  29.781  35.201  1.00  0.00     0.031 C 
ATOM     59  C   UNL A   1      43.498  28.317  33.358  1.00  0.00     0.034 A 
BRANCH  46  60
ATOM     60  C   UNL A   1      42.242  26.542  27.542  1.00  0.00     0.023 A 
ATOM     61  C   UNL A   1      41.816  25.206  27.440  1.00  0.00     0.031 A 
ATOM     62  C   UNL A   1      43.057  27.053  26.515  1.00  0.00     0.131 A 
ATOM     63  C   UNL A   1      42.261  24.408  26.374  1.00  0.00     0.055 A 
ATOM     64  C   UNL A   1      43.437  26.276  25.419  1.00  0.00     0.041 A 
ATOM     65  F   UNL A   1      43.514  28.314  26.569  1.00  0.00    -0.206 F 
ATOM     66  C   UNL A   1      43.051  24.941  25.351  1.00  0.00     0.022 A 
BRANCH  63  67
ATOM     67  S   UNL A   1      41.910  22.629  26.415  1.00  0.00     0.124 S 
ATOM     68  O   UNL A   1      40.450  22.616  26.439  1.00  0.00    -0.237 OA
ATOM     69  O   UNL A   1      42.533  22.157  25.183  1.00  0.00    -0.237 OA
ATOM     70  O   UNL A   1      42.551  22.181  27.649  1.00  0.00    -0.744 OA
ENDBRANCH  63  67
ENDBRANCH  46  60
BRANCH  47  71
ATOM     71  C   UNL A   1      39.336  32.318  35.225  1.00  0.00     0.023 A 
ATOM     72  C   UNL A   1      39.776  33.633  35.434  1.00  0.00     0.031 A 
ATOM     73  C   UNL A   1      38.460  31.757  36.173  1.00  0.00     0.131 A 
ATOM     74  C   UNL A   1      39.366  34.334  36.579  1.00  0.00     0.055 A 
ATOM     75  C   UNL A   1      38.015  32.474  37.283  1.00  0.00     0.041 A 
ATOM     76  F   UNL A   1      38.010  30.500  36.022  1.00  0.00    -0.206 F 
ATOM     77  C   UNL A   1      38.477  33.768  37.497  1.00  0.00     0.022 A 
BRANCH  74  78
ATOM     78  S   UNL A   1      40.070  35.976  36.892  1.00  0.00     0.124 S 
ATOM     79  O   UNL A   1      41.484  35.665  37.063  1.00  0.00    -0.237 OA
ATOM     80  O   UNL A   1      39.715  36.695  35.673  1.00  0.00    -0.237 OA
ATOM     81  O   UNL A   1      39.377  36.418  38.100  1.00  0.00    -0.744 OA
ENDBRANCH  74  78
ENDBRANCH  47  71
BRANCH  59  82
ATOM     82  C   UNL A   1      44.630  27.892  34.257  1.00  0.00     0.023 A 
ATOM     83  C   UNL A   1      44.464  26.887  35.225  1.00  0.00     0.031 A 
ATOM     84  C   UNL A   1      45.887  28.513  34.151  1.00  0.00     0.131 A 
ATOM     85  C   UNL A   1      45.526  26.564  36.083  1.00  0.00     0.055 A 
ATOM     86  C   UNL A   1      46.955  28.151  34.972  1.00  0.00     0.041 A 
ATOM     87  F   UNL A   1      46.096  29.481  33.244  1.00  0.00    -0.206 F 
ATOM     88  C   UNL A   1      46.775  27.179  35.952  1.00  0.00     0.022 A 
BRANCH  85  89
ATOM     89  S   UNL A   1      45.236  25.376  37.422  1.00  0.00     0.124 S 
ATOM     90  O   UNL A   1      44.932  24.154  36.682  1.00  0.00    -0.237 OA
ATOM     91  O   UNL A   1      46.508  25.388  38.135  1.00  0.00    -0.237 OA
ATOM     92  O   UNL A   1      44.110  25.953  38.154  1.00  0.00    -0.744 OA
ENDBRANCH  85  89
ENDBRANCH  59  82
ENDBRANCH  33  34
ENDBRANCH  26  28
ENDBRANCH  25  26
ENDBRANCH  24  25
ENDBRANCH   1  24
TORSDOF 18
ENDMDL
