MODEL 1
REMARK VINA RESULT:     -11.5      0.000      0.000
REMARK SMILES CC(C)C[C@@H](Cn1nnnc1-c1ccc(F)cc1)C(=O)OCCOC(=O)c1ccc(-c2c3nc(c(-c4cc(S(=O)(=O)[O-])ccc4F)c4ccc([nH]4)c(-c4cc(S(=O)(=O)[O-])ccc4F)c4nc(c(-c5cc(S(=O)(=O)[O-])ccc5F)c5ccc2[nH]5)C=C4)C=C3)cc1
REMARK SMILES IDX 22 1 21 2 19 3 20 4 5 5 4 6 2 7 1 8 3 9 6 10 7 11 8 12 11 13
REMARK SMILES IDX 9 14 10 15 12 16 13 17 18 18 14 19 17 20 15 21 16 22 23 23
REMARK SMILES IDX 24 24 25 25 26 26 27 27 28 28 89 29 29 30 88 31 30 32 31 33
REMARK SMILES IDX 32 34 82 35 33 36 87 37 81 38 83 39 34 40 86 41 80 42 79 43
REMARK SMILES IDX 35 45 67 46 47 47 66 48 48 49 51 50 65 51 84 52 49 53 50 54
REMARK SMILES IDX 64 56 85 57 52 58 36 59 37 60 45 61 38 62 44 63 46 64 43 65
REMARK SMILES IDX 39 66 40 67 41 68 42 69 68 70 69 71 77 72 70 73 76 74 78 75
REMARK SMILES IDX 75 76 71 77 72 78 73 79 74 80 53 81 54 82 62 83 55 84 61 85
REMARK SMILES IDX 63 86 60 87 56 88 57 89 58 90 59 91
REMARK H PARENT 83 44 51 55
REMARK Flexibility Score: inf
ROOT
ATOM      1  C   UNL A   1      36.504  20.702  25.466  1.00  0.00     0.274 C 
ENDROOT
BRANCH   1   2
ATOM      2  O   UNL A   1      35.591  21.287  24.515  1.00  0.00    -0.462 OA
BRANCH   2   3
ATOM      3  C   UNL A   1      34.320  20.809  24.505  1.00  0.00     0.310 C 
ATOM      4  O   UNL A   1      34.025  19.618  24.493  1.00  0.00    -0.252 OA
BRANCH   3   5
ATOM      5  C   UNL A   1      33.271  21.897  24.339  1.00  0.00     0.121 C 
BRANCH   5   6
ATOM      6  C   UNL A   1      32.114  21.872  25.356  1.00  0.00     0.020 C 
BRANCH   6   7
ATOM      7  C   UNL A   1      32.143  22.993  26.419  1.00  0.00    -0.017 C 
ATOM      8  C   UNL A   1      30.734  23.483  26.767  1.00  0.00     0.007 C 
ATOM      9  C   UNL A   1      32.840  22.499  27.690  1.00  0.00     0.007 C 
ENDBRANCH   6   7
ENDBRANCH   5   6
BRANCH   5  10
ATOM     10  C   UNL A   1      34.021  23.225  24.219  1.00  0.00     0.164 C 
BRANCH  10  11
ATOM     11  N   UNL A   1      33.597  24.073  23.128  1.00  0.00    -0.225 N 
ATOM     12  N   UNL A   1      33.838  23.717  21.855  1.00  0.00    -0.045 NA
ATOM     13  C   UNL A   1      32.884  25.249  23.154  1.00  0.00     0.182 A 
ATOM     14  N   UNL A   1      33.181  24.598  21.117  1.00  0.00    -0.023 NA
ATOM     15  N   UNL A   1      32.579  25.548  21.904  1.00  0.00    -0.108 NA
BRANCH  13  16
ATOM     16  C   UNL A   1      32.505  26.001  24.342  1.00  0.00     0.021 A 
ATOM     17  C   UNL A   1      33.473  26.393  25.280  1.00  0.00     0.015 A 
ATOM     18  C   UNL A   1      31.167  26.362  24.551  1.00  0.00     0.015 A 
ATOM     19  C   UNL A   1      33.103  27.092  26.428  1.00  0.00     0.040 A 
ATOM     20  C   UNL A   1      30.797  27.064  25.701  1.00  0.00     0.040 A 
ATOM     21  C   UNL A   1      31.769  27.418  26.631  1.00  0.00     0.123 A 
ATOM     22  F   UNL A   1      31.415  28.093  27.731  1.00  0.00    -0.207 F 
ENDBRANCH  13  16
ENDBRANCH  10  11
ENDBRANCH   5  10
ENDBRANCH   3   5
ENDBRANCH   2   3
ENDBRANCH   1   2
BRANCH   1  23
ATOM     23  C   UNL A   1      37.821  20.287  24.827  1.00  0.00     0.275 C 
BRANCH  23  24
ATOM     24  O   UNL A   1      38.911  21.018  25.385  1.00  0.00    -0.458 OA
BRANCH  24  25
ATOM     25  C   UNL A   1      39.955  20.224  25.719  1.00  0.00     0.338 C 
ATOM     26  O   UNL A   1      40.002  19.012  25.618  1.00  0.00    -0.246 OA
BRANCH  25  27
ATOM     27  C   UNL A   1      40.977  20.984  26.432  1.00  0.00     0.060 A 
ATOM     28  C   UNL A   1      40.866  21.001  27.827  1.00  0.00     0.016 A 
ATOM     29  C   UNL A   1      41.724  21.931  25.724  1.00  0.00     0.016 A 
ATOM     30  C   UNL A   1      41.312  22.113  28.498  1.00  0.00     0.010 A 
ATOM     31  C   UNL A   1      42.149  23.051  26.394  1.00  0.00     0.010 A 
ATOM     32  C   UNL A   1      41.862  23.159  27.756  1.00  0.00    -0.014 A 
BRANCH  32  33
ATOM     33  C   UNL A   1      42.205  24.373  28.459  1.00  0.00     0.031 A 
ATOM     34  C   UNL A   1      41.288  25.495  28.174  1.00  0.00     0.074 A 
ATOM     35  C   UNL A   1      43.177  24.413  29.387  1.00  0.00     0.049 A 
ATOM     36  N   UNL A   1      41.565  26.636  27.641  1.00  0.00    -0.248 NA
ATOM     37  C   UNL A   1      39.850  25.255  28.384  1.00  0.00     0.031 C 
ATOM     38  C   UNL A   1      43.941  23.295  29.943  1.00  0.00     0.029 A 
ATOM     39  N   UNL A   1      43.590  25.474  30.129  1.00  0.00    -0.354 N 
ATOM     40  C   UNL A   1      40.369  27.340  27.642  1.00  0.00     0.074 A 
ATOM     41  C   UNL A   1      39.327  26.391  27.931  1.00  0.00     0.031 C 
ATOM     42  C   UNL A   1      44.547  23.701  31.081  1.00  0.00     0.029 A 
ATOM     43  C   UNL A   1      44.305  25.123  31.267  1.00  0.00     0.049 A 
ATOM     44  H   UNL A   1      43.400  26.407  29.882  1.00  0.00     0.167 HD
ATOM     45  C   UNL A   1      40.337  28.698  27.650  1.00  0.00     0.034 A 
ATOM     46  C   UNL A   1      44.579  25.936  32.320  1.00  0.00     0.034 A 
ATOM     47  C   UNL A   1      41.576  29.271  27.197  1.00  0.00     0.049 A 
ATOM     48  C   UNL A   1      44.468  27.333  31.821  1.00  0.00     0.074 A 
ATOM     49  C   UNL A   1      42.305  29.169  26.027  1.00  0.00     0.029 A 
ATOM     50  N   UNL A   1      42.452  29.758  28.137  1.00  0.00    -0.354 N 
ATOM     51  N   UNL A   1      45.251  27.843  30.908  1.00  0.00    -0.248 NA
ATOM     52  C   UNL A   1      43.203  28.029  32.005  1.00  0.00     0.031 C 
ATOM     53  C   UNL A   1      43.667  29.121  26.442  1.00  0.00     0.029 A 
ATOM     54  C   UNL A   1      43.697  29.256  27.831  1.00  0.00     0.049 A 
ATOM     55  H   UNL A   1      42.231  30.354  28.888  1.00  0.00     0.167 HD
ATOM     56  C   UNL A   1      44.426  28.642  30.130  1.00  0.00     0.074 A 
ATOM     57  C   UNL A   1      43.204  28.797  30.912  1.00  0.00     0.031 C 
ATOM     58  C   UNL A   1      44.697  28.877  28.812  1.00  0.00     0.034 A 
BRANCH  45  59
ATOM     59  C   UNL A   1      39.269  29.469  28.370  1.00  0.00     0.023 A 
ATOM     60  C   UNL A   1      39.299  29.532  29.769  1.00  0.00     0.031 A 
ATOM     61  C   UNL A   1      38.090  29.949  27.746  1.00  0.00     0.131 A 
ATOM     62  C   UNL A   1      38.200  30.043  30.482  1.00  0.00     0.055 A 
ATOM     63  C   UNL A   1      37.036  30.527  28.449  1.00  0.00     0.041 A 
ATOM     64  F   UNL A   1      37.864  29.796  26.433  1.00  0.00    -0.206 F 
ATOM     65  C   UNL A   1      37.079  30.563  29.831  1.00  0.00     0.022 A 
BRANCH  62  66
ATOM     66  S   UNL A   1      38.191  29.897  32.285  1.00  0.00     0.124 S 
ATOM     67  O   UNL A   1      37.965  31.279  32.695  1.00  0.00    -0.237 OA
ATOM     68  O   UNL A   1      37.087  28.970  32.509  1.00  0.00    -0.237 OA
ATOM     69  O   UNL A   1      39.518  29.367  32.589  1.00  0.00    -0.744 OA
ENDBRANCH  62  66
ENDBRANCH  45  59
BRANCH  46  70
ATOM     70  C   UNL A   1      44.585  25.579  33.767  1.00  0.00     0.023 A 
ATOM     71  C   UNL A   1      43.557  26.003  34.635  1.00  0.00     0.031 A 
ATOM     72  C   UNL A   1      45.474  24.604  34.277  1.00  0.00     0.131 A 
ATOM     73  C   UNL A   1      43.444  25.456  35.934  1.00  0.00     0.055 A 
ATOM     74  C   UNL A   1      45.368  24.079  35.568  1.00  0.00     0.041 A 
ATOM     75  F   UNL A   1      46.424  24.049  33.511  1.00  0.00    -0.206 F 
ATOM     76  C   UNL A   1      44.342  24.495  36.400  1.00  0.00     0.022 A 
BRANCH  73  77
ATOM     77  S   UNL A   1      42.029  25.888  36.994  1.00  0.00     0.124 S 
ATOM     78  O   UNL A   1      41.417  26.985  36.253  1.00  0.00    -0.237 OA
ATOM     79  O   UNL A   1      41.275  24.641  37.046  1.00  0.00    -0.237 OA
ATOM     80  O   UNL A   1      42.661  26.270  38.258  1.00  0.00    -0.744 OA
ENDBRANCH  73  77
ENDBRANCH  46  70
BRANCH  58  81
ATOM     81  C   UNL A   1      46.066  28.507  28.277  1.00  0.00     0.023 A 
ATOM     82  C   UNL A   1      46.415  27.238  27.761  1.00  0.00     0.031 A 
ATOM     83  C   UNL A   1      47.006  29.544  28.149  1.00  0.00     0.131 A 
ATOM     84  C   UNL A   1      47.671  27.048  27.148  1.00  0.00     0.055 A 
ATOM     85  C   UNL A   1      48.239  29.358  27.525  1.00  0.00     0.041 A 
ATOM     86  F   UNL A   1      46.718  30.781  28.591  1.00  0.00    -0.206 F 
ATOM     87  C   UNL A   1      48.577  28.106  27.023  1.00  0.00     0.022 A 
BRANCH  84  88
ATOM     88  S   UNL A   1      48.136  25.421  26.468  1.00  0.00     0.124 S 
ATOM     89  O   UNL A   1      47.311  25.314  25.270  1.00  0.00    -0.237 OA
ATOM     90  O   UNL A   1      49.573  25.562  26.250  1.00  0.00    -0.237 OA
ATOM     91  O   UNL A   1      47.776  24.487  27.538  1.00  0.00    -0.744 OA
ENDBRANCH  84  88
ENDBRANCH  58  81
ENDBRANCH  32  33
ENDBRANCH  25  27
ENDBRANCH  24  25
ENDBRANCH  23  24
ENDBRANCH   1  23
TORSDOF 19
ENDMDL
MODEL 2
REMARK VINA RESULT:     -11.3      3.338      7.537
REMARK SMILES CC(C)C[C@@H](Cn1nnnc1-c1ccc(F)cc1)C(=O)OCCOC(=O)c1ccc(-c2c3nc(c(-c4cc(S(=O)(=O)[O-])ccc4F)c4ccc([nH]4)c(-c4cc(S(=O)(=O)[O-])ccc4F)c4nc(c(-c5cc(S(=O)(=O)[O-])ccc5F)c5ccc2[nH]5)C=C4)C=C3)cc1
REMARK SMILES IDX 22 1 21 2 19 3 20 4 5 5 4 6 2 7 1 8 3 9 6 10 7 11 8 12 11 13
REMARK SMILES IDX 9 14 10 15 12 16 13 17 18 18 14 19 17 20 15 21 16 22 23 23
REMARK SMILES IDX 24 24 25 25 26 26 27 27 28 28 89 29 29 30 88 31 30 32 31 33
REMARK SMILES IDX 32 34 82 35 33 36 87 37 81 38 83 39 34 40 86 41 80 42 79 43
REMARK SMILES IDX 35 45 67 46 47 47 66 48 48 49 51 50 65 51 84 52 49 53 50 54
REMARK SMILES IDX 64 56 85 57 52 58 36 59 37 60 45 61 38 62 44 63 46 64 43 65
REMARK SMILES IDX 39 66 40 67 41 68 42 69 68 70 69 71 77 72 70 73 76 74 78 75
REMARK SMILES IDX 75 76 71 77 72 78 73 79 74 80 53 81 54 82 62 83 55 84 61 85
REMARK SMILES IDX 63 86 60 87 56 88 57 89 58 90 59 91
REMARK H PARENT 83 44 51 55
REMARK Flexibility Score: inf
ROOT
ATOM      1  C   UNL A   1      32.414  30.060  26.655  1.00  0.00     0.274 C 
ENDROOT
BRANCH   1   2
ATOM      2  O   UNL A   1      32.996  28.773  26.360  1.00  0.00    -0.462 OA
BRANCH   2   3
ATOM      3  C   UNL A   1      33.003  28.383  25.060  1.00  0.00     0.310 C 
ATOM      4  O   UNL A   1      32.978  29.150  24.102  1.00  0.00    -0.252 OA
BRANCH   3   5
ATOM      5  C   UNL A   1      32.872  26.878  24.884  1.00  0.00     0.121 C 
BRANCH   5   6
ATOM      6  C   UNL A   1      31.466  26.367  24.514  1.00  0.00     0.020 C 
BRANCH   6   7
ATOM      7  C   UNL A   1      30.945  25.187  25.364  1.00  0.00    -0.017 C 
ATOM      8  C   UNL A   1      31.919  24.822  26.489  1.00  0.00     0.007 C 
ATOM      9  C   UNL A   1      29.578  25.529  25.963  1.00  0.00     0.007 C 
ENDBRANCH   6   7
ENDBRANCH   5   6
BRANCH   5  10
ATOM     10  C   UNL A   1      34.004  26.437  23.955  1.00  0.00     0.164 C 
BRANCH  10  11
ATOM     11  N   UNL A   1      33.580  25.860  22.700  1.00  0.00    -0.225 N 
ATOM     12  N   UNL A   1      33.351  26.644  21.633  1.00  0.00    -0.045 NA
ATOM     13  C   UNL A   1      33.405  24.541  22.352  1.00  0.00     0.182 A 
ATOM     14  N   UNL A   1      33.158  25.810  20.624  1.00  0.00    -0.023 NA
ATOM     15  N   UNL A   1      33.195  24.505  21.049  1.00  0.00    -0.108 NA
BRANCH  13  16
ATOM     16  C   UNL A   1      33.478  23.396  23.250  1.00  0.00     0.021 A 
ATOM     17  C   UNL A   1      34.651  23.125  23.971  1.00  0.00     0.015 A 
ATOM     18  C   UNL A   1      32.364  22.561  23.419  1.00  0.00     0.015 A 
ATOM     19  C   UNL A   1      34.724  22.014  24.810  1.00  0.00     0.040 A 
ATOM     20  C   UNL A   1      32.438  21.449  24.261  1.00  0.00     0.040 A 
ATOM     21  C   UNL A   1      33.619  21.184  24.945  1.00  0.00     0.123 A 
ATOM     22  F   UNL A   1      33.690  20.120  25.755  1.00  0.00    -0.207 F 
ENDBRANCH  13  16
ENDBRANCH  10  11
ENDBRANCH   5  10
ENDBRANCH   3   5
ENDBRANCH   2   3
ENDBRANCH   1   2
BRANCH   1  23
ATOM     23  C   UNL A   1      33.278  30.884  27.599  1.00  0.00     0.275 C 
BRANCH  23  24
ATOM     24  O   UNL A   1      34.586  31.068  27.064  1.00  0.00    -0.458 OA
BRANCH  24  25
ATOM     25  C   UNL A   1      35.320  31.957  27.772  1.00  0.00     0.338 C 
ATOM     26  O   UNL A   1      35.374  33.159  27.587  1.00  0.00    -0.246 OA
BRANCH  25  27
ATOM     27  C   UNL A   1      36.232  31.270  28.682  1.00  0.00     0.060 A 
ATOM     28  C   UNL A   1      37.290  32.037  29.182  1.00  0.00     0.016 A 
ATOM     29  C   UNL A   1      36.246  29.872  28.686  1.00  0.00     0.016 A 
ATOM     30  C   UNL A   1      38.471  31.399  29.473  1.00  0.00     0.010 A 
ATOM     31  C   UNL A   1      37.434  29.239  28.956  1.00  0.00     0.010 A 
ATOM     32  C   UNL A   1      38.548  30.020  29.264  1.00  0.00    -0.014 A 
BRANCH  32  33
ATOM     33  C   UNL A   1      39.833  29.385  29.448  1.00  0.00     0.031 A 
ATOM     34  C   UNL A   1      40.222  29.247  30.865  1.00  0.00     0.074 A 
ATOM     35  C   UNL A   1      40.519  28.849  28.423  1.00  0.00     0.049 A 
ATOM     36  N   UNL A   1      41.246  29.751  31.464  1.00  0.00    -0.248 NA
ATOM     37  C   UNL A   1      39.265  28.574  31.760  1.00  0.00     0.031 C 
ATOM     38  C   UNL A   1      40.085  28.681  27.035  1.00  0.00     0.029 A 
ATOM     39  N   UNL A   1      41.720  28.215  28.455  1.00  0.00    -0.354 N 
ATOM     40  C   UNL A   1      41.175  29.282  32.768  1.00  0.00     0.074 A 
ATOM     41  C   UNL A   1      39.859  28.727  32.941  1.00  0.00     0.031 C 
ATOM     42  C   UNL A   1      40.902  27.793  26.426  1.00  0.00     0.029 A 
ATOM     43  C   UNL A   1      41.971  27.425  27.340  1.00  0.00     0.049 A 
ATOM     44  H   UNL A   1      42.356  28.306  29.201  1.00  0.00     0.167 HD
ATOM     45  C   UNL A   1      42.281  29.156  33.546  1.00  0.00     0.034 A 
ATOM     46  C   UNL A   1      42.931  26.470  27.238  1.00  0.00     0.034 A 
ATOM     47  C   UNL A   1      43.373  29.963  33.069  1.00  0.00     0.049 A 
ATOM     48  C   UNL A   1      43.960  26.788  28.265  1.00  0.00     0.074 A 
ATOM     49  C   UNL A   1      43.532  31.317  32.839  1.00  0.00     0.029 A 
ATOM     50  N   UNL A   1      44.379  29.347  32.362  1.00  0.00    -0.354 N 
ATOM     51  N   UNL A   1      44.690  27.872  28.251  1.00  0.00    -0.248 NA
ATOM     52  C   UNL A   1      43.868  26.124  29.556  1.00  0.00     0.031 C 
ATOM     53  C   UNL A   1      44.292  31.402  31.637  1.00  0.00     0.029 A 
ATOM     54  C   UNL A   1      44.603  30.102  31.233  1.00  0.00     0.049 A 
ATOM     55  H   UNL A   1      44.850  28.522  32.616  1.00  0.00     0.167 HD
ATOM     56  C   UNL A   1      44.797  28.252  29.580  1.00  0.00     0.074 A 
ATOM     57  C   UNL A   1      44.360  27.086  30.343  1.00  0.00     0.031 C 
ATOM     58  C   UNL A   1      44.966  29.559  29.936  1.00  0.00     0.034 A 
BRANCH  45  59
ATOM     59  C   UNL A   1      42.430  28.055  34.554  1.00  0.00     0.023 A 
ATOM     60  C   UNL A   1      43.106  26.883  34.188  1.00  0.00     0.031 A 
ATOM     61  C   UNL A   1      41.730  28.016  35.785  1.00  0.00     0.131 A 
ATOM     62  C   UNL A   1      43.065  25.749  35.020  1.00  0.00     0.055 A 
ATOM     63  C   UNL A   1      41.756  26.919  36.643  1.00  0.00     0.041 A 
ATOM     64  F   UNL A   1      40.912  29.005  36.173  1.00  0.00    -0.206 F 
ATOM     65  C   UNL A   1      42.415  25.767  36.255  1.00  0.00     0.022 A 
BRANCH  62  66
ATOM     66  S   UNL A   1      43.760  24.196  34.403  1.00  0.00     0.124 S 
ATOM     67  O   UNL A   1      44.058  24.533  33.015  1.00  0.00    -0.237 OA
ATOM     68  O   UNL A   1      44.909  24.009  35.282  1.00  0.00    -0.237 OA
ATOM     69  O   UNL A   1      42.672  23.239  34.592  1.00  0.00    -0.744 OA
ENDBRANCH  62  66
ENDBRANCH  45  59
BRANCH  46  70
ATOM     70  C   UNL A   1      42.830  25.146  26.559  1.00  0.00     0.023 A 
ATOM     71  C   UNL A   1      43.801  24.719  25.629  1.00  0.00     0.031 A 
ATOM     72  C   UNL A   1      41.907  24.168  26.996  1.00  0.00     0.131 A 
ATOM     73  C   UNL A   1      43.828  23.377  25.186  1.00  0.00     0.055 A 
ATOM     74  C   UNL A   1      41.927  22.846  26.542  1.00  0.00     0.041 A 
ATOM     75  F   UNL A   1      41.006  24.429  27.955  1.00  0.00    -0.206 F 
ATOM     76  C   UNL A   1      42.898  22.441  25.641  1.00  0.00     0.022 A 
BRANCH  73  77
ATOM     77  S   UNL A   1      45.172  22.790  24.108  1.00  0.00     0.124 S 
ATOM     78  O   UNL A   1      44.464  22.506  22.865  1.00  0.00    -0.237 OA
ATOM     79  O   UNL A   1      46.086  23.927  24.088  1.00  0.00    -0.237 OA
ATOM     80  O   UNL A   1      45.679  21.613  24.815  1.00  0.00    -0.744 OA
ENDBRANCH  73  77
ENDBRANCH  46  70
BRANCH  58  81
ATOM     81  C   UNL A   1      45.337  30.561  28.862  1.00  0.00     0.023 A 
ATOM     82  C   UNL A   1      46.660  30.931  28.527  1.00  0.00     0.031 A 
ATOM     83  C   UNL A   1      44.299  31.041  28.046  1.00  0.00     0.131 A 
ATOM     84  C   UNL A   1      46.899  31.757  27.408  1.00  0.00     0.055 A 
ATOM     85  C   UNL A   1      44.540  31.842  26.929  1.00  0.00     0.041 A 
ATOM     86  F   UNL A   1      43.024  30.697  28.295  1.00  0.00    -0.206 F 
ATOM     87  C   UNL A   1      45.843  32.204  26.608  1.00  0.00     0.022 A 
BRANCH  84  88
ATOM     88  S   UNL A   1      48.598  32.237  26.954  1.00  0.00     0.124 S 
ATOM     89  O   UNL A   1      49.209  30.970  26.568  1.00  0.00    -0.237 OA
ATOM     90  O   UNL A   1      48.384  33.202  25.879  1.00  0.00    -0.237 OA
ATOM     91  O   UNL A   1      49.132  32.817  28.189  1.00  0.00    -0.744 OA
ENDBRANCH  84  88
ENDBRANCH  58  81
ENDBRANCH  32  33
ENDBRANCH  25  27
ENDBRANCH  24  25
ENDBRANCH  23  24
ENDBRANCH   1  23
TORSDOF 19
ENDMDL
MODEL 3
REMARK VINA RESULT:     -11.1      3.056      7.633
REMARK SMILES CC(C)C[C@@H](Cn1nnnc1-c1ccc(F)cc1)C(=O)OCCOC(=O)c1ccc(-c2c3nc(c(-c4cc(S(=O)(=O)[O-])ccc4F)c4ccc([nH]4)c(-c4cc(S(=O)(=O)[O-])ccc4F)c4nc(c(-c5cc(S(=O)(=O)[O-])ccc5F)c5ccc2[nH]5)C=C4)C=C3)cc1
REMARK SMILES IDX 22 1 21 2 19 3 20 4 5 5 4 6 2 7 1 8 3 9 6 10 7 11 8 12 11 13
REMARK SMILES IDX 9 14 10 15 12 16 13 17 18 18 14 19 17 20 15 21 16 22 23 23
REMARK SMILES IDX 24 24 25 25 26 26 27 27 28 28 89 29 29 30 88 31 30 32 31 33
REMARK SMILES IDX 32 34 82 35 33 36 87 37 81 38 83 39 34 40 86 41 80 42 79 43
REMARK SMILES IDX 35 45 67 46 47 47 66 48 48 49 51 50 65 51 84 52 49 53 50 54
REMARK SMILES IDX 64 56 85 57 52 58 36 59 37 60 45 61 38 62 44 63 46 64 43 65
REMARK SMILES IDX 39 66 40 67 41 68 42 69 68 70 69 71 77 72 70 73 76 74 78 75
REMARK SMILES IDX 75 76 71 77 72 78 73 79 74 80 53 81 54 82 62 83 55 84 61 85
REMARK SMILES IDX 63 86 60 87 56 88 57 89 58 90 59 91
REMARK H PARENT 83 44 51 55
REMARK Flexibility Score: inf
ROOT
ATOM      1  C   UNL A   1      34.683  29.309  27.246  1.00  0.00     0.274 C 
ENDROOT
BRANCH   1   2
ATOM      2  O   UNL A   1      34.173  29.043  25.923  1.00  0.00    -0.462 OA
BRANCH   2   3
ATOM      3  C   UNL A   1      33.380  27.951  25.775  1.00  0.00     0.310 C 
ATOM      4  O   UNL A   1      33.264  27.057  26.608  1.00  0.00    -0.252 OA
BRANCH   3   5
ATOM      5  C   UNL A   1      32.762  27.842  24.390  1.00  0.00     0.121 C 
BRANCH   5   6
ATOM      6  C   UNL A   1      31.907  29.041  23.942  1.00  0.00     0.020 C 
BRANCH   6   7
ATOM      7  C   UNL A   1      30.410  28.738  23.709  1.00  0.00    -0.017 C 
ATOM      8  C   UNL A   1      29.602  30.015  23.459  1.00  0.00     0.007 C 
ATOM      9  C   UNL A   1      30.241  27.787  22.520  1.00  0.00     0.007 C 
ENDBRANCH   6   7
ENDBRANCH   5   6
BRANCH   5  10
ATOM     10  C   UNL A   1      33.883  27.430  23.433  1.00  0.00     0.164 C 
BRANCH  10  11
ATOM     11  N   UNL A   1      33.600  26.271  22.618  1.00  0.00    -0.225 N 
ATOM     12  N   UNL A   1      33.303  26.411  21.315  1.00  0.00    -0.045 NA
ATOM     13  C   UNL A   1      33.635  24.936  22.945  1.00  0.00     0.182 A 
ATOM     14  N   UNL A   1      33.276  25.180  20.831  1.00  0.00    -0.023 NA
ATOM     15  N   UNL A   1      33.487  24.255  21.823  1.00  0.00    -0.108 NA
BRANCH  13  16
ATOM     16  C   UNL A   1      33.838  24.379  24.276  1.00  0.00     0.021 A 
ATOM     17  C   UNL A   1      35.133  24.195  24.785  1.00  0.00     0.015 A 
ATOM     18  C   UNL A   1      32.736  24.040  25.073  1.00  0.00     0.015 A 
ATOM     19  C   UNL A   1      35.323  23.639  26.050  1.00  0.00     0.040 A 
ATOM     20  C   UNL A   1      32.927  23.484  26.341  1.00  0.00     0.040 A 
ATOM     21  C   UNL A   1      34.219  23.285  26.814  1.00  0.00     0.123 A 
ATOM     22  F   UNL A   1      34.403  22.756  28.030  1.00  0.00    -0.207 F 
ENDBRANCH  13  16
ENDBRANCH  10  11
ENDBRANCH   5  10
ENDBRANCH   3   5
ENDBRANCH   2   3
ENDBRANCH   1   2
BRANCH   1  23
ATOM     23  C   UNL A   1      34.596  30.782  27.617  1.00  0.00     0.275 C 
BRANCH  23  24
ATOM     24  O   UNL A   1      35.124  31.012  28.921  1.00  0.00    -0.458 OA
BRANCH  24  25
ATOM     25  C   UNL A   1      36.307  31.669  28.897  1.00  0.00     0.338 C 
ATOM     26  O   UNL A   1      36.605  32.593  28.163  1.00  0.00    -0.246 OA
BRANCH  25  27
ATOM     27  C   UNL A   1      37.294  30.991  29.731  1.00  0.00     0.060 A 
ATOM     28  C   UNL A   1      38.512  31.658  29.904  1.00  0.00     0.016 A 
ATOM     29  C   UNL A   1      37.147  29.619  29.963  1.00  0.00     0.016 A 
ATOM     30  C   UNL A   1      39.645  30.903  30.082  1.00  0.00     0.010 A 
ATOM     31  C   UNL A   1      38.283  28.865  30.118  1.00  0.00     0.010 A 
ATOM     32  C   UNL A   1      39.519  29.512  30.092  1.00  0.00    -0.014 A 
BRANCH  32  33
ATOM     33  C   UNL A   1      40.732  28.729  30.148  1.00  0.00     0.031 A 
ATOM     34  C   UNL A   1      41.250  28.546  31.518  1.00  0.00     0.074 A 
ATOM     35  C   UNL A   1      41.238  28.115  29.064  1.00  0.00     0.049 A 
ATOM     36  N   UNL A   1      42.384  28.925  32.000  1.00  0.00    -0.248 NA
ATOM     37  C   UNL A   1      40.320  27.992  32.517  1.00  0.00     0.031 C 
ATOM     38  C   UNL A   1      40.642  28.000  27.731  1.00  0.00     0.029 A 
ATOM     39  N   UNL A   1      42.352  27.343  28.977  1.00  0.00    -0.354 N 
ATOM     40  C   UNL A   1      42.397  28.468  33.310  1.00  0.00     0.074 A 
ATOM     41  C   UNL A   1      41.050  28.074  33.627  1.00  0.00     0.031 C 
ATOM     42  C   UNL A   1      41.280  27.021  27.051  1.00  0.00     0.029 A 
ATOM     43  C   UNL A   1      42.389  26.529  27.852  1.00  0.00     0.049 A 
ATOM     44  H   UNL A   1      43.070  27.359  29.651  1.00  0.00     0.167 HD
ATOM     45  C   UNL A   1      43.557  28.213  33.968  1.00  0.00     0.034 A 
ATOM     46  C   UNL A   1      43.214  25.467  27.662  1.00  0.00     0.034 A 
ATOM     47  C   UNL A   1      44.679  28.884  33.369  1.00  0.00     0.049 A 
ATOM     48  C   UNL A   1      44.376  25.661  28.570  1.00  0.00     0.074 A 
ATOM     49  C   UNL A   1      44.971  30.210  33.107  1.00  0.00     0.029 A 
ATOM     50  N   UNL A   1      45.525  28.154  32.568  1.00  0.00    -0.354 N 
ATOM     51  N   UNL A   1      45.222  26.651  28.466  1.00  0.00    -0.248 NA
ATOM     52  C   UNL A   1      44.344  25.013  29.873  1.00  0.00     0.031 C 
ATOM     53  C   UNL A   1      45.605  30.204  31.830  1.00  0.00     0.029 A 
ATOM     54  C   UNL A   1      45.715  28.877  31.413  1.00  0.00     0.049 A 
ATOM     55  H   UNL A   1      45.920  27.278  32.781  1.00  0.00     0.167 HD
ATOM     56  C   UNL A   1      45.514  27.016  29.772  1.00  0.00     0.074 A 
ATOM     57  C   UNL A   1      45.026  25.910  30.591  1.00  0.00     0.031 C 
ATOM     58  C   UNL A   1      45.872  28.294  30.092  1.00  0.00     0.034 A 
BRANCH  45  59
ATOM     59  C   UNL A   1      43.681  27.101  34.969  1.00  0.00     0.023 A 
ATOM     60  C   UNL A   1      44.048  27.408  36.286  1.00  0.00     0.031 A 
ATOM     61  C   UNL A   1      43.681  25.727  34.622  1.00  0.00     0.131 A 
ATOM     62  C   UNL A   1      44.396  26.383  37.184  1.00  0.00     0.055 A 
ATOM     63  C   UNL A   1      43.950  24.710  35.535  1.00  0.00     0.041 A 
ATOM     64  F   UNL A   1      43.511  25.310  33.360  1.00  0.00    -0.206 F 
ATOM     65  C   UNL A   1      44.327  25.036  36.825  1.00  0.00     0.022 A 
BRANCH  62  66
ATOM     66  S   UNL A   1      45.077  26.838  38.798  1.00  0.00     0.124 S 
ATOM     67  O   UNL A   1      45.511  28.211  38.562  1.00  0.00    -0.237 OA
ATOM     68  O   UNL A   1      43.921  26.670  39.672  1.00  0.00    -0.237 OA
ATOM     69  O   UNL A   1      46.153  25.870  38.998  1.00  0.00    -0.744 OA
ENDBRANCH  62  66
ENDBRANCH  45  59
BRANCH  46  70
ATOM     70  C   UNL A   1      42.886  24.164  27.014  1.00  0.00     0.023 A 
ATOM     71  C   UNL A   1      43.762  23.562  26.087  1.00  0.00     0.031 A 
ATOM     72  C   UNL A   1      41.818  23.363  27.481  1.00  0.00     0.131 A 
ATOM     73  C   UNL A   1      43.559  22.225  25.674  1.00  0.00     0.055 A 
ATOM     74  C   UNL A   1      41.613  22.047  27.057  1.00  0.00     0.041 A 
ATOM     75  F   UNL A   1      40.985  23.791  28.441  1.00  0.00    -0.206 F 
ATOM     76  C   UNL A   1      42.493  21.467  26.158  1.00  0.00     0.022 A 
BRANCH  73  77
ATOM     77  S   UNL A   1      44.775  21.400  24.599  1.00  0.00     0.124 S 
ATOM     78  O   UNL A   1      46.020  21.618  25.326  1.00  0.00    -0.237 OA
ATOM     79  O   UNL A   1      44.282  20.028  24.554  1.00  0.00    -0.237 OA
ATOM     80  O   UNL A   1      44.658  22.131  23.337  1.00  0.00    -0.744 OA
ENDBRANCH  73  77
ENDBRANCH  46  70
BRANCH  58  81
ATOM     81  C   UNL A   1      46.244  29.245  28.972  1.00  0.00     0.023 A 
ATOM     82  C   UNL A   1      45.341  30.118  28.322  1.00  0.00     0.031 A 
ATOM     83  C   UNL A   1      47.609  29.370  28.663  1.00  0.00     0.131 A 
ATOM     84  C   UNL A   1      45.823  31.069  27.398  1.00  0.00     0.055 A 
ATOM     85  C   UNL A   1      48.084  30.324  27.763  1.00  0.00     0.041 A 
ATOM     86  F   UNL A   1      48.518  28.590  29.273  1.00  0.00    -0.206 F 
ATOM     87  C   UNL A   1      47.191  31.177  27.127  1.00  0.00     0.022 A 
BRANCH  84  88
ATOM     88  S   UNL A   1      44.676  32.211  26.558  1.00  0.00     0.124 S 
ATOM     89  O   UNL A   1      44.198  33.060  27.643  1.00  0.00    -0.237 OA
ATOM     90  O   UNL A   1      45.533  32.856  25.567  1.00  0.00    -0.237 OA
ATOM     91  O   UNL A   1      43.661  31.321  25.991  1.00  0.00    -0.744 OA
ENDBRANCH  84  88
ENDBRANCH  58  81
ENDBRANCH  32  33
ENDBRANCH  25  27
ENDBRANCH  24  25
ENDBRANCH  23  24
ENDBRANCH   1  23
TORSDOF 19
ENDMDL
