MODEL 1
REMARK VINA RESULT:     -13.8      0.000      0.000
REMARK SMILES Cc1cccc(C(=O)Nc2ccc(C(=O)NNC(=O)c3ccccc3C(=O)OCCOC(=O)c3ccc(-c4c5nc(c(-c6cc(S(=O)(=O)[O-])ccc6F)c6ccc([nH]6)c(-c6cc(S(=O)(=O)[O-])ccc6F)c6nc(c(-c7cc(S(=O)(=O)[O-])ccc7F)c7ccc4[nH]7)C=C6)C=C5)cc3)cc2)c1
REMARK SMILES IDX 29 1 28 2 26 3 27 4 25 5 20 6 21 7 22 8 24 9 23 10 18 11
REMARK SMILES IDX 17 12 19 14 16 15 14 16 15 17 13 19 10 20 11 21 98 22 12 23
REMARK SMILES IDX 97 24 9 25 7 26 8 27 6 29 1 30 2 31 3 32 99 33 4 34 5 35
REMARK SMILES IDX 30 36 31 37 32 38 33 39 34 40 35 41 96 42 36 43 95 44 37 45
REMARK SMILES IDX 38 46 39 47 89 48 40 49 94 50 88 51 90 52 41 53 93 54 87 55
REMARK SMILES IDX 86 56 42 58 74 59 54 60 73 61 55 62 58 63 72 64 91 65 56 66
REMARK SMILES IDX 57 67 71 69 92 70 59 71 43 72 44 73 52 74 45 75 51 76 53 77
REMARK SMILES IDX 50 78 46 79 47 80 48 81 49 82 75 83 76 84 84 85 77 86 83 87
REMARK SMILES IDX 85 88 82 89 78 90 79 91 80 92 81 93 60 94 61 95 69 96 62 97
REMARK SMILES IDX 68 98 70 99 67 100 63 101 64 102 65 103 66 104
REMARK H PARENT 17 13 16 18 9 28 90 57 58 68
REMARK Flexibility Score: inf
ROOT
ATOM      1  C   UNL A   1      34.081  29.211  27.704  1.00  0.00     0.275 C 
ENDROOT
BRANCH   1   2
ATOM      2  O   UNL A   1      33.442  28.783  26.489  1.00  0.00    -0.458 OA
BRANCH   2   3
ATOM      3  C   UNL A   1      32.094  28.818  26.562  1.00  0.00     0.339 C 
ATOM      4  O   UNL A   1      31.433  28.851  27.578  1.00  0.00    -0.246 OA
BRANCH   3   5
ATOM      5  C   UNL A   1      31.434  28.635  25.277  1.00  0.00     0.072 A 
ATOM      6  C   UNL A   1      31.093  27.340  24.841  1.00  0.00     0.056 A 
ATOM      7  C   UNL A   1      30.221  27.242  23.740  1.00  0.00     0.015 A 
ATOM      8  C   UNL A   1      29.710  28.383  23.108  1.00  0.00     0.001 A 
ATOM      9  C   UNL A   1      30.946  29.784  24.627  1.00  0.00     0.016 A 
ATOM     10  C   UNL A   1      30.077  29.652  23.546  1.00  0.00     0.001 A 
BRANCH   6  11
ATOM     11  C   UNL A   1      31.454  26.042  25.527  1.00  0.00     0.270 C 
ATOM     12  N   UNL A   1      32.739  25.507  25.424  1.00  0.00    -0.263 N 
ATOM     13  H   UNL A   1      33.306  25.660  24.634  1.00  0.00     0.191 HD
ATOM     14  O   UNL A   1      30.595  25.482  26.212  1.00  0.00    -0.267 OA
BRANCH  12  15
ATOM     15  N   UNL A   1      33.181  24.727  26.533  1.00  0.00    -0.263 N 
ATOM     16  C   UNL A   1      33.946  23.580  26.358  1.00  0.00     0.269 C 
ATOM     17  O   UNL A   1      34.938  23.379  27.051  1.00  0.00    -0.267 OA
ATOM     18  H   UNL A   1      32.937  25.007  27.445  1.00  0.00     0.191 HD
BRANCH  16  19
ATOM     19  C   UNL A   1      33.513  22.522  25.401  1.00  0.00     0.041 A 
ATOM     20  C   UNL A   1      32.483  20.596  23.624  1.00  0.00     0.041 A 
ATOM     21  C   UNL A   1      33.127  21.736  23.137  1.00  0.00     0.027 A 
ATOM     22  C   UNL A   1      32.290  20.455  25.000  1.00  0.00     0.027 A 
ATOM     23  C   UNL A   1      33.642  22.693  24.020  1.00  0.00     0.016 A 
ATOM     24  C   UNL A   1      32.816  21.404  25.886  1.00  0.00     0.016 A 
BRANCH  20  25
ATOM     25  N   UNL A   1      31.977  19.590  22.783  1.00  0.00    -0.322 N 
ATOM     26  C   UNL A   1      32.372  18.286  22.573  1.00  0.00     0.255 C 
ATOM     27  O   UNL A   1      32.055  17.737  21.515  1.00  0.00    -0.269 OA
ATOM     28  H   UNL A   1      31.201  19.868  22.246  1.00  0.00     0.170 HD
BRANCH  26  29
ATOM     29  C   UNL A   1      33.058  17.463  23.622  1.00  0.00     0.040 A 
ATOM     30  C   UNL A   1      32.412  14.741  26.224  1.00  0.00     0.044 C 
ATOM     31  C   UNL A   1      33.120  15.722  25.340  1.00  0.00    -0.050 A 
ATOM     32  C   UNL A   1      34.495  15.906  25.478  1.00  0.00     0.003 A 
ATOM     33  C   UNL A   1      32.423  16.457  24.364  1.00  0.00     0.017 A 
ATOM     34  C   UNL A   1      35.154  16.850  24.697  1.00  0.00     0.001 A 
ATOM     35  C   UNL A   1      34.439  17.637  23.791  1.00  0.00     0.014 A 
ENDBRANCH  26  29
ENDBRANCH  20  25
ENDBRANCH  16  19
ENDBRANCH  12  15
ENDBRANCH   6  11
ENDBRANCH   3   5
ENDBRANCH   2   3
ENDBRANCH   1   2
BRANCH   1  36
ATOM     36  C   UNL A   1      34.994  30.415  27.469  1.00  0.00     0.275 C 
BRANCH  36  37
ATOM     37  O   UNL A   1      35.706  30.927  28.637  1.00  0.00    -0.458 OA
BRANCH  37  38
ATOM     38  C   UNL A   1      36.597  30.357  29.489  1.00  0.00     0.338 C 
ATOM     39  O   UNL A   1      36.457  30.485  30.702  1.00  0.00    -0.246 OA
BRANCH  38  40
ATOM     40  C   UNL A   1      37.645  29.444  28.983  1.00  0.00     0.060 A 
ATOM     41  C   UNL A   1      38.227  29.631  27.713  1.00  0.00     0.016 A 
ATOM     42  C   UNL A   1      38.127  28.442  29.792  1.00  0.00     0.016 A 
ATOM     43  C   UNL A   1      39.352  28.875  27.326  1.00  0.00     0.010 A 
ATOM     44  C   UNL A   1      39.363  27.908  29.525  1.00  0.00     0.010 A 
ATOM     45  C   UNL A   1      39.952  28.027  28.262  1.00  0.00    -0.014 A 
BRANCH  45  46
ATOM     46  C   UNL A   1      41.038  27.063  28.023  1.00  0.00     0.031 A 
ATOM     47  C   UNL A   1      40.922  25.598  28.113  1.00  0.00     0.074 A 
ATOM     48  C   UNL A   1      42.238  27.588  27.664  1.00  0.00     0.049 A 
ATOM     49  N   UNL A   1      41.875  24.826  28.518  1.00  0.00    -0.248 NA
ATOM     50  C   UNL A   1      39.746  24.860  27.689  1.00  0.00     0.031 C 
ATOM     51  C   UNL A   1      43.500  26.940  27.366  1.00  0.00     0.029 A 
ATOM     52  N   UNL A   1      42.591  28.937  27.674  1.00  0.00    -0.354 N 
ATOM     53  C   UNL A   1      41.626  23.558  28.024  1.00  0.00     0.074 A 
ATOM     54  C   UNL A   1      40.228  23.609  27.643  1.00  0.00     0.031 C 
ATOM     55  C   UNL A   1      44.488  27.823  27.624  1.00  0.00     0.029 A 
ATOM     56  C   UNL A   1      43.885  29.037  28.159  1.00  0.00     0.049 A 
ATOM     57  H   UNL A   1      42.021  29.687  27.388  1.00  0.00     0.167 HD
ATOM     58  C   UNL A   1      42.681  22.691  27.870  1.00  0.00     0.034 A 
ATOM     59  C   UNL A   1      44.054  29.636  29.377  1.00  0.00     0.034 A 
ATOM     60  C   UNL A   1      43.926  23.280  28.408  1.00  0.00     0.049 A 
ATOM     61  C   UNL A   1      44.412  28.583  30.424  1.00  0.00     0.074 A 
ATOM     62  C   UNL A   1      45.113  23.755  27.874  1.00  0.00     0.029 A 
ATOM     63  N   UNL A   1      43.932  23.697  29.727  1.00  0.00    -0.354 N 
ATOM     64  N   UNL A   1      44.852  27.379  30.154  1.00  0.00    -0.248 NA
ATOM     65  C   UNL A   1      44.166  28.766  31.853  1.00  0.00     0.031 C 
ATOM     66  C   UNL A   1      45.748  24.578  28.867  1.00  0.00     0.029 A 
ATOM     67  C   UNL A   1      44.976  24.554  30.016  1.00  0.00     0.049 A 
ATOM     68  H   UNL A   1      43.263  23.411  30.390  1.00  0.00     0.167 HD
ATOM     69  C   UNL A   1      44.761  26.599  31.281  1.00  0.00     0.074 A 
ATOM     70  C   UNL A   1      44.339  27.523  32.322  1.00  0.00     0.031 C 
ATOM     71  C   UNL A   1      44.944  25.241  31.306  1.00  0.00     0.034 A 
BRANCH  58  72
ATOM     72  C   UNL A   1      42.697  21.374  27.088  1.00  0.00     0.023 A 
ATOM     73  C   UNL A   1      43.765  21.117  26.189  1.00  0.00     0.031 A 
ATOM     74  C   UNL A   1      41.729  20.352  27.139  1.00  0.00     0.131 A 
ATOM     75  C   UNL A   1      43.804  19.962  25.375  1.00  0.00     0.055 A 
ATOM     76  C   UNL A   1      41.755  19.211  26.317  1.00  0.00     0.041 A 
ATOM     77  F   UNL A   1      40.718  20.362  28.009  1.00  0.00    -0.206 F 
ATOM     78  C   UNL A   1      42.791  19.014  25.422  1.00  0.00     0.022 A 
BRANCH  75  79
ATOM     79  S   UNL A   1      45.204  19.704  24.245  1.00  0.00     0.124 S 
ATOM     80  O   UNL A   1      45.878  20.997  24.281  1.00  0.00    -0.237 OA
ATOM     81  O   UNL A   1      45.906  18.589  24.870  1.00  0.00    -0.237 OA
ATOM     82  O   UNL A   1      44.560  19.383  22.971  1.00  0.00    -0.744 OA
ENDBRANCH  75  79
ENDBRANCH  58  72
BRANCH  59  83
ATOM     83  C   UNL A   1      43.134  30.840  29.564  1.00  0.00     0.023 A 
ATOM     84  C   UNL A   1      42.034  30.669  30.451  1.00  0.00     0.031 A 
ATOM     85  C   UNL A   1      43.485  32.170  29.260  1.00  0.00     0.131 A 
ATOM     86  C   UNL A   1      41.437  31.775  31.088  1.00  0.00     0.055 A 
ATOM     87  C   UNL A   1      42.808  33.270  29.811  1.00  0.00     0.041 A 
ATOM     88  F   UNL A   1      44.578  32.459  28.543  1.00  0.00    -0.206 F 
ATOM     89  C   UNL A   1      41.804  33.077  30.755  1.00  0.00     0.022 A 
BRANCH  86  90
ATOM     90  S   UNL A   1      40.423  31.539  32.588  1.00  0.00     0.124 S 
ATOM     91  O   UNL A   1      41.437  31.374  33.622  1.00  0.00    -0.237 OA
ATOM     92  O   UNL A   1      39.628  32.759  32.660  1.00  0.00    -0.237 OA
ATOM     93  O   UNL A   1      39.654  30.337  32.257  1.00  0.00    -0.744 OA
ENDBRANCH  86  90
ENDBRANCH  59  83
BRANCH  71  94
ATOM     94  C   UNL A   1      45.008  24.472  32.615  1.00  0.00     0.023 A 
ATOM     95  C   UNL A   1      45.988  24.775  33.577  1.00  0.00     0.031 A 
ATOM     96  C   UNL A   1      44.179  23.370  32.925  1.00  0.00     0.131 A 
ATOM     97  C   UNL A   1      46.033  24.112  34.813  1.00  0.00     0.055 A 
ATOM     98  C   UNL A   1      44.292  22.642  34.114  1.00  0.00     0.041 A 
ATOM     99  F   UNL A   1      43.201  22.954  32.110  1.00  0.00    -0.206 F 
ATOM    100  C   UNL A   1      45.209  23.024  35.079  1.00  0.00     0.022 A 
BRANCH  97 101
ATOM    101  S   UNL A   1      47.146  24.742  36.093  1.00  0.00     0.124 S 
ATOM    102  O   UNL A   1      48.392  24.034  35.817  1.00  0.00    -0.237 OA
ATOM    103  O   UNL A   1      47.153  26.173  35.796  1.00  0.00    -0.237 OA
ATOM    104  O   UNL A   1      46.482  24.368  37.338  1.00  0.00    -0.744 OA
ENDBRANCH  97 101
ENDBRANCH  71  94
ENDBRANCH  45  46
ENDBRANCH  38  40
ENDBRANCH  37  38
ENDBRANCH  36  37
ENDBRANCH   1  36
TORSDOF 19
ENDMDL
MODEL 2
REMARK VINA RESULT:     -13.6      1.844      2.373
REMARK SMILES Cc1cccc(C(=O)Nc2ccc(C(=O)NNC(=O)c3ccccc3C(=O)OCCOC(=O)c3ccc(-c4c5nc(c(-c6cc(S(=O)(=O)[O-])ccc6F)c6ccc([nH]6)c(-c6cc(S(=O)(=O)[O-])ccc6F)c6nc(c(-c7cc(S(=O)(=O)[O-])ccc7F)c7ccc4[nH]7)C=C6)C=C5)cc3)cc2)c1
REMARK SMILES IDX 29 1 28 2 26 3 27 4 25 5 20 6 21 7 22 8 24 9 23 10 18 11
REMARK SMILES IDX 17 12 19 14 16 15 14 16 15 17 13 19 10 20 11 21 98 22 12 23
REMARK SMILES IDX 97 24 9 25 7 26 8 27 6 29 1 30 2 31 3 32 99 33 4 34 5 35
REMARK SMILES IDX 30 36 31 37 32 38 33 39 34 40 35 41 96 42 36 43 95 44 37 45
REMARK SMILES IDX 38 46 39 47 89 48 40 49 94 50 88 51 90 52 41 53 93 54 87 55
REMARK SMILES IDX 86 56 42 58 74 59 54 60 73 61 55 62 58 63 72 64 91 65 56 66
REMARK SMILES IDX 57 67 71 69 92 70 59 71 43 72 44 73 52 74 45 75 51 76 53 77
REMARK SMILES IDX 50 78 46 79 47 80 48 81 49 82 75 83 76 84 84 85 77 86 83 87
REMARK SMILES IDX 85 88 82 89 78 90 79 91 80 92 81 93 60 94 61 95 69 96 62 97
REMARK SMILES IDX 68 98 70 99 67 100 63 101 64 102 65 103 66 104
REMARK H PARENT 17 13 16 18 9 28 90 57 58 68
REMARK Flexibility Score: inf
ROOT
ATOM      1  C   UNL A   1      33.827  28.566  27.163  1.00  0.00     0.275 C 
ENDROOT
BRANCH   1   2
ATOM      2  O   UNL A   1      33.085  28.133  26.010  1.00  0.00    -0.458 OA
BRANCH   2   3
ATOM      3  C   UNL A   1      31.749  28.168  26.199  1.00  0.00     0.339 C 
ATOM      4  O   UNL A   1      31.160  27.846  27.209  1.00  0.00    -0.246 OA
BRANCH   3   5
ATOM      5  C   UNL A   1      30.994  28.475  24.992  1.00  0.00     0.072 A 
ATOM      6  C   UNL A   1      30.213  27.476  24.379  1.00  0.00     0.056 A 
ATOM      7  C   UNL A   1      29.298  27.890  23.392  1.00  0.00     0.015 A 
ATOM      8  C   UNL A   1      29.166  29.239  23.038  1.00  0.00     0.001 A 
ATOM      9  C   UNL A   1      30.886  29.827  24.619  1.00  0.00     0.016 A 
ATOM     10  C   UNL A   1      29.964  30.206  23.645  1.00  0.00     0.001 A 
BRANCH   6  11
ATOM     11  C   UNL A   1      30.154  26.017  24.777  1.00  0.00     0.270 C 
ATOM     12  N   UNL A   1      30.105  25.641  26.120  1.00  0.00    -0.263 N 
ATOM     13  H   UNL A   1      30.513  26.186  26.831  1.00  0.00     0.191 HD
ATOM     14  O   UNL A   1      30.114  25.168  23.886  1.00  0.00    -0.267 OA
BRANCH  12  15
ATOM     15  N   UNL A   1      29.426  24.418  26.400  1.00  0.00    -0.263 N 
ATOM     16  C   UNL A   1      30.058  23.366  27.053  1.00  0.00     0.269 C 
ATOM     17  O   UNL A   1      29.498  22.772  27.968  1.00  0.00    -0.267 OA
ATOM     18  H   UNL A   1      28.486  24.316  26.124  1.00  0.00     0.191 HD
BRANCH  16  19
ATOM     19  C   UNL A   1      31.382  22.872  26.580  1.00  0.00     0.041 A 
ATOM     20  C   UNL A   1      33.919  22.142  25.596  1.00  0.00     0.041 A 
ATOM     21  C   UNL A   1      33.741  22.434  26.951  1.00  0.00     0.027 A 
ATOM     22  C   UNL A   1      32.840  22.286  24.719  1.00  0.00     0.027 A 
ATOM     23  C   UNL A   1      32.480  22.794  27.441  1.00  0.00     0.016 A 
ATOM     24  C   UNL A   1      31.576  22.634  25.210  1.00  0.00     0.016 A 
BRANCH  20  25
ATOM     25  N   UNL A   1      35.154  21.745  25.058  1.00  0.00    -0.322 N 
ATOM     26  C   UNL A   1      35.723  20.500  24.889  1.00  0.00     0.255 C 
ATOM     27  O   UNL A   1      36.950  20.422  24.788  1.00  0.00    -0.269 OA
ATOM     28  H   UNL A   1      35.716  22.490  24.747  1.00  0.00     0.170 HD
BRANCH  26  29
ATOM     29  C   UNL A   1      34.913  19.253  24.696  1.00  0.00     0.040 A 
ATOM     30  C   UNL A   1      35.098  15.452  25.027  1.00  0.00     0.044 C 
ATOM     31  C   UNL A   1      34.564  16.834  24.808  1.00  0.00    -0.050 A 
ATOM     32  C   UNL A   1      33.242  17.006  24.399  1.00  0.00     0.003 A 
ATOM     33  C   UNL A   1      35.370  17.967  25.018  1.00  0.00     0.017 A 
ATOM     34  C   UNL A   1      32.750  18.281  24.144  1.00  0.00     0.001 A 
ATOM     35  C   UNL A   1      33.584  19.395  24.272  1.00  0.00     0.014 A 
ENDBRANCH  26  29
ENDBRANCH  20  25
ENDBRANCH  16  19
ENDBRANCH  12  15
ENDBRANCH   6  11
ENDBRANCH   3   5
ENDBRANCH   2   3
ENDBRANCH   1   2
BRANCH   1  36
ATOM     36  C   UNL A   1      34.074  30.075  27.143  1.00  0.00     0.275 C 
BRANCH  36  37
ATOM     37  O   UNL A   1      34.552  30.671  28.387  1.00  0.00    -0.458 OA
BRANCH  37  38
ATOM     38  C   UNL A   1      35.798  30.949  28.850  1.00  0.00     0.338 C 
ATOM     39  O   UNL A   1      35.967  31.859  29.658  1.00  0.00    -0.246 OA
BRANCH  38  40
ATOM     40  C   UNL A   1      36.939  30.066  28.520  1.00  0.00     0.060 A 
ATOM     41  C   UNL A   1      37.604  30.164  27.281  1.00  0.00     0.016 A 
ATOM     42  C   UNL A   1      37.418  29.189  29.464  1.00  0.00     0.016 A 
ATOM     43  C   UNL A   1      38.802  29.454  27.059  1.00  0.00     0.010 A 
ATOM     44  C   UNL A   1      38.703  28.720  29.343  1.00  0.00     0.010 A 
ATOM     45  C   UNL A   1      39.380  28.751  28.119  1.00  0.00    -0.014 A 
BRANCH  45  46
ATOM     46  C   UNL A   1      40.540  27.847  28.063  1.00  0.00     0.031 A 
ATOM     47  C   UNL A   1      40.489  26.378  28.134  1.00  0.00     0.074 A 
ATOM     48  C   UNL A   1      41.753  28.438  27.905  1.00  0.00     0.049 A 
ATOM     49  N   UNL A   1      41.402  25.653  28.690  1.00  0.00    -0.248 NA
ATOM     50  C   UNL A   1      39.439  25.582  27.523  1.00  0.00     0.031 C 
ATOM     51  C   UNL A   1      43.080  27.860  27.819  1.00  0.00     0.029 A 
ATOM     52  N   UNL A   1      42.027  29.804  27.973  1.00  0.00    -0.354 N 
ATOM     53  C   UNL A   1      41.305  24.378  28.162  1.00  0.00     0.074 A 
ATOM     54  C   UNL A   1      39.989  24.359  27.557  1.00  0.00     0.031 C 
ATOM     55  C   UNL A   1      43.963  28.791  28.235  1.00  0.00     0.029 A 
ATOM     56  C   UNL A   1      43.217  29.967  28.663  1.00  0.00     0.049 A 
ATOM     57  H   UNL A   1      41.473  30.525  27.597  1.00  0.00     0.167 HD
ATOM     58  C   UNL A   1      42.416  23.569  28.184  1.00  0.00     0.034 A 
ATOM     59  C   UNL A   1      43.152  30.565  29.892  1.00  0.00     0.034 A 
ATOM     60  C   UNL A   1      43.523  24.219  28.919  1.00  0.00     0.049 A 
ATOM     61  C   UNL A   1      43.389  29.523  30.984  1.00  0.00     0.074 A 
ATOM     62  C   UNL A   1      44.755  24.760  28.586  1.00  0.00     0.029 A 
ATOM     63  N   UNL A   1      43.290  24.624  30.221  1.00  0.00    -0.354 N 
ATOM     64  N   UNL A   1      43.931  28.346  30.791  1.00  0.00    -0.248 NA
ATOM     65  C   UNL A   1      42.902  29.681  32.354  1.00  0.00     0.031 C 
ATOM     66  C   UNL A   1      45.173  25.607  29.669  1.00  0.00     0.029 A 
ATOM     67  C   UNL A   1      44.226  25.534  30.677  1.00  0.00     0.049 A 
ATOM     68  H   UNL A   1      42.538  24.299  30.765  1.00  0.00     0.167 HD
ATOM     69  C   UNL A   1      43.698  27.554  31.888  1.00  0.00     0.074 A 
ATOM     70  C   UNL A   1      43.062  28.445  32.845  1.00  0.00     0.031 C 
ATOM     71  C   UNL A   1      43.947  26.207  31.944  1.00  0.00     0.034 A 
BRANCH  58  72
ATOM     72  C   UNL A   1      42.631  22.262  27.416  1.00  0.00     0.023 A 
ATOM     73  C   UNL A   1      43.653  22.196  26.434  1.00  0.00     0.031 A 
ATOM     74  C   UNL A   1      41.891  21.070  27.557  1.00  0.00     0.131 A 
ATOM     75  C   UNL A   1      43.856  21.051  25.631  1.00  0.00     0.055 A 
ATOM     76  C   UNL A   1      42.077  19.936  26.747  1.00  0.00     0.041 A 
ATOM     77  F   UNL A   1      40.970  20.904  28.508  1.00  0.00    -0.206 F 
ATOM     78  C   UNL A   1      43.057  19.923  25.771  1.00  0.00     0.022 A 
BRANCH  75  79
ATOM     79  S   UNL A   1      45.184  21.044  24.391  1.00  0.00     0.124 S 
ATOM     80  O   UNL A   1      46.364  20.752  25.197  1.00  0.00    -0.237 OA
ATOM     81  O   UNL A   1      44.749  19.997  23.474  1.00  0.00    -0.237 OA
ATOM     82  O   UNL A   1      45.141  22.398  23.837  1.00  0.00    -0.744 OA
ENDBRANCH  75  79
ENDBRANCH  58  72
BRANCH  59  83
ATOM     83  C   UNL A   1      42.151  31.717  29.925  1.00  0.00     0.023 A 
ATOM     84  C   UNL A   1      40.934  31.483  30.626  1.00  0.00     0.031 A 
ATOM     85  C   UNL A   1      42.474  33.065  29.676  1.00  0.00     0.131 A 
ATOM     86  C   UNL A   1      40.184  32.552  31.154  1.00  0.00     0.055 A 
ATOM     87  C   UNL A   1      41.660  34.125  30.107  1.00  0.00     0.041 A 
ATOM     88  F   UNL A   1      43.651  33.415  29.142  1.00  0.00    -0.206 F 
ATOM     89  C   UNL A   1      40.530  33.874  30.879  1.00  0.00     0.022 A 
BRANCH  86  90
ATOM     90  S   UNL A   1      38.958  32.256  32.473  1.00  0.00     0.124 S 
ATOM     91  O   UNL A   1      38.669  30.836  32.312  1.00  0.00    -0.237 OA
ATOM     92  O   UNL A   1      39.666  32.630  33.691  1.00  0.00    -0.237 OA
ATOM     93  O   UNL A   1      37.875  33.169  32.102  1.00  0.00    -0.744 OA
ENDBRANCH  86  90
ENDBRANCH  59  83
BRANCH  71  94
ATOM     94  C   UNL A   1      43.836  25.432  33.246  1.00  0.00     0.023 A 
ATOM     95  C   UNL A   1      43.168  25.983  34.353  1.00  0.00     0.031 A 
ATOM     96  C   UNL A   1      44.449  24.179  33.474  1.00  0.00     0.131 A 
ATOM     97  C   UNL A   1      43.010  25.265  35.548  1.00  0.00     0.055 A 
ATOM     98  C   UNL A   1      44.380  23.508  34.699  1.00  0.00     0.041 A 
ATOM     99  F   UNL A   1      45.126  23.525  32.521  1.00  0.00    -0.206 F 
ATOM    100  C   UNL A   1      43.638  24.039  35.742  1.00  0.00     0.022 A 
BRANCH  97 101
ATOM    101  S   UNL A   1      41.913  25.934  36.822  1.00  0.00     0.124 S 
ATOM    102  O   UNL A   1      41.031  24.808  37.115  1.00  0.00    -0.237 OA
ATOM    103  O   UNL A   1      42.865  26.282  37.874  1.00  0.00    -0.237 OA
ATOM    104  O   UNL A   1      41.273  27.068  36.161  1.00  0.00    -0.744 OA
ENDBRANCH  97 101
ENDBRANCH  71  94
ENDBRANCH  45  46
ENDBRANCH  38  40
ENDBRANCH  37  38
ENDBRANCH  36  37
ENDBRANCH   1  36
TORSDOF 19
ENDMDL
MODEL 3
REMARK VINA RESULT:     -13.6      2.113      3.133
REMARK SMILES Cc1cccc(C(=O)Nc2ccc(C(=O)NNC(=O)c3ccccc3C(=O)OCCOC(=O)c3ccc(-c4c5nc(c(-c6cc(S(=O)(=O)[O-])ccc6F)c6ccc([nH]6)c(-c6cc(S(=O)(=O)[O-])ccc6F)c6nc(c(-c7cc(S(=O)(=O)[O-])ccc7F)c7ccc4[nH]7)C=C6)C=C5)cc3)cc2)c1
REMARK SMILES IDX 29 1 28 2 26 3 27 4 25 5 20 6 21 7 22 8 24 9 23 10 18 11
REMARK SMILES IDX 17 12 19 14 16 15 14 16 15 17 13 19 10 20 11 21 98 22 12 23
REMARK SMILES IDX 97 24 9 25 7 26 8 27 6 29 1 30 2 31 3 32 99 33 4 34 5 35
REMARK SMILES IDX 30 36 31 37 32 38 33 39 34 40 35 41 96 42 36 43 95 44 37 45
REMARK SMILES IDX 38 46 39 47 89 48 40 49 94 50 88 51 90 52 41 53 93 54 87 55
REMARK SMILES IDX 86 56 42 58 74 59 54 60 73 61 55 62 58 63 72 64 91 65 56 66
REMARK SMILES IDX 57 67 71 69 92 70 59 71 43 72 44 73 52 74 45 75 51 76 53 77
REMARK SMILES IDX 50 78 46 79 47 80 48 81 49 82 75 83 76 84 84 85 77 86 83 87
REMARK SMILES IDX 85 88 82 89 78 90 79 91 80 92 81 93 60 94 61 95 69 96 62 97
REMARK SMILES IDX 68 98 70 99 67 100 63 101 64 102 65 103 66 104
REMARK H PARENT 17 13 16 18 9 28 90 57 58 68
REMARK Flexibility Score: inf
ROOT
ATOM      1  C   UNL A   1      33.806  28.962  26.003  1.00  0.00     0.275 C 
ENDROOT
BRANCH   1   2
ATOM      2  O   UNL A   1      32.907  29.634  25.104  1.00  0.00    -0.458 OA
BRANCH   2   3
ATOM      3  C   UNL A   1      31.608  29.398  25.384  1.00  0.00     0.339 C 
ATOM      4  O   UNL A   1      31.183  28.723  26.297  1.00  0.00    -0.246 OA
BRANCH   3   5
ATOM      5  C   UNL A   1      30.691  29.896  24.367  1.00  0.00     0.072 A 
ATOM      6  C   UNL A   1      30.269  29.046  23.326  1.00  0.00     0.056 A 
ATOM      7  C   UNL A   1      29.184  29.480  22.541  1.00  0.00     0.015 A 
ATOM      8  C   UNL A   1      28.547  30.703  22.788  1.00  0.00     0.001 A 
ATOM      9  C   UNL A   1      30.073  31.138  24.600  1.00  0.00     0.016 A 
ATOM     10  C   UNL A   1      28.995  31.535  23.811  1.00  0.00     0.001 A 
BRANCH   6  11
ATOM     11  C   UNL A   1      30.771  27.644  23.057  1.00  0.00     0.270 C 
ATOM     12  N   UNL A   1      30.158  26.537  23.644  1.00  0.00    -0.263 N 
ATOM     13  H   UNL A   1      29.708  26.590  24.518  1.00  0.00     0.191 HD
ATOM     14  O   UNL A   1      31.715  27.500  22.278  1.00  0.00    -0.267 OA
BRANCH  12  15
ATOM     15  N   UNL A   1      30.222  25.322  22.899  1.00  0.00    -0.263 N 
ATOM     16  C   UNL A   1      30.900  24.208  23.379  1.00  0.00     0.269 C 
ATOM     17  O   UNL A   1      30.390  23.093  23.322  1.00  0.00    -0.267 OA
ATOM     18  H   UNL A   1      29.774  25.271  22.024  1.00  0.00     0.191 HD
BRANCH  16  19
ATOM     19  C   UNL A   1      32.302  24.332  23.870  1.00  0.00     0.041 A 
ATOM     20  C   UNL A   1      34.939  24.349  24.860  1.00  0.00     0.041 A 
ATOM     21  C   UNL A   1      34.698  24.288  23.485  1.00  0.00     0.027 A 
ATOM     22  C   UNL A   1      33.857  24.328  25.744  1.00  0.00     0.027 A 
ATOM     23  C   UNL A   1      33.388  24.282  22.991  1.00  0.00     0.016 A 
ATOM     24  C   UNL A   1      32.546  24.336  25.252  1.00  0.00     0.016 A 
BRANCH  20  25
ATOM     25  N   UNL A   1      36.232  24.390  25.405  1.00  0.00    -0.322 N 
ATOM     26  C   UNL A   1      37.026  23.408  25.960  1.00  0.00     0.255 C 
ATOM     27  O   UNL A   1      37.927  23.744  26.731  1.00  0.00    -0.269 OA
ATOM     28  H   UNL A   1      36.647  25.283  25.390  1.00  0.00     0.170 HD
BRANCH  26  29
ATOM     29  C   UNL A   1      36.925  21.964  25.571  1.00  0.00     0.040 A 
ATOM     30  C   UNL A   1      34.390  19.230  24.737  1.00  0.00     0.044 C 
ATOM     31  C   UNL A   1      35.688  19.955  24.922  1.00  0.00    -0.050 A 
ATOM     32  C   UNL A   1      36.891  19.276  24.733  1.00  0.00     0.003 A 
ATOM     33  C   UNL A   1      35.718  21.316  25.276  1.00  0.00     0.017 A 
ATOM     34  C   UNL A   1      38.101  19.924  24.950  1.00  0.00     0.001 A 
ATOM     35  C   UNL A   1      38.119  21.251  25.386  1.00  0.00     0.014 A 
ENDBRANCH  26  29
ENDBRANCH  20  25
ENDBRANCH  16  19
ENDBRANCH  12  15
ENDBRANCH   6  11
ENDBRANCH   3   5
ENDBRANCH   2   3
ENDBRANCH   1   2
BRANCH   1  36
ATOM     36  C   UNL A   1      34.285  29.888  27.122  1.00  0.00     0.275 C 
BRANCH  36  37
ATOM     37  O   UNL A   1      35.306  29.351  28.016  1.00  0.00    -0.458 OA
BRANCH  37  38
ATOM     38  C   UNL A   1      36.297  29.941  28.734  1.00  0.00     0.338 C 
ATOM     39  O   UNL A   1      36.045  30.900  29.459  1.00  0.00    -0.246 OA
BRANCH  38  40
ATOM     40  C   UNL A   1      37.649  29.343  28.784  1.00  0.00     0.060 A 
ATOM     41  C   UNL A   1      38.005  28.423  29.791  1.00  0.00     0.016 A 
ATOM     42  C   UNL A   1      38.555  29.618  27.787  1.00  0.00     0.016 A 
ATOM     43  C   UNL A   1      39.224  27.719  29.714  1.00  0.00     0.010 A 
ATOM     44  C   UNL A   1      39.597  28.750  27.577  1.00  0.00     0.010 A 
ATOM     45  C   UNL A   1      40.014  27.857  28.570  1.00  0.00    -0.014 A 
BRANCH  45  46
ATOM     46  C   UNL A   1      41.369  27.323  28.352  1.00  0.00     0.031 A 
ATOM     47  C   UNL A   1      41.698  25.932  27.998  1.00  0.00     0.074 A 
ATOM     48  C   UNL A   1      42.388  28.213  28.465  1.00  0.00     0.049 A 
ATOM     49  N   UNL A   1      42.765  25.323  28.396  1.00  0.00    -0.248 NA
ATOM     50  C   UNL A   1      40.891  25.120  27.105  1.00  0.00     0.031 C 
ATOM     51  C   UNL A   1      43.820  28.029  28.324  1.00  0.00     0.029 A 
ATOM     52  N   UNL A   1      42.301  29.521  28.939  1.00  0.00    -0.354 N 
ATOM     53  C   UNL A   1      43.002  24.277  27.522  1.00  0.00     0.074 A 
ATOM     54  C   UNL A   1      41.737  24.115  26.834  1.00  0.00     0.031 C 
ATOM     55  C   UNL A   1      44.432  28.983  29.055  1.00  0.00     0.029 A 
ATOM     56  C   UNL A   1      43.406  29.760  29.739  1.00  0.00     0.049 A 
ATOM     57  H   UNL A   1      41.581  30.162  28.740  1.00  0.00     0.167 HD
ATOM     58  C   UNL A   1      44.283  23.796  27.402  1.00  0.00     0.034 A 
ATOM     59  C   UNL A   1      43.185  29.934  31.078  1.00  0.00     0.034 A 
ATOM     60  C   UNL A   1      45.183  24.451  28.376  1.00  0.00     0.049 A 
ATOM     61  C   UNL A   1      43.679  28.708  31.844  1.00  0.00     0.074 A 
ATOM     62  C   UNL A   1      46.234  25.351  28.310  1.00  0.00     0.029 A 
ATOM     63  N   UNL A   1      44.849  24.384  29.716  1.00  0.00    -0.354 N 
ATOM     64  N   UNL A   1      44.506  27.811  31.369  1.00  0.00    -0.248 NA
ATOM     65  C   UNL A   1      43.163  28.331  33.160  1.00  0.00     0.031 C 
ATOM     66  C   UNL A   1      46.417  25.916  29.618  1.00  0.00     0.029 A 
ATOM     67  C   UNL A   1      45.516  25.319  30.485  1.00  0.00     0.049 A 
ATOM     68  H   UNL A   1      44.203  23.739  30.084  1.00  0.00     0.167 HD
ATOM     69  C   UNL A   1      44.481  26.698  32.174  1.00  0.00     0.074 A 
ATOM     70  C   UNL A   1      43.633  27.084  33.291  1.00  0.00     0.031 C 
ATOM     71  C   UNL A   1      45.069  25.499  31.864  1.00  0.00     0.034 A 
BRANCH  58  72
ATOM     72  C   UNL A   1      44.830  22.867  26.313  1.00  0.00     0.023 A 
ATOM     73  C   UNL A   1      44.253  21.582  26.147  1.00  0.00     0.031 A 
ATOM     74  C   UNL A   1      45.897  23.138  25.433  1.00  0.00     0.131 A 
ATOM     75  C   UNL A   1      44.758  20.642  25.219  1.00  0.00     0.055 A 
ATOM     76  C   UNL A   1      46.414  22.199  24.522  1.00  0.00     0.041 A 
ATOM     77  F   UNL A   1      46.485  24.334  25.362  1.00  0.00    -0.206 F 
ATOM     78  C   UNL A   1      45.851  20.940  24.416  1.00  0.00     0.022 A 
BRANCH  75  79
ATOM     79  S   UNL A   1      43.966  19.014  25.065  1.00  0.00     0.124 S 
ATOM     80  O   UNL A   1      44.455  18.548  23.773  1.00  0.00    -0.237 OA
ATOM     81  O   UNL A   1      44.469  18.312  26.240  1.00  0.00    -0.237 OA
ATOM     82  O   UNL A   1      42.536  19.324  25.105  1.00  0.00    -0.744 OA
ENDBRANCH  75  79
ENDBRANCH  58  72
BRANCH  59  83
ATOM     83  C   UNL A   1      41.921  30.743  31.357  1.00  0.00     0.023 A 
ATOM     84  C   UNL A   1      40.766  30.006  31.745  1.00  0.00     0.031 A 
ATOM     85  C   UNL A   1      41.900  32.122  31.639  1.00  0.00     0.131 A 
ATOM     86  C   UNL A   1      39.737  30.611  32.492  1.00  0.00     0.055 A 
ATOM     87  C   UNL A   1      40.816  32.741  32.284  1.00  0.00     0.041 A 
ATOM     88  F   UNL A   1      42.976  32.894  31.441  1.00  0.00    -0.206 F 
ATOM     89  C   UNL A   1      39.746  31.981  32.745  1.00  0.00     0.022 A 
BRANCH  86  90
ATOM     90  S   UNL A   1      38.552  29.586  33.429  1.00  0.00     0.124 S 
ATOM     91  O   UNL A   1      39.082  28.243  33.229  1.00  0.00    -0.237 OA
ATOM     92  O   UNL A   1      38.641  30.113  34.786  1.00  0.00    -0.237 OA
ATOM     93  O   UNL A   1      37.286  29.876  32.752  1.00  0.00    -0.744 OA
ENDBRANCH  86  90
ENDBRANCH  59  83
BRANCH  71  94
ATOM     94  C   UNL A   1      45.156  24.372  32.880  1.00  0.00     0.023 A 
ATOM     95  C   UNL A   1      46.185  24.350  33.838  1.00  0.00     0.031 A 
ATOM     96  C   UNL A   1      44.300  23.248  32.888  1.00  0.00     0.131 A 
ATOM     97  C   UNL A   1      46.255  23.346  34.817  1.00  0.00     0.055 A 
ATOM     98  C   UNL A   1      44.433  22.194  33.798  1.00  0.00     0.041 A 
ATOM     99  F   UNL A   1      43.275  23.117  32.035  1.00  0.00    -0.206 F 
ATOM    100  C   UNL A   1      45.403  22.248  34.787  1.00  0.00     0.022 A 
BRANCH  97 101
ATOM    101  S   UNL A   1      47.441  23.538  36.169  1.00  0.00     0.124 S 
ATOM    102  O   UNL A   1      48.530  22.649  35.775  1.00  0.00    -0.237 OA
ATOM    103  O   UNL A   1      47.736  24.967  36.099  1.00  0.00    -0.237 OA
ATOM    104  O   UNL A   1      46.689  23.114  37.347  1.00  0.00    -0.744 OA
ENDBRANCH  97 101
ENDBRANCH  71  94
ENDBRANCH  45  46
ENDBRANCH  38  40
ENDBRANCH  37  38
ENDBRANCH  36  37
ENDBRANCH   1  36
TORSDOF 19
ENDMDL
