MODEL 1
REMARK VINA RESULT:     -12.3      0.000      0.000
REMARK SMILES C=Cc1cc(Cl)cc2c1O[C@H](C(F)(F)F)C(C(=O)OCCOC(=O)c1ccc(-c3c4nc(c(-c5cc(S(=O)(=O)[O-])ccc5F)c5ccc([nH]5)c(-c5cc(S(=O)(=O)[O-])ccc5F)c5nc(c(-c6cc(S(=O)(=O)[O-])ccc6F)c6ccc3[nH]6)C=C5)C=C4)cc1)=C2
REMARK SMILES IDX 21 1 20 2 19 3 17 4 18 5 16 6 3 7 4 8 9 9 5 10 8 11 10 12
REMARK SMILES IDX 6 13 7 14 88 15 11 16 2 17 1 18 12 19 13 20 14 21 15 22
REMARK SMILES IDX 22 23 23 24 24 25 25 26 26 27 87 28 27 29 86 30 28 31 29 32
REMARK SMILES IDX 30 33 80 34 31 35 85 36 79 37 81 38 32 39 84 40 78 41 77 42
REMARK SMILES IDX 33 44 65 45 45 46 64 47 46 48 49 49 63 50 82 51 47 52 48 53
REMARK SMILES IDX 62 55 83 56 50 57 34 58 35 59 43 60 36 61 42 62 44 63 41 64
REMARK SMILES IDX 37 65 38 66 39 67 40 68 66 69 67 70 75 71 68 72 74 73 76 74
REMARK SMILES IDX 73 75 69 76 70 77 71 78 72 79 51 80 52 81 60 82 53 83 59 84
REMARK SMILES IDX 61 85 58 86 54 87 55 88 56 89 57 90
REMARK H PARENT 81 43 49 54
REMARK Flexibility Score: inf
ROOT
ATOM      1  C   UNL A   1      36.667  20.681  24.998  1.00  0.00     0.275 C 
ENDROOT
BRANCH   1   2
ATOM      2  C   UNL A   1      35.239  21.215  24.872  1.00  0.00     0.275 C 
BRANCH   2   3
ATOM      3  O   UNL A   1      35.197  22.660  24.927  1.00  0.00    -0.459 OA
BRANCH   3   4
ATOM      4  C   UNL A   1      35.045  23.288  23.737  1.00  0.00     0.338 C 
ATOM      5  O   UNL A   1      35.598  22.996  22.688  1.00  0.00    -0.246 OA
BRANCH   4   6
ATOM      6  C   UNL A   1      34.082  24.401  23.853  1.00  0.00     0.087 C 
ATOM      7  C   UNL A   1      31.210  27.412  24.450  1.00  0.00     0.018 A 
ATOM      8  C   UNL A   1      31.439  28.359  25.463  1.00  0.00     0.032 A 
ATOM      9  C   UNL A   1      32.174  26.412  24.214  1.00  0.00     0.135 A 
ATOM     10  C   UNL A   1      32.622  28.341  26.196  1.00  0.00     0.042 A 
ATOM     11  C   UNL A   1      33.346  26.395  24.973  1.00  0.00     0.019 A 
ATOM     12  O   UNL A   1      31.930  25.501  23.218  1.00  0.00    -0.475 OA
ATOM     13  Cl  UNL A   1      32.887  29.513  27.426  1.00  0.00    -0.084 Cl
ATOM     14  C   UNL A   1      33.581  27.368  25.952  1.00  0.00     0.032 A 
ATOM     15  C   UNL A   1      34.320  25.343  24.770  1.00  0.00     0.027 C 
ATOM     16  C   UNL A   1      32.819  24.361  23.046  1.00  0.00     0.316 C 
BRANCH   7  17
ATOM     17  C   UNL A   1      29.946  27.428  23.699  1.00  0.00     0.004 C 
ATOM     18  C   UNL A   1      29.681  28.292  22.711  1.00  0.00     0.009 C 
ENDBRANCH   7  17
BRANCH  16  19
ATOM     19  C   UNL A   1      32.025  23.076  23.333  1.00  0.00     0.430 C 
ATOM     20  F   UNL A   1      32.102  22.729  24.642  1.00  0.00    -0.167 F 
ATOM     21  F   UNL A   1      30.706  23.229  23.057  1.00  0.00    -0.167 F 
ATOM     22  F   UNL A   1      32.470  22.024  22.610  1.00  0.00    -0.167 F 
ENDBRANCH  16  19
ENDBRANCH   4   6
ENDBRANCH   3   4
ENDBRANCH   2   3
ENDBRANCH   1   2
BRANCH   1  23
ATOM     23  O   UNL A   1      37.597  21.755  25.220  1.00  0.00    -0.458 OA
BRANCH  23  24
ATOM     24  C   UNL A   1      38.739  21.398  25.853  1.00  0.00     0.338 C 
ATOM     25  O   UNL A   1      39.308  20.321  25.798  1.00  0.00    -0.246 OA
BRANCH  24  26
ATOM     26  C   UNL A   1      39.302  22.567  26.541  1.00  0.00     0.060 A 
ATOM     27  C   UNL A   1      40.382  22.464  27.408  1.00  0.00     0.016 A 
ATOM     28  C   UNL A   1      38.822  23.817  26.174  1.00  0.00     0.016 A 
ATOM     29  C   UNL A   1      40.962  23.640  27.904  1.00  0.00     0.010 A 
ATOM     30  C   UNL A   1      39.501  24.974  26.534  1.00  0.00     0.010 A 
ATOM     31  C   UNL A   1      40.559  24.912  27.441  1.00  0.00    -0.014 A 
BRANCH  31  32
ATOM     32  C   UNL A   1      41.238  26.164  27.891  1.00  0.00     0.031 A 
ATOM     33  C   UNL A   1      42.665  26.470  27.494  1.00  0.00     0.074 A 
ATOM     34  C   UNL A   1      40.578  27.017  28.703  1.00  0.00     0.049 A 
ATOM     35  N   UNL A   1      43.384  27.533  27.763  1.00  0.00    -0.248 NA
ATOM     36  C   UNL A   1      43.403  25.443  26.741  1.00  0.00     0.031 C 
ATOM     37  C   UNL A   1      39.249  26.777  29.267  1.00  0.00     0.029 A 
ATOM     38  N   UNL A   1      40.917  28.259  29.182  1.00  0.00    -0.354 N 
ATOM     39  C   UNL A   1      44.645  27.290  27.227  1.00  0.00     0.074 A 
ATOM     40  C   UNL A   1      44.628  25.947  26.704  1.00  0.00     0.031 C 
ATOM     41  C   UNL A   1      38.850  27.866  29.938  1.00  0.00     0.029 A 
ATOM     42  C   UNL A   1      39.913  28.868  29.901  1.00  0.00     0.049 A 
ATOM     43  H   UNL A   1      41.797  28.676  29.026  1.00  0.00     0.167 HD
ATOM     44  C   UNL A   1      45.704  28.130  27.126  1.00  0.00     0.034 A 
ATOM     45  C   UNL A   1      39.840  30.098  30.452  1.00  0.00     0.034 A 
ATOM     46  C   UNL A   1      45.686  29.489  27.599  1.00  0.00     0.049 A 
ATOM     47  C   UNL A   1      40.999  31.044  30.267  1.00  0.00     0.074 A 
ATOM     48  C   UNL A   1      46.670  30.451  27.467  1.00  0.00     0.029 A 
ATOM     49  N   UNL A   1      44.632  30.083  28.278  1.00  0.00    -0.354 N 
ATOM     50  N   UNL A   1      42.135  30.840  29.640  1.00  0.00    -0.248 NA
ATOM     51  C   UNL A   1      40.868  32.390  30.841  1.00  0.00     0.031 C 
ATOM     52  C   UNL A   1      46.237  31.607  28.116  1.00  0.00     0.029 A 
ATOM     53  C   UNL A   1      44.950  31.395  28.586  1.00  0.00     0.049 A 
ATOM     54  H   UNL A   1      43.784  29.638  28.506  1.00  0.00     0.167 HD
ATOM     55  C   UNL A   1      42.845  32.034  29.731  1.00  0.00     0.074 A 
ATOM     56  C   UNL A   1      41.995  32.967  30.442  1.00  0.00     0.031 C 
ATOM     57  C   UNL A   1      44.089  32.325  29.276  1.00  0.00     0.034 A 
BRANCH  44  58
ATOM     58  C   UNL A   1      46.953  27.648  26.419  1.00  0.00     0.023 A 
ATOM     59  C   UNL A   1      47.156  27.939  25.056  1.00  0.00     0.031 A 
ATOM     60  C   UNL A   1      47.866  26.785  27.054  1.00  0.00     0.131 A 
ATOM     61  C   UNL A   1      48.222  27.342  24.368  1.00  0.00     0.055 A 
ATOM     62  C   UNL A   1      48.956  26.237  26.378  1.00  0.00     0.041 A 
ATOM     63  F   UNL A   1      47.714  26.465  28.350  1.00  0.00    -0.206 F 
ATOM     64  C   UNL A   1      49.129  26.504  25.023  1.00  0.00     0.022 A 
BRANCH  61  65
ATOM     65  S   UNL A   1      48.432  27.566  22.580  1.00  0.00     0.124 S 
ATOM     66  O   UNL A   1      47.210  28.284  22.221  1.00  0.00    -0.237 OA
ATOM     67  O   UNL A   1      49.659  28.355  22.515  1.00  0.00    -0.237 OA
ATOM     68  O   UNL A   1      48.527  26.205  22.064  1.00  0.00    -0.744 OA
ENDBRANCH  61  65
ENDBRANCH  44  58
BRANCH  45  69
ATOM     69  C   UNL A   1      38.575  30.514  31.132  1.00  0.00     0.023 A 
ATOM     70  C   UNL A   1      37.523  31.107  30.410  1.00  0.00     0.031 A 
ATOM     71  C   UNL A   1      38.458  30.449  32.531  1.00  0.00     0.131 A 
ATOM     72  C   UNL A   1      36.441  31.678  31.095  1.00  0.00     0.055 A 
ATOM     73  C   UNL A   1      37.340  30.949  33.204  1.00  0.00     0.041 A 
ATOM     74  F   UNL A   1      39.442  29.912  33.269  1.00  0.00    -0.206 F 
ATOM     75  C   UNL A   1      36.334  31.586  32.486  1.00  0.00     0.022 A 
BRANCH  72  76
ATOM     76  S   UNL A   1      35.219  32.696  30.218  1.00  0.00     0.124 S 
ATOM     77  O   UNL A   1      34.256  32.991  31.274  1.00  0.00    -0.237 OA
ATOM     78  O   UNL A   1      36.036  33.824  29.775  1.00  0.00    -0.237 OA
ATOM     79  O   UNL A   1      34.743  31.820  29.153  1.00  0.00    -0.744 OA
ENDBRANCH  72  76
ENDBRANCH  45  69
BRANCH  57  80
ATOM     80  C   UNL A   1      44.647  33.708  29.513  1.00  0.00     0.023 A 
ATOM     81  C   UNL A   1      44.612  34.666  28.482  1.00  0.00     0.031 A 
ATOM     82  C   UNL A   1      45.369  34.012  30.681  1.00  0.00     0.131 A 
ATOM     83  C   UNL A   1      45.331  35.859  28.615  1.00  0.00     0.055 A 
ATOM     84  C   UNL A   1      46.040  35.226  30.829  1.00  0.00     0.041 A 
ATOM     85  F   UNL A   1      45.445  33.125  31.686  1.00  0.00    -0.206 F 
ATOM     86  C   UNL A   1      46.038  36.148  29.786  1.00  0.00     0.022 A 
BRANCH  83  87
ATOM     87  S   UNL A   1      45.467  37.028  27.233  1.00  0.00     0.124 S 
ATOM     88  O   UNL A   1      46.033  36.186  26.181  1.00  0.00    -0.237 OA
ATOM     89  O   UNL A   1      44.076  37.427  27.031  1.00  0.00    -0.237 OA
ATOM     90  O   UNL A   1      46.351  38.071  27.738  1.00  0.00    -0.744 OA
ENDBRANCH  83  87
ENDBRANCH  57  80
ENDBRANCH  31  32
ENDBRANCH  24  26
ENDBRANCH  23  24
ENDBRANCH   1  23
TORSDOF 16
ENDMDL
MODEL 2
REMARK VINA RESULT:     -12.1      4.999      9.985
REMARK SMILES C=Cc1cc(Cl)cc2c1O[C@H](C(F)(F)F)C(C(=O)OCCOC(=O)c1ccc(-c3c4nc(c(-c5cc(S(=O)(=O)[O-])ccc5F)c5ccc([nH]5)c(-c5cc(S(=O)(=O)[O-])ccc5F)c5nc(c(-c6cc(S(=O)(=O)[O-])ccc6F)c6ccc3[nH]6)C=C5)C=C4)cc1)=C2
REMARK SMILES IDX 21 1 20 2 19 3 17 4 18 5 16 6 3 7 4 8 9 9 5 10 8 11 10 12
REMARK SMILES IDX 6 13 7 14 88 15 11 16 2 17 1 18 12 19 13 20 14 21 15 22
REMARK SMILES IDX 22 23 23 24 24 25 25 26 26 27 87 28 27 29 86 30 28 31 29 32
REMARK SMILES IDX 30 33 80 34 31 35 85 36 79 37 81 38 32 39 84 40 78 41 77 42
REMARK SMILES IDX 33 44 65 45 45 46 64 47 46 48 49 49 63 50 82 51 47 52 48 53
REMARK SMILES IDX 62 55 83 56 50 57 34 58 35 59 43 60 36 61 42 62 44 63 41 64
REMARK SMILES IDX 37 65 38 66 39 67 40 68 66 69 67 70 75 71 68 72 74 73 76 74
REMARK SMILES IDX 73 75 69 76 70 77 71 78 72 79 51 80 52 81 60 82 53 83 59 84
REMARK SMILES IDX 61 85 58 86 54 87 55 88 56 89 57 90
REMARK H PARENT 81 43 49 54
REMARK Flexibility Score: inf
ROOT
ATOM      1  C   UNL A   1      31.912  30.621  26.258  1.00  0.00     0.275 C 
ENDROOT
BRANCH   1   2
ATOM      2  C   UNL A   1      31.540  29.425  25.381  1.00  0.00     0.275 C 
BRANCH   2   3
ATOM      3  O   UNL A   1      32.366  28.272  25.663  1.00  0.00    -0.459 OA
BRANCH   3   4
ATOM      4  C   UNL A   1      31.792  27.310  26.423  1.00  0.00     0.338 C 
ATOM      5  O   UNL A   1      31.027  27.488  27.359  1.00  0.00    -0.246 OA
BRANCH   4   6
ATOM      6  C   UNL A   1      32.200  25.967  25.965  1.00  0.00     0.087 C 
ATOM      7  C   UNL A   1      33.443  22.285  24.365  1.00  0.00     0.018 A 
ATOM      8  C   UNL A   1      34.822  22.017  24.301  1.00  0.00     0.032 A 
ATOM      9  C   UNL A   1      33.005  23.501  24.925  1.00  0.00     0.135 A 
ATOM     10  C   UNL A   1      35.743  22.919  24.825  1.00  0.00     0.042 A 
ATOM     11  C   UNL A   1      33.943  24.405  25.426  1.00  0.00     0.019 A 
ATOM     12  O   UNL A   1      31.654  23.738  24.979  1.00  0.00    -0.475 OA
ATOM     13  Cl  UNL A   1      37.426  22.571  24.745  1.00  0.00    -0.084 Cl
ATOM     14  C   UNL A   1      35.312  24.109  25.394  1.00  0.00     0.032 A 
ATOM     15  C   UNL A   1      33.505  25.677  25.959  1.00  0.00     0.027 C 
ATOM     16  C   UNL A   1      31.165  25.042  25.401  1.00  0.00     0.316 C 
BRANCH   7  17
ATOM     17  C   UNL A   1      32.481  21.334  23.787  1.00  0.00     0.004 C 
ATOM     18  C   UNL A   1      32.144  21.316  22.491  1.00  0.00     0.009 C 
ENDBRANCH   7  17
BRANCH  16  19
ATOM     19  C   UNL A   1      30.433  25.695  24.216  1.00  0.00     0.430 C 
ATOM     20  F   UNL A   1      29.428  26.502  24.640  1.00  0.00    -0.167 F 
ATOM     21  F   UNL A   1      31.263  26.475  23.482  1.00  0.00    -0.167 F 
ATOM     22  F   UNL A   1      29.891  24.782  23.381  1.00  0.00    -0.167 F 
ENDBRANCH  16  19
ENDBRANCH   4   6
ENDBRANCH   3   4
ENDBRANCH   2   3
ENDBRANCH   1   2
BRANCH   1  23
ATOM     23  O   UNL A   1      33.056  30.320  27.077  1.00  0.00    -0.458 OA
BRANCH  23  24
ATOM     24  C   UNL A   1      33.725  31.400  27.541  1.00  0.00     0.338 C 
ATOM     25  O   UNL A   1      33.278  32.517  27.737  1.00  0.00    -0.246 OA
BRANCH  24  26
ATOM     26  C   UNL A   1      35.087  31.005  27.921  1.00  0.00     0.060 A 
ATOM     27  C   UNL A   1      36.127  31.922  28.002  1.00  0.00     0.016 A 
ATOM     28  C   UNL A   1      35.276  29.701  28.359  1.00  0.00     0.016 A 
ATOM     29  C   UNL A   1      37.359  31.501  28.521  1.00  0.00     0.010 A 
ATOM     30  C   UNL A   1      36.439  29.334  29.023  1.00  0.00     0.010 A 
ATOM     31  C   UNL A   1      37.521  30.213  29.079  1.00  0.00    -0.014 A 
BRANCH  31  32
ATOM     32  C   UNL A   1      38.800  29.791  29.723  1.00  0.00     0.031 A 
ATOM     33  C   UNL A   1      39.204  30.309  31.085  1.00  0.00     0.074 A 
ATOM     34  C   UNL A   1      39.632  28.963  29.056  1.00  0.00     0.049 A 
ATOM     35  N   UNL A   1      40.259  30.006  31.802  1.00  0.00    -0.248 NA
ATOM     36  C   UNL A   1      38.348  31.331  31.712  1.00  0.00     0.031 C 
ATOM     37  C   UNL A   1      39.426  28.496  27.684  1.00  0.00     0.029 A 
ATOM     38  N   UNL A   1      40.802  28.352  29.438  1.00  0.00    -0.354 N 
ATOM     39  C   UNL A   1      40.194  30.805  32.940  1.00  0.00     0.074 A 
ATOM     40  C   UNL A   1      39.055  31.674  32.779  1.00  0.00     0.031 C 
ATOM     41  C   UNL A   1      40.381  27.609  27.371  1.00  0.00     0.029 A 
ATOM     42  C   UNL A   1      41.302  27.478  28.497  1.00  0.00     0.049 A 
ATOM     43  H   UNL A   1      41.243  28.522  30.303  1.00  0.00     0.167 HD
ATOM     44  C   UNL A   1      40.975  30.777  34.047  1.00  0.00     0.034 A 
ATOM     45  C   UNL A   1      42.366  26.648  28.538  1.00  0.00     0.034 A 
ATOM     46  C   UNL A   1      42.073  29.861  34.219  1.00  0.00     0.049 A 
ATOM     47  C   UNL A   1      43.181  26.578  29.804  1.00  0.00     0.074 A 
ATOM     48  C   UNL A   1      42.872  29.688  35.334  1.00  0.00     0.029 A 
ATOM     49  N   UNL A   1      42.516  28.959  33.263  1.00  0.00    -0.354 N 
ATOM     50  N   UNL A   1      43.023  27.249  30.922  1.00  0.00    -0.248 NA
ATOM     51  C   UNL A   1      44.305  25.631  29.829  1.00  0.00     0.031 C 
ATOM     52  C   UNL A   1      43.834  28.724  35.033  1.00  0.00     0.029 A 
ATOM     53  C   UNL A   1      43.590  28.238  33.758  1.00  0.00     0.049 A 
ATOM     54  H   UNL A   1      42.125  28.848  32.366  1.00  0.00     0.167 HD
ATOM     55  C   UNL A   1      44.014  26.794  31.787  1.00  0.00     0.074 A 
ATOM     56  C   UNL A   1      44.744  25.765  31.075  1.00  0.00     0.031 C 
ATOM     57  C   UNL A   1      44.298  27.199  33.049  1.00  0.00     0.034 A 
BRANCH  44  58
ATOM     58  C   UNL A   1      40.647  31.704  35.197  1.00  0.00     0.023 A 
ATOM     59  C   UNL A   1      39.589  31.400  36.076  1.00  0.00     0.031 A 
ATOM     60  C   UNL A   1      41.283  32.952  35.335  1.00  0.00     0.131 A 
ATOM     61  C   UNL A   1      39.178  32.345  37.026  1.00  0.00     0.055 A 
ATOM     62  C   UNL A   1      40.906  33.867  36.319  1.00  0.00     0.041 A 
ATOM     63  F   UNL A   1      42.290  33.299  34.517  1.00  0.00    -0.206 F 
ATOM     64  C   UNL A   1      39.838  33.571  37.160  1.00  0.00     0.022 A 
BRANCH  61  65
ATOM     65  S   UNL A   1      37.726  32.059  38.074  1.00  0.00     0.124 S 
ATOM     66  O   UNL A   1      36.782  33.048  37.558  1.00  0.00    -0.237 OA
ATOM     67  O   UNL A   1      37.399  30.669  37.767  1.00  0.00    -0.237 OA
ATOM     68  O   UNL A   1      38.213  32.311  39.426  1.00  0.00    -0.744 OA
ENDBRANCH  61  65
ENDBRANCH  44  58
BRANCH  45  69
ATOM     69  C   UNL A   1      42.633  25.754  27.369  1.00  0.00     0.023 A 
ATOM     70  C   UNL A   1      42.072  24.466  27.297  1.00  0.00     0.031 A 
ATOM     71  C   UNL A   1      43.560  26.125  26.380  1.00  0.00     0.131 A 
ATOM     72  C   UNL A   1      42.501  23.572  26.306  1.00  0.00     0.055 A 
ATOM     73  C   UNL A   1      43.925  25.258  25.347  1.00  0.00     0.041 A 
ATOM     74  F   UNL A   1      44.139  27.335  26.413  1.00  0.00    -0.206 F 
ATOM     75  C   UNL A   1      43.410  23.967  25.319  1.00  0.00     0.022 A 
BRANCH  72  76
ATOM     76  S   UNL A   1      42.017  21.823  26.358  1.00  0.00     0.124 S 
ATOM     77  O   UNL A   1      42.908  21.231  25.366  1.00  0.00    -0.237 OA
ATOM     78  O   UNL A   1      42.300  21.478  27.750  1.00  0.00    -0.237 OA
ATOM     79  O   UNL A   1      40.601  21.848  26.003  1.00  0.00    -0.744 OA
ENDBRANCH  72  76
ENDBRANCH  45  69
BRANCH  57  80
ATOM     80  C   UNL A   1      45.447  26.549  33.783  1.00  0.00     0.023 A 
ATOM     81  C   UNL A   1      45.207  25.450  34.631  1.00  0.00     0.031 A 
ATOM     82  C   UNL A   1      46.729  27.126  33.787  1.00  0.00     0.131 A 
ATOM     83  C   UNL A   1      46.217  24.998  35.487  1.00  0.00     0.055 A 
ATOM     84  C   UNL A   1      47.748  26.636  34.603  1.00  0.00     0.041 A 
ATOM     85  F   UNL A   1      47.003  28.185  33.008  1.00  0.00    -0.206 F 
ATOM     86  C   UNL A   1      47.489  25.578  35.471  1.00  0.00     0.022 A 
BRANCH  83  87
ATOM     87  S   UNL A   1      45.887  23.715  36.726  1.00  0.00     0.124 S 
ATOM     88  O   UNL A   1      45.727  22.524  35.893  1.00  0.00    -0.237 OA
ATOM     89  O   UNL A   1      47.102  23.749  37.536  1.00  0.00    -0.237 OA
ATOM     90  O   UNL A   1      44.675  24.172  37.396  1.00  0.00    -0.744 OA
ENDBRANCH  83  87
ENDBRANCH  57  80
ENDBRANCH  31  32
ENDBRANCH  24  26
ENDBRANCH  23  24
ENDBRANCH   1  23
TORSDOF 16
ENDMDL
MODEL 3
REMARK VINA RESULT:     -12.1      1.364      1.658
REMARK SMILES C=Cc1cc(Cl)cc2c1O[C@H](C(F)(F)F)C(C(=O)OCCOC(=O)c1ccc(-c3c4nc(c(-c5cc(S(=O)(=O)[O-])ccc5F)c5ccc([nH]5)c(-c5cc(S(=O)(=O)[O-])ccc5F)c5nc(c(-c6cc(S(=O)(=O)[O-])ccc6F)c6ccc3[nH]6)C=C5)C=C4)cc1)=C2
REMARK SMILES IDX 21 1 20 2 19 3 17 4 18 5 16 6 3 7 4 8 9 9 5 10 8 11 10 12
REMARK SMILES IDX 6 13 7 14 88 15 11 16 2 17 1 18 12 19 13 20 14 21 15 22
REMARK SMILES IDX 22 23 23 24 24 25 25 26 26 27 87 28 27 29 86 30 28 31 29 32
REMARK SMILES IDX 30 33 80 34 31 35 85 36 79 37 81 38 32 39 84 40 78 41 77 42
REMARK SMILES IDX 33 44 65 45 45 46 64 47 46 48 49 49 63 50 82 51 47 52 48 53
REMARK SMILES IDX 62 55 83 56 50 57 34 58 35 59 43 60 36 61 42 62 44 63 41 64
REMARK SMILES IDX 37 65 38 66 39 67 40 68 66 69 67 70 75 71 68 72 74 73 76 74
REMARK SMILES IDX 73 75 69 76 70 77 71 78 72 79 51 80 52 81 60 82 53 83 59 84
REMARK SMILES IDX 61 85 58 86 54 87 55 88 56 89 57 90
REMARK H PARENT 81 43 49 54
REMARK Flexibility Score: inf
ROOT
ATOM      1  C   UNL A   1      36.264  20.529  24.993  1.00  0.00     0.275 C 
ENDROOT
BRANCH   1   2
ATOM      2  C   UNL A   1      34.876  21.051  24.617  1.00  0.00     0.275 C 
BRANCH   2   3
ATOM      3  O   UNL A   1      34.768  22.480  24.806  1.00  0.00    -0.459 OA
BRANCH   3   4
ATOM      4  C   UNL A   1      34.806  23.226  23.677  1.00  0.00     0.338 C 
ATOM      5  O   UNL A   1      35.473  22.996  22.680  1.00  0.00    -0.246 OA
BRANCH   4   6
ATOM      6  C   UNL A   1      33.903  24.389  23.786  1.00  0.00     0.087 C 
ATOM      7  C   UNL A   1      31.195  27.551  24.370  1.00  0.00     0.018 A 
ATOM      8  C   UNL A   1      31.486  28.502  25.364  1.00  0.00     0.032 A 
ATOM      9  C   UNL A   1      32.104  26.500  24.139  1.00  0.00     0.135 A 
ATOM     10  C   UNL A   1      32.677  28.436  26.081  1.00  0.00     0.042 A 
ATOM     11  C   UNL A   1      33.285  26.435  24.882  1.00  0.00     0.019 A 
ATOM     12  O   UNL A   1      31.800  25.585  23.162  1.00  0.00    -0.475 OA
ATOM     13  Cl  UNL A   1      33.019  29.613  27.287  1.00  0.00    -0.084 Cl
ATOM     14  C   UNL A   1      33.582  27.411  25.841  1.00  0.00     0.032 A 
ATOM     15  C   UNL A   1      34.202  25.333  24.684  1.00  0.00     0.027 C 
ATOM     16  C   UNL A   1      32.628  24.399  22.997  1.00  0.00     0.316 C 
BRANCH   7  17
ATOM     17  C   UNL A   1      29.923  27.618  23.636  1.00  0.00     0.004 C 
ATOM     18  C   UNL A   1      29.634  28.569  22.738  1.00  0.00     0.009 C 
ENDBRANCH   7  17
BRANCH  16  19
ATOM     19  C   UNL A   1      31.774  23.161  23.317  1.00  0.00     0.430 C 
ATOM     20  F   UNL A   1      30.471  23.364  22.999  1.00  0.00    -0.167 F 
ATOM     21  F   UNL A   1      32.175  22.079  22.606  1.00  0.00    -0.167 F 
ATOM     22  F   UNL A   1      31.823  22.827  24.626  1.00  0.00    -0.167 F 
ENDBRANCH  16  19
ENDBRANCH   4   6
ENDBRANCH   3   4
ENDBRANCH   2   3
ENDBRANCH   1   2
BRANCH   1  23
ATOM     23  O   UNL A   1      37.012  21.531  25.705  1.00  0.00    -0.458 OA
BRANCH  23  24
ATOM     24  C   UNL A   1      38.338  21.286  25.808  1.00  0.00     0.338 C 
ATOM     25  O   UNL A   1      38.956  20.350  25.329  1.00  0.00    -0.246 OA
BRANCH  24  26
ATOM     26  C   UNL A   1      38.992  22.410  26.490  1.00  0.00     0.060 A 
ATOM     27  C   UNL A   1      40.152  22.248  27.234  1.00  0.00     0.016 A 
ATOM     28  C   UNL A   1      38.500  23.683  26.237  1.00  0.00     0.016 A 
ATOM     29  C   UNL A   1      40.803  23.389  27.725  1.00  0.00     0.010 A 
ATOM     30  C   UNL A   1      39.234  24.811  26.581  1.00  0.00     0.010 A 
ATOM     31  C   UNL A   1      40.379  24.688  27.370  1.00  0.00    -0.014 A 
BRANCH  31  32
ATOM     32  C   UNL A   1      41.124  25.906  27.808  1.00  0.00     0.031 A 
ATOM     33  C   UNL A   1      42.552  26.153  27.372  1.00  0.00     0.074 A 
ATOM     34  C   UNL A   1      40.526  26.781  28.643  1.00  0.00     0.049 A 
ATOM     35  N   UNL A   1      43.323  27.182  27.627  1.00  0.00    -0.248 NA
ATOM     36  C   UNL A   1      43.222  25.100  26.591  1.00  0.00     0.031 C 
ATOM     37  C   UNL A   1      39.204  26.595  29.243  1.00  0.00     0.029 A 
ATOM     38  N   UNL A   1      40.933  28.004  29.120  1.00  0.00    -0.354 N 
ATOM     39  C   UNL A   1      44.557  26.888  27.053  1.00  0.00     0.074 A 
ATOM     40  C   UNL A   1      44.466  25.550  26.523  1.00  0.00     0.031 C 
ATOM     41  C   UNL A   1      38.872  27.695  29.933  1.00  0.00     0.029 A 
ATOM     42  C   UNL A   1      39.977  28.650  29.872  1.00  0.00     0.049 A 
ATOM     43  H   UNL A   1      41.824  28.383  28.941  1.00  0.00     0.167 HD
ATOM     44  C   UNL A   1      45.649  27.681  26.927  1.00  0.00     0.034 A 
ATOM     45  C   UNL A   1      39.973  29.878  30.432  1.00  0.00     0.034 A 
ATOM     46  C   UNL A   1      45.703  29.037  27.408  1.00  0.00     0.049 A 
ATOM     47  C   UNL A   1      41.167  30.774  30.219  1.00  0.00     0.074 A 
ATOM     48  C   UNL A   1      46.724  29.956  27.254  1.00  0.00     0.029 A 
ATOM     49  N   UNL A   1      44.696  29.671  28.121  1.00  0.00    -0.354 N 
ATOM     50  N   UNL A   1      42.274  30.525  29.559  1.00  0.00    -0.248 NA
ATOM     51  C   UNL A   1      41.111  32.121  30.806  1.00  0.00     0.031 C 
ATOM     52  C   UNL A   1      46.360  31.125  27.923  1.00  0.00     0.029 A 
ATOM     53  C   UNL A   1      45.080  30.965  28.429  1.00  0.00     0.049 A 
ATOM     54  H   UNL A   1      43.836  29.261  28.370  1.00  0.00     0.167 HD
ATOM     55  C   UNL A   1      43.038  31.686  29.636  1.00  0.00     0.074 A 
ATOM     56  C   UNL A   1      42.250  32.650  30.378  1.00  0.00     0.031 C 
ATOM     57  C   UNL A   1      44.280  31.927  29.148  1.00  0.00     0.034 A 
BRANCH  44  58
ATOM     58  C   UNL A   1      46.855  27.152  26.182  1.00  0.00     0.023 A 
ATOM     59  C   UNL A   1      47.895  26.506  26.878  1.00  0.00     0.031 A 
ATOM     60  C   UNL A   1      47.041  27.413  24.811  1.00  0.00     0.131 A 
ATOM     61  C   UNL A   1      49.083  26.179  26.211  1.00  0.00     0.055 A 
ATOM     62  C   UNL A   1      48.204  27.036  24.139  1.00  0.00     0.041 A 
ATOM     63  F   UNL A   1      46.086  28.036  24.100  1.00  0.00    -0.206 F 
ATOM     64  C   UNL A   1      49.238  26.428  24.843  1.00  0.00     0.022 A 
BRANCH  61  65
ATOM     65  S   UNL A   1      50.505  25.487  27.101  1.00  0.00     0.124 S 
ATOM     66  O   UNL A   1      49.933  24.275  27.684  1.00  0.00    -0.237 OA
ATOM     67  O   UNL A   1      51.461  25.267  26.020  1.00  0.00    -0.237 OA
ATOM     68  O   UNL A   1      50.861  26.528  28.058  1.00  0.00    -0.744 OA
ENDBRANCH  61  65
ENDBRANCH  44  58
BRANCH  45  69
ATOM     69  C   UNL A   1      38.747  30.344  31.151  1.00  0.00     0.023 A 
ATOM     70  C   UNL A   1      37.674  30.928  30.454  1.00  0.00     0.031 A 
ATOM     71  C   UNL A   1      38.692  30.334  32.555  1.00  0.00     0.131 A 
ATOM     72  C   UNL A   1      36.634  31.546  31.162  1.00  0.00     0.055 A 
ATOM     73  C   UNL A   1      37.615  30.880  33.256  1.00  0.00     0.041 A 
ATOM     74  F   UNL A   1      39.698  29.806  33.269  1.00  0.00    -0.206 F 
ATOM     75  C   UNL A   1      36.588  31.509  32.559  1.00  0.00     0.022 A 
BRANCH  72  76
ATOM     76  S   UNL A   1      35.392  32.553  30.302  1.00  0.00     0.124 S 
ATOM     77  O   UNL A   1      34.983  31.669  29.216  1.00  0.00    -0.237 OA
ATOM     78  O   UNL A   1      34.400  32.764  31.354  1.00  0.00    -0.237 OA
ATOM     79  O   UNL A   1      36.134  33.745  29.903  1.00  0.00    -0.744 OA
ENDBRANCH  72  76
ENDBRANCH  45  69
BRANCH  57  80
ATOM     80  C   UNL A   1      44.905  33.282  29.378  1.00  0.00     0.023 A 
ATOM     81  C   UNL A   1      44.911  34.237  28.343  1.00  0.00     0.031 A 
ATOM     82  C   UNL A   1      45.644  33.556  30.542  1.00  0.00     0.131 A 
ATOM     83  C   UNL A   1      45.688  35.394  28.468  1.00  0.00     0.055 A 
ATOM     84  C   UNL A   1      46.373  34.737  30.683  1.00  0.00     0.041 A 
ATOM     85  F   UNL A   1      45.681  32.671  31.551  1.00  0.00    -0.206 F 
ATOM     86  C   UNL A   1      46.411  35.654  29.636  1.00  0.00     0.022 A 
BRANCH  83  87
ATOM     87  S   UNL A   1      45.874  36.550  27.082  1.00  0.00     0.124 S 
ATOM     88  O   UNL A   1      45.933  35.642  25.938  1.00  0.00    -0.237 OA
ATOM     89  O   UNL A   1      44.655  37.348  27.180  1.00  0.00    -0.237 OA
ATOM     90  O   UNL A   1      47.114  37.259  27.376  1.00  0.00    -0.744 OA
ENDBRANCH  83  87
ENDBRANCH  57  80
ENDBRANCH  31  32
ENDBRANCH  24  26
ENDBRANCH  23  24
ENDBRANCH   1  23
TORSDOF 16
ENDMDL
