MODEL 1
REMARK VINA RESULT:     -10.8      0.000      0.000
REMARK SMILES C[C@@H](C(=O)OCCOC(=O)c1ccc(-c2c3nc(c(-c4cc(S(=O)(=O)[O-])ccc4F)c4ccc([nH]4)c(-c4cc(S(=O)(=O)[O-])ccc4F)c4nc(c(-c5cc(S(=O)(=O)[O-])ccc5F)c5ccc2[nH]5)C=C4)C=C3)cc1)c1ccc(NC2CCCC2)cc1F
REMARK SMILES IDX 6 1 5 2 3 3 4 4 2 5 1 6 74 7 75 8 85 9 76 10 84 11 86 12
REMARK SMILES IDX 77 13 78 14 79 16 80 17 83 18 81 19 82 20 7 21 8 22 9 23
REMARK SMILES IDX 10 24 11 25 12 26 73 27 13 28 72 29 14 30 15 31 16 32 66 33
REMARK SMILES IDX 17 34 71 35 65 36 67 37 18 38 70 39 64 40 63 41 19 43 51 44
REMARK SMILES IDX 31 45 50 46 32 47 35 48 49 49 68 50 33 51 34 52 48 54 69 55
REMARK SMILES IDX 36 56 20 57 21 58 29 59 22 60 28 61 30 62 27 63 23 64 24 65
REMARK SMILES IDX 25 66 26 67 52 68 53 69 61 70 54 71 60 72 62 73 59 74 55 75
REMARK SMILES IDX 56 76 57 77 58 78 37 79 38 80 46 81 39 82 45 83 47 84 44 85
REMARK SMILES IDX 40 86 41 87 42 88 43 89
REMARK H PARENT 78 15 67 42 35 53
REMARK Flexibility Score: inf
ROOT
ATOM      1  C   UNL A   1      31.127  31.662  26.243  1.00  0.00     0.274 C 
ENDROOT
BRANCH   1   2
ATOM      2  O   UNL A   1      32.298  30.819  26.161  1.00  0.00    -0.462 OA
BRANCH   2   3
ATOM      3  C   UNL A   1      32.063  29.522  25.802  1.00  0.00     0.313 C 
ATOM      4  O   UNL A   1      31.366  29.243  24.833  1.00  0.00    -0.252 OA
BRANCH   3   5
ATOM      5  C   UNL A   1      32.678  28.491  26.805  1.00  0.00     0.129 C 
ATOM      6  C   UNL A   1      34.061  28.962  27.258  1.00  0.00     0.025 C 
BRANCH   5   7
ATOM      7  C   UNL A   1      32.657  27.051  26.266  1.00  0.00     0.002 A 
ATOM      8  C   UNL A   1      33.852  26.514  25.818  1.00  0.00     0.010 A 
ATOM      9  C   UNL A   1      31.567  26.169  26.254  1.00  0.00     0.129 A 
ATOM     10  C   UNL A   1      33.991  25.142  25.621  1.00  0.00     0.026 A 
ATOM     11  C   UNL A   1      31.710  24.790  25.961  1.00  0.00     0.065 A 
ATOM     12  F   UNL A   1      30.342  26.599  26.588  1.00  0.00    -0.207 F 
ATOM     13  C   UNL A   1      32.960  24.219  25.694  1.00  0.00     0.037 A 
BRANCH  13  14
ATOM     14  N   UNL A   1      33.116  22.854  25.595  1.00  0.00    -0.382 N 
ATOM     15  H   UNL A   1      32.474  22.352  26.149  1.00  0.00     0.160 HD
BRANCH  14  16
ATOM     16  C   UNL A   1      34.051  21.963  24.827  1.00  0.00     0.079 C 
ATOM     17  C   UNL A   1      34.744  22.661  23.186  1.00  0.00     0.025 C 
ATOM     18  C   UNL A   1      35.578  21.422  26.001  1.00  0.00     0.025 C 
ATOM     19  C   UNL A   1      36.662  22.936  23.192  1.00  0.00     0.002 C 
ATOM     20  C   UNL A   1      37.438  22.191  24.901  1.00  0.00     0.002 C 
ENDBRANCH  14  16
ENDBRANCH  13  14
ENDBRANCH   5   7
ENDBRANCH   3   5
ENDBRANCH   2   3
ENDBRANCH   1   2
BRANCH   1  21
ATOM     21  C   UNL A   1      31.433  33.062  26.794  1.00  0.00     0.275 C 
BRANCH  21  22
ATOM     22  O   UNL A   1      32.844  33.344  26.854  1.00  0.00    -0.458 OA
BRANCH  22  23
ATOM     23  C   UNL A   1      33.243  34.029  27.954  1.00  0.00     0.338 C 
ATOM     24  O   UNL A   1      32.603  34.884  28.545  1.00  0.00    -0.246 OA
BRANCH  23  25
ATOM     25  C   UNL A   1      34.499  33.461  28.475  1.00  0.00     0.060 A 
ATOM     26  C   UNL A   1      34.422  32.189  29.031  1.00  0.00     0.016 A 
ATOM     27  C   UNL A   1      35.711  34.148  28.493  1.00  0.00     0.016 A 
ATOM     28  C   UNL A   1      35.549  31.564  29.554  1.00  0.00     0.010 A 
ATOM     29  C   UNL A   1      36.849  33.516  29.028  1.00  0.00     0.010 A 
ATOM     30  C   UNL A   1      36.781  32.200  29.535  1.00  0.00    -0.014 A 
BRANCH  30  31
ATOM     31  C   UNL A   1      37.959  31.537  30.125  1.00  0.00     0.031 A 
ATOM     32  C   UNL A   1      38.366  31.807  31.560  1.00  0.00     0.074 A 
ATOM     33  C   UNL A   1      38.498  30.413  29.608  1.00  0.00     0.049 A 
ATOM     34  N   UNL A   1      39.319  31.271  32.289  1.00  0.00    -0.248 NA
ATOM     35  C   UNL A   1      37.477  32.708  32.304  1.00  0.00     0.031 C 
ATOM     36  C   UNL A   1      37.592  29.025  28.592  1.00  0.00     0.029 A 
ATOM     37  N   UNL A   1      40.034  29.741  30.024  1.00  0.00    -0.354 N 
ATOM     38  C   UNL A   1      39.141  31.757  33.582  1.00  0.00     0.074 A 
ATOM     39  C   UNL A   1      37.989  32.641  33.524  1.00  0.00     0.031 C 
ATOM     40  C   UNL A   1      38.825  27.618  28.570  1.00  0.00     0.029 A 
ATOM     41  C   UNL A   1      40.374  28.186  29.451  1.00  0.00     0.049 A 
ATOM     42  H   UNL A   1      40.683  30.241  30.572  1.00  0.00     0.167 HD
ATOM     43  C   UNL A   1      39.841  31.500  34.718  1.00  0.00     0.034 A 
ATOM     44  C   UNL A   1      41.545  27.547  29.290  1.00  0.00     0.034 A 
ATOM     45  C   UNL A   1      40.976  30.606  34.856  1.00  0.00     0.049 A 
ATOM     46  C   UNL A   1      42.484  27.647  30.413  1.00  0.00     0.074 A 
ATOM     47  C   UNL A   1      41.733  30.391  36.000  1.00  0.00     0.029 A 
ATOM     48  N   UNL A   1      41.533  29.791  33.875  1.00  0.00    -0.354 N 
ATOM     49  N   UNL A   1      42.298  28.302  31.527  1.00  0.00    -0.248 NA
ATOM     50  C   UNL A   1      43.659  26.781  30.367  1.00  0.00     0.031 C 
ATOM     51  C   UNL A   1      42.810  29.562  35.686  1.00  0.00     0.029 A 
ATOM     52  C   UNL A   1      42.670  29.151  34.375  1.00  0.00     0.049 A 
ATOM     53  H   UNL A   1      41.178  29.682  32.963  1.00  0.00     0.167 HD
ATOM     54  C   UNL A   1      43.302  27.865  32.364  1.00  0.00     0.074 A 
ATOM     55  C   UNL A   1      44.077  26.886  31.620  1.00  0.00     0.031 C 
ATOM     56  C   UNL A   1      43.512  28.227  33.649  1.00  0.00     0.034 A 
BRANCH  43  57
ATOM     57  C   UNL A   1      39.484  32.340  35.929  1.00  0.00     0.023 A 
ATOM     58  C   UNL A   1      40.048  33.599  36.192  1.00  0.00     0.031 A 
ATOM     59  C   UNL A   1      38.554  31.826  36.855  1.00  0.00     0.131 A 
ATOM     60  C   UNL A   1      39.728  34.265  37.388  1.00  0.00     0.055 A 
ATOM     61  C   UNL A   1      38.167  32.537  37.988  1.00  0.00     0.041 A 
ATOM     62  F   UNL A   1      38.004  30.616  36.666  1.00  0.00    -0.206 F 
ATOM     63  C   UNL A   1      38.768  33.759  38.269  1.00  0.00     0.022 A 
BRANCH  60  64
ATOM     64  S   UNL A   1      40.707  35.716  37.871  1.00  0.00     0.124 S 
ATOM     65  O   UNL A   1      41.621  35.844  36.737  1.00  0.00    -0.237 OA
ATOM     66  O   UNL A   1      39.693  36.756  37.996  1.00  0.00    -0.237 OA
ATOM     67  O   UNL A   1      41.336  35.303  39.124  1.00  0.00    -0.744 OA
ENDBRANCH  60  64
ENDBRANCH  43  57
BRANCH  44  68
ATOM     68  C   UNL A   1      41.773  26.700  28.092  1.00  0.00     0.023 A 
ATOM     69  C   UNL A   1      41.519  25.328  28.082  1.00  0.00     0.031 A 
ATOM     70  C   UNL A   1      42.312  27.276  26.918  1.00  0.00     0.131 A 
ATOM     71  C   UNL A   1      41.816  24.577  26.931  1.00  0.00     0.055 A 
ATOM     72  C   UNL A   1      42.531  26.541  25.753  1.00  0.00     0.041 A 
ATOM     73  F   UNL A   1      42.677  28.568  26.891  1.00  0.00    -0.206 F 
ATOM     74  C   UNL A   1      42.289  25.175  25.759  1.00  0.00     0.022 A 
BRANCH  71  75
ATOM     75  S   UNL A   1      41.706  22.773  27.031  1.00  0.00     0.124 S 
ATOM     76  O   UNL A   1      40.265  22.570  27.127  1.00  0.00    -0.237 OA
ATOM     77  O   UNL A   1      42.332  22.367  25.778  1.00  0.00    -0.237 OA
ATOM     78  O   UNL A   1      42.462  22.452  28.241  1.00  0.00    -0.744 OA
ENDBRANCH  71  75
ENDBRANCH  44  68
BRANCH  56  79
ATOM     79  C   UNL A   1      44.677  27.564  34.330  1.00  0.00     0.023 A 
ATOM     80  C   UNL A   1      44.540  26.288  34.901  1.00  0.00     0.031 A 
ATOM     81  C   UNL A   1      45.901  28.234  34.492  1.00  0.00     0.131 A 
ATOM     82  C   UNL A   1      45.566  25.764  35.695  1.00  0.00     0.055 A 
ATOM     83  C   UNL A   1      46.957  27.663  35.202  1.00  0.00     0.041 A 
ATOM     84  F   UNL A   1      46.082  29.465  33.987  1.00  0.00    -0.206 F 
ATOM     85  C   UNL A   1      46.786  26.430  35.827  1.00  0.00     0.022 A 
BRANCH  82  86
ATOM     86  S   UNL A   1      45.212  24.284  36.679  1.00  0.00     0.124 S 
ATOM     87  O   UNL A   1      43.935  23.852  36.119  1.00  0.00    -0.237 OA
ATOM     88  O   UNL A   1      46.357  23.430  36.382  1.00  0.00    -0.237 OA
ATOM     89  O   UNL A   1      45.153  24.791  38.048  1.00  0.00    -0.744 OA
ENDBRANCH  82  86
ENDBRANCH  56  79
ENDBRANCH  30  31
ENDBRANCH  23  25
ENDBRANCH  22  23
ENDBRANCH  21  22
ENDBRANCH   1  21
TORSDOF 17
ENDMDL
MODEL 2
REMARK VINA RESULT:     -10.7      5.424     11.103
REMARK SMILES C[C@@H](C(=O)OCCOC(=O)c1ccc(-c2c3nc(c(-c4cc(S(=O)(=O)[O-])ccc4F)c4ccc([nH]4)c(-c4cc(S(=O)(=O)[O-])ccc4F)c4nc(c(-c5cc(S(=O)(=O)[O-])ccc5F)c5ccc2[nH]5)C=C4)C=C3)cc1)c1ccc(NC2CCCC2)cc1F
REMARK SMILES IDX 6 1 5 2 3 3 4 4 2 5 1 6 74 7 75 8 85 9 76 10 84 11 86 12
REMARK SMILES IDX 77 13 78 14 79 16 80 17 83 18 81 19 82 20 7 21 8 22 9 23
REMARK SMILES IDX 10 24 11 25 12 26 73 27 13 28 72 29 14 30 15 31 16 32 66 33
REMARK SMILES IDX 17 34 71 35 65 36 67 37 18 38 70 39 64 40 63 41 19 43 51 44
REMARK SMILES IDX 31 45 50 46 32 47 35 48 49 49 68 50 33 51 34 52 48 54 69 55
REMARK SMILES IDX 36 56 20 57 21 58 29 59 22 60 28 61 30 62 27 63 23 64 24 65
REMARK SMILES IDX 25 66 26 67 52 68 53 69 61 70 54 71 60 72 62 73 59 74 55 75
REMARK SMILES IDX 56 76 57 77 58 78 37 79 38 80 46 81 39 82 45 83 47 84 44 85
REMARK SMILES IDX 40 86 41 87 42 88 43 89
REMARK H PARENT 78 15 67 42 35 53
REMARK Flexibility Score: inf
ROOT
ATOM      1  C   UNL A   1      38.111  19.900  24.929  1.00  0.00     0.274 C 
ENDROOT
BRANCH   1   2
ATOM      2  O   UNL A   1      37.413  21.004  24.311  1.00  0.00    -0.462 OA
BRANCH   2   3
ATOM      3  C   UNL A   1      36.139  21.215  24.756  1.00  0.00     0.313 C 
ATOM      4  O   UNL A   1      35.415  20.283  25.090  1.00  0.00    -0.252 OA
BRANCH   3   5
ATOM      5  C   UNL A   1      35.709  22.717  24.683  1.00  0.00     0.129 C 
ATOM      6  C   UNL A   1      36.599  23.561  25.597  1.00  0.00     0.025 C 
BRANCH   5   7
ATOM      7  C   UNL A   1      34.203  22.918  24.922  1.00  0.00     0.002 A 
ATOM      8  C   UNL A   1      33.794  23.254  26.201  1.00  0.00     0.010 A 
ATOM      9  C   UNL A   1      33.183  22.886  23.960  1.00  0.00     0.129 A 
ATOM     10  C   UNL A   1      32.518  23.761  26.434  1.00  0.00     0.026 A 
ATOM     11  C   UNL A   1      31.863  23.321  24.239  1.00  0.00     0.065 A 
ATOM     12  F   UNL A   1      33.445  22.495  22.705  1.00  0.00    -0.207 F 
ATOM     13  C   UNL A   1      31.507  23.839  25.490  1.00  0.00     0.037 A 
BRANCH  13  14
ATOM     14  N   UNL A   1      30.280  24.429  25.696  1.00  0.00    -0.382 N 
ATOM     15  H   UNL A   1      29.557  23.775  25.837  1.00  0.00     0.160 HD
BRANCH  14  16
ATOM     16  C   UNL A   1      29.801  25.852  25.752  1.00  0.00     0.079 C 
ATOM     17  C   UNL A   1      31.079  27.164  26.306  1.00  0.00     0.025 C 
ATOM     18  C   UNL A   1      29.057  26.380  23.970  1.00  0.00     0.025 C 
ATOM     19  C   UNL A   1      31.532  28.455  24.933  1.00  0.00     0.002 C 
ATOM     20  C   UNL A   1      30.339  28.170  23.329  1.00  0.00     0.002 C 
ENDBRANCH  14  16
ENDBRANCH  13  14
ENDBRANCH   5   7
ENDBRANCH   3   5
ENDBRANCH   2   3
ENDBRANCH   1   2
BRANCH   1  21
ATOM     21  C   UNL A   1      39.374  20.337  25.684  1.00  0.00     0.275 C 
BRANCH  21  22
ATOM     22  O   UNL A   1      40.213  19.227  26.060  1.00  0.00    -0.458 OA
BRANCH  22  23
ATOM     23  C   UNL A   1      41.545  19.483  26.029  1.00  0.00     0.338 C 
ATOM     24  O   UNL A   1      42.404  18.780  25.523  1.00  0.00    -0.246 OA
BRANCH  23  25
ATOM     25  C   UNL A   1      41.809  20.845  26.527  1.00  0.00     0.060 A 
ATOM     26  C   UNL A   1      42.130  21.804  25.571  1.00  0.00     0.016 A 
ATOM     27  C   UNL A   1      41.816  21.189  27.876  1.00  0.00     0.016 A 
ATOM     28  C   UNL A   1      42.400  23.118  25.936  1.00  0.00     0.010 A 
ATOM     29  C   UNL A   1      42.094  22.519  28.243  1.00  0.00     0.010 A 
ATOM     30  C   UNL A   1      42.359  23.504  27.267  1.00  0.00    -0.014 A 
BRANCH  30  31
ATOM     31  C   UNL A   1      42.682  24.894  27.639  1.00  0.00     0.031 A 
ATOM     32  C   UNL A   1      44.002  25.520  27.237  1.00  0.00     0.074 A 
ATOM     33  C   UNL A   1      41.739  25.792  27.993  1.00  0.00     0.049 A 
ATOM     34  N   UNL A   1      44.446  26.746  27.397  1.00  0.00    -0.248 NA
ATOM     35  C   UNL A   1      44.873  24.669  26.417  1.00  0.00     0.031 C 
ATOM     36  C   UNL A   1      39.878  25.838  27.432  1.00  0.00     0.029 A 
ATOM     37  N   UNL A   1      42.026  27.325  28.735  1.00  0.00    -0.354 N 
ATOM     38  C   UNL A   1      45.643  26.823  26.691  1.00  0.00     0.074 A 
ATOM     39  C   UNL A   1      45.853  25.507  26.110  1.00  0.00     0.031 C 
ATOM     40  C   UNL A   1      39.300  27.538  27.956  1.00  0.00     0.029 A 
ATOM     41  C   UNL A   1      40.715  28.391  28.834  1.00  0.00     0.049 A 
ATOM     42  H   UNL A   1      42.915  27.569  29.085  1.00  0.00     0.167 HD
ATOM     43  C   UNL A   1      46.492  27.870  26.517  1.00  0.00     0.034 A 
ATOM     44  C   UNL A   1      40.508  29.455  29.627  1.00  0.00     0.034 A 
ATOM     45  C   UNL A   1      46.329  29.216  27.036  1.00  0.00     0.049 A 
ATOM     46  C   UNL A   1      41.637  30.383  29.754  1.00  0.00     0.074 A 
ATOM     47  C   UNL A   1      47.226  30.270  26.914  1.00  0.00     0.029 A 
ATOM     48  N   UNL A   1      45.251  29.718  27.758  1.00  0.00    -0.354 N 
ATOM     49  N   UNL A   1      42.810  30.263  29.193  1.00  0.00    -0.248 NA
ATOM     50  C   UNL A   1      41.370  31.657  30.416  1.00  0.00     0.031 C 
ATOM     51  C   UNL A   1      46.761  31.353  27.661  1.00  0.00     0.029 A 
ATOM     52  C   UNL A   1      45.513  31.031  28.157  1.00  0.00     0.049 A 
ATOM     53  H   UNL A   1      44.426  29.220  27.960  1.00  0.00     0.167 HD
ATOM     54  C   UNL A   1      43.409  31.493  29.364  1.00  0.00     0.074 A 
ATOM     55  C   UNL A   1      42.457  32.333  30.071  1.00  0.00     0.031 C 
ATOM     56  C   UNL A   1      44.627  31.879  28.922  1.00  0.00     0.034 A 
BRANCH  43  57
ATOM     57  C   UNL A   1      47.807  27.559  25.827  1.00  0.00     0.023 A 
ATOM     58  C   UNL A   1      48.015  27.720  24.447  1.00  0.00     0.031 A 
ATOM     59  C   UNL A   1      48.872  27.059  26.603  1.00  0.00     0.131 A 
ATOM     60  C   UNL A   1      49.236  27.317  23.880  1.00  0.00     0.055 A 
ATOM     61  C   UNL A   1      50.113  26.755  26.047  1.00  0.00     0.041 A 
ATOM     62  F   UNL A   1      48.719  26.860  27.922  1.00  0.00    -0.206 F 
ATOM     63  C   UNL A   1      50.295  26.868  24.674  1.00  0.00     0.022 A 
BRANCH  60  64
ATOM     64  S   UNL A   1      49.369  27.217  22.072  1.00  0.00     0.124 S 
ATOM     65  O   UNL A   1      48.712  28.456  21.660  1.00  0.00    -0.237 OA
ATOM     66  O   UNL A   1      50.810  27.157  21.863  1.00  0.00    -0.237 OA
ATOM     67  O   UNL A   1      48.639  25.995  21.741  1.00  0.00    -0.744 OA
ENDBRANCH  60  64
ENDBRANCH  43  57
BRANCH  44  68
ATOM     68  C   UNL A   1      39.163  29.701  30.207  1.00  0.00     0.023 A 
ATOM     69  C   UNL A   1      38.267  30.622  29.664  1.00  0.00     0.031 A 
ATOM     70  C   UNL A   1      38.773  29.021  31.384  1.00  0.00     0.131 A 
ATOM     71  C   UNL A   1      37.035  30.848  30.301  1.00  0.00     0.055 A 
ATOM     72  C   UNL A   1      37.517  29.191  31.967  1.00  0.00     0.041 A 
ATOM     73  F   UNL A   1      39.624  28.199  32.018  1.00  0.00    -0.206 F 
ATOM     74  C   UNL A   1      36.639  30.120  31.428  1.00  0.00     0.022 A 
BRANCH  71  75
ATOM     75  S   UNL A   1      36.003  32.216  29.715  1.00  0.00     0.124 S 
ATOM     76  O   UNL A   1      36.946  32.965  28.893  1.00  0.00    -0.237 OA
ATOM     77  O   UNL A   1      34.948  31.506  29.000  1.00  0.00    -0.237 OA
ATOM     78  O   UNL A   1      35.585  32.880  30.948  1.00  0.00    -0.744 OA
ENDBRANCH  71  75
ENDBRANCH  44  68
BRANCH  56  79
ATOM     79  C   UNL A   1      45.012  33.298  29.234  1.00  0.00     0.023 A 
ATOM     80  C   UNL A   1      44.815  34.317  28.287  1.00  0.00     0.031 A 
ATOM     81  C   UNL A   1      45.659  33.627  30.436  1.00  0.00     0.131 A 
ATOM     82  C   UNL A   1      45.350  35.590  28.509  1.00  0.00     0.055 A 
ATOM     83  C   UNL A   1      46.103  34.925  30.695  1.00  0.00     0.041 A 
ATOM     84  F   UNL A   1      45.894  32.690  31.369  1.00  0.00    -0.206 F 
ATOM     85  C   UNL A   1      45.969  35.911  29.719  1.00  0.00     0.022 A 
BRANCH  82  86
ATOM     86  S   UNL A   1      45.367  36.762  27.127  1.00  0.00     0.124 S 
ATOM     87  O   UNL A   1      45.986  35.967  26.070  1.00  0.00    -0.237 OA
ATOM     88  O   UNL A   1      43.949  37.058  26.951  1.00  0.00    -0.237 OA
ATOM     89  O   UNL A   1      46.176  37.869  27.629  1.00  0.00    -0.744 OA
ENDBRANCH  82  86
ENDBRANCH  56  79
ENDBRANCH  30  31
ENDBRANCH  23  25
ENDBRANCH  22  23
ENDBRANCH  21  22
ENDBRANCH   1  21
TORSDOF 17
ENDMDL
MODEL 3
REMARK VINA RESULT:     -10.4      1.798      2.259
REMARK SMILES C[C@@H](C(=O)OCCOC(=O)c1ccc(-c2c3nc(c(-c4cc(S(=O)(=O)[O-])ccc4F)c4ccc([nH]4)c(-c4cc(S(=O)(=O)[O-])ccc4F)c4nc(c(-c5cc(S(=O)(=O)[O-])ccc5F)c5ccc2[nH]5)C=C4)C=C3)cc1)c1ccc(NC2CCCC2)cc1F
REMARK SMILES IDX 6 1 5 2 3 3 4 4 2 5 1 6 74 7 75 8 85 9 76 10 84 11 86 12
REMARK SMILES IDX 77 13 78 14 79 16 80 17 83 18 81 19 82 20 7 21 8 22 9 23
REMARK SMILES IDX 10 24 11 25 12 26 73 27 13 28 72 29 14 30 15 31 16 32 66 33
REMARK SMILES IDX 17 34 71 35 65 36 67 37 18 38 70 39 64 40 63 41 19 43 51 44
REMARK SMILES IDX 31 45 50 46 32 47 35 48 49 49 68 50 33 51 34 52 48 54 69 55
REMARK SMILES IDX 36 56 20 57 21 58 29 59 22 60 28 61 30 62 27 63 23 64 24 65
REMARK SMILES IDX 25 66 26 67 52 68 53 69 61 70 54 71 60 72 62 73 59 74 55 75
REMARK SMILES IDX 56 76 57 77 58 78 37 79 38 80 46 81 39 82 45 83 47 84 44 85
REMARK SMILES IDX 40 86 41 87 42 88 43 89
REMARK H PARENT 78 15 67 42 35 53
REMARK Flexibility Score: inf
ROOT
ATOM      1  C   UNL A   1      32.217  31.478  27.059  1.00  0.00     0.274 C 
ENDROOT
BRANCH   1   2
ATOM      2  O   UNL A   1      32.130  30.852  25.760  1.00  0.00    -0.462 OA
BRANCH   2   3
ATOM      3  C   UNL A   1      31.676  29.564  25.760  1.00  0.00     0.313 C 
ATOM      4  O   UNL A   1      31.609  28.908  26.794  1.00  0.00    -0.252 OA
BRANCH   3   5
ATOM      5  C   UNL A   1      31.372  29.025  24.323  1.00  0.00     0.129 C 
ATOM      6  C   UNL A   1      30.043  29.593  23.822  1.00  0.00     0.025 C 
BRANCH   5   7
ATOM      7  C   UNL A   1      31.469  27.493  24.228  1.00  0.00     0.002 A 
ATOM      8  C   UNL A   1      30.288  26.778  24.124  1.00  0.00     0.010 A 
ATOM      9  C   UNL A   1      32.639  26.724  24.145  1.00  0.00     0.129 A 
ATOM     10  C   UNL A   1      30.291  25.447  23.717  1.00  0.00     0.026 A 
ATOM     11  C   UNL A   1      32.619  25.345  23.819  1.00  0.00     0.065 A 
ATOM     12  F   UNL A   1      33.840  27.295  24.314  1.00  0.00    -0.207 F 
ATOM     13  C   UNL A   1      31.426  24.675  23.528  1.00  0.00     0.037 A 
BRANCH  13  14
ATOM     14  N   UNL A   1      31.431  23.389  23.032  1.00  0.00    -0.382 N 
ATOM     15  H   UNL A   1      30.790  23.258  22.296  1.00  0.00     0.160 HD
BRANCH  14  16
ATOM     16  C   UNL A   1      32.201  22.143  23.368  1.00  0.00     0.079 C 
ATOM     17  C   UNL A   1      34.109  22.265  23.277  1.00  0.00     0.025 C 
ATOM     18  C   UNL A   1      31.676  21.501  25.189  1.00  0.00     0.025 C 
ATOM     19  C   UNL A   1      34.997  22.036  24.984  1.00  0.00     0.002 C 
ATOM     20  C   UNL A   1      33.636  21.511  26.380  1.00  0.00     0.002 C 
ENDBRANCH  14  16
ENDBRANCH  13  14
ENDBRANCH   5   7
ENDBRANCH   3   5
ENDBRANCH   2   3
ENDBRANCH   1   2
BRANCH   1  21
ATOM     21  C   UNL A   1      32.131  33.010  26.994  1.00  0.00     0.275 C 
BRANCH  21  22
ATOM     22  O   UNL A   1      32.150  33.627  28.296  1.00  0.00    -0.458 OA
BRANCH  22  23
ATOM     23  C   UNL A   1      33.139  34.537  28.481  1.00  0.00     0.338 C 
ATOM     24  O   UNL A   1      33.014  35.751  28.477  1.00  0.00    -0.246 OA
BRANCH  23  25
ATOM     25  C   UNL A   1      34.381  33.858  28.892  1.00  0.00     0.060 A 
ATOM     26  C   UNL A   1      34.265  32.909  29.902  1.00  0.00     0.016 A 
ATOM     27  C   UNL A   1      35.637  34.161  28.373  1.00  0.00     0.016 A 
ATOM     28  C   UNL A   1      35.376  32.213  30.364  1.00  0.00     0.010 A 
ATOM     29  C   UNL A   1      36.762  33.459  28.847  1.00  0.00     0.010 A 
ATOM     30  C   UNL A   1      36.632  32.453  29.828  1.00  0.00    -0.014 A 
BRANCH  30  31
ATOM     31  C   UNL A   1      37.806  31.731  30.355  1.00  0.00     0.031 A 
ATOM     32  C   UNL A   1      38.217  31.870  31.807  1.00  0.00     0.074 A 
ATOM     33  C   UNL A   1      38.336  30.654  29.738  1.00  0.00     0.049 A 
ATOM     34  N   UNL A   1      39.166  31.263  32.484  1.00  0.00    -0.248 NA
ATOM     35  C   UNL A   1      37.335  32.707  32.629  1.00  0.00     0.031 C 
ATOM     36  C   UNL A   1      37.418  29.369  28.604  1.00  0.00     0.029 A 
ATOM     37  N   UNL A   1      39.867  29.936  30.090  1.00  0.00    -0.354 N 
ATOM     38  C   UNL A   1      38.993  31.633  33.814  1.00  0.00     0.074 A 
ATOM     39  C   UNL A   1      37.848  32.527  33.838  1.00  0.00     0.031 C 
ATOM     40  C   UNL A   1      38.640  27.960  28.454  1.00  0.00     0.029 A 
ATOM     41  C   UNL A   1      40.195  28.435  29.380  1.00  0.00     0.049 A 
ATOM     42  H   UNL A   1      40.520  30.380  30.679  1.00  0.00     0.167 HD
ATOM     43  C   UNL A   1      39.693  31.271  34.922  1.00  0.00     0.034 A 
ATOM     44  C   UNL A   1      41.361  27.805  29.160  1.00  0.00     0.034 A 
ATOM     45  C   UNL A   1      40.821  30.359  34.978  1.00  0.00     0.049 A 
ATOM     46  C   UNL A   1      42.301  27.797  30.286  1.00  0.00     0.074 A 
ATOM     47  C   UNL A   1      41.578  30.038  36.097  1.00  0.00     0.029 A 
ATOM     48  N   UNL A   1      41.370  29.631  33.927  1.00  0.00    -0.354 N 
ATOM     49  N   UNL A   1      42.121  28.351  31.455  1.00  0.00    -0.248 NA
ATOM     50  C   UNL A   1      43.469  26.929  30.161  1.00  0.00     0.031 C 
ATOM     51  C   UNL A   1      42.648  29.232  35.708  1.00  0.00     0.029 A 
ATOM     52  C   UNL A   1      42.504  28.940  34.366  1.00  0.00     0.049 A 
ATOM     53  H   UNL A   1      41.014  29.607  33.010  1.00  0.00     0.167 HD
ATOM     54  C   UNL A   1      43.123  27.833  32.248  1.00  0.00     0.074 A 
ATOM     55  C   UNL A   1      43.889  26.919  31.418  1.00  0.00     0.031 C 
ATOM     56  C   UNL A   1      43.337  28.078  33.560  1.00  0.00     0.034 A 
BRANCH  43  57
ATOM     57  C   UNL A   1      39.343  32.003  36.204  1.00  0.00     0.023 A 
ATOM     58  C   UNL A   1      38.404  31.529  37.135  1.00  0.00     0.031 A 
ATOM     59  C   UNL A   1      39.973  33.236  36.469  1.00  0.00     0.131 A 
ATOM     60  C   UNL A   1      38.074  32.319  38.248  1.00  0.00     0.055 A 
ATOM     61  C   UNL A   1      39.711  33.967  37.625  1.00  0.00     0.041 A 
ATOM     62  F   UNL A   1      40.858  33.749  35.599  1.00  0.00    -0.206 F 
ATOM     63  C   UNL A   1      38.744  33.517  38.516  1.00  0.00     0.022 A 
BRANCH  60  64
ATOM     64  S   UNL A   1      36.633  31.857  39.253  1.00  0.00     0.124 S 
ATOM     65  O   UNL A   1      35.649  32.851  38.829  1.00  0.00    -0.237 OA
ATOM     66  O   UNL A   1      36.380  30.485  38.831  1.00  0.00    -0.237 OA
ATOM     67  O   UNL A   1      37.109  32.011  40.626  1.00  0.00    -0.744 OA
ENDBRANCH  60  64
ENDBRANCH  43  57
BRANCH  44  68
ATOM     68  C   UNL A   1      41.580  27.066  27.891  1.00  0.00     0.023 A 
ATOM     69  C   UNL A   1      41.473  25.678  27.801  1.00  0.00     0.031 A 
ATOM     70  C   UNL A   1      41.961  27.772  26.726  1.00  0.00     0.131 A 
ATOM     71  C   UNL A   1      41.755  25.039  26.581  1.00  0.00     0.055 A 
ATOM     72  C   UNL A   1      42.162  27.141  25.499  1.00  0.00     0.041 A 
ATOM     73  F   UNL A   1      42.184  29.095  26.766  1.00  0.00    -0.206 F 
ATOM     74  C   UNL A   1      42.067  25.759  25.423  1.00  0.00     0.022 A 
BRANCH  71  75
ATOM     75  S   UNL A   1      41.844  23.231  26.559  1.00  0.00     0.124 S 
ATOM     76  O   UNL A   1      42.584  22.957  27.784  1.00  0.00    -0.237 OA
ATOM     77  O   UNL A   1      40.431  22.864  26.563  1.00  0.00    -0.237 OA
ATOM     78  O   UNL A   1      42.561  22.941  25.318  1.00  0.00    -0.744 OA
ENDBRANCH  71  75
ENDBRANCH  44  68
BRANCH  56  79
ATOM     79  C   UNL A   1      44.498  27.349  34.176  1.00  0.00     0.023 A 
ATOM     80  C   UNL A   1      44.303  26.124  34.836  1.00  0.00     0.031 A 
ATOM     81  C   UNL A   1      45.785  27.910  34.189  1.00  0.00     0.131 A 
ATOM     82  C   UNL A   1      45.349  25.551  35.569  1.00  0.00     0.055 A 
ATOM     83  C   UNL A   1      46.849  27.284  34.839  1.00  0.00     0.041 A 
ATOM     84  F   UNL A   1      46.025  29.090  33.593  1.00  0.00    -0.206 F 
ATOM     85  C   UNL A   1      46.629  26.107  35.553  1.00  0.00     0.022 A 
BRANCH  82  86
ATOM     86  S   UNL A   1      44.959  24.166  36.671  1.00  0.00     0.124 S 
ATOM     87  O   UNL A   1      46.288  23.749  37.107  1.00  0.00    -0.237 OA
ATOM     88  O   UNL A   1      44.127  24.800  37.688  1.00  0.00    -0.237 OA
ATOM     89  O   UNL A   1      44.265  23.222  35.799  1.00  0.00    -0.744 OA
ENDBRANCH  82  86
ENDBRANCH  56  79
ENDBRANCH  30  31
ENDBRANCH  23  25
ENDBRANCH  22  23
ENDBRANCH  21  22
ENDBRANCH   1  21
TORSDOF 17
ENDMDL
