MODEL 1
REMARK VINA RESULT:     -11.9      0.000      0.000
REMARK SMILES O=C(OCCOC(=O)c1ccccc1C(=O)OC[C@@H]1C[C@H]2CC[C@@H]1C2)c1ccc(-c2c3nc(c(-c4cc(S(=O)(=O)[O-])ccc4F)c4ccc([nH]4)c(-c4cc(S(=O)(=O)[O-])ccc4F)c4nc(c(-c5cc(S(=O)(=O)[O-])ccc5F)c5ccc2[nH]5)C=C4)C=C3)cc1
REMARK SMILES IDX 5 1 4 2 3 3 2 4 1 5 26 6 27 7 88 8 28 9 87 10 29 11 30 12
REMARK SMILES IDX 31 13 81 14 32 15 86 16 80 17 82 18 33 19 85 20 79 21 78 22
REMARK SMILES IDX 34 24 66 25 46 26 65 27 47 28 50 29 64 30 83 31 48 32 49 33
REMARK SMILES IDX 63 35 84 36 51 37 35 38 36 39 44 40 37 41 43 42 45 43 42 44
REMARK SMILES IDX 38 45 39 46 40 47 41 48 67 49 68 50 76 51 69 52 75 53 77 54
REMARK SMILES IDX 74 55 70 56 71 57 72 58 73 59 52 60 53 61 61 62 54 63 60 64
REMARK SMILES IDX 62 65 59 66 55 67 56 68 57 69 58 70 6 71 7 72 8 73 9 74
REMARK SMILES IDX 10 75 14 76 11 77 13 78 12 79 15 80 16 81 17 82 18 83 19 84
REMARK SMILES IDX 20 85 24 86 21 87 23 88 25 89 22 90
REMARK H PARENT 82 23 50 34
REMARK Flexibility Score: inf
ROOT
ATOM      1  C   UNL A   1      32.207  29.220  27.151  1.00  0.00     0.275 C 
ENDROOT
BRANCH   1   2
ATOM      2  C   UNL A   1      32.788  30.495  26.546  1.00  0.00     0.275 C 
BRANCH   2   3
ATOM      3  O   UNL A   1      33.260  31.437  27.529  1.00  0.00    -0.458 OA
BRANCH   3   4
ATOM      4  C   UNL A   1      34.506  31.906  27.779  1.00  0.00     0.338 C 
ATOM      5  O   UNL A   1      34.708  33.108  27.602  1.00  0.00    -0.246 OA
BRANCH   4   6
ATOM      6  C   UNL A   1      35.674  31.065  28.216  1.00  0.00     0.060 A 
ATOM      7  C   UNL A   1      35.634  29.722  28.604  1.00  0.00     0.016 A 
ATOM      8  C   UNL A   1      36.924  31.712  28.257  1.00  0.00     0.016 A 
ATOM      9  C   UNL A   1      36.796  29.032  28.974  1.00  0.00     0.010 A 
ATOM     10  C   UNL A   1      38.088  31.034  28.632  1.00  0.00     0.010 A 
ATOM     11  C   UNL A   1      38.026  29.688  29.008  1.00  0.00    -0.014 A 
BRANCH  11  12
ATOM     12  C   UNL A   1      39.201  29.045  29.641  1.00  0.00     0.031 A 
ATOM     13  C   UNL A   1      39.716  29.630  30.919  1.00  0.00     0.074 A 
ATOM     14  C   UNL A   1      39.793  27.965  29.102  1.00  0.00     0.049 A 
ATOM     15  N   UNL A   1      40.740  29.270  31.641  1.00  0.00    -0.248 NA
ATOM     16  C   UNL A   1      38.954  30.766  31.461  1.00  0.00     0.031 C 
ATOM     17  C   UNL A   1      39.315  27.264  27.920  1.00  0.00     0.029 A 
ATOM     18  N   UNL A   1      40.928  27.282  29.451  1.00  0.00    -0.354 N 
ATOM     19  C   UNL A   1      40.724  30.106  32.748  1.00  0.00     0.074 A 
ATOM     20  C   UNL A   1      39.641  31.046  32.554  1.00  0.00     0.031 C 
ATOM     21  C   UNL A   1      40.189  26.303  27.581  1.00  0.00     0.029 A 
ATOM     22  C   UNL A   1      41.288  26.315  28.539  1.00  0.00     0.049 A 
ATOM     23  H   UNL A   1      41.437  27.464  30.274  1.00  0.00     0.167 HD
ATOM     24  C   UNL A   1      41.518  30.066  33.845  1.00  0.00     0.034 A 
ATOM     25  C   UNL A   1      42.391  25.542  28.480  1.00  0.00     0.034 A 
ATOM     26  C   UNL A   1      42.633  29.163  33.976  1.00  0.00     0.049 A 
ATOM     27  C   UNL A   1      43.374  25.629  29.617  1.00  0.00     0.074 A 
ATOM     28  C   UNL A   1      43.546  29.054  35.008  1.00  0.00     0.029 A 
ATOM     29  N   UNL A   1      43.004  28.226  33.015  1.00  0.00    -0.354 N 
ATOM     30  N   UNL A   1      43.338  26.406  30.676  1.00  0.00    -0.248 NA
ATOM     31  C   UNL A   1      44.522  24.717  29.576  1.00  0.00     0.031 C 
ATOM     32  C   UNL A   1      44.503  28.098  34.643  1.00  0.00     0.029 A 
ATOM     33  C   UNL A   1      44.149  27.558  33.416  1.00  0.00     0.049 A 
ATOM     34  H   UNL A   1      42.522  28.063  32.173  1.00  0.00     0.167 HD
ATOM     35  C   UNL A   1      44.424  26.034  31.459  1.00  0.00     0.074 A 
ATOM     36  C   UNL A   1      45.107  24.976  30.739  1.00  0.00     0.031 C 
ATOM     37  C   UNL A   1      44.808  26.504  32.674  1.00  0.00     0.034 A 
BRANCH  24  38
ATOM     38  C   UNL A   1      41.211  31.077  34.922  1.00  0.00     0.023 A 
ATOM     39  C   UNL A   1      40.086  30.926  35.756  1.00  0.00     0.031 A 
ATOM     40  C   UNL A   1      41.954  32.263  35.024  1.00  0.00     0.131 A 
ATOM     41  C   UNL A   1      39.669  31.991  36.566  1.00  0.00     0.055 A 
ATOM     42  C   UNL A   1      41.585  33.284  35.903  1.00  0.00     0.041 A 
ATOM     43  F   UNL A   1      43.019  32.473  34.236  1.00  0.00    -0.206 F 
ATOM     44  C   UNL A   1      40.423  33.162  36.661  1.00  0.00     0.022 A 
BRANCH  41  45
ATOM     45  S   UNL A   1      38.021  31.905  37.324  1.00  0.00     0.124 S 
ATOM     46  O   UNL A   1      38.285  32.423  38.665  1.00  0.00    -0.237 OA
ATOM     47  O   UNL A   1      37.227  32.765  36.454  1.00  0.00    -0.237 OA
ATOM     48  O   UNL A   1      37.691  30.483  37.267  1.00  0.00    -0.744 OA
ENDBRANCH  41  45
ENDBRANCH  24  38
BRANCH  25  49
ATOM     49  C   UNL A   1      42.624  24.647  27.310  1.00  0.00     0.023 A 
ATOM     50  C   UNL A   1      42.193  23.312  27.304  1.00  0.00     0.031 A 
ATOM     51  C   UNL A   1      43.307  25.124  26.175  1.00  0.00     0.131 A 
ATOM     52  C   UNL A   1      42.477  22.490  26.200  1.00  0.00     0.055 A 
ATOM     53  C   UNL A   1      43.557  24.313  25.067  1.00  0.00     0.041 A 
ATOM     54  F   UNL A   1      43.738  26.395  26.127  1.00  0.00    -0.206 F 
ATOM     55  C   UNL A   1      43.148  22.983  25.079  1.00  0.00     0.022 A 
BRANCH  52  56
ATOM     56  S   UNL A   1      42.003  20.739  26.272  1.00  0.00     0.124 S 
ATOM     57  O   UNL A   1      40.570  20.805  26.014  1.00  0.00    -0.237 OA
ATOM     58  O   UNL A   1      42.820  20.161  25.210  1.00  0.00    -0.237 OA
ATOM     59  O   UNL A   1      42.375  20.339  27.628  1.00  0.00    -0.744 OA
ENDBRANCH  52  56
ENDBRANCH  25  49
BRANCH  37  60
ATOM     60  C   UNL A   1      45.980  25.822  33.328  1.00  0.00     0.023 A 
ATOM     61  C   UNL A   1      45.822  24.680  34.130  1.00  0.00     0.031 A 
ATOM     62  C   UNL A   1      47.279  26.325  33.132  1.00  0.00     0.131 A 
ATOM     63  C   UNL A   1      46.943  24.102  34.743  1.00  0.00     0.055 A 
ATOM     64  C   UNL A   1      48.396  25.712  33.699  1.00  0.00     0.041 A 
ATOM     65  F   UNL A   1      47.481  27.416  32.375  1.00  0.00    -0.206 F 
ATOM     66  C   UNL A   1      48.230  24.600  34.518  1.00  0.00     0.022 A 
BRANCH  63  67
ATOM     67  S   UNL A   1      46.692  22.727  35.898  1.00  0.00     0.124 S 
ATOM     68  O   UNL A   1      47.247  23.265  37.135  1.00  0.00    -0.237 OA
ATOM     69  O   UNL A   1      45.243  22.556  35.871  1.00  0.00    -0.237 OA
ATOM     70  O   UNL A   1      47.454  21.632  35.299  1.00  0.00    -0.744 OA
ENDBRANCH  63  67
ENDBRANCH  37  60
ENDBRANCH  11  12
ENDBRANCH   4   6
ENDBRANCH   3   4
ENDBRANCH   2   3
ENDBRANCH   1   2
BRANCH   1  71
ATOM     71  O   UNL A   1      32.930  28.074  26.691  1.00  0.00    -0.458 OA
BRANCH  71  72
ATOM     72  C   UNL A   1      32.224  26.929  26.557  1.00  0.00     0.339 C 
ATOM     73  O   UNL A   1      31.314  26.526  27.262  1.00  0.00    -0.246 OA
BRANCH  72  74
ATOM     74  C   UNL A   1      32.622  26.285  25.299  1.00  0.00     0.074 A 
ATOM     75  C   UNL A   1      33.904  25.704  25.272  1.00  0.00     0.016 A 
ATOM     76  C   UNL A   1      31.816  26.254  24.160  1.00  0.00     0.074 A 
ATOM     77  C   UNL A   1      34.370  25.068  24.120  1.00  0.00     0.001 A 
ATOM     78  C   UNL A   1      32.318  25.636  22.996  1.00  0.00     0.016 A 
ATOM     79  C   UNL A   1      33.577  25.034  22.980  1.00  0.00     0.001 A 
BRANCH  76  80
ATOM     80  C   UNL A   1      30.442  26.799  24.049  1.00  0.00     0.339 C 
ATOM     81  O   UNL A   1      29.466  26.107  24.302  1.00  0.00    -0.246 OA
BRANCH  80  82
ATOM     82  O   UNL A   1      30.412  28.133  23.803  1.00  0.00    -0.462 OA
BRANCH  82  83
ATOM     83  C   UNL A   1      30.213  28.502  22.422  1.00  0.00     0.237 C 
BRANCH  83  84
ATOM     84  C   UNL A   1      29.687  29.929  22.283  1.00  0.00     0.030 C 
ATOM     85  C   UNL A   1      29.548  30.699  23.612  1.00  0.00     0.011 C 
ATOM     86  C   UNL A   1      28.254  29.997  21.696  1.00  0.00    -0.004 C 
ATOM     87  C   UNL A   1      28.159  31.346  23.464  1.00  0.00    -0.010 C 
ATOM     88  C   UNL A   1      28.108  31.380  21.045  1.00  0.00     0.004 C 
ATOM     89  C   UNL A   1      27.359  30.162  22.925  1.00  0.00     0.007 C 
ATOM     90  C   UNL A   1      28.163  32.318  22.262  1.00  0.00     0.004 C 
ENDBRANCH  83  84
ENDBRANCH  82  83
ENDBRANCH  80  82
ENDBRANCH  76  80
ENDBRANCH  72  74
ENDBRANCH  71  72
ENDBRANCH   1  71
TORSDOF 18
ENDMDL
MODEL 2
REMARK VINA RESULT:     -11.9      1.490      1.777
REMARK SMILES O=C(OCCOC(=O)c1ccccc1C(=O)OC[C@@H]1C[C@H]2CC[C@@H]1C2)c1ccc(-c2c3nc(c(-c4cc(S(=O)(=O)[O-])ccc4F)c4ccc([nH]4)c(-c4cc(S(=O)(=O)[O-])ccc4F)c4nc(c(-c5cc(S(=O)(=O)[O-])ccc5F)c5ccc2[nH]5)C=C4)C=C3)cc1
REMARK SMILES IDX 5 1 4 2 3 3 2 4 1 5 26 6 27 7 88 8 28 9 87 10 29 11 30 12
REMARK SMILES IDX 31 13 81 14 32 15 86 16 80 17 82 18 33 19 85 20 79 21 78 22
REMARK SMILES IDX 34 24 66 25 46 26 65 27 47 28 50 29 64 30 83 31 48 32 49 33
REMARK SMILES IDX 63 35 84 36 51 37 35 38 36 39 44 40 37 41 43 42 45 43 42 44
REMARK SMILES IDX 38 45 39 46 40 47 41 48 67 49 68 50 76 51 69 52 75 53 77 54
REMARK SMILES IDX 74 55 70 56 71 57 72 58 73 59 52 60 53 61 61 62 54 63 60 64
REMARK SMILES IDX 62 65 59 66 55 67 56 68 57 69 58 70 6 71 7 72 8 73 9 74
REMARK SMILES IDX 10 75 14 76 11 77 13 78 12 79 15 80 16 81 17 82 18 83 19 84
REMARK SMILES IDX 20 85 24 86 21 87 23 88 25 89 22 90
REMARK H PARENT 82 23 50 34
REMARK Flexibility Score: inf
ROOT
ATOM      1  C   UNL A   1      32.627  28.766  27.177  1.00  0.00     0.275 C 
ENDROOT
BRANCH   1   2
ATOM      2  C   UNL A   1      33.188  29.904  26.329  1.00  0.00     0.275 C 
BRANCH   2   3
ATOM      3  O   UNL A   1      33.485  31.095  27.084  1.00  0.00    -0.458 OA
BRANCH   3   4
ATOM      4  C   UNL A   1      34.653  31.545  27.603  1.00  0.00     0.338 C 
ATOM      5  O   UNL A   1      34.845  32.762  27.598  1.00  0.00    -0.246 OA
BRANCH   4   6
ATOM      6  C   UNL A   1      35.750  30.673  28.147  1.00  0.00     0.060 A 
ATOM      7  C   UNL A   1      35.641  29.755  29.197  1.00  0.00     0.016 A 
ATOM      8  C   UNL A   1      37.016  30.821  27.548  1.00  0.00     0.016 A 
ATOM      9  C   UNL A   1      36.733  28.979  29.607  1.00  0.00     0.010 A 
ATOM     10  C   UNL A   1      38.113  30.056  27.955  1.00  0.00     0.010 A 
ATOM     11  C   UNL A   1      37.979  29.137  29.001  1.00  0.00    -0.014 A 
BRANCH  11  12
ATOM     12  C   UNL A   1      39.186  28.516  29.596  1.00  0.00     0.031 A 
ATOM     13  C   UNL A   1      39.756  29.137  30.833  1.00  0.00     0.074 A 
ATOM     14  C   UNL A   1      39.757  27.424  29.059  1.00  0.00     0.049 A 
ATOM     15  N   UNL A   1      40.815  28.800  31.516  1.00  0.00    -0.248 NA
ATOM     16  C   UNL A   1      39.014  30.284  31.379  1.00  0.00     0.031 C 
ATOM     17  C   UNL A   1      39.230  26.690  27.919  1.00  0.00     0.029 A 
ATOM     18  N   UNL A   1      40.911  26.756  29.373  1.00  0.00    -0.354 N 
ATOM     19  C   UNL A   1      40.845  29.666  32.600  1.00  0.00     0.074 A 
ATOM     20  C   UNL A   1      39.749  30.596  32.431  1.00  0.00     0.031 C 
ATOM     21  C   UNL A   1      40.092  25.725  27.565  1.00  0.00     0.029 A 
ATOM     22  C   UNL A   1      41.234  25.766  28.471  1.00  0.00     0.049 A 
ATOM     23  H   UNL A   1      41.457  26.962  30.166  1.00  0.00     0.167 HD
ATOM     24  C   UNL A   1      41.689  29.659  33.659  1.00  0.00     0.034 A 
ATOM     25  C   UNL A   1      42.337  24.997  28.381  1.00  0.00     0.034 A 
ATOM     26  C   UNL A   1      42.814  28.765  33.763  1.00  0.00     0.049 A 
ATOM     27  C   UNL A   1      43.371  25.118  29.469  1.00  0.00     0.074 A 
ATOM     28  C   UNL A   1      43.774  28.686  34.753  1.00  0.00     0.029 A 
ATOM     29  N   UNL A   1      43.145  27.803  32.810  1.00  0.00    -0.354 N 
ATOM     30  N   UNL A   1      43.380  25.923  30.507  1.00  0.00    -0.248 NA
ATOM     31  C   UNL A   1      44.521  24.210  29.399  1.00  0.00     0.031 C 
ATOM     32  C   UNL A   1      44.719  27.725  34.369  1.00  0.00     0.029 A 
ATOM     33  C   UNL A   1      44.311  27.151  33.175  1.00  0.00     0.049 A 
ATOM     34  H   UNL A   1      42.625  27.616  31.996  1.00  0.00     0.167 HD
ATOM     35  C   UNL A   1      44.503  25.577  31.249  1.00  0.00     0.074 A 
ATOM     36  C   UNL A   1      45.158  24.502  30.526  1.00  0.00     0.031 C 
ATOM     37  C   UNL A   1      44.941  26.081  32.432  1.00  0.00     0.034 A 
BRANCH  24  38
ATOM     38  C   UNL A   1      41.427  30.696  34.722  1.00  0.00     0.023 A 
ATOM     39  C   UNL A   1      40.290  30.613  35.550  1.00  0.00     0.031 A 
ATOM     40  C   UNL A   1      42.228  31.844  34.816  1.00  0.00     0.131 A 
ATOM     41  C   UNL A   1      39.922  31.708  36.344  1.00  0.00     0.055 A 
ATOM     42  C   UNL A   1      41.906  32.893  35.680  1.00  0.00     0.041 A 
ATOM     43  F   UNL A   1      43.308  31.991  34.033  1.00  0.00    -0.206 F 
ATOM     44  C   UNL A   1      40.734  32.840  36.431  1.00  0.00     0.022 A 
BRANCH  41  45
ATOM     45  S   UNL A   1      38.267  31.715  37.091  1.00  0.00     0.124 S 
ATOM     46  O   UNL A   1      38.559  32.162  38.452  1.00  0.00    -0.237 OA
ATOM     47  O   UNL A   1      37.544  32.661  36.250  1.00  0.00    -0.237 OA
ATOM     48  O   UNL A   1      37.835  30.323  36.980  1.00  0.00    -0.744 OA
ENDBRANCH  41  45
ENDBRANCH  24  38
BRANCH  25  49
ATOM     49  C   UNL A   1      42.520  24.072  27.226  1.00  0.00     0.023 A 
ATOM     50  C   UNL A   1      42.044  22.753  27.253  1.00  0.00     0.031 A 
ATOM     51  C   UNL A   1      43.201  24.503  26.071  1.00  0.00     0.131 A 
ATOM     52  C   UNL A   1      42.282  21.900  26.161  1.00  0.00     0.055 A 
ATOM     53  C   UNL A   1      43.406  23.663  24.975  1.00  0.00     0.041 A 
ATOM     54  F   UNL A   1      43.675  25.757  25.991  1.00  0.00    -0.206 F 
ATOM     55  C   UNL A   1      42.952  22.348  25.021  1.00  0.00     0.022 A 
BRANCH  52  56
ATOM     56  S   UNL A   1      41.750  20.168  26.275  1.00  0.00     0.124 S 
ATOM     57  O   UNL A   1      42.487  19.555  25.177  1.00  0.00    -0.237 OA
ATOM     58  O   UNL A   1      42.183  19.806  27.620  1.00  0.00    -0.237 OA
ATOM     59  O   UNL A   1      40.302  20.242  26.088  1.00  0.00    -0.744 OA
ENDBRANCH  52  56
ENDBRANCH  25  49
BRANCH  37  60
ATOM     60  C   UNL A   1      46.145  25.421  33.049  1.00  0.00     0.023 A 
ATOM     61  C   UNL A   1      47.453  25.747  32.656  1.00  0.00     0.031 A 
ATOM     62  C   UNL A   1      45.972  24.454  34.055  1.00  0.00     0.131 A 
ATOM     63  C   UNL A   1      48.540  25.079  33.240  1.00  0.00     0.055 A 
ATOM     64  C   UNL A   1      47.058  23.834  34.671  1.00  0.00     0.041 A 
ATOM     65  F   UNL A   1      44.740  24.107  34.463  1.00  0.00    -0.206 F 
ATOM     66  C   UNL A   1      48.351  24.138  34.256  1.00  0.00     0.022 A 
BRANCH  63  67
ATOM     67  S   UNL A   1      50.206  25.405  32.604  1.00  0.00     0.124 S 
ATOM     68  O   UNL A   1      50.441  24.240  31.758  1.00  0.00    -0.237 OA
ATOM     69  O   UNL A   1      50.032  26.675  31.906  1.00  0.00    -0.237 OA
ATOM     70  O   UNL A   1      51.027  25.472  33.811  1.00  0.00    -0.744 OA
ENDBRANCH  63  67
ENDBRANCH  37  60
ENDBRANCH  11  12
ENDBRANCH   4   6
ENDBRANCH   3   4
ENDBRANCH   2   3
ENDBRANCH   1   2
BRANCH   1  71
ATOM     71  O   UNL A   1      33.237  27.525  26.814  1.00  0.00    -0.458 OA
BRANCH  71  72
ATOM     72  C   UNL A   1      32.404  26.525  26.450  1.00  0.00     0.339 C 
ATOM     73  O   UNL A   1      31.260  26.332  26.828  1.00  0.00    -0.246 OA
BRANCH  72  74
ATOM     74  C   UNL A   1      33.043  25.758  25.374  1.00  0.00     0.074 A 
ATOM     75  C   UNL A   1      34.167  24.993  25.734  1.00  0.00     0.016 A 
ATOM     76  C   UNL A   1      32.609  25.782  24.048  1.00  0.00     0.074 A 
ATOM     77  C   UNL A   1      34.842  24.230  24.779  1.00  0.00     0.001 A 
ATOM     78  C   UNL A   1      33.323  25.031  23.091  1.00  0.00     0.016 A 
ATOM     79  C   UNL A   1      34.419  24.249  23.455  1.00  0.00     0.001 A 
BRANCH  76  80
ATOM     80  C   UNL A   1      31.432  26.519  23.528  1.00  0.00     0.339 C 
ATOM     81  O   UNL A   1      30.380  25.942  23.292  1.00  0.00    -0.246 OA
BRANCH  80  82
ATOM     82  O   UNL A   1      31.608  27.864  23.504  1.00  0.00    -0.462 OA
BRANCH  82  83
ATOM     83  C   UNL A   1      30.854  28.568  22.494  1.00  0.00     0.237 C 
BRANCH  83  84
ATOM     84  C   UNL A   1      29.713  29.383  23.100  1.00  0.00     0.030 C 
ATOM     85  C   UNL A   1      28.345  28.671  23.114  1.00  0.00     0.011 C 
ATOM     86  C   UNL A   1      29.412  30.688  22.319  1.00  0.00    -0.004 C 
ATOM     87  C   UNL A   1      27.402  29.779  22.613  1.00  0.00    -0.010 C 
ATOM     88  C   UNL A   1      28.756  31.657  23.314  1.00  0.00     0.004 C 
ATOM     89  C   UNL A   1      28.215  30.324  21.441  1.00  0.00     0.007 C 
ATOM     90  C   UNL A   1      27.415  30.964  23.605  1.00  0.00     0.004 C 
ENDBRANCH  83  84
ENDBRANCH  82  83
ENDBRANCH  80  82
ENDBRANCH  76  80
ENDBRANCH  72  74
ENDBRANCH  71  72
ENDBRANCH   1  71
TORSDOF 18
ENDMDL
MODEL 3
REMARK VINA RESULT:     -11.6      5.276     10.559
REMARK SMILES O=C(OCCOC(=O)c1ccccc1C(=O)OC[C@@H]1C[C@H]2CC[C@@H]1C2)c1ccc(-c2c3nc(c(-c4cc(S(=O)(=O)[O-])ccc4F)c4ccc([nH]4)c(-c4cc(S(=O)(=O)[O-])ccc4F)c4nc(c(-c5cc(S(=O)(=O)[O-])ccc5F)c5ccc2[nH]5)C=C4)C=C3)cc1
REMARK SMILES IDX 5 1 4 2 3 3 2 4 1 5 26 6 27 7 88 8 28 9 87 10 29 11 30 12
REMARK SMILES IDX 31 13 81 14 32 15 86 16 80 17 82 18 33 19 85 20 79 21 78 22
REMARK SMILES IDX 34 24 66 25 46 26 65 27 47 28 50 29 64 30 83 31 48 32 49 33
REMARK SMILES IDX 63 35 84 36 51 37 35 38 36 39 44 40 37 41 43 42 45 43 42 44
REMARK SMILES IDX 38 45 39 46 40 47 41 48 67 49 68 50 76 51 69 52 75 53 77 54
REMARK SMILES IDX 74 55 70 56 71 57 72 58 73 59 52 60 53 61 61 62 54 63 60 64
REMARK SMILES IDX 62 65 59 66 55 67 56 68 57 69 58 70 6 71 7 72 8 73 9 74
REMARK SMILES IDX 10 75 14 76 11 77 13 78 12 79 15 80 16 81 17 82 18 83 19 84
REMARK SMILES IDX 20 85 24 86 21 87 23 88 25 89 22 90
REMARK H PARENT 82 23 50 34
REMARK Flexibility Score: inf
ROOT
ATOM      1  C   UNL A   1      36.684  22.193  24.189  1.00  0.00     0.275 C 
ENDROOT
BRANCH   1   2
ATOM      2  C   UNL A   1      37.301  21.549  25.428  1.00  0.00     0.275 C 
BRANCH   2   3
ATOM      3  O   UNL A   1      38.729  21.722  25.517  1.00  0.00    -0.458 OA
BRANCH   3   4
ATOM      4  C   UNL A   1      39.499  22.225  26.512  1.00  0.00     0.338 C 
ATOM      5  O   UNL A   1      40.014  21.424  27.293  1.00  0.00    -0.246 OA
BRANCH   4   6
ATOM      6  C   UNL A   1      39.741  23.688  26.762  1.00  0.00     0.060 A 
ATOM      7  C   UNL A   1      40.144  24.638  25.817  1.00  0.00     0.016 A 
ATOM      8  C   UNL A   1      39.565  24.129  28.087  1.00  0.00     0.016 A 
ATOM      9  C   UNL A   1      40.320  25.985  26.163  1.00  0.00     0.010 A 
ATOM     10  C   UNL A   1      39.744  25.469  28.444  1.00  0.00     0.010 A 
ATOM     11  C   UNL A   1      40.139  26.405  27.481  1.00  0.00    -0.014 A 
BRANCH  11  12
ATOM     12  C   UNL A   1      40.572  27.758  27.902  1.00  0.00     0.031 A 
ATOM     13  C   UNL A   1      42.036  28.066  27.873  1.00  0.00     0.074 A 
ATOM     14  C   UNL A   1      39.688  28.693  28.291  1.00  0.00     0.049 A 
ATOM     15  N   UNL A   1      42.660  29.157  28.222  1.00  0.00    -0.248 NA
ATOM     16  C   UNL A   1      42.910  26.998  27.364  1.00  0.00     0.031 C 
ATOM     17  C   UNL A   1      38.243  28.529  28.264  1.00  0.00     0.029 A 
ATOM     18  N   UNL A   1      39.865  29.950  28.808  1.00  0.00    -0.354 N 
ATOM     19  C   UNL A   1      43.997  28.926  27.933  1.00  0.00     0.074 A 
ATOM     20  C   UNL A   1      44.101  27.560  27.466  1.00  0.00     0.031 C 
ATOM     21  C   UNL A   1      37.656  29.600  28.821  1.00  0.00     0.029 A 
ATOM     22  C   UNL A   1      38.695  30.537  29.234  1.00  0.00     0.049 A 
ATOM     23  H   UNL A   1      40.744  30.391  28.869  1.00  0.00     0.167 HD
ATOM     24  C   UNL A   1      45.038  29.790  28.015  1.00  0.00     0.034 A 
ATOM     25  C   UNL A   1      38.491  31.693  29.897  1.00  0.00     0.034 A 
ATOM     26  C   UNL A   1      44.914  31.121  28.551  1.00  0.00     0.049 A 
ATOM     27  C   UNL A   1      39.683  32.577  30.153  1.00  0.00     0.074 A 
ATOM     28  C   UNL A   1      45.893  32.077  28.738  1.00  0.00     0.029 A 
ATOM     29  N   UNL A   1      43.724  31.673  29.020  1.00  0.00    -0.354 N 
ATOM     30  N   UNL A   1      40.944  32.362  29.853  1.00  0.00    -0.248 NA
ATOM     31  C   UNL A   1      39.428  33.870  30.798  1.00  0.00     0.031 C 
ATOM     32  C   UNL A   1      45.310  33.180  29.377  1.00  0.00     0.029 A 
ATOM     33  C   UNL A   1      43.952  32.943  29.523  1.00  0.00     0.049 A 
ATOM     34  H   UNL A   1      42.848  31.225  28.996  1.00  0.00     0.167 HD
ATOM     35  C   UNL A   1      41.625  33.518  30.216  1.00  0.00     0.074 A 
ATOM     36  C   UNL A   1      40.635  34.419  30.777  1.00  0.00     0.031 C 
ATOM     37  C   UNL A   1      42.942  33.820  30.077  1.00  0.00     0.034 A 
BRANCH  24  38
ATOM     38  C   UNL A   1      46.375  29.259  27.565  1.00  0.00     0.023 A 
ATOM     39  C   UNL A   1      46.630  28.998  26.204  1.00  0.00     0.031 A 
ATOM     40  C   UNL A   1      47.347  28.878  28.502  1.00  0.00     0.131 A 
ATOM     41  C   UNL A   1      47.767  28.268  25.833  1.00  0.00     0.055 A 
ATOM     42  C   UNL A   1      48.524  28.232  28.115  1.00  0.00     0.041 A 
ATOM     43  F   UNL A   1      47.147  29.076  29.814  1.00  0.00    -0.206 F 
ATOM     44  C   UNL A   1      48.728  27.901  26.778  1.00  0.00     0.022 A 
BRANCH  41  45
ATOM     45  S   UNL A   1      47.865  27.624  24.138  1.00  0.00     0.124 S 
ATOM     46  O   UNL A   1      49.279  27.821  23.828  1.00  0.00    -0.237 OA
ATOM     47  O   UNL A   1      47.434  26.240  24.301  1.00  0.00    -0.237 OA
ATOM     48  O   UNL A   1      46.946  28.481  23.392  1.00  0.00    -0.744 OA
ENDBRANCH  41  45
ENDBRANCH  24  38
BRANCH  25  49
ATOM     49  C   UNL A   1      37.127  32.061  30.372  1.00  0.00     0.023 A 
ATOM     50  C   UNL A   1      36.234  32.782  29.565  1.00  0.00     0.031 A 
ATOM     51  C   UNL A   1      36.704  31.704  31.666  1.00  0.00     0.131 A 
ATOM     52  C   UNL A   1      34.975  33.151  30.070  1.00  0.00     0.055 A 
ATOM     53  C   UNL A   1      35.440  32.044  32.152  1.00  0.00     0.041 A 
ATOM     54  F   UNL A   1      37.518  31.011  32.479  1.00  0.00    -0.206 F 
ATOM     55  C   UNL A   1      34.570  32.780  31.354  1.00  0.00     0.022 A 
BRANCH  52  56
ATOM     56  S   UNL A   1      33.888  34.178  29.041  1.00  0.00     0.124 S 
ATOM     57  O   UNL A   1      33.412  33.216  28.055  1.00  0.00    -0.237 OA
ATOM     58  O   UNL A   1      32.904  34.644  30.011  1.00  0.00    -0.237 OA
ATOM     59  O   UNL A   1      34.784  35.210  28.521  1.00  0.00    -0.744 OA
ENDBRANCH  52  56
ENDBRANCH  25  49
BRANCH  37  60
ATOM     60  C   UNL A   1      43.368  35.209  30.472  1.00  0.00     0.023 A 
ATOM     61  C   UNL A   1      43.728  35.528  31.791  1.00  0.00     0.031 A 
ATOM     62  C   UNL A   1      43.420  36.225  29.501  1.00  0.00     0.131 A 
ATOM     63  C   UNL A   1      44.085  36.846  32.112  1.00  0.00     0.055 A 
ATOM     64  C   UNL A   1      43.831  37.520  29.816  1.00  0.00     0.041 A 
ATOM     65  F   UNL A   1      43.083  35.969  28.226  1.00  0.00    -0.206 F 
ATOM     66  C   UNL A   1      44.156  37.838  31.130  1.00  0.00     0.022 A 
BRANCH  63  67
ATOM     67  S   UNL A   1      44.392  37.265  33.850  1.00  0.00     0.124 S 
ATOM     68  O   UNL A   1      45.653  36.578  34.109  1.00  0.00    -0.237 OA
ATOM     69  O   UNL A   1      44.456  38.723  33.814  1.00  0.00    -0.237 OA
ATOM     70  O   UNL A   1      43.229  36.716  34.546  1.00  0.00    -0.744 OA
ENDBRANCH  63  67
ENDBRANCH  37  60
ENDBRANCH  11  12
ENDBRANCH   4   6
ENDBRANCH   3   4
ENDBRANCH   2   3
ENDBRANCH   1   2
BRANCH   1  71
ATOM     71  O   UNL A   1      35.266  22.305  24.338  1.00  0.00    -0.458 OA
BRANCH  71  72
ATOM     72  C   UNL A   1      34.806  23.442  24.906  1.00  0.00     0.339 C 
ATOM     73  O   UNL A   1      35.392  24.180  25.680  1.00  0.00    -0.246 OA
BRANCH  72  74
ATOM     74  C   UNL A   1      33.500  23.759  24.315  1.00  0.00     0.074 A 
ATOM     75  C   UNL A   1      33.498  24.705  23.273  1.00  0.00     0.016 A 
ATOM     76  C   UNL A   1      32.299  23.200  24.755  1.00  0.00     0.074 A 
ATOM     77  C   UNL A   1      32.304  25.071  22.649  1.00  0.00     0.001 A 
ATOM     78  C   UNL A   1      31.099  23.608  24.135  1.00  0.00     0.016 A 
ATOM     79  C   UNL A   1      31.102  24.522  23.081  1.00  0.00     0.001 A 
BRANCH  76  80
ATOM     80  C   UNL A   1      32.150  22.180  25.820  1.00  0.00     0.339 C 
ATOM     81  O   UNL A   1      32.266  22.479  27.000  1.00  0.00    -0.246 OA
BRANCH  80  82
ATOM     82  O   UNL A   1      31.732  20.976  25.356  1.00  0.00    -0.462 OA
BRANCH  82  83
ATOM     83  C   UNL A   1      32.620  20.334  24.416  1.00  0.00     0.237 C 
BRANCH  83  84
ATOM     84  C   UNL A   1      33.133  18.995  24.939  1.00  0.00     0.030 C 
ATOM     85  C   UNL A   1      34.607  18.691  24.606  1.00  0.00     0.011 C 
ATOM     86  C   UNL A   1      32.388  17.777  24.335  1.00  0.00    -0.004 C 
ATOM     87  C   UNL A   1      34.535  17.229  24.133  1.00  0.00    -0.010 C 
ATOM     88  C   UNL A   1      32.529  16.628  25.343  1.00  0.00     0.004 C 
ATOM     89  C   UNL A   1      33.313  17.295  23.218  1.00  0.00     0.007 C 
ATOM     90  C   UNL A   1      34.036  16.331  25.288  1.00  0.00     0.004 C 
ENDBRANCH  83  84
ENDBRANCH  82  83
ENDBRANCH  80  82
ENDBRANCH  76  80
ENDBRANCH  72  74
ENDBRANCH  71  72
ENDBRANCH   1  71
TORSDOF 18
ENDMDL
