MODEL 1
REMARK VINA RESULT:     -12.2      0.000      0.000
REMARK SMILES Cc1nccn1CCC[NH+]1CCC2(CC1)[C@@H](C(=O)OCCOC(=O)c1ccc(-c3c4nc(c(-c5cc(S(=O)(=O)[O-])ccc5F)c5ccc([nH]5)c(-c5cc(S(=O)(=O)[O-])ccc5F)c5nc(c(-c6cc(S(=O)(=O)[O-])ccc6F)c6ccc3[nH]6)C=C5)C=C4)cc1)CC(=O)N2C
REMARK SMILES IDX 20 1 19 2 17 3 18 4 16 5 10 6 11 7 15 8 12 10 14 11 13 12
REMARK SMILES IDX 91 13 88 14 89 15 92 16 90 17 9 18 8 19 7 20 6 21 1 22 2 23
REMARK SMILES IDX 3 24 4 25 5 26 21 27 22 28 23 29 24 30 25 31 26 32 87 33
REMARK SMILES IDX 27 34 86 35 28 36 29 37 30 38 80 39 31 40 85 41 79 42 81 43
REMARK SMILES IDX 32 44 84 45 78 46 77 47 33 49 65 50 45 51 64 52 46 53 49 54
REMARK SMILES IDX 63 55 82 56 47 57 48 58 62 60 83 61 50 62 34 63 35 64 43 65
REMARK SMILES IDX 36 66 42 67 44 68 41 69 37 70 38 71 39 72 40 73 66 74 67 75
REMARK SMILES IDX 75 76 68 77 74 78 76 79 73 80 69 81 70 82 71 83 72 84 51 85
REMARK SMILES IDX 52 86 60 87 53 88 59 89 61 90 58 91 54 92 55 93 56 94 57 95
REMARK H PARENT 10 9 81 48 49 59
REMARK Flexibility Score: inf
ROOT
ATOM      1  C   UNL A   1      33.435  29.087  25.926  1.00  0.00     0.274 C 
ENDROOT
BRANCH   1   2
ATOM      2  O   UNL A   1      32.005  29.073  26.094  1.00  0.00    -0.462 OA
BRANCH   2   3
ATOM      3  C   UNL A   1      31.443  27.872  26.349  1.00  0.00     0.311 C 
ATOM      4  O   UNL A   1      31.574  27.279  27.417  1.00  0.00    -0.252 OA
BRANCH   3   5
ATOM      5  C   UNL A   1      30.800  27.223  25.134  1.00  0.00     0.134 C 
ATOM      6  N   UNL A   1      32.344  23.211  24.154  1.00  0.00    -0.335 N 
ATOM      7  C   UNL A   1      31.050  23.656  23.649  1.00  0.00     0.264 C 
ATOM      8  C   UNL A   1      33.346  24.274  23.993  1.00  0.00     0.264 C 
ATOM      9  H   UNL A   1      32.534  22.402  23.565  1.00  0.00     0.348 HD
ATOM     10  C   UNL A   1      30.516  24.901  24.324  1.00  0.00     0.091 C 
ATOM     11  C   UNL A   1      32.882  25.622  24.585  1.00  0.00     0.091 C 
ATOM     12  C   UNL A   1      31.464  26.112  24.220  1.00  0.00     0.067 C 
ATOM     13  N   UNL A   1      31.395  26.730  22.868  1.00  0.00    -0.339 N 
ATOM     14  C   UNL A   1      30.351  28.349  24.192  1.00  0.00     0.118 C 
ATOM     15  C   UNL A   1      30.619  27.872  22.812  1.00  0.00     0.223 C 
ATOM     16  C   UNL A   1      31.832  26.157  21.607  1.00  0.00     0.147 C 
ATOM     17  O   UNL A   1      30.214  28.428  21.801  1.00  0.00    -0.275 OA
BRANCH   6  18
ATOM     18  C   UNL A   1      32.425  22.637  25.500  1.00  0.00     0.264 C 
BRANCH  18  19
ATOM     19  C   UNL A   1      33.766  22.700  26.229  1.00  0.00     0.083 C 
BRANCH  19  20
ATOM     20  C   UNL A   1      34.839  21.701  25.804  1.00  0.00     0.129 C 
BRANCH  20  21
ATOM     21  N   UNL A   1      36.208  22.153  25.848  1.00  0.00    -0.335 N 
ATOM     22  C   UNL A   1      37.241  20.031  24.951  1.00  0.00     0.087 C 
ATOM     23  C   UNL A   1      37.308  21.430  25.445  1.00  0.00     0.105 A 
ATOM     24  N   UNL A   1      38.399  22.165  25.518  1.00  0.00    -0.242 NA
ATOM     25  C   UNL A   1      37.979  23.416  25.896  1.00  0.00     0.131 A 
ATOM     26  C   UNL A   1      36.617  23.436  26.070  1.00  0.00     0.107 A 
ENDBRANCH  20  21
ENDBRANCH  19  20
ENDBRANCH  18  19
ENDBRANCH   6  18
ENDBRANCH   3   5
ENDBRANCH   2   3
ENDBRANCH   1   2
BRANCH   1  27
ATOM     27  C   UNL A   1      34.072  29.520  27.243  1.00  0.00     0.275 C 
BRANCH  27  28
ATOM     28  O   UNL A   1      35.485  29.228  27.277  1.00  0.00    -0.458 OA
BRANCH  28  29
ATOM     29  C   UNL A   1      36.172  29.788  28.298  1.00  0.00     0.338 C 
ATOM     30  O   UNL A   1      35.739  30.665  29.037  1.00  0.00    -0.246 OA
BRANCH  29  31
ATOM     31  C   UNL A   1      37.541  29.255  28.399  1.00  0.00     0.060 A 
ATOM     32  C   UNL A   1      38.452  29.564  27.379  1.00  0.00     0.016 A 
ATOM     33  C   UNL A   1      37.906  28.413  29.451  1.00  0.00     0.016 A 
ATOM     34  C   UNL A   1      39.670  28.914  27.330  1.00  0.00     0.010 A 
ATOM     35  C   UNL A   1      39.160  27.834  29.452  1.00  0.00     0.010 A 
ATOM     36  C   UNL A   1      40.023  28.052  28.373  1.00  0.00    -0.014 A 
BRANCH  36  37
ATOM     37  C   UNL A   1      41.430  27.673  28.489  1.00  0.00     0.031 A 
ATOM     38  C   UNL A   1      41.699  26.352  27.837  1.00  0.00     0.074 A 
ATOM     39  C   UNL A   1      42.387  28.524  28.913  1.00  0.00     0.049 A 
ATOM     40  N   UNL A   1      42.156  25.267  28.369  1.00  0.00    -0.248 NA
ATOM     41  C   UNL A   1      41.173  26.153  26.467  1.00  0.00     0.031 C 
ATOM     42  C   UNL A   1      42.222  29.927  29.303  1.00  0.00     0.029 A 
ATOM     43  N   UNL A   1      43.737  28.366  28.954  1.00  0.00    -0.354 N 
ATOM     44  C   UNL A   1      42.214  24.338  27.331  1.00  0.00     0.074 A 
ATOM     45  C   UNL A   1      41.372  24.848  26.290  1.00  0.00     0.031 C 
ATOM     46  C   UNL A   1      43.424  30.546  29.270  1.00  0.00     0.029 A 
ATOM     47  C   UNL A   1      44.455  29.563  28.982  1.00  0.00     0.049 A 
ATOM     48  H   UNL A   1      44.172  27.482  28.963  1.00  0.00     0.167 HD
ATOM     49  C   UNL A   1      43.186  23.386  27.290  1.00  0.00     0.034 A 
ATOM     50  C   UNL A   1      45.779  29.738  28.704  1.00  0.00     0.034 A 
ATOM     51  C   UNL A   1      43.752  23.178  28.602  1.00  0.00     0.049 A 
ATOM     52  C   UNL A   1      46.416  28.399  28.812  1.00  0.00     0.074 A 
ATOM     53  C   UNL A   1      43.237  22.794  29.826  1.00  0.00     0.029 A 
ATOM     54  N   UNL A   1      44.969  23.761  28.878  1.00  0.00    -0.354 N 
ATOM     55  N   UNL A   1      46.488  27.729  29.929  1.00  0.00    -0.248 NA
ATOM     56  C   UNL A   1      46.505  27.595  27.601  1.00  0.00     0.031 C 
ATOM     57  C   UNL A   1      43.914  23.610  30.779  1.00  0.00     0.029 A 
ATOM     58  C   UNL A   1      44.870  24.372  30.103  1.00  0.00     0.049 A 
ATOM     59  H   UNL A   1      45.765  23.742  28.301  1.00  0.00     0.167 HD
ATOM     60  C   UNL A   1      46.192  26.419  29.583  1.00  0.00     0.074 A 
ATOM     61  C   UNL A   1      46.293  26.382  28.124  1.00  0.00     0.031 C 
ATOM     62  C   UNL A   1      45.605  25.567  30.476  1.00  0.00     0.034 A 
BRANCH  49  63
ATOM     63  C   UNL A   1      43.909  22.971  26.019  1.00  0.00     0.023 A 
ATOM     64  C   UNL A   1      43.986  21.591  25.752  1.00  0.00     0.031 A 
ATOM     65  C   UNL A   1      44.765  23.788  25.240  1.00  0.00     0.131 A 
ATOM     66  C   UNL A   1      44.952  21.076  24.871  1.00  0.00     0.055 A 
ATOM     67  C   UNL A   1      45.679  23.275  24.317  1.00  0.00     0.041 A 
ATOM     68  F   UNL A   1      44.843  25.115  25.379  1.00  0.00    -0.206 F 
ATOM     69  C   UNL A   1      45.804  21.909  24.154  1.00  0.00     0.022 A 
BRANCH  66  70
ATOM     70  S   UNL A   1      45.203  19.285  24.827  1.00  0.00     0.124 S 
ATOM     71  O   UNL A   1      46.564  19.170  25.336  1.00  0.00    -0.237 OA
ATOM     72  O   UNL A   1      44.141  18.815  25.710  1.00  0.00    -0.237 OA
ATOM     73  O   UNL A   1      45.032  18.955  23.414  1.00  0.00    -0.744 OA
ENDBRANCH  66  70
ENDBRANCH  49  63
BRANCH  50  74
ATOM     74  C   UNL A   1      46.408  30.885  27.975  1.00  0.00     0.023 A 
ATOM     75  C   UNL A   1      45.699  31.722  27.080  1.00  0.00     0.031 A 
ATOM     76  C   UNL A   1      47.698  31.325  28.349  1.00  0.00     0.131 A 
ATOM     77  C   UNL A   1      46.285  32.924  26.603  1.00  0.00     0.055 A 
ATOM     78  C   UNL A   1      48.270  32.509  27.877  1.00  0.00     0.041 A 
ATOM     79  F   UNL A   1      48.423  30.656  29.261  1.00  0.00    -0.206 F 
ATOM     80  C   UNL A   1      47.561  33.319  27.007  1.00  0.00     0.022 A 
BRANCH  77  81
ATOM     81  S   UNL A   1      45.363  34.043  25.493  1.00  0.00     0.124 S 
ATOM     82  O   UNL A   1      44.586  33.111  24.685  1.00  0.00    -0.237 OA
ATOM     83  O   UNL A   1      44.614  34.871  26.432  1.00  0.00    -0.237 OA
ATOM     84  O   UNL A   1      46.419  34.750  24.765  1.00  0.00    -0.744 OA
ENDBRANCH  77  81
ENDBRANCH  50  74
BRANCH  62  85
ATOM     85  C   UNL A   1      45.554  25.970  31.938  1.00  0.00     0.023 A 
ATOM     86  C   UNL A   1      44.418  26.477  32.611  1.00  0.00     0.031 A 
ATOM     87  C   UNL A   1      46.699  25.695  32.705  1.00  0.00     0.131 A 
ATOM     88  C   UNL A   1      44.466  26.692  34.005  1.00  0.00     0.055 A 
ATOM     89  C   UNL A   1      46.735  25.888  34.083  1.00  0.00     0.041 A 
ATOM     90  F   UNL A   1      47.801  25.189  32.126  1.00  0.00    -0.206 F 
ATOM     91  C   UNL A   1      45.619  26.392  34.739  1.00  0.00     0.022 A 
BRANCH  88  92
ATOM     92  S   UNL A   1      43.034  27.386  34.897  1.00  0.00     0.124 S 
ATOM     93  O   UNL A   1      43.535  27.577  36.253  1.00  0.00    -0.237 OA
ATOM     94  O   UNL A   1      42.750  28.604  34.143  1.00  0.00    -0.237 OA
ATOM     95  O   UNL A   1      42.014  26.342  34.766  1.00  0.00    -0.744 OA
ENDBRANCH  88  92
ENDBRANCH  62  85
ENDBRANCH  36  37
ENDBRANCH  29  31
ENDBRANCH  28  29
ENDBRANCH  27  28
ENDBRANCH   1  27
TORSDOF 18
ENDMDL
MODEL 2
REMARK VINA RESULT:     -12.2      4.116      8.880
REMARK SMILES Cc1nccn1CCC[NH+]1CCC2(CC1)[C@@H](C(=O)OCCOC(=O)c1ccc(-c3c4nc(c(-c5cc(S(=O)(=O)[O-])ccc5F)c5ccc([nH]5)c(-c5cc(S(=O)(=O)[O-])ccc5F)c5nc(c(-c6cc(S(=O)(=O)[O-])ccc6F)c6ccc3[nH]6)C=C5)C=C4)cc1)CC(=O)N2C
REMARK SMILES IDX 20 1 19 2 17 3 18 4 16 5 10 6 11 7 15 8 12 10 14 11 13 12
REMARK SMILES IDX 91 13 88 14 89 15 92 16 90 17 9 18 8 19 7 20 6 21 1 22 2 23
REMARK SMILES IDX 3 24 4 25 5 26 21 27 22 28 23 29 24 30 25 31 26 32 87 33
REMARK SMILES IDX 27 34 86 35 28 36 29 37 30 38 80 39 31 40 85 41 79 42 81 43
REMARK SMILES IDX 32 44 84 45 78 46 77 47 33 49 65 50 45 51 64 52 46 53 49 54
REMARK SMILES IDX 63 55 82 56 47 57 48 58 62 60 83 61 50 62 34 63 35 64 43 65
REMARK SMILES IDX 36 66 42 67 44 68 41 69 37 70 38 71 39 72 40 73 66 74 67 75
REMARK SMILES IDX 75 76 68 77 74 78 76 79 73 80 69 81 70 82 71 83 72 84 51 85
REMARK SMILES IDX 52 86 60 87 53 88 59 89 61 90 58 91 54 92 55 93 56 94 57 95
REMARK H PARENT 10 9 81 48 49 59
REMARK Flexibility Score: inf
ROOT
ATOM      1  C   UNL A   1      37.088  23.247  25.287  1.00  0.00     0.274 C 
ENDROOT
BRANCH   1   2
ATOM      2  O   UNL A   1      36.017  22.417  24.799  1.00  0.00    -0.462 OA
BRANCH   2   3
ATOM      3  C   UNL A   1      35.448  22.795  23.634  1.00  0.00     0.311 C 
ATOM      4  O   UNL A   1      36.057  23.393  22.749  1.00  0.00    -0.252 OA
BRANCH   3   5
ATOM      5  C   UNL A   1      33.942  22.598  23.591  1.00  0.00     0.134 C 
ATOM      6  N   UNL A   1      31.584  26.286  24.111  1.00  0.00    -0.335 N 
ATOM      7  C   UNL A   1      30.989  25.101  23.506  1.00  0.00     0.264 C 
ATOM      8  C   UNL A   1      32.353  25.916  25.307  1.00  0.00     0.264 C 
ATOM      9  H   UNL A   1      30.761  26.845  24.333  1.00  0.00     0.348 HD
ATOM     10  C   UNL A   1      31.992  24.042  23.101  1.00  0.00     0.091 C 
ATOM     11  C   UNL A   1      33.369  24.786  25.033  1.00  0.00     0.091 C 
ATOM     12  C   UNL A   1      32.866  23.543  24.268  1.00  0.00     0.067 C 
ATOM     13  N   UNL A   1      32.112  22.597  25.134  1.00  0.00    -0.339 N 
ATOM     14  C   UNL A   1      33.648  21.177  24.091  1.00  0.00     0.118 C 
ATOM     15  C   UNL A   1      32.408  21.267  24.904  1.00  0.00     0.223 C 
ATOM     16  C   UNL A   1      30.971  22.889  25.985  1.00  0.00     0.147 C 
ATOM     17  O   UNL A   1      31.775  20.301  25.302  1.00  0.00    -0.275 OA
BRANCH   6  18
ATOM     18  C   UNL A   1      32.360  27.203  23.271  1.00  0.00     0.264 C 
BRANCH  18  19
ATOM     19  C   UNL A   1      31.697  28.505  22.825  1.00  0.00     0.083 C 
BRANCH  19  20
ATOM     20  C   UNL A   1      30.808  29.218  23.840  1.00  0.00     0.129 C 
BRANCH  20  21
ATOM     21  N   UNL A   1      29.394  29.265  23.553  1.00  0.00    -0.335 N 
ATOM     22  C   UNL A   1      29.139  31.767  23.769  1.00  0.00     0.087 C 
ATOM     23  C   UNL A   1      28.623  30.403  23.490  1.00  0.00     0.105 A 
ATOM     24  N   UNL A   1      27.397  30.112  23.107  1.00  0.00    -0.242 NA
ATOM     25  C   UNL A   1      27.402  28.766  22.835  1.00  0.00     0.131 A 
ATOM     26  C   UNL A   1      28.644  28.230  23.073  1.00  0.00     0.107 A 
ENDBRANCH  20  21
ENDBRANCH  19  20
ENDBRANCH  18  19
ENDBRANCH   6  18
ENDBRANCH   3   5
ENDBRANCH   2   3
ENDBRANCH   1   2
BRANCH   1  27
ATOM     27  C   UNL A   1      38.151  22.347  25.909  1.00  0.00     0.275 C 
BRANCH  27  28
ATOM     28  O   UNL A   1      39.429  23.011  26.001  1.00  0.00    -0.458 OA
BRANCH  28  29
ATOM     29  C   UNL A   1      40.019  22.973  27.217  1.00  0.00     0.338 C 
ATOM     30  O   UNL A   1      40.297  21.948  27.830  1.00  0.00    -0.246 OA
BRANCH  29  31
ATOM     31  C   UNL A   1      40.253  24.322  27.759  1.00  0.00     0.060 A 
ATOM     32  C   UNL A   1      39.278  25.305  27.540  1.00  0.00     0.016 A 
ATOM     33  C   UNL A   1      41.444  24.632  28.419  1.00  0.00     0.016 A 
ATOM     34  C   UNL A   1      39.555  26.623  27.844  1.00  0.00     0.010 A 
ATOM     35  C   UNL A   1      41.683  25.936  28.808  1.00  0.00     0.010 A 
ATOM     36  C   UNL A   1      40.759  26.935  28.485  1.00  0.00    -0.014 A 
BRANCH  36  37
ATOM     37  C   UNL A   1      40.867  28.248  29.118  1.00  0.00     0.031 A 
ATOM     38  C   UNL A   1      41.988  29.049  28.531  1.00  0.00     0.074 A 
ATOM     39  C   UNL A   1      39.924  28.744  29.945  1.00  0.00     0.049 A 
ATOM     40  N   UNL A   1      43.033  29.529  29.121  1.00  0.00    -0.248 NA
ATOM     41  C   UNL A   1      42.063  29.129  27.054  1.00  0.00     0.031 C 
ATOM     42  C   UNL A   1      38.663  28.111  30.338  1.00  0.00     0.029 A 
ATOM     43  N   UNL A   1      39.818  29.980  30.503  1.00  0.00    -0.354 N 
ATOM     44  C   UNL A   1      43.753  30.188  28.126  1.00  0.00     0.074 A 
ATOM     45  C   UNL A   1      43.258  29.690  26.877  1.00  0.00     0.031 C 
ATOM     46  C   UNL A   1      37.822  29.052  30.826  1.00  0.00     0.029 A 
ATOM     47  C   UNL A   1      38.524  30.323  30.898  1.00  0.00     0.049 A 
ATOM     48  H   UNL A   1      40.589  30.582  30.619  1.00  0.00     0.167 HD
ATOM     49  C   UNL A   1      44.477  31.308  28.402  1.00  0.00     0.034 A 
ATOM     50  C   UNL A   1      38.050  31.571  31.178  1.00  0.00     0.034 A 
ATOM     51  C   UNL A   1      44.777  31.385  29.812  1.00  0.00     0.049 A 
ATOM     52  C   UNL A   1      39.237  32.429  31.430  1.00  0.00     0.074 A 
ATOM     53  C   UNL A   1      45.446  30.567  30.704  1.00  0.00     0.029 A 
ATOM     54  N   UNL A   1      44.019  32.234  30.587  1.00  0.00    -0.354 N 
ATOM     55  N   UNL A   1      40.050  32.247  32.434  1.00  0.00    -0.248 NA
ATOM     56  C   UNL A   1      39.803  33.149  30.298  1.00  0.00     0.031 C 
ATOM     57  C   UNL A   1      44.677  30.627  31.902  1.00  0.00     0.029 A 
ATOM     58  C   UNL A   1      43.643  31.547  31.714  1.00  0.00     0.049 A 
ATOM     59  H   UNL A   1      43.787  33.166  30.370  1.00  0.00     0.167 HD
ATOM     60  C   UNL A   1      41.321  32.427  31.905  1.00  0.00     0.074 A 
ATOM     61  C   UNL A   1      41.101  33.062  30.606  1.00  0.00     0.031 C 
ATOM     62  C   UNL A   1      42.403  31.780  32.431  1.00  0.00     0.034 A 
BRANCH  49  63
ATOM     63  C   UNL A   1      44.531  32.524  27.493  1.00  0.00     0.023 A 
ATOM     64  C   UNL A   1      43.903  33.695  27.958  1.00  0.00     0.031 A 
ATOM     65  C   UNL A   1      44.875  32.525  26.119  1.00  0.00     0.131 A 
ATOM     66  C   UNL A   1      43.530  34.719  27.070  1.00  0.00     0.055 A 
ATOM     67  C   UNL A   1      44.559  33.575  25.253  1.00  0.00     0.041 A 
ATOM     68  F   UNL A   1      45.452  31.488  25.503  1.00  0.00    -0.206 F 
ATOM     69  C   UNL A   1      43.849  34.665  25.717  1.00  0.00     0.022 A 
BRANCH  66  70
ATOM     70  S   UNL A   1      42.448  36.032  27.685  1.00  0.00     0.124 S 
ATOM     71  O   UNL A   1      42.911  36.170  29.060  1.00  0.00    -0.237 OA
ATOM     72  O   UNL A   1      42.770  37.131  26.781  1.00  0.00    -0.237 OA
ATOM     73  O   UNL A   1      41.109  35.467  27.528  1.00  0.00    -0.744 OA
ENDBRANCH  66  70
ENDBRANCH  49  63
BRANCH  50  74
ATOM     74  C   UNL A   1      36.700  32.124  30.839  1.00  0.00     0.023 A 
ATOM     75  C   UNL A   1      35.894  32.832  31.764  1.00  0.00     0.031 A 
ATOM     76  C   UNL A   1      36.283  32.167  29.489  1.00  0.00     0.131 A 
ATOM     77  C   UNL A   1      34.738  33.528  31.323  1.00  0.00     0.055 A 
ATOM     78  C   UNL A   1      35.144  32.853  29.062  1.00  0.00     0.041 A 
ATOM     79  F   UNL A   1      37.020  31.607  28.517  1.00  0.00    -0.206 F 
ATOM     80  C   UNL A   1      34.370  33.545  29.976  1.00  0.00     0.022 A 
BRANCH  77  81
ATOM     81  S   UNL A   1      33.718  34.492  32.492  1.00  0.00     0.124 S 
ATOM     82  O   UNL A   1      33.140  33.451  33.334  1.00  0.00    -0.237 OA
ATOM     83  O   UNL A   1      34.702  35.365  33.121  1.00  0.00    -0.237 OA
ATOM     84  O   UNL A   1      32.760  35.179  31.624  1.00  0.00    -0.744 OA
ENDBRANCH  77  81
ENDBRANCH  50  74
BRANCH  62  85
ATOM     85  C   UNL A   1      42.258  31.100  33.780  1.00  0.00     0.023 A 
ATOM     86  C   UNL A   1      42.057  29.714  33.984  1.00  0.00     0.031 A 
ATOM     87  C   UNL A   1      42.467  31.903  34.914  1.00  0.00     0.131 A 
ATOM     88  C   UNL A   1      42.068  29.189  35.294  1.00  0.00     0.055 A 
ATOM     89  C   UNL A   1      42.499  31.377  36.203  1.00  0.00     0.041 A 
ATOM     90  F   UNL A   1      42.688  33.222  34.782  1.00  0.00    -0.206 F 
ATOM     91  C   UNL A   1      42.295  30.017  36.399  1.00  0.00     0.022 A 
BRANCH  88  92
ATOM     92  S   UNL A   1      41.768  27.415  35.595  1.00  0.00     0.124 S 
ATOM     93  O   UNL A   1      40.884  27.027  34.503  1.00  0.00    -0.237 OA
ATOM     94  O   UNL A   1      43.116  26.854  35.555  1.00  0.00    -0.237 OA
ATOM     95  O   UNL A   1      41.144  27.397  36.920  1.00  0.00    -0.744 OA
ENDBRANCH  88  92
ENDBRANCH  62  85
ENDBRANCH  36  37
ENDBRANCH  29  31
ENDBRANCH  28  29
ENDBRANCH  27  28
ENDBRANCH   1  27
TORSDOF 18
ENDMDL
MODEL 3
REMARK VINA RESULT:     -12.1      4.084      8.644
REMARK SMILES Cc1nccn1CCC[NH+]1CCC2(CC1)[C@@H](C(=O)OCCOC(=O)c1ccc(-c3c4nc(c(-c5cc(S(=O)(=O)[O-])ccc5F)c5ccc([nH]5)c(-c5cc(S(=O)(=O)[O-])ccc5F)c5nc(c(-c6cc(S(=O)(=O)[O-])ccc6F)c6ccc3[nH]6)C=C5)C=C4)cc1)CC(=O)N2C
REMARK SMILES IDX 20 1 19 2 17 3 18 4 16 5 10 6 11 7 15 8 12 10 14 11 13 12
REMARK SMILES IDX 91 13 88 14 89 15 92 16 90 17 9 18 8 19 7 20 6 21 1 22 2 23
REMARK SMILES IDX 3 24 4 25 5 26 21 27 22 28 23 29 24 30 25 31 26 32 87 33
REMARK SMILES IDX 27 34 86 35 28 36 29 37 30 38 80 39 31 40 85 41 79 42 81 43
REMARK SMILES IDX 32 44 84 45 78 46 77 47 33 49 65 50 45 51 64 52 46 53 49 54
REMARK SMILES IDX 63 55 82 56 47 57 48 58 62 60 83 61 50 62 34 63 35 64 43 65
REMARK SMILES IDX 36 66 42 67 44 68 41 69 37 70 38 71 39 72 40 73 66 74 67 75
REMARK SMILES IDX 75 76 68 77 74 78 76 79 73 80 69 81 70 82 71 83 72 84 51 85
REMARK SMILES IDX 52 86 60 87 53 88 59 89 61 90 58 91 54 92 55 93 56 94 57 95
REMARK H PARENT 10 9 81 48 49 59
REMARK Flexibility Score: inf
ROOT
ATOM      1  C   UNL A   1      36.914  22.989  25.554  1.00  0.00     0.274 C 
ENDROOT
BRANCH   1   2
ATOM      2  O   UNL A   1      36.039  22.089  24.849  1.00  0.00    -0.462 OA
BRANCH   2   3
ATOM      3  C   UNL A   1      35.474  22.564  23.718  1.00  0.00     0.311 C 
ATOM      4  O   UNL A   1      36.071  23.275  22.913  1.00  0.00    -0.252 OA
BRANCH   3   5
ATOM      5  C   UNL A   1      33.978  22.313  23.625  1.00  0.00     0.134 C 
ATOM      6  N   UNL A   1      31.475  25.925  23.984  1.00  0.00    -0.335 N 
ATOM      7  C   UNL A   1      30.944  24.708  23.382  1.00  0.00     0.264 C 
ATOM      8  C   UNL A   1      32.212  25.605  25.214  1.00  0.00     0.264 C 
ATOM      9  H   UNL A   1      30.626  26.458  24.166  1.00  0.00     0.348 HD
ATOM     10  C   UNL A   1      31.998  23.678  23.035  1.00  0.00     0.091 C 
ATOM     11  C   UNL A   1      33.276  24.507  25.001  1.00  0.00     0.091 C 
ATOM     12  C   UNL A   1      32.845  23.232  24.243  1.00  0.00     0.067 C 
ATOM     13  N   UNL A   1      32.093  22.276  25.099  1.00  0.00    -0.339 N 
ATOM     14  C   UNL A   1      33.715  20.892  24.142  1.00  0.00     0.118 C 
ATOM     15  C   UNL A   1      32.444  20.954  24.907  1.00  0.00     0.223 C 
ATOM     16  C   UNL A   1      30.912  22.544  25.903  1.00  0.00     0.147 C 
ATOM     17  O   UNL A   1      31.830  19.973  25.302  1.00  0.00    -0.275 OA
BRANCH   6  18
ATOM     18  C   UNL A   1      32.250  26.852  23.155  1.00  0.00     0.264 C 
BRANCH  18  19
ATOM     19  C   UNL A   1      32.332  28.313  23.595  1.00  0.00     0.083 C 
BRANCH  19  20
ATOM     20  C   UNL A   1      33.365  28.663  24.662  1.00  0.00     0.129 C 
BRANCH  20  21
ATOM     21  N   UNL A   1      32.943  29.555  25.715  1.00  0.00    -0.335 N 
ATOM     22  C   UNL A   1      35.068  29.427  27.072  1.00  0.00     0.087 C 
ATOM     23  C   UNL A   1      33.700  29.937  26.799  1.00  0.00     0.105 A 
ATOM     24  N   UNL A   1      33.062  30.838  27.517  1.00  0.00    -0.242 NA
ATOM     25  C   UNL A   1      31.902  31.105  26.832  1.00  0.00     0.131 A 
ATOM     26  C   UNL A   1      31.828  30.343  25.692  1.00  0.00     0.107 A 
ENDBRANCH  20  21
ENDBRANCH  19  20
ENDBRANCH  18  19
ENDBRANCH   6  18
ENDBRANCH   3   5
ENDBRANCH   2   3
ENDBRANCH   1   2
BRANCH   1  27
ATOM     27  C   UNL A   1      38.164  22.220  25.970  1.00  0.00     0.275 C 
BRANCH  27  28
ATOM     28  O   UNL A   1      39.330  23.071  26.006  1.00  0.00    -0.458 OA
BRANCH  28  29
ATOM     29  C   UNL A   1      40.060  23.011  27.142  1.00  0.00     0.338 C 
ATOM     30  O   UNL A   1      40.448  21.976  27.673  1.00  0.00    -0.246 OA
BRANCH  29  31
ATOM     31  C   UNL A   1      40.304  24.346  27.712  1.00  0.00     0.060 A 
ATOM     32  C   UNL A   1      39.357  25.354  27.476  1.00  0.00     0.016 A 
ATOM     33  C   UNL A   1      41.477  24.621  28.417  1.00  0.00     0.016 A 
ATOM     34  C   UNL A   1      39.652  26.661  27.809  1.00  0.00     0.010 A 
ATOM     35  C   UNL A   1      41.731  25.914  28.834  1.00  0.00     0.010 A 
ATOM     36  C   UNL A   1      40.840  26.937  28.495  1.00  0.00    -0.014 A 
BRANCH  36  37
ATOM     37  C   UNL A   1      40.954  28.238  29.151  1.00  0.00     0.031 A 
ATOM     38  C   UNL A   1      42.048  29.064  28.546  1.00  0.00     0.074 A 
ATOM     39  C   UNL A   1      40.033  28.707  30.017  1.00  0.00     0.049 A 
ATOM     40  N   UNL A   1      43.105  29.543  29.113  1.00  0.00    -0.248 NA
ATOM     41  C   UNL A   1      42.076  29.174  27.070  1.00  0.00     0.031 C 
ATOM     42  C   UNL A   1      38.791  28.053  30.436  1.00  0.00     0.029 A 
ATOM     43  N   UNL A   1      39.931  29.930  30.603  1.00  0.00    -0.354 N 
ATOM     44  C   UNL A   1      43.788  30.230  28.110  1.00  0.00     0.074 A 
ATOM     45  C   UNL A   1      43.259  29.751  26.867  1.00  0.00     0.031 C 
ATOM     46  C   UNL A   1      37.956  28.974  30.969  1.00  0.00     0.029 A 
ATOM     47  C   UNL A   1      38.647  30.251  31.045  1.00  0.00     0.049 A 
ATOM     48  H   UNL A   1      40.699  30.538  30.707  1.00  0.00     0.167 HD
ATOM     49  C   UNL A   1      44.508  31.351  28.386  1.00  0.00     0.034 A 
ATOM     50  C   UNL A   1      38.169  31.488  31.365  1.00  0.00     0.034 A 
ATOM     51  C   UNL A   1      44.852  31.403  29.788  1.00  0.00     0.049 A 
ATOM     52  C   UNL A   1      39.354  32.353  31.598  1.00  0.00     0.074 A 
ATOM     53  C   UNL A   1      45.556  30.575  30.641  1.00  0.00     0.029 A 
ATOM     54  N   UNL A   1      44.109  32.228  30.603  1.00  0.00    -0.354 N 
ATOM     55  N   UNL A   1      40.200  32.160  32.573  1.00  0.00    -0.248 NA
ATOM     56  C   UNL A   1      39.877  33.103  30.464  1.00  0.00     0.031 C 
ATOM     57  C   UNL A   1      44.824  30.602  31.864  1.00  0.00     0.029 A 
ATOM     58  C   UNL A   1      43.776  31.514  31.727  1.00  0.00     0.049 A 
ATOM     59  H   UNL A   1      43.861  33.161  30.413  1.00  0.00     0.167 HD
ATOM     60  C   UNL A   1      41.451  32.365  32.009  1.00  0.00     0.074 A 
ATOM     61  C   UNL A   1      41.185  33.024  30.730  1.00  0.00     0.031 C 
ATOM     62  C   UNL A   1      42.556  31.719  32.487  1.00  0.00     0.034 A 
BRANCH  49  63
ATOM     63  C   UNL A   1      44.522  32.586  27.501  1.00  0.00     0.023 A 
ATOM     64  C   UNL A   1      43.862  33.728  27.992  1.00  0.00     0.031 A 
ATOM     65  C   UNL A   1      44.858  32.625  26.126  1.00  0.00     0.131 A 
ATOM     66  C   UNL A   1      43.453  34.758  27.127  1.00  0.00     0.055 A 
ATOM     67  C   UNL A   1      44.506  33.682  25.282  1.00  0.00     0.041 A 
ATOM     68  F   UNL A   1      45.461  31.617  25.487  1.00  0.00    -0.206 F 
ATOM     69  C   UNL A   1      43.767  34.740  25.772  1.00  0.00     0.022 A 
BRANCH  66  70
ATOM     70  S   UNL A   1      42.336  36.026  27.773  1.00  0.00     0.124 S 
ATOM     71  O   UNL A   1      42.665  36.007  29.193  1.00  0.00    -0.237 OA
ATOM     72  O   UNL A   1      42.762  37.205  27.027  1.00  0.00    -0.237 OA
ATOM     73  O   UNL A   1      41.011  35.515  27.429  1.00  0.00    -0.744 OA
ENDBRANCH  66  70
ENDBRANCH  49  63
BRANCH  50  74
ATOM     74  C   UNL A   1      36.803  32.033  31.080  1.00  0.00     0.023 A 
ATOM     75  C   UNL A   1      35.984  32.637  32.065  1.00  0.00     0.031 A 
ATOM     76  C   UNL A   1      36.377  32.181  29.740  1.00  0.00     0.131 A 
ATOM     77  C   UNL A   1      34.808  33.338  31.690  1.00  0.00     0.055 A 
ATOM     78  C   UNL A   1      35.219  32.872  29.377  1.00  0.00     0.041 A 
ATOM     79  F   UNL A   1      37.123  31.726  28.721  1.00  0.00    -0.206 F 
ATOM     80  C   UNL A   1      34.433  33.462  30.351  1.00  0.00     0.022 A 
BRANCH  77  81
ATOM     81  S   UNL A   1      33.771  34.172  32.941  1.00  0.00     0.124 S 
ATOM     82  O   UNL A   1      33.132  35.227  32.163  1.00  0.00    -0.237 OA
ATOM     83  O   UNL A   1      32.908  33.091  33.404  1.00  0.00    -0.237 OA
ATOM     84  O   UNL A   1      34.742  34.643  33.931  1.00  0.00    -0.744 OA
ENDBRANCH  77  81
ENDBRANCH  50  74
BRANCH  62  85
ATOM     85  C   UNL A   1      42.461  31.010  33.825  1.00  0.00     0.023 A 
ATOM     86  C   UNL A   1      42.131  29.647  34.011  1.00  0.00     0.031 A 
ATOM     87  C   UNL A   1      42.855  31.746  34.956  1.00  0.00     0.131 A 
ATOM     88  C   UNL A   1      42.203  29.077  35.301  1.00  0.00     0.055 A 
ATOM     89  C   UNL A   1      42.946  31.175  36.221  1.00  0.00     0.041 A 
ATOM     90  F   UNL A   1      43.204  33.039  34.837  1.00  0.00    -0.206 F 
ATOM     91  C   UNL A   1      42.615  29.838  36.401  1.00  0.00     0.022 A 
BRANCH  88  92
ATOM     92  S   UNL A   1      41.743  27.335  35.582  1.00  0.00     0.124 S 
ATOM     93  O   UNL A   1      40.842  27.035  34.476  1.00  0.00    -0.237 OA
ATOM     94  O   UNL A   1      43.036  26.656  35.554  1.00  0.00    -0.237 OA
ATOM     95  O   UNL A   1      41.102  27.361  36.900  1.00  0.00    -0.744 OA
ENDBRANCH  88  92
ENDBRANCH  62  85
ENDBRANCH  36  37
ENDBRANCH  29  31
ENDBRANCH  28  29
ENDBRANCH  27  28
ENDBRANCH   1  27
TORSDOF 18
ENDMDL
