MODEL 1
REMARK VINA RESULT:     -10.4      0.000      0.000
REMARK SMILES O=C(OCCOC(=O)c1ccc(-c2ccc(Cl)cc2)cc1F)c1ccc(-c2c3nc(c(-c4cc(S(=O)(=O)[O-])ccc4F)c4ccc([nH]4)c(-c4cc(S(=O)(=O)[O-])ccc4F)c4nc(c(-c5cc(S(=O)(=O)[O-])ccc5F)c5ccc2[nH]5)C=C4)C=C3)cc1
REMARK SMILES IDX 4 1 3 2 2 3 1 4 23 5 24 6 85 7 25 8 84 9 26 10 27 11 28 12
REMARK SMILES IDX 78 13 29 14 83 15 77 16 79 17 30 18 82 19 76 20 75 21 31 23
REMARK SMILES IDX 63 24 43 25 62 26 44 27 47 28 61 29 80 30 45 31 46 32 60 34
REMARK SMILES IDX 81 35 48 36 32 37 33 38 41 39 34 40 40 41 42 42 39 43 35 44
REMARK SMILES IDX 36 45 37 46 38 47 64 48 65 49 73 50 66 51 72 52 74 53 71 54
REMARK SMILES IDX 67 55 68 56 69 57 70 58 49 59 50 60 58 61 51 62 57 63 59 64
REMARK SMILES IDX 56 65 52 66 53 67 54 68 55 69 5 70 6 71 7 72 8 73 9 74 10 75
REMARK SMILES IDX 21 76 11 77 20 78 22 79 12 80 13 81 14 82 19 83 15 84 18 85
REMARK SMILES IDX 16 86 17 87
REMARK H PARENT 79 22 47 33
REMARK Flexibility Score: inf
ROOT
ATOM      1  C   UNL A   1      33.997  33.419  27.962  1.00  0.00     0.275 C 
ENDROOT
BRANCH   1   2
ATOM      2  O   UNL A   1      33.620  32.030  27.978  1.00  0.00    -0.458 OA
BRANCH   2   3
ATOM      3  C   UNL A   1      34.233  30.952  27.435  1.00  0.00     0.338 C 
ATOM      4  O   UNL A   1      33.629  30.313  26.572  1.00  0.00    -0.246 OA
BRANCH   3   5
ATOM      5  C   UNL A   1      35.538  30.397  27.922  1.00  0.00     0.060 A 
ATOM      6  C   UNL A   1      36.761  30.456  27.253  1.00  0.00     0.016 A 
ATOM      7  C   UNL A   1      35.516  29.785  29.191  1.00  0.00     0.016 A 
ATOM      8  C   UNL A   1      37.941  30.029  27.863  1.00  0.00     0.010 A 
ATOM      9  C   UNL A   1      36.692  29.354  29.808  1.00  0.00     0.010 A 
ATOM     10  C   UNL A   1      37.916  29.494  29.149  1.00  0.00    -0.014 A 
BRANCH  10  11
ATOM     11  C   UNL A   1      39.159  28.972  29.748  1.00  0.00     0.031 A 
ATOM     12  C   UNL A   1      39.699  29.644  30.968  1.00  0.00     0.074 A 
ATOM     13  C   UNL A   1      39.755  27.876  29.245  1.00  0.00     0.049 A 
ATOM     14  N   UNL A   1      40.769  29.361  31.656  1.00  0.00    -0.248 NA
ATOM     15  C   UNL A   1      38.897  30.752  31.510  1.00  0.00     0.031 C 
ATOM     16  C   UNL A   1      39.213  27.048  28.171  1.00  0.00     0.029 A 
ATOM     17  N   UNL A   1      40.941  27.270  29.561  1.00  0.00    -0.354 N 
ATOM     18  C   UNL A   1      40.736  30.210  32.753  1.00  0.00     0.074 A 
ATOM     19  C   UNL A   1      39.591  31.079  32.587  1.00  0.00     0.031 C 
ATOM     20  C   UNL A   1      40.101  26.093  27.855  1.00  0.00     0.029 A 
ATOM     21  C   UNL A   1      41.267  26.235  28.717  1.00  0.00     0.049 A 
ATOM     22  H   UNL A   1      41.505  27.548  30.319  1.00  0.00     0.167 HD
ATOM     23  C   UNL A   1      41.564  30.224  33.823  1.00  0.00     0.034 A 
ATOM     24  C   UNL A   1      42.385  25.491  28.644  1.00  0.00     0.034 A 
ATOM     25  C   UNL A   1      42.731  29.387  33.926  1.00  0.00     0.049 A 
ATOM     26  C   UNL A   1      43.432  25.686  29.702  1.00  0.00     0.074 A 
ATOM     27  C   UNL A   1      43.694  29.362  34.917  1.00  0.00     0.029 A 
ATOM     28  N   UNL A   1      43.104  28.433  32.982  1.00  0.00    -0.354 N 
ATOM     29  N   UNL A   1      43.424  26.526  30.711  1.00  0.00    -0.248 NA
ATOM     30  C   UNL A   1      44.607  24.811  29.649  1.00  0.00     0.031 C 
ATOM     31  C   UNL A   1      44.682  28.446  34.539  1.00  0.00     0.029 A 
ATOM     32  C   UNL A   1      44.299  27.838  33.352  1.00  0.00     0.049 A 
ATOM     33  H   UNL A   1      42.594  28.215  32.170  1.00  0.00     0.167 HD
ATOM     34  C   UNL A   1      44.561  26.238  31.455  1.00  0.00     0.074 A 
ATOM     35  C   UNL A   1      45.250  25.168  30.753  1.00  0.00     0.031 C 
ATOM     36  C   UNL A   1      44.974  26.784  32.628  1.00  0.00     0.034 A 
BRANCH  23  37
ATOM     37  C   UNL A   1      41.237  31.214  34.909  1.00  0.00     0.023 A 
ATOM     38  C   UNL A   1      40.103  31.050  35.727  1.00  0.00     0.031 A 
ATOM     39  C   UNL A   1      42.005  32.379  35.068  1.00  0.00     0.131 A 
ATOM     40  C   UNL A   1      39.724  32.073  36.610  1.00  0.00     0.055 A 
ATOM     41  C   UNL A   1      41.665  33.359  36.002  1.00  0.00     0.041 A 
ATOM     42  F   UNL A   1      43.077  32.602  34.292  1.00  0.00    -0.206 F 
ATOM     43  C   UNL A   1      40.509  33.217  36.768  1.00  0.00     0.022 A 
BRANCH  40  44
ATOM     44  S   UNL A   1      38.113  31.955  37.436  1.00  0.00     0.124 S 
ATOM     45  O   UNL A   1      37.759  30.558  37.194  1.00  0.00    -0.237 OA
ATOM     46  O   UNL A   1      38.438  32.301  38.815  1.00  0.00    -0.237 OA
ATOM     47  O   UNL A   1      37.292  32.932  36.725  1.00  0.00    -0.744 OA
ENDBRANCH  40  44
ENDBRANCH  23  37
BRANCH  24  48
ATOM     48  C   UNL A   1      42.534  24.497  27.549  1.00  0.00     0.023 A 
ATOM     49  C   UNL A   1      41.961  23.221  27.640  1.00  0.00     0.031 A 
ATOM     50  C   UNL A   1      43.191  24.846  26.354  1.00  0.00     0.131 A 
ATOM     51  C   UNL A   1      42.056  22.335  26.555  1.00  0.00     0.055 A 
ATOM     52  C   UNL A   1      43.273  23.966  25.273  1.00  0.00     0.041 A 
ATOM     53  F   UNL A   1      43.731  26.067  26.208  1.00  0.00    -0.206 F 
ATOM     54  C   UNL A   1      42.702  22.701  25.371  1.00  0.00     0.022 A 
BRANCH  51  55
ATOM     55  S   UNL A   1      41.295  20.694  26.698  1.00  0.00     0.124 S 
ATOM     56  O   UNL A   1      40.216  20.781  25.722  1.00  0.00    -0.237 OA
ATOM     57  O   UNL A   1      42.406  19.813  26.355  1.00  0.00    -0.237 OA
ATOM     58  O   UNL A   1      40.871  20.637  28.095  1.00  0.00    -0.744 OA
ENDBRANCH  51  55
ENDBRANCH  24  48
BRANCH  36  59
ATOM     59  C   UNL A   1      46.203  26.190  33.263  1.00  0.00     0.023 A 
ATOM     60  C   UNL A   1      46.139  25.040  34.064  1.00  0.00     0.031 A 
ATOM     61  C   UNL A   1      47.461  26.769  33.022  1.00  0.00     0.131 A 
ATOM     62  C   UNL A   1      47.315  24.522  34.626  1.00  0.00     0.055 A 
ATOM     63  C   UNL A   1      48.632  26.216  33.538  1.00  0.00     0.041 A 
ATOM     64  F   UNL A   1      47.572  27.872  32.264  1.00  0.00    -0.206 F 
ATOM     65  C   UNL A   1      48.562  25.089  34.350  1.00  0.00     0.022 A 
BRANCH  62  66
ATOM     66  S   UNL A   1      47.187  23.119  35.767  1.00  0.00     0.124 S 
ATOM     67  O   UNL A   1      45.741  22.975  35.904  1.00  0.00    -0.237 OA
ATOM     68  O   UNL A   1      47.867  22.055  35.035  1.00  0.00    -0.237 OA
ATOM     69  O   UNL A   1      47.880  23.588  36.965  1.00  0.00    -0.744 OA
ENDBRANCH  62  66
ENDBRANCH  36  59
ENDBRANCH  10  11
ENDBRANCH   3   5
ENDBRANCH   2   3
ENDBRANCH   1   2
BRANCH   1  70
ATOM     70  C   UNL A   1      33.375  34.272  29.073  1.00  0.00     0.275 C 
BRANCH  70  71
ATOM     71  O   UNL A   1      34.311  34.682  30.080  1.00  0.00    -0.458 OA
BRANCH  71  72
ATOM     72  C   UNL A   1      34.900  33.671  30.773  1.00  0.00     0.341 C 
ATOM     73  O   UNL A   1      34.356  32.684  31.227  1.00  0.00    -0.246 OA
BRANCH  72  74
ATOM     74  C   UNL A   1      36.362  33.844  30.754  1.00  0.00     0.095 A 
ATOM     75  C   UNL A   1      37.060  33.539  29.584  1.00  0.00     0.019 A 
ATOM     76  C   UNL A   1      37.054  34.295  31.867  1.00  0.00     0.138 A 
ATOM     77  C   UNL A   1      38.444  33.749  29.524  1.00  0.00     0.010 A 
ATOM     78  C   UNL A   1      38.438  34.478  31.815  1.00  0.00     0.049 A 
ATOM     79  F   UNL A   1      36.409  34.561  33.014  1.00  0.00    -0.206 F 
ATOM     80  C   UNL A   1      39.160  34.230  30.636  1.00  0.00    -0.015 A 
BRANCH  80  81
ATOM     81  C   UNL A   1      40.621  34.437  30.569  1.00  0.00    -0.018 A 
ATOM     82  C   UNL A   1      41.231  34.883  29.383  1.00  0.00     0.010 A 
ATOM     83  C   UNL A   1      41.448  34.224  31.688  1.00  0.00     0.010 A 
ATOM     84  C   UNL A   1      42.605  35.145  29.325  1.00  0.00     0.021 A 
ATOM     85  C   UNL A   1      42.822  34.484  31.634  1.00  0.00     0.021 A 
ATOM     86  C   UNL A   1      43.392  34.957  30.456  1.00  0.00     0.041 A 
ATOM     87  Cl  UNL A   1      45.069  35.337  30.404  1.00  0.00    -0.084 Cl
ENDBRANCH  80  81
ENDBRANCH  72  74
ENDBRANCH  71  72
ENDBRANCH  70  71
ENDBRANCH   1  70
TORSDOF 15
ENDMDL
MODEL 2
REMARK VINA RESULT:     -10.2      4.379     11.283
REMARK SMILES O=C(OCCOC(=O)c1ccc(-c2ccc(Cl)cc2)cc1F)c1ccc(-c2c3nc(c(-c4cc(S(=O)(=O)[O-])ccc4F)c4ccc([nH]4)c(-c4cc(S(=O)(=O)[O-])ccc4F)c4nc(c(-c5cc(S(=O)(=O)[O-])ccc5F)c5ccc2[nH]5)C=C4)C=C3)cc1
REMARK SMILES IDX 4 1 3 2 2 3 1 4 23 5 24 6 85 7 25 8 84 9 26 10 27 11 28 12
REMARK SMILES IDX 78 13 29 14 83 15 77 16 79 17 30 18 82 19 76 20 75 21 31 23
REMARK SMILES IDX 63 24 43 25 62 26 44 27 47 28 61 29 80 30 45 31 46 32 60 34
REMARK SMILES IDX 81 35 48 36 32 37 33 38 41 39 34 40 40 41 42 42 39 43 35 44
REMARK SMILES IDX 36 45 37 46 38 47 64 48 65 49 73 50 66 51 72 52 74 53 71 54
REMARK SMILES IDX 67 55 68 56 69 57 70 58 49 59 50 60 58 61 51 62 57 63 59 64
REMARK SMILES IDX 56 65 52 66 53 67 54 68 55 69 5 70 6 71 7 72 8 73 9 74 10 75
REMARK SMILES IDX 21 76 11 77 20 78 22 79 12 80 13 81 14 82 19 83 15 84 18 85
REMARK SMILES IDX 16 86 17 87
REMARK H PARENT 79 22 47 33
REMARK Flexibility Score: inf
ROOT
ATOM      1  C   UNL A   1      40.568  20.829  26.966  1.00  0.00     0.275 C 
ENDROOT
BRANCH   1   2
ATOM      2  O   UNL A   1      39.349  21.175  26.283  1.00  0.00    -0.458 OA
BRANCH   2   3
ATOM      3  C   UNL A   1      38.723  22.370  26.165  1.00  0.00     0.338 C 
ATOM      4  O   UNL A   1      37.633  22.401  25.591  1.00  0.00    -0.246 OA
BRANCH   3   5
ATOM      5  C   UNL A   1      39.337  23.680  26.556  1.00  0.00     0.060 A 
ATOM      6  C   UNL A   1      40.032  24.550  25.715  1.00  0.00     0.016 A 
ATOM      7  C   UNL A   1      39.165  24.069  27.900  1.00  0.00     0.016 A 
ATOM      8  C   UNL A   1      40.441  25.810  26.155  1.00  0.00     0.010 A 
ATOM      9  C   UNL A   1      39.572  25.327  28.348  1.00  0.00     0.010 A 
ATOM     10  C   UNL A   1      40.197  26.212  27.466  1.00  0.00    -0.014 A 
BRANCH  10  11
ATOM     11  C   UNL A   1      40.708  27.513  27.939  1.00  0.00     0.031 A 
ATOM     12  C   UNL A   1      42.182  27.750  27.918  1.00  0.00     0.074 A 
ATOM     13  C   UNL A   1      39.859  28.485  28.318  1.00  0.00     0.049 A 
ATOM     14  N   UNL A   1      42.850  28.807  28.286  1.00  0.00    -0.248 NA
ATOM     15  C   UNL A   1      43.009  26.667  27.362  1.00  0.00     0.031 C 
ATOM     16  C   UNL A   1      38.405  28.415  28.207  1.00  0.00     0.029 A 
ATOM     17  N   UNL A   1      40.089  29.716  28.871  1.00  0.00    -0.354 N 
ATOM     18  C   UNL A   1      44.169  28.547  27.944  1.00  0.00     0.074 A 
ATOM     19  C   UNL A   1      44.218  27.196  27.426  1.00  0.00     0.031 C 
ATOM     20  C   UNL A   1      37.865  29.514  28.758  1.00  0.00     0.029 A 
ATOM     21  C   UNL A   1      38.938  30.369  29.245  1.00  0.00     0.049 A 
ATOM     22  H   UNL A   1      40.989  30.095  28.991  1.00  0.00     0.167 HD
ATOM     23  C   UNL A   1      45.230  29.383  28.015  1.00  0.00     0.034 A 
ATOM     24  C   UNL A   1      38.772  31.526  29.911  1.00  0.00     0.034 A 
ATOM     25  C   UNL A   1      45.158  30.699  28.594  1.00  0.00     0.049 A 
ATOM     26  C   UNL A   1      39.992  32.345  30.217  1.00  0.00     0.074 A 
ATOM     27  C   UNL A   1      46.175  31.612  28.799  1.00  0.00     0.029 A 
ATOM     28  N   UNL A   1      43.992  31.283  29.084  1.00  0.00    -0.354 N 
ATOM     29  N   UNL A   1      41.247  32.074  29.939  1.00  0.00    -0.248 NA
ATOM     30  C   UNL A   1      39.780  33.639  30.874  1.00  0.00     0.031 C 
ATOM     31  C   UNL A   1      45.639  32.715  29.473  1.00  0.00     0.029 A 
ATOM     32  C   UNL A   1      44.271  32.530  29.618  1.00  0.00     0.049 A 
ATOM     33  H   UNL A   1      43.100  30.870  29.054  1.00  0.00     0.167 HD
ATOM     34  C   UNL A   1      41.972  33.193  30.327  1.00  0.00     0.074 A 
ATOM     35  C   UNL A   1      41.014  34.127  30.894  1.00  0.00     0.031 C 
ATOM     36  C   UNL A   1      43.301  33.437  30.192  1.00  0.00     0.034 A 
BRANCH  23  37
ATOM     37  C   UNL A   1      46.539  28.849  27.496  1.00  0.00     0.023 A 
ATOM     38  C   UNL A   1      46.743  28.632  26.120  1.00  0.00     0.031 A 
ATOM     39  C   UNL A   1      47.555  28.463  28.384  1.00  0.00     0.131 A 
ATOM     40  C   UNL A   1      47.900  27.971  25.680  1.00  0.00     0.055 A 
ATOM     41  C   UNL A   1      48.738  27.875  27.934  1.00  0.00     0.041 A 
ATOM     42  F   UNL A   1      47.399  28.617  29.709  1.00  0.00    -0.206 F 
ATOM     43  C   UNL A   1      48.909  27.611  26.576  1.00  0.00     0.022 A 
BRANCH  40  44
ATOM     44  S   UNL A   1      48.001  27.456  23.944  1.00  0.00     0.124 S 
ATOM     45  O   UNL A   1      49.334  27.925  23.573  1.00  0.00    -0.237 OA
ATOM     46  O   UNL A   1      47.836  26.010  24.031  1.00  0.00    -0.237 OA
ATOM     47  O   UNL A   1      46.897  28.172  23.310  1.00  0.00    -0.744 OA
ENDBRANCH  40  44
ENDBRANCH  23  37
BRANCH  24  48
ATOM     48  C   UNL A   1      37.403  31.959  30.295  1.00  0.00     0.023 A 
ATOM     49  C   UNL A   1      36.515  32.491  29.349  1.00  0.00     0.031 A 
ATOM     50  C   UNL A   1      36.938  31.771  31.611  1.00  0.00     0.131 A 
ATOM     51  C   UNL A   1      35.204  32.819  29.732  1.00  0.00     0.055 A 
ATOM     52  C   UNL A   1      35.631  32.088  31.983  1.00  0.00     0.041 A 
ATOM     53  F   UNL A   1      37.743  31.239  32.545  1.00  0.00    -0.206 F 
ATOM     54  C   UNL A   1      34.755  32.615  31.040  1.00  0.00     0.022 A 
BRANCH  51  55
ATOM     55  S   UNL A   1      34.074  33.494  28.483  1.00  0.00     0.124 S 
ATOM     56  O   UNL A   1      33.524  32.279  27.892  1.00  0.00    -0.237 OA
ATOM     57  O   UNL A   1      33.159  34.285  29.298  1.00  0.00    -0.237 OA
ATOM     58  O   UNL A   1      34.954  34.270  27.613  1.00  0.00    -0.744 OA
ENDBRANCH  51  55
ENDBRANCH  24  48
BRANCH  36  59
ATOM     59  C   UNL A   1      43.793  34.795  30.611  1.00  0.00     0.023 A 
ATOM     60  C   UNL A   1      43.748  35.898  29.744  1.00  0.00     0.031 A 
ATOM     61  C   UNL A   1      44.277  34.991  31.917  1.00  0.00     0.131 A 
ATOM     62  C   UNL A   1      44.212  37.146  30.187  1.00  0.00     0.055 A 
ATOM     63  C   UNL A   1      44.683  36.245  32.368  1.00  0.00     0.041 A 
ATOM     64  F   UNL A   1      44.341  33.965  32.782  1.00  0.00    -0.206 F 
ATOM     65  C   UNL A   1      44.657  37.331  31.499  1.00  0.00     0.022 A 
BRANCH  62  66
ATOM     66  S   UNL A   1      44.270  38.519  29.005  1.00  0.00     0.124 S 
ATOM     67  O   UNL A   1      45.100  39.488  29.713  1.00  0.00    -0.237 OA
ATOM     68  O   UNL A   1      44.875  37.899  27.830  1.00  0.00    -0.237 OA
ATOM     69  O   UNL A   1      42.867  38.899  28.852  1.00  0.00    -0.744 OA
ENDBRANCH  62  66
ENDBRANCH  36  59
ENDBRANCH  10  11
ENDBRANCH   3   5
ENDBRANCH   2   3
ENDBRANCH   1   2
BRANCH   1  70
ATOM     70  C   UNL A   1      41.630  20.152  26.093  1.00  0.00     0.275 C 
BRANCH  70  71
ATOM     71  O   UNL A   1      42.953  20.671  26.287  1.00  0.00    -0.458 OA
BRANCH  71  72
ATOM     72  C   UNL A   1      43.115  21.985  25.978  1.00  0.00     0.341 C 
ATOM     73  O   UNL A   1      42.788  22.537  24.946  1.00  0.00    -0.246 OA
BRANCH  72  74
ATOM     74  C   UNL A   1      43.597  22.717  27.161  1.00  0.00     0.095 A 
ATOM     75  C   UNL A   1      42.695  23.006  28.187  1.00  0.00     0.019 A 
ATOM     76  C   UNL A   1      44.916  23.126  27.274  1.00  0.00     0.138 A 
ATOM     77  C   UNL A   1      43.142  23.651  29.347  1.00  0.00     0.010 A 
ATOM     78  C   UNL A   1      45.356  23.794  28.419  1.00  0.00     0.049 A 
ATOM     79  F   UNL A   1      45.793  22.892  26.286  1.00  0.00    -0.206 F 
ATOM     80  C   UNL A   1      44.484  24.052  29.490  1.00  0.00    -0.015 A 
BRANCH  80  81
ATOM     81  C   UNL A   1      44.946  24.743  30.711  1.00  0.00    -0.018 A 
ATOM     82  C   UNL A   1      44.484  24.349  31.979  1.00  0.00     0.010 A 
ATOM     83  C   UNL A   1      45.878  25.795  30.654  1.00  0.00     0.010 A 
ATOM     84  C   UNL A   1      44.963  24.953  33.147  1.00  0.00     0.021 A 
ATOM     85  C   UNL A   1      46.360  26.402  31.820  1.00  0.00     0.021 A 
ATOM     86  C   UNL A   1      45.909  25.968  33.063  1.00  0.00     0.041 A 
ATOM     87  Cl  UNL A   1      46.544  26.668  34.500  1.00  0.00    -0.084 Cl
ENDBRANCH  80  81
ENDBRANCH  72  74
ENDBRANCH  71  72
ENDBRANCH  70  71
ENDBRANCH   1  70
TORSDOF 15
ENDMDL
MODEL 3
REMARK VINA RESULT:     -10.2      2.730      8.569
REMARK SMILES O=C(OCCOC(=O)c1ccc(-c2ccc(Cl)cc2)cc1F)c1ccc(-c2c3nc(c(-c4cc(S(=O)(=O)[O-])ccc4F)c4ccc([nH]4)c(-c4cc(S(=O)(=O)[O-])ccc4F)c4nc(c(-c5cc(S(=O)(=O)[O-])ccc5F)c5ccc2[nH]5)C=C4)C=C3)cc1
REMARK SMILES IDX 4 1 3 2 2 3 1 4 23 5 24 6 85 7 25 8 84 9 26 10 27 11 28 12
REMARK SMILES IDX 78 13 29 14 83 15 77 16 79 17 30 18 82 19 76 20 75 21 31 23
REMARK SMILES IDX 63 24 43 25 62 26 44 27 47 28 61 29 80 30 45 31 46 32 60 34
REMARK SMILES IDX 81 35 48 36 32 37 33 38 41 39 34 40 40 41 42 42 39 43 35 44
REMARK SMILES IDX 36 45 37 46 38 47 64 48 65 49 73 50 66 51 72 52 74 53 71 54
REMARK SMILES IDX 67 55 68 56 69 57 70 58 49 59 50 60 58 61 51 62 57 63 59 64
REMARK SMILES IDX 56 65 52 66 53 67 54 68 55 69 5 70 6 71 7 72 8 73 9 74 10 75
REMARK SMILES IDX 21 76 11 77 20 78 22 79 12 80 13 81 14 82 19 83 15 84 18 85
REMARK SMILES IDX 16 86 17 87
REMARK H PARENT 79 22 47 33
REMARK Flexibility Score: inf
ROOT
ATOM      1  C   UNL A   1      32.642  35.992  29.122  1.00  0.00     0.275 C 
ENDROOT
BRANCH   1   2
ATOM      2  O   UNL A   1      32.605  34.557  29.030  1.00  0.00    -0.458 OA
BRANCH   2   3
ATOM      3  C   UNL A   1      33.375  33.707  28.310  1.00  0.00     0.338 C 
ATOM      4  O   UNL A   1      32.872  33.150  27.333  1.00  0.00    -0.246 OA
BRANCH   3   5
ATOM      5  C   UNL A   1      34.758  33.286  28.711  1.00  0.00     0.060 A 
ATOM      6  C   UNL A   1      35.955  33.794  28.205  1.00  0.00     0.016 A 
ATOM      7  C   UNL A   1      34.838  32.302  29.716  1.00  0.00     0.016 A 
ATOM      8  C   UNL A   1      37.185  33.427  28.752  1.00  0.00     0.010 A 
ATOM      9  C   UNL A   1      36.065  31.928  30.268  1.00  0.00     0.010 A 
ATOM     10  C   UNL A   1      37.246  32.508  29.797  1.00  0.00    -0.014 A 
BRANCH  10  11
ATOM     11  C   UNL A   1      38.558  32.069  30.309  1.00  0.00     0.031 A 
ATOM     12  C   UNL A   1      39.187  30.854  29.709  1.00  0.00     0.074 A 
ATOM     13  C   UNL A   1      39.200  32.785  31.249  1.00  0.00     0.049 A 
ATOM     14  N   UNL A   1      40.324  30.288  30.002  1.00  0.00    -0.248 NA
ATOM     15  C   UNL A   1      38.457  30.224  28.599  1.00  0.00     0.031 C 
ATOM     16  C   UNL A   1      38.754  34.074  31.769  1.00  0.00     0.029 A 
ATOM     17  N   UNL A   1      40.358  32.535  31.936  1.00  0.00    -0.354 N 
ATOM     18  C   UNL A   1      40.482  29.275  29.068  1.00  0.00     0.074 A 
ATOM     19  C   UNL A   1      39.281  29.247  28.260  1.00  0.00     0.031 C 
ATOM     20  C   UNL A   1      39.577  34.465  32.755  1.00  0.00     0.029 A 
ATOM     21  C   UNL A   1      40.616  33.457  32.923  1.00  0.00     0.049 A 
ATOM     22  H   UNL A   1      40.947  31.771  31.743  1.00  0.00     0.167 HD
ATOM     23  C   UNL A   1      41.557  28.476  28.876  1.00  0.00     0.034 A 
ATOM     24  C   UNL A   1      41.580  33.481  33.861  1.00  0.00     0.034 A 
ATOM     25  C   UNL A   1      42.710  28.489  29.738  1.00  0.00     0.049 A 
ATOM     26  C   UNL A   1      42.649  32.429  33.799  1.00  0.00     0.074 A 
ATOM     27  C   UNL A   1      43.827  27.676  29.702  1.00  0.00     0.029 A 
ATOM     28  N   UNL A   1      42.882  29.356  30.815  1.00  0.00    -0.354 N 
ATOM     29  N   UNL A   1      42.771  31.439  32.946  1.00  0.00    -0.248 NA
ATOM     30  C   UNL A   1      43.732  32.520  34.784  1.00  0.00     0.031 C 
ATOM     31  C   UNL A   1      44.639  28.004  30.794  1.00  0.00     0.029 A 
ATOM     32  C   UNL A   1      44.070  29.076  31.468  1.00  0.00     0.049 A 
ATOM     33  H   UNL A   1      42.249  30.064  31.074  1.00  0.00     0.167 HD
ATOM     34  C   UNL A   1      43.979  30.824  33.246  1.00  0.00     0.074 A 
ATOM     35  C   UNL A   1      44.530  31.536  34.387  1.00  0.00     0.031 C 
ATOM     36  C   UNL A   1      44.591  29.791  32.612  1.00  0.00     0.034 A 
BRANCH  23  37
ATOM     37  C   UNL A   1      41.475  27.509  27.725  1.00  0.00     0.023 A 
ATOM     38  C   UNL A   1      41.148  26.156  27.931  1.00  0.00     0.031 A 
ATOM     39  C   UNL A   1      41.818  27.916  26.426  1.00  0.00     0.131 A 
ATOM     40  C   UNL A   1      41.251  25.242  26.871  1.00  0.00     0.055 A 
ATOM     41  C   UNL A   1      41.844  27.017  25.359  1.00  0.00     0.041 A 
ATOM     42  F   UNL A   1      42.169  29.188  26.179  1.00  0.00    -0.206 F 
ATOM     43  C   UNL A   1      41.575  25.668  25.581  1.00  0.00     0.022 A 
BRANCH  40  44
ATOM     44  S   UNL A   1      41.101  23.471  27.232  1.00  0.00     0.124 S 
ATOM     45  O   UNL A   1      41.721  23.385  28.553  1.00  0.00    -0.237 OA
ATOM     46  O   UNL A   1      39.658  23.259  27.192  1.00  0.00    -0.237 OA
ATOM     47  O   UNL A   1      41.855  22.836  26.154  1.00  0.00    -0.744 OA
ENDBRANCH  40  44
ENDBRANCH  23  37
BRANCH  24  48
ATOM     48  C   UNL A   1      41.568  34.547  34.897  1.00  0.00     0.023 A 
ATOM     49  C   UNL A   1      41.033  34.317  36.172  1.00  0.00     0.031 A 
ATOM     50  C   UNL A   1      42.170  35.794  34.644  1.00  0.00     0.131 A 
ATOM     51  C   UNL A   1      41.106  35.323  37.150  1.00  0.00     0.055 A 
ATOM     52  C   UNL A   1      42.252  36.786  35.623  1.00  0.00     0.041 A 
ATOM     53  F   UNL A   1      42.722  36.051  33.446  1.00  0.00    -0.206 F 
ATOM     54  C   UNL A   1      41.718  36.551  36.886  1.00  0.00     0.022 A 
BRANCH  51  55
ATOM     55  S   UNL A   1      40.416  34.992  38.795  1.00  0.00     0.124 S 
ATOM     56  O   UNL A   1      41.247  35.839  39.643  1.00  0.00    -0.237 OA
ATOM     57  O   UNL A   1      39.027  35.410  38.630  1.00  0.00    -0.237 OA
ATOM     58  O   UNL A   1      40.611  33.554  38.963  1.00  0.00    -0.744 OA
ENDBRANCH  51  55
ENDBRANCH  24  48
BRANCH  36  59
ATOM     59  C   UNL A   1      45.960  29.403  33.101  1.00  0.00     0.023 A 
ATOM     60  C   UNL A   1      46.144  28.407  34.073  1.00  0.00     0.031 A 
ATOM     61  C   UNL A   1      47.099  30.017  32.548  1.00  0.00     0.131 A 
ATOM     62  C   UNL A   1      47.443  28.077  34.488  1.00  0.00     0.055 A 
ATOM     63  C   UNL A   1      48.387  29.645  32.925  1.00  0.00     0.041 A 
ATOM     64  F   UNL A   1      46.972  30.977  31.617  1.00  0.00    -0.206 F 
ATOM     65  C   UNL A   1      48.565  28.673  33.905  1.00  0.00     0.022 A 
BRANCH  62  66
ATOM     66  S   UNL A   1      47.645  26.888  35.841  1.00  0.00     0.124 S 
ATOM     67  O   UNL A   1      46.303  26.328  35.950  1.00  0.00    -0.237 OA
ATOM     68  O   UNL A   1      48.671  25.990  35.320  1.00  0.00    -0.237 OA
ATOM     69  O   UNL A   1      48.064  27.719  36.968  1.00  0.00    -0.744 OA
ENDBRANCH  62  66
ENDBRANCH  36  59
ENDBRANCH  10  11
ENDBRANCH   3   5
ENDBRANCH   2   3
ENDBRANCH   1   2
BRANCH   1  70
ATOM     70  C   UNL A   1      33.418  36.544  30.323  1.00  0.00     0.275 C 
BRANCH  70  71
ATOM     71  O   UNL A   1      32.583  37.138  31.327  1.00  0.00    -0.458 OA
BRANCH  71  72
ATOM     72  C   UNL A   1      32.104  36.281  32.267  1.00  0.00     0.341 C 
ATOM     73  O   UNL A   1      30.938  36.075  32.540  1.00  0.00    -0.246 OA
BRANCH  72  74
ATOM     74  C   UNL A   1      33.210  35.478  32.815  1.00  0.00     0.095 A 
ATOM     75  C   UNL A   1      33.214  34.100  32.594  1.00  0.00     0.019 A 
ATOM     76  C   UNL A   1      34.236  36.058  33.544  1.00  0.00     0.138 A 
ATOM     77  C   UNL A   1      34.285  33.323  33.057  1.00  0.00     0.010 A 
ATOM     78  C   UNL A   1      35.290  35.279  34.029  1.00  0.00     0.049 A 
ATOM     79  F   UNL A   1      34.236  37.375  33.800  1.00  0.00    -0.206 F 
ATOM     80  C   UNL A   1      35.348  33.898  33.777  1.00  0.00    -0.015 A 
BRANCH  80  81
ATOM     81  C   UNL A   1      36.467  33.071  34.274  1.00  0.00    -0.018 A 
ATOM     82  C   UNL A   1      37.217  33.474  35.394  1.00  0.00     0.010 A 
ATOM     83  C   UNL A   1      36.806  31.848  33.667  1.00  0.00     0.010 A 
ATOM     84  C   UNL A   1      38.237  32.669  35.913  1.00  0.00     0.021 A 
ATOM     85  C   UNL A   1      37.826  31.040  34.184  1.00  0.00     0.021 A 
ATOM     86  C   UNL A   1      38.528  31.449  35.314  1.00  0.00     0.041 A 
ATOM     87  Cl  UNL A   1      39.739  30.431  35.988  1.00  0.00    -0.084 Cl
ENDBRANCH  80  81
ENDBRANCH  72  74
ENDBRANCH  71  72
ENDBRANCH  70  71
ENDBRANCH   1  70
TORSDOF 15
ENDMDL
