MODEL 1
REMARK VINA RESULT:     -12.9      0.000      0.000
REMARK SMILES Cc1ccc(C(F)(F)F)cc1-c1ccc(/C=C/C(=O)OCCOC(=O)c2ccc(-c3c4nc(c(-c5cc(S(=O)(=O)[O-])ccc5F)c5ccc([nH]5)c(-c5cc(S(=O)(=O)[O-])ccc5F)c5nc(c(-c6cc(S(=O)(=O)[O-])ccc6F)c6ccc3[nH]6)C=C5)C=C4)cc2)s1
REMARK SMILES IDX 21 1 20 2 18 3 19 4 17 5 16 6 15 7 12 8 13 9 89 10 14 11
REMARK SMILES IDX 11 12 1 13 2 14 3 15 4 16 10 17 5 18 6 19 7 20 8 21 9 22
REMARK SMILES IDX 22 23 23 24 24 25 25 26 26 27 27 28 88 29 28 30 87 31 29 32
REMARK SMILES IDX 30 33 31 34 81 35 32 36 86 37 80 38 82 39 33 40 85 41 79 42
REMARK SMILES IDX 78 43 34 45 66 46 46 47 65 48 47 49 50 50 64 51 83 52 48 53
REMARK SMILES IDX 49 54 63 56 84 57 51 58 35 59 36 60 44 61 37 62 43 63 45 64
REMARK SMILES IDX 42 65 38 66 39 67 40 68 41 69 67 70 68 71 76 72 69 73 75 74
REMARK SMILES IDX 77 75 74 76 70 77 71 78 72 79 73 80 52 81 53 82 61 83 54 84
REMARK SMILES IDX 60 85 62 86 59 87 55 88 56 89 57 90 58 91
REMARK H PARENT 82 44 50 55
REMARK Flexibility Score: inf
ROOT
ATOM      1  C   UNL A   1      33.156  34.251  28.290  1.00  0.00     0.275 C 
ENDROOT
BRANCH   1   2
ATOM      2  O   UNL A   1      33.382  32.938  27.762  1.00  0.00    -0.459 OA
BRANCH   2   3
ATOM      3  C   UNL A   1      32.268  32.367  27.020  1.00  0.00     0.330 C 
ATOM      4  O   UNL A   1      31.440  33.296  26.895  1.00  0.00    -0.247 OA
BRANCH   3   5
ATOM      5  C   UNL A   1      32.210  30.341  26.319  1.00  0.00     0.095 C 
ATOM      6  C   UNL A   1      31.719  29.430  25.378  1.00  0.00     0.026 C 
BRANCH   6   7
ATOM      7  C   UNL A   1      31.975  27.998  25.339  1.00  0.00     0.028 A 
ATOM      8  C   UNL A   1      32.781  25.618  25.597  1.00  0.00     0.035 A 
ATOM      9  C   UNL A   1      31.589  25.709  24.910  1.00  0.00     0.021 A 
ATOM     10  S   UNL A   1      33.309  27.174  26.085  1.00  0.00    -0.136 S 
ATOM     11  C   UNL A   1      31.154  27.054  24.734  1.00  0.00     0.020 A 
BRANCH   8  12
ATOM     12  C   UNL A   1      33.564  24.397  25.879  1.00  0.00    -0.005 A 
ATOM     13  C   UNL A   1      31.579  23.288  27.084  1.00  0.00     0.045 C 
ATOM     14  C   UNL A   1      33.013  23.328  26.622  1.00  0.00    -0.042 A 
ATOM     15  C   UNL A   1      33.825  22.239  26.990  1.00  0.00     0.005 A 
ATOM     16  C   UNL A   1      35.163  22.183  26.610  1.00  0.00     0.013 A 
ATOM     17  C   UNL A   1      34.917  24.315  25.488  1.00  0.00     0.023 A 
ATOM     18  C   UNL A   1      35.723  23.214  25.846  1.00  0.00     0.056 A 
BRANCH  18  19
ATOM     19  C   UNL A   1      37.179  23.121  25.461  1.00  0.00     0.416 C 
ATOM     20  F   UNL A   1      37.792  22.040  26.025  1.00  0.00    -0.166 F 
ATOM     21  F   UNL A   1      37.358  22.976  24.116  1.00  0.00    -0.166 F 
ATOM     22  F   UNL A   1      37.923  24.200  25.824  1.00  0.00    -0.166 F 
ENDBRANCH  18  19
ENDBRANCH   8  12
ENDBRANCH   6   7
ENDBRANCH   3   5
ENDBRANCH   2   3
ENDBRANCH   1   2
BRANCH   1  23
ATOM     23  C   UNL A   1      33.803  34.323  29.680  1.00  0.00     0.275 C 
BRANCH  23  24
ATOM     24  O   UNL A   1      34.217  33.064  30.303  1.00  0.00    -0.458 OA
BRANCH  24  25
ATOM     25  C   UNL A   1      35.492  32.716  30.627  1.00  0.00     0.338 C 
ATOM     26  O   UNL A   1      36.351  33.480  31.037  1.00  0.00    -0.246 OA
BRANCH  25  27
ATOM     27  C   UNL A   1      35.878  31.377  30.155  1.00  0.00     0.060 A 
ATOM     28  C   UNL A   1      36.346  30.206  31.471  1.00  0.00     0.016 A 
ATOM     29  C   UNL A   1      36.689  31.345  28.536  1.00  0.00     0.016 A 
ATOM     30  C   UNL A   1      37.774  29.075  31.212  1.00  0.00     0.010 A 
ATOM     31  C   UNL A   1      38.090  30.200  28.265  1.00  0.00     0.010 A 
ATOM     32  C   UNL A   1      38.647  29.131  29.633  1.00  0.00    -0.014 A 
BRANCH  32  33
ATOM     33  C   UNL A   1      40.045  28.805  29.498  1.00  0.00     0.031 A 
ATOM     34  C   UNL A   1      40.269  27.412  29.125  1.00  0.00     0.074 A 
ATOM     35  C   UNL A   1      40.958  29.806  29.516  1.00  0.00     0.049 A 
ATOM     36  N   UNL A   1      41.387  26.813  29.241  1.00  0.00    -0.248 NA
ATOM     37  C   UNL A   1      39.200  26.510  28.679  1.00  0.00     0.031 C 
ATOM     38  C   UNL A   1      42.347  29.827  29.057  1.00  0.00     0.029 A 
ATOM     39  N   UNL A   1      40.835  31.037  30.142  1.00  0.00    -0.354 N 
ATOM     40  C   UNL A   1      41.286  25.626  28.556  1.00  0.00     0.074 A 
ATOM     41  C   UNL A   1      39.882  25.408  28.374  1.00  0.00     0.031 C 
ATOM     42  C   UNL A   1      42.996  30.856  29.643  1.00  0.00     0.029 A 
ATOM     43  C   UNL A   1      42.079  31.497  30.571  1.00  0.00     0.049 A 
ATOM     44  H   UNL A   1      39.986  31.520  30.265  1.00  0.00     0.167 HD
ATOM     45  C   UNL A   1      42.441  25.093  28.087  1.00  0.00     0.034 A 
ATOM     46  C   UNL A   1      42.290  31.632  31.915  1.00  0.00     0.034 A 
ATOM     47  C   UNL A   1      43.568  25.846  28.655  1.00  0.00     0.049 A 
ATOM     48  C   UNL A   1      43.087  30.436  32.426  1.00  0.00     0.074 A 
ATOM     49  C   UNL A   1      44.355  26.877  28.170  1.00  0.00     0.029 A 
ATOM     50  N   UNL A   1      43.680  25.894  30.041  1.00  0.00    -0.354 N 
ATOM     51  N   UNL A   1      43.217  29.310  31.763  1.00  0.00    -0.248 NA
ATOM     52  C   UNL A   1      43.896  30.453  33.640  1.00  0.00     0.031 C 
ATOM     53  C   UNL A   1      44.827  27.622  29.297  1.00  0.00     0.029 A 
ATOM     54  C   UNL A   1      44.353  27.028  30.457  1.00  0.00     0.049 A 
ATOM     55  H   UNL A   1      43.325  25.207  30.650  1.00  0.00     0.167 HD
ATOM     56  C   UNL A   1      44.134  28.502  32.377  1.00  0.00     0.074 A 
ATOM     57  C   UNL A   1      44.528  29.268  33.552  1.00  0.00     0.031 C 
ATOM     58  C   UNL A   1      44.525  27.281  31.885  1.00  0.00     0.034 A 
BRANCH  45  59
ATOM     59  C   UNL A   1      42.565  24.097  26.965  1.00  0.00     0.023 A 
ATOM     60  C   UNL A   1      41.989  22.833  27.176  1.00  0.00     0.031 A 
ATOM     61  C   UNL A   1      43.261  24.242  25.744  1.00  0.00     0.131 A 
ATOM     62  C   UNL A   1      42.122  21.794  26.240  1.00  0.00     0.055 A 
ATOM     63  C   UNL A   1      43.382  23.211  24.802  1.00  0.00     0.041 A 
ATOM     64  F   UNL A   1      43.877  25.371  25.385  1.00  0.00    -0.206 F 
ATOM     65  C   UNL A   1      42.812  21.975  25.048  1.00  0.00     0.022 A 
BRANCH  62  66
ATOM     66  S   UNL A   1      41.379  20.194  26.630  1.00  0.00     0.124 S 
ATOM     67  O   UNL A   1      40.253  20.148  25.701  1.00  0.00    -0.237 OA
ATOM     68  O   UNL A   1      42.477  19.272  26.363  1.00  0.00    -0.237 OA
ATOM     69  O   UNL A   1      41.012  20.326  28.039  1.00  0.00    -0.744 OA
ENDBRANCH  62  66
ENDBRANCH  45  59
BRANCH  46  70
ATOM     70  C   UNL A   1      41.160  32.383  32.568  1.00  0.00     0.023 A 
ATOM     71  C   UNL A   1      40.188  31.580  33.223  1.00  0.00     0.031 A 
ATOM     72  C   UNL A   1      41.250  33.722  32.968  1.00  0.00     0.131 A 
ATOM     73  C   UNL A   1      39.542  32.033  34.385  1.00  0.00     0.055 A 
ATOM     74  C   UNL A   1      40.529  34.200  34.080  1.00  0.00     0.041 A 
ATOM     75  F   UNL A   1      42.152  34.543  32.411  1.00  0.00    -0.206 F 
ATOM     76  C   UNL A   1      39.726  33.338  34.833  1.00  0.00     0.022 A 
BRANCH  73  77
ATOM     77  S   UNL A   1      38.698  30.810  35.442  1.00  0.00     0.124 S 
ATOM     78  O   UNL A   1      38.100  29.919  34.452  1.00  0.00    -0.237 OA
ATOM     79  O   UNL A   1      39.793  30.236  36.222  1.00  0.00    -0.237 OA
ATOM     80  O   UNL A   1      37.745  31.603  36.214  1.00  0.00    -0.744 OA
ENDBRANCH  73  77
ENDBRANCH  46  70
BRANCH  58  81
ATOM     81  C   UNL A   1      45.185  26.214  32.733  1.00  0.00     0.023 A 
ATOM     82  C   UNL A   1      44.437  25.282  33.454  1.00  0.00     0.031 A 
ATOM     83  C   UNL A   1      46.590  26.031  32.781  1.00  0.00     0.131 A 
ATOM     84  C   UNL A   1      45.054  24.361  34.308  1.00  0.00     0.055 A 
ATOM     85  C   UNL A   1      47.201  25.007  33.507  1.00  0.00     0.041 A 
ATOM     86  F   UNL A   1      47.442  26.831  32.123  1.00  0.00    -0.206 F 
ATOM     87  C   UNL A   1      46.433  24.187  34.315  1.00  0.00     0.022 A 
BRANCH  84  88
ATOM     88  S   UNL A   1      44.001  23.529  35.516  1.00  0.00     0.124 S 
ATOM     89  O   UNL A   1      43.950  24.520  36.589  1.00  0.00    -0.237 OA
ATOM     90  O   UNL A   1      42.760  23.337  34.774  1.00  0.00    -0.237 OA
ATOM     91  O   UNL A   1      44.739  22.309  35.830  1.00  0.00    -0.744 OA
ENDBRANCH  84  88
ENDBRANCH  58  81
ENDBRANCH  32  33
ENDBRANCH  25  27
ENDBRANCH  24  25
ENDBRANCH  23  24
ENDBRANCH   1  23
TORSDOF 17
ENDMDL
MODEL 2
REMARK VINA RESULT:     -12.8      4.247     10.764
REMARK SMILES Cc1ccc(C(F)(F)F)cc1-c1ccc(/C=C/C(=O)OCCOC(=O)c2ccc(-c3c4nc(c(-c5cc(S(=O)(=O)[O-])ccc5F)c5ccc([nH]5)c(-c5cc(S(=O)(=O)[O-])ccc5F)c5nc(c(-c6cc(S(=O)(=O)[O-])ccc6F)c6ccc3[nH]6)C=C5)C=C4)cc2)s1
REMARK SMILES IDX 21 1 20 2 18 3 19 4 17 5 16 6 15 7 12 8 13 9 89 10 14 11
REMARK SMILES IDX 11 12 1 13 2 14 3 15 4 16 10 17 5 18 6 19 7 20 8 21 9 22
REMARK SMILES IDX 22 23 23 24 24 25 25 26 26 27 27 28 88 29 28 30 87 31 29 32
REMARK SMILES IDX 30 33 31 34 81 35 32 36 86 37 80 38 82 39 33 40 85 41 79 42
REMARK SMILES IDX 78 43 34 45 66 46 46 47 65 48 47 49 50 50 64 51 83 52 48 53
REMARK SMILES IDX 49 54 63 56 84 57 51 58 35 59 36 60 44 61 37 62 43 63 45 64
REMARK SMILES IDX 42 65 38 66 39 67 40 68 41 69 67 70 68 71 76 72 69 73 75 74
REMARK SMILES IDX 77 75 74 76 70 77 71 78 72 79 73 80 52 81 53 82 61 83 54 84
REMARK SMILES IDX 60 85 62 86 59 87 55 88 56 89 57 90 58 91
REMARK H PARENT 82 44 50 55
REMARK Flexibility Score: inf
ROOT
ATOM      1  C   UNL A   1      44.868  18.370  25.392  1.00  0.00     0.275 C 
ENDROOT
BRANCH   1   2
ATOM      2  O   UNL A   1      43.976  19.071  26.268  1.00  0.00    -0.459 OA
BRANCH   2   3
ATOM      3  C   UNL A   1      42.560  18.837  26.030  1.00  0.00     0.330 C 
ATOM      4  O   UNL A   1      42.459  17.613  25.793  1.00  0.00    -0.247 OA
BRANCH   3   5
ATOM      5  C   UNL A   1      41.059  20.367  26.131  1.00  0.00     0.095 C 
ATOM      6  C   UNL A   1      40.568  21.498  26.790  1.00  0.00     0.026 C 
BRANCH   6   7
ATOM      7  C   UNL A   1      39.367  22.247  26.453  1.00  0.00     0.028 A 
ATOM      8  C   UNL A   1      37.094  23.100  25.758  1.00  0.00     0.035 A 
ATOM      9  C   UNL A   1      37.862  24.065  26.373  1.00  0.00     0.021 A 
ATOM     10  S   UNL A   1      37.938  21.609  25.700  1.00  0.00    -0.136 S 
ATOM     11  C   UNL A   1      39.158  23.593  26.733  1.00  0.00     0.020 A 
BRANCH   8  12
ATOM     12  C   UNL A   1      35.745  23.263  25.176  1.00  0.00    -0.005 A 
ATOM     13  C   UNL A   1      36.635  22.953  22.782  1.00  0.00     0.045 C 
ATOM     14  C   UNL A   1      35.542  23.246  23.778  1.00  0.00    -0.042 A 
ATOM     15  C   UNL A   1      34.270  23.540  23.251  1.00  0.00     0.005 A 
ATOM     16  C   UNL A   1      33.195  23.821  24.089  1.00  0.00     0.013 A 
ATOM     17  C   UNL A   1      34.640  23.533  26.011  1.00  0.00     0.023 A 
ATOM     18  C   UNL A   1      33.363  23.812  25.478  1.00  0.00     0.056 A 
BRANCH  18  19
ATOM     19  C   UNL A   1      32.176  24.131  26.354  1.00  0.00     0.416 C 
ATOM     20  F   UNL A   1      32.020  25.474  26.539  1.00  0.00    -0.166 F 
ATOM     21  F   UNL A   1      30.998  23.702  25.818  1.00  0.00    -0.166 F 
ATOM     22  F   UNL A   1      32.240  23.592  27.601  1.00  0.00    -0.166 F 
ENDBRANCH  18  19
ENDBRANCH   8  12
ENDBRANCH   6   7
ENDBRANCH   3   5
ENDBRANCH   2   3
ENDBRANCH   1   2
BRANCH   1  23
ATOM     23  C   UNL A   1      45.680  19.409  24.608  1.00  0.00     0.275 C 
BRANCH  23  24
ATOM     24  O   UNL A   1      45.099  20.742  24.444  1.00  0.00    -0.458 OA
BRANCH  24  25
ATOM     25  C   UNL A   1      45.340  21.821  25.238  1.00  0.00     0.338 C 
ATOM     26  O   UNL A   1      46.409  22.085  25.766  1.00  0.00    -0.246 OA
BRANCH  25  27
ATOM     27  C   UNL A   1      44.120  22.513  25.682  1.00  0.00     0.060 A 
ATOM     28  C   UNL A   1      43.635  23.943  24.661  1.00  0.00     0.016 A 
ATOM     29  C   UNL A   1      43.848  22.501  27.473  1.00  0.00     0.016 A 
ATOM     30  C   UNL A   1      43.003  25.466  25.476  1.00  0.00     0.010 A 
ATOM     31  C   UNL A   1      43.191  24.005  28.283  1.00  0.00     0.010 A 
ATOM     32  C   UNL A   1      42.842  25.482  27.273  1.00  0.00    -0.014 A 
BRANCH  32  33
ATOM     33  C   UNL A   1      42.958  26.685  28.060  1.00  0.00     0.031 A 
ATOM     34  C   UNL A   1      41.715  27.447  28.120  1.00  0.00     0.074 A 
ATOM     35  C   UNL A   1      44.074  26.878  28.804  1.00  0.00     0.049 A 
ATOM     36  N   UNL A   1      41.641  28.665  28.483  1.00  0.00    -0.248 NA
ATOM     37  C   UNL A   1      40.422  26.926  27.657  1.00  0.00     0.031 C 
ATOM     38  C   UNL A   1      44.313  27.776  29.934  1.00  0.00     0.029 A 
ATOM     39  N   UNL A   1      45.341  26.370  28.557  1.00  0.00    -0.354 N 
ATOM     40  C   UNL A   1      40.310  28.955  28.666  1.00  0.00     0.074 A 
ATOM     41  C   UNL A   1      39.596  27.917  27.987  1.00  0.00     0.031 C 
ATOM     42  C   UNL A   1      45.643  27.957  30.088  1.00  0.00     0.029 A 
ATOM     43  C   UNL A   1      46.321  27.249  29.014  1.00  0.00     0.049 A 
ATOM     44  H   UNL A   1      45.521  25.507  28.120  1.00  0.00     0.167 HD
ATOM     45  C   UNL A   1      40.019  29.957  29.532  1.00  0.00     0.034 A 
ATOM     46  C   UNL A   1      47.149  27.829  28.093  1.00  0.00     0.034 A 
ATOM     47  C   UNL A   1      41.268  30.643  29.891  1.00  0.00     0.049 A 
ATOM     48  C   UNL A   1      46.677  29.253  27.812  1.00  0.00     0.074 A 
ATOM     49  C   UNL A   1      42.124  30.541  30.974  1.00  0.00     0.029 A 
ATOM     50  N   UNL A   1      42.013  31.207  28.860  1.00  0.00    -0.354 N 
ATOM     51  N   UNL A   1      45.481  29.698  28.120  1.00  0.00    -0.248 NA
ATOM     52  C   UNL A   1      47.538  30.310  27.291  1.00  0.00     0.031 C 
ATOM     53  C   UNL A   1      43.428  30.928  30.527  1.00  0.00     0.029 A 
ATOM     54  C   UNL A   1      43.354  31.290  29.190  1.00  0.00     0.049 A 
ATOM     55  H   UNL A   1      41.635  31.510  28.003  1.00  0.00     0.167 HD
ATOM     56  C   UNL A   1      45.413  31.050  27.923  1.00  0.00     0.074 A 
ATOM     57  C   UNL A   1      46.733  31.382  27.400  1.00  0.00     0.031 C 
ATOM     58  C   UNL A   1      44.307  31.808  28.212  1.00  0.00     0.034 A 
BRANCH  45  59
ATOM     59  C   UNL A   1      38.704  30.164  30.237  1.00  0.00     0.023 A 
ATOM     60  C   UNL A   1      37.770  30.998  29.598  1.00  0.00     0.031 A 
ATOM     61  C   UNL A   1      38.312  29.687  31.507  1.00  0.00     0.131 A 
ATOM     62  C   UNL A   1      36.550  31.338  30.202  1.00  0.00     0.055 A 
ATOM     63  C   UNL A   1      37.087  30.015  32.105  1.00  0.00     0.041 A 
ATOM     64  F   UNL A   1      39.079  28.894  32.258  1.00  0.00    -0.206 F 
ATOM     65  C   UNL A   1      36.196  30.848  31.453  1.00  0.00     0.022 A 
BRANCH  62  66
ATOM     66  S   UNL A   1      35.439  32.453  29.312  1.00  0.00     0.124 S 
ATOM     67  O   UNL A   1      34.385  32.681  30.297  1.00  0.00    -0.237 OA
ATOM     68  O   UNL A   1      36.309  33.586  29.021  1.00  0.00    -0.237 OA
ATOM     69  O   UNL A   1      35.036  31.667  28.147  1.00  0.00    -0.744 OA
ENDBRANCH  62  66
ENDBRANCH  45  59
BRANCH  46  70
ATOM     70  C   UNL A   1      47.715  26.801  27.151  1.00  0.00     0.023 A 
ATOM     71  C   UNL A   1      47.493  27.048  25.769  1.00  0.00     0.031 A 
ATOM     72  C   UNL A   1      48.778  25.952  27.479  1.00  0.00     0.131 A 
ATOM     73  C   UNL A   1      48.447  26.677  24.807  1.00  0.00     0.055 A 
ATOM     74  C   UNL A   1      49.684  25.504  26.497  1.00  0.00     0.041 A 
ATOM     75  F   UNL A   1      49.066  25.680  28.761  1.00  0.00    -0.206 F 
ATOM     76  C   UNL A   1      49.559  25.923  25.169  1.00  0.00     0.022 A 
BRANCH  73  77
ATOM     77  S   UNL A   1      48.353  27.438  23.152  1.00  0.00     0.124 S 
ATOM     78  O   UNL A   1      47.133  28.234  23.257  1.00  0.00    -0.237 OA
ATOM     79  O   UNL A   1      49.595  28.204  23.069  1.00  0.00    -0.237 OA
ATOM     80  O   UNL A   1      48.271  26.300  22.241  1.00  0.00    -0.744 OA
ENDBRANCH  73  77
ENDBRANCH  46  70
BRANCH  58  81
ATOM     81  C   UNL A   1      44.059  33.181  27.621  1.00  0.00     0.023 A 
ATOM     82  C   UNL A   1      44.073  34.333  28.410  1.00  0.00     0.031 A 
ATOM     83  C   UNL A   1      43.890  33.400  26.231  1.00  0.00     0.131 A 
ATOM     84  C   UNL A   1      43.750  35.583  27.872  1.00  0.00     0.055 A 
ATOM     85  C   UNL A   1      43.729  34.670  25.674  1.00  0.00     0.041 A 
ATOM     86  F   UNL A   1      43.877  32.397  25.342  1.00  0.00    -0.206 F 
ATOM     87  C   UNL A   1      43.614  35.772  26.502  1.00  0.00     0.022 A 
BRANCH  84  88
ATOM     88  S   UNL A   1      43.354  36.902  29.041  1.00  0.00     0.124 S 
ATOM     89  O   UNL A   1      42.227  37.552  28.375  1.00  0.00    -0.237 OA
ATOM     90  O   UNL A   1      43.027  36.160  30.254  1.00  0.00    -0.237 OA
ATOM     91  O   UNL A   1      44.581  37.689  29.098  1.00  0.00    -0.744 OA
ENDBRANCH  84  88
ENDBRANCH  58  81
ENDBRANCH  32  33
ENDBRANCH  25  27
ENDBRANCH  24  25
ENDBRANCH  23  24
ENDBRANCH   1  23
TORSDOF 17
ENDMDL
MODEL 3
REMARK VINA RESULT:     -12.7      2.777      3.546
REMARK SMILES Cc1ccc(C(F)(F)F)cc1-c1ccc(/C=C/C(=O)OCCOC(=O)c2ccc(-c3c4nc(c(-c5cc(S(=O)(=O)[O-])ccc5F)c5ccc([nH]5)c(-c5cc(S(=O)(=O)[O-])ccc5F)c5nc(c(-c6cc(S(=O)(=O)[O-])ccc6F)c6ccc3[nH]6)C=C5)C=C4)cc2)s1
REMARK SMILES IDX 21 1 20 2 18 3 19 4 17 5 16 6 15 7 12 8 13 9 89 10 14 11
REMARK SMILES IDX 11 12 1 13 2 14 3 15 4 16 10 17 5 18 6 19 7 20 8 21 9 22
REMARK SMILES IDX 22 23 23 24 24 25 25 26 26 27 27 28 88 29 28 30 87 31 29 32
REMARK SMILES IDX 30 33 31 34 81 35 32 36 86 37 80 38 82 39 33 40 85 41 79 42
REMARK SMILES IDX 78 43 34 45 66 46 46 47 65 48 47 49 50 50 64 51 83 52 48 53
REMARK SMILES IDX 49 54 63 56 84 57 51 58 35 59 36 60 44 61 37 62 43 63 45 64
REMARK SMILES IDX 42 65 38 66 39 67 40 68 41 69 67 70 68 71 76 72 69 73 75 74
REMARK SMILES IDX 77 75 74 76 70 77 71 78 72 79 73 80 52 81 53 82 61 83 54 84
REMARK SMILES IDX 60 85 62 86 59 87 55 88 56 89 57 90 58 91
REMARK H PARENT 82 44 50 55
REMARK Flexibility Score: inf
ROOT
ATOM      1  C   UNL A   1      34.065  30.292  27.292  1.00  0.00     0.275 C 
ENDROOT
BRANCH   1   2
ATOM      2  O   UNL A   1      32.649  30.420  27.112  1.00  0.00    -0.459 OA
BRANCH   2   3
ATOM      3  C   UNL A   1      32.078  29.588  26.064  1.00  0.00     0.330 C 
ATOM      4  O   UNL A   1      31.331  30.345  25.406  1.00  0.00    -0.247 OA
BRANCH   3   5
ATOM      5  C   UNL A   1      32.540  27.509  25.801  1.00  0.00     0.095 C 
ATOM      6  C   UNL A   1      32.716  26.441  24.916  1.00  0.00     0.026 C 
BRANCH   6   7
ATOM      7  C   UNL A   1      33.031  25.065  25.266  1.00  0.00     0.028 A 
ATOM      8  C   UNL A   1      33.900  22.704  25.494  1.00  0.00     0.035 A 
ATOM      9  C   UNL A   1      33.118  23.092  26.561  1.00  0.00     0.021 A 
ATOM     10  S   UNL A   1      34.053  23.986  24.367  1.00  0.00    -0.136 S 
ATOM     11  C   UNL A   1      32.599  24.411  26.414  1.00  0.00     0.020 A 
BRANCH   8  12
ATOM     12  C   UNL A   1      34.520  21.382  25.271  1.00  0.00    -0.005 A 
ATOM     13  C   UNL A   1      36.886  22.321  25.648  1.00  0.00     0.045 C 
ATOM     14  C   UNL A   1      35.924  21.217  25.292  1.00  0.00    -0.042 A 
ATOM     15  C   UNL A   1      36.489  19.976  24.941  1.00  0.00     0.005 A 
ATOM     16  C   UNL A   1      35.684  18.894  24.598  1.00  0.00     0.013 A 
ATOM     17  C   UNL A   1      33.719  20.269  24.937  1.00  0.00     0.023 A 
ATOM     18  C   UNL A   1      34.290  19.023  24.601  1.00  0.00     0.056 A 
BRANCH  18  19
ATOM     19  C   UNL A   1      33.451  17.830  24.215  1.00  0.00     0.416 C 
ATOM     20  F   UNL A   1      32.176  17.921  24.696  1.00  0.00    -0.166 F 
ATOM     21  F   UNL A   1      33.317  17.697  22.864  1.00  0.00    -0.166 F 
ATOM     22  F   UNL A   1      33.930  16.639  24.664  1.00  0.00    -0.166 F 
ENDBRANCH  18  19
ENDBRANCH   8  12
ENDBRANCH   6   7
ENDBRANCH   3   5
ENDBRANCH   2   3
ENDBRANCH   1   2
BRANCH   1  23
ATOM     23  C   UNL A   1      34.611  31.650  27.753  1.00  0.00     0.275 C 
BRANCH  23  24
ATOM     24  O   UNL A   1      35.304  31.701  29.041  1.00  0.00    -0.458 OA
BRANCH  24  25
ATOM     25  C   UNL A   1      36.626  31.453  29.246  1.00  0.00     0.338 C 
ATOM     26  O   UNL A   1      37.490  32.303  29.396  1.00  0.00    -0.246 OA
BRANCH  25  27
ATOM     27  C   UNL A   1      37.017  30.062  28.969  1.00  0.00     0.060 A 
ATOM     28  C   UNL A   1      37.165  28.999  30.443  1.00  0.00     0.016 A 
ATOM     29  C   UNL A   1      38.114  29.849  27.543  1.00  0.00     0.016 A 
ATOM     30  C   UNL A   1      38.549  27.793  30.556  1.00  0.00     0.010 A 
ATOM     31  C   UNL A   1      39.474  28.629  27.641  1.00  0.00     0.010 A 
ATOM     32  C   UNL A   1      39.703  27.669  29.174  1.00  0.00    -0.014 A 
BRANCH  32  33
ATOM     33  C   UNL A   1      41.081  27.276  29.336  1.00  0.00     0.031 A 
ATOM     34  C   UNL A   1      41.345  25.922  28.861  1.00  0.00     0.074 A 
ATOM     35  C   UNL A   1      41.995  28.213  29.691  1.00  0.00     0.049 A 
ATOM     36  N   UNL A   1      42.382  25.247  29.167  1.00  0.00    -0.248 NA
ATOM     37  C   UNL A   1      40.388  25.139  28.069  1.00  0.00     0.031 C 
ATOM     38  C   UNL A   1      43.453  28.200  29.580  1.00  0.00     0.029 A 
ATOM     39  N   UNL A   1      41.763  29.373  30.413  1.00  0.00    -0.354 N 
ATOM     40  C   UNL A   1      42.411  24.151  28.339  1.00  0.00     0.074 A 
ATOM     41  C   UNL A   1      41.088  24.038  27.805  1.00  0.00     0.031 C 
ATOM     42  C   UNL A   1      43.973  29.118  30.424  1.00  0.00     0.029 A 
ATOM     43  C   UNL A   1      42.879  29.708  31.178  1.00  0.00     0.049 A 
ATOM     44  H   UNL A   1      40.925  29.890  30.389  1.00  0.00     0.167 HD
ATOM     45  C   UNL A   1      43.628  23.604  28.097  1.00  0.00     0.034 A 
ATOM     46  C   UNL A   1      42.761  29.682  32.540  1.00  0.00     0.034 A 
ATOM     47  C   UNL A   1      44.607  24.221  29.003  1.00  0.00     0.049 A 
ATOM     48  C   UNL A   1      43.372  28.391  33.077  1.00  0.00     0.074 A 
ATOM     49  C   UNL A   1      45.521  25.250  28.846  1.00  0.00     0.029 A 
ATOM     50  N   UNL A   1      44.382  24.110  30.371  1.00  0.00    -0.354 N 
ATOM     51  N   UNL A   1      43.624  27.339  32.333  1.00  0.00    -0.248 NA
ATOM     52  C   UNL A   1      43.863  28.227  34.442  1.00  0.00     0.031 C 
ATOM     53  C   UNL A   1      45.729  25.837  30.134  1.00  0.00     0.029 A 
ATOM     54  C   UNL A   1      44.969  25.149  31.069  1.00  0.00     0.049 A 
ATOM     55  H   UNL A   1      43.867  23.383  30.791  1.00  0.00     0.167 HD
ATOM     56  C   UNL A   1      44.338  26.415  33.045  1.00  0.00     0.074 A 
ATOM     57  C   UNL A   1      44.459  27.023  34.364  1.00  0.00     0.031 C 
ATOM     58  C   UNL A   1      44.797  25.234  32.516  1.00  0.00     0.034 A 
BRANCH  45  59
ATOM     59  C   UNL A   1      43.990  22.731  26.924  1.00  0.00     0.023 A 
ATOM     60  C   UNL A   1      43.338  21.488  26.838  1.00  0.00     0.031 A 
ATOM     61  C   UNL A   1      44.966  22.966  25.931  1.00  0.00     0.131 A 
ATOM     62  C   UNL A   1      43.660  20.553  25.842  1.00  0.00     0.055 A 
ATOM     63  C   UNL A   1      45.278  22.039  24.927  1.00  0.00     0.041 A 
ATOM     64  F   UNL A   1      45.687  24.088  25.868  1.00  0.00    -0.206 F 
ATOM     65  C   UNL A   1      44.626  20.820  24.879  1.00  0.00     0.022 A 
BRANCH  62  66
ATOM     66  S   UNL A   1      42.792  18.967  25.847  1.00  0.00     0.124 S 
ATOM     67  O   UNL A   1      43.600  18.176  24.923  1.00  0.00    -0.237 OA
ATOM     68  O   UNL A   1      42.857  18.587  27.253  1.00  0.00    -0.237 OA
ATOM     69  O   UNL A   1      41.457  19.313  25.361  1.00  0.00    -0.744 OA
ENDBRANCH  62  66
ENDBRANCH  45  59
BRANCH  46  70
ATOM     70  C   UNL A   1      41.532  30.424  32.991  1.00  0.00     0.023 A 
ATOM     71  C   UNL A   1      41.509  31.813  32.690  1.00  0.00     0.031 A 
ATOM     72  C   UNL A   1      40.298  29.806  33.227  1.00  0.00     0.131 A 
ATOM     73  C   UNL A   1      40.303  32.465  32.384  1.00  0.00     0.055 A 
ATOM     74  C   UNL A   1      39.087  30.492  33.008  1.00  0.00     0.041 A 
ATOM     75  F   UNL A   1      40.230  28.496  33.502  1.00  0.00    -0.206 F 
ATOM     76  C   UNL A   1      39.088  31.801  32.519  1.00  0.00     0.022 A 
BRANCH  73  77
ATOM     77  S   UNL A   1      40.379  34.080  31.540  1.00  0.00     0.124 S 
ATOM     78  O   UNL A   1      39.000  34.544  31.656  1.00  0.00    -0.237 OA
ATOM     79  O   UNL A   1      41.359  34.821  32.332  1.00  0.00    -0.237 OA
ATOM     80  O   UNL A   1      40.808  33.753  30.183  1.00  0.00    -0.744 OA
ENDBRANCH  73  77
ENDBRANCH  46  70
BRANCH  58  81
ATOM     81  C   UNL A   1      45.198  24.043  33.362  1.00  0.00     0.023 A 
ATOM     82  C   UNL A   1      46.415  24.004  34.045  1.00  0.00     0.031 A 
ATOM     83  C   UNL A   1      44.339  22.939  33.589  1.00  0.00     0.131 A 
ATOM     84  C   UNL A   1      46.816  22.861  34.745  1.00  0.00     0.055 A 
ATOM     85  C   UNL A   1      44.676  21.870  34.422  1.00  0.00     0.041 A 
ATOM     86  F   UNL A   1      43.128  22.842  33.022  1.00  0.00    -0.206 F 
ATOM     87  C   UNL A   1      45.943  21.804  34.973  1.00  0.00     0.022 A 
BRANCH  84  88
ATOM     88  S   UNL A   1      48.561  22.745  35.194  1.00  0.00     0.124 S 
ATOM     89  O   UNL A   1      48.576  21.519  35.989  1.00  0.00    -0.237 OA
ATOM     90  O   UNL A   1      49.218  22.662  33.894  1.00  0.00    -0.237 OA
ATOM     91  O   UNL A   1      48.805  23.975  35.942  1.00  0.00    -0.744 OA
ENDBRANCH  84  88
ENDBRANCH  58  81
ENDBRANCH  32  33
ENDBRANCH  25  27
ENDBRANCH  24  25
ENDBRANCH  23  24
ENDBRANCH   1  23
TORSDOF 17
ENDMDL
