MODEL 1
REMARK VINA RESULT:     -11.8      0.000      0.000
REMARK SMILES CCOc1ccc(N2C[C@H](C(=O)OCCOC(=O)c3ccc(-c4c5nc(c(-c6cc(S(=O)(=O)[O-])ccc6F)c6ccc([nH]6)c(-c6cc(S(=O)(=O)[O-])ccc6F)c6nc(c(-c7cc(S(=O)(=O)[O-])ccc7F)c7ccc4[nH]7)C=C6)C=C5)cc3)CC2=O)cc1C(F)(F)F
REMARK SMILES IDX 14 1 13 2 11 3 12 4 10 5 8 6 9 7 83 8 82 9 84 10 7 11 4 12
REMARK SMILES IDX 5 13 86 14 6 15 85 16 3 17 2 18 1 19 87 20 88 21 89 22 90 23
REMARK SMILES IDX 15 24 16 25 17 26 18 27 19 28 20 29 81 30 21 31 80 32 22 33
REMARK SMILES IDX 23 34 24 35 74 36 25 37 79 38 73 39 75 40 26 41 78 42 72 43
REMARK SMILES IDX 71 44 27 46 59 47 39 48 58 49 40 50 43 51 57 52 76 53 41 54
REMARK SMILES IDX 42 55 56 57 77 58 44 59 28 60 29 61 37 62 30 63 36 64 38 65
REMARK SMILES IDX 35 66 31 67 32 68 33 69 34 70 60 71 61 72 69 73 62 74 68 75
REMARK SMILES IDX 70 76 67 77 63 78 64 79 65 80 66 81 45 82 46 83 54 84 47 85
REMARK SMILES IDX 53 86 55 87 52 88 48 89 49 90 50 91 51 92
REMARK H PARENT 75 45 43 56
REMARK Flexibility Score: inf
ROOT
ATOM      1  C   UNL A   1      31.263  29.561  24.490  1.00  0.00     0.274 C 
ENDROOT
BRANCH   1   2
ATOM      2  O   UNL A   1      30.668  28.279  24.216  1.00  0.00    -0.462 OA
BRANCH   2   3
ATOM      3  C   UNL A   1      31.123  27.619  23.124  1.00  0.00     0.311 C 
ATOM      4  O   UNL A   1      30.458  27.394  22.119  1.00  0.00    -0.252 OA
BRANCH   3   5
ATOM      5  C   UNL A   1      32.573  27.194  23.235  1.00  0.00     0.128 C 
ATOM      6  N   UNL A   1      33.029  24.904  23.090  1.00  0.00    -0.312 N 
ATOM      7  C   UNL A   1      32.843  25.955  24.060  1.00  0.00     0.141 C 
ATOM      8  C   UNL A   1      33.171  25.410  21.795  1.00  0.00     0.227 C 
ATOM      9  C   UNL A   1      33.153  26.909  21.865  1.00  0.00     0.117 C 
ATOM     10  O   UNL A   1      33.309  24.797  20.746  1.00  0.00    -0.274 OA
BRANCH   6  11
ATOM     11  C   UNL A   1      33.171  23.546  23.456  1.00  0.00     0.044 A 
ATOM     12  C   UNL A   1      33.520  20.852  24.183  1.00  0.00     0.131 A 
ATOM     13  C   UNL A   1      32.342  21.266  23.557  1.00  0.00     0.049 A 
ATOM     14  C   UNL A   1      34.538  21.766  24.450  1.00  0.00     0.100 A 
ATOM     15  C   UNL A   1      32.158  22.611  23.219  1.00  0.00     0.030 A 
ATOM     16  C   UNL A   1      34.342  23.108  24.086  1.00  0.00     0.043 A 
BRANCH  12  17
ATOM     17  O   UNL A   1      33.721  19.525  24.430  1.00  0.00    -0.493 OA
BRANCH  17  18
ATOM     18  C   UNL A   1      32.752  18.679  23.803  1.00  0.00     0.226 C 
ATOM     19  C   UNL A   1      32.234  17.687  24.829  1.00  0.00     0.049 C 
ENDBRANCH  17  18
ENDBRANCH  12  17
BRANCH  14  20
ATOM     20  C   UNL A   1      35.800  21.394  25.178  1.00  0.00     0.420 C 
ATOM     21  F   UNL A   1      36.824  22.271  24.959  1.00  0.00    -0.166 F 
ATOM     22  F   UNL A   1      35.622  21.386  26.532  1.00  0.00    -0.166 F 
ATOM     23  F   UNL A   1      36.307  20.170  24.862  1.00  0.00    -0.166 F 
ENDBRANCH  14  20
ENDBRANCH   6  11
ENDBRANCH   3   5
ENDBRANCH   2   3
ENDBRANCH   1   2
BRANCH   1  24
ATOM     24  C   UNL A   1      31.787  29.624  25.930  1.00  0.00     0.275 C 
BRANCH  24  25
ATOM     25  O   UNL A   1      33.122  30.160  25.999  1.00  0.00    -0.458 OA
BRANCH  25  26
ATOM     26  C   UNL A   1      33.299  31.158  26.897  1.00  0.00     0.338 C 
ATOM     27  O   UNL A   1      32.492  32.016  27.213  1.00  0.00    -0.246 OA
BRANCH  26  28
ATOM     28  C   UNL A   1      34.581  30.975  27.596  1.00  0.00     0.060 A 
ATOM     29  C   UNL A   1      34.851  29.715  28.128  1.00  0.00     0.016 A 
ATOM     30  C   UNL A   1      35.464  32.032  27.809  1.00  0.00     0.016 A 
ATOM     31  C   UNL A   1      35.985  29.497  28.895  1.00  0.00     0.010 A 
ATOM     32  C   UNL A   1      36.630  31.804  28.551  1.00  0.00     0.010 A 
ATOM     33  C   UNL A   1      36.896  30.536  29.101  1.00  0.00    -0.014 A 
BRANCH  33  34
ATOM     34  C   UNL A   1      38.121  30.282  29.896  1.00  0.00     0.031 A 
ATOM     35  C   UNL A   1      39.168  29.343  29.375  1.00  0.00     0.074 A 
ATOM     36  C   UNL A   1      38.300  30.926  31.066  1.00  0.00     0.049 A 
ATOM     37  N   UNL A   1      40.218  28.859  29.982  1.00  0.00    -0.248 NA
ATOM     38  C   UNL A   1      39.012  28.892  27.983  1.00  0.00     0.031 C 
ATOM     39  C   UNL A   1      37.390  31.931  31.624  1.00  0.00     0.029 A 
ATOM     40  N   UNL A   1      39.301  30.832  31.997  1.00  0.00    -0.354 N 
ATOM     41  C   UNL A   1      40.841  28.027  29.057  1.00  0.00     0.074 A 
ATOM     42  C   UNL A   1      40.039  28.065  27.851  1.00  0.00     0.031 C 
ATOM     43  C   UNL A   1      37.875  32.356  32.802  1.00  0.00     0.029 A 
ATOM     44  C   UNL A   1      39.079  31.598  33.120  1.00  0.00     0.049 A 
ATOM     45  H   UNL A   1      40.102  30.272  31.876  1.00  0.00     0.167 HD
ATOM     46  C   UNL A   1      41.976  27.301  29.210  1.00  0.00     0.034 A 
ATOM     47  C   UNL A   1      39.737  31.637  34.294  1.00  0.00     0.034 A 
ATOM     48  C   UNL A   1      42.755  27.281  30.424  1.00  0.00     0.049 A 
ATOM     49  C   UNL A   1      40.931  30.733  34.479  1.00  0.00     0.074 A 
ATOM     50  C   UNL A   1      43.900  26.556  30.706  1.00  0.00     0.029 A 
ATOM     51  N   UNL A   1      42.469  28.027  31.561  1.00  0.00    -0.354 N 
ATOM     52  N   UNL A   1      41.469  29.893  33.624  1.00  0.00    -0.248 NA
ATOM     53  C   UNL A   1      41.597  30.775  35.786  1.00  0.00     0.031 C 
ATOM     54  C   UNL A   1      44.274  26.821  32.028  1.00  0.00     0.029 A 
ATOM     55  C   UNL A   1      43.401  27.761  32.553  1.00  0.00     0.049 A 
ATOM     56  H   UNL A   1      41.714  28.652  31.651  1.00  0.00     0.167 HD
ATOM     57  C   UNL A   1      42.549  29.320  34.289  1.00  0.00     0.074 A 
ATOM     58  C   UNL A   1      42.599  29.928  35.603  1.00  0.00     0.031 C 
ATOM     59  C   UNL A   1      43.421  28.374  33.858  1.00  0.00     0.034 A 
BRANCH  46  60
ATOM     60  C   UNL A   1      42.401  26.427  28.058  1.00  0.00     0.023 A 
ATOM     61  C   UNL A   1      41.909  25.120  27.898  1.00  0.00     0.031 A 
ATOM     62  C   UNL A   1      43.325  26.906  27.113  1.00  0.00     0.131 A 
ATOM     63  C   UNL A   1      42.382  24.320  26.846  1.00  0.00     0.055 A 
ATOM     64  C   UNL A   1      43.742  26.129  26.031  1.00  0.00     0.041 A 
ATOM     65  F   UNL A   1      43.846  28.138  27.232  1.00  0.00    -0.206 F 
ATOM     66  C   UNL A   1      43.277  24.825  25.897  1.00  0.00     0.022 A 
BRANCH  63  67
ATOM     67  S   UNL A   1      41.893  22.575  26.790  1.00  0.00     0.124 S 
ATOM     68  O   UNL A   1      42.847  21.973  27.719  1.00  0.00    -0.237 OA
ATOM     69  O   UNL A   1      40.506  22.620  27.240  1.00  0.00    -0.237 OA
ATOM     70  O   UNL A   1      42.083  22.210  25.388  1.00  0.00    -0.744 OA
ENDBRANCH  63  67
ENDBRANCH  46  60
BRANCH  47  71
ATOM     71  C   UNL A   1      39.240  32.480  35.420  1.00  0.00     0.023 A 
ATOM     72  C   UNL A   1      39.703  33.792  35.604  1.00  0.00     0.031 A 
ATOM     73  C   UNL A   1      38.345  31.958  36.373  1.00  0.00     0.131 A 
ATOM     74  C   UNL A   1      39.314  34.517  36.742  1.00  0.00     0.055 A 
ATOM     75  C   UNL A   1      37.912  32.706  37.468  1.00  0.00     0.041 A 
ATOM     76  F   UNL A   1      37.875  30.707  36.251  1.00  0.00    -0.206 F 
ATOM     77  C   UNL A   1      38.411  33.988  37.668  1.00  0.00     0.022 A 
BRANCH  74  78
ATOM     78  S   UNL A   1      40.101  36.121  37.058  1.00  0.00     0.124 S 
ATOM     79  O   UNL A   1      41.462  35.723  37.399  1.00  0.00    -0.237 OA
ATOM     80  O   UNL A   1      39.930  36.797  35.777  1.00  0.00    -0.237 OA
ATOM     81  O   UNL A   1      39.317  36.671  38.162  1.00  0.00    -0.744 OA
ENDBRANCH  74  78
ENDBRANCH  47  71
BRANCH  59  82
ATOM     82  C   UNL A   1      44.516  27.982  34.815  1.00  0.00     0.023 A 
ATOM     83  C   UNL A   1      44.300  27.033  35.829  1.00  0.00     0.031 A 
ATOM     84  C   UNL A   1      45.781  28.586  34.728  1.00  0.00     0.131 A 
ATOM     85  C   UNL A   1      45.317  26.757  36.754  1.00  0.00     0.055 A 
ATOM     86  C   UNL A   1      46.807  28.268  35.618  1.00  0.00     0.041 A 
ATOM     87  F   UNL A   1      46.038  29.500  33.778  1.00  0.00    -0.206 F 
ATOM     88  C   UNL A   1      46.574  27.358  36.646  1.00  0.00     0.022 A 
BRANCH  85  89
ATOM     89  S   UNL A   1      44.949  25.662  38.152  1.00  0.00     0.124 S 
ATOM     90  O   UNL A   1      44.456  24.466  37.478  1.00  0.00    -0.237 OA
ATOM     91  O   UNL A   1      46.250  25.536  38.801  1.00  0.00    -0.237 OA
ATOM     92  O   UNL A   1      43.947  26.403  38.915  1.00  0.00    -0.744 OA
ENDBRANCH  85  89
ENDBRANCH  59  82
ENDBRANCH  33  34
ENDBRANCH  26  28
ENDBRANCH  25  26
ENDBRANCH  24  25
ENDBRANCH   1  24
TORSDOF 18
ENDMDL
MODEL 2
REMARK VINA RESULT:     -11.8      5.417     10.306
REMARK SMILES CCOc1ccc(N2C[C@H](C(=O)OCCOC(=O)c3ccc(-c4c5nc(c(-c6cc(S(=O)(=O)[O-])ccc6F)c6ccc([nH]6)c(-c6cc(S(=O)(=O)[O-])ccc6F)c6nc(c(-c7cc(S(=O)(=O)[O-])ccc7F)c7ccc4[nH]7)C=C6)C=C5)cc3)CC2=O)cc1C(F)(F)F
REMARK SMILES IDX 14 1 13 2 11 3 12 4 10 5 8 6 9 7 83 8 82 9 84 10 7 11 4 12
REMARK SMILES IDX 5 13 86 14 6 15 85 16 3 17 2 18 1 19 87 20 88 21 89 22 90 23
REMARK SMILES IDX 15 24 16 25 17 26 18 27 19 28 20 29 81 30 21 31 80 32 22 33
REMARK SMILES IDX 23 34 24 35 74 36 25 37 79 38 73 39 75 40 26 41 78 42 72 43
REMARK SMILES IDX 71 44 27 46 59 47 39 48 58 49 40 50 43 51 57 52 76 53 41 54
REMARK SMILES IDX 42 55 56 57 77 58 44 59 28 60 29 61 37 62 30 63 36 64 38 65
REMARK SMILES IDX 35 66 31 67 32 68 33 69 34 70 60 71 61 72 69 73 62 74 68 75
REMARK SMILES IDX 70 76 67 77 63 78 64 79 65 80 66 81 45 82 46 83 54 84 47 85
REMARK SMILES IDX 53 86 55 87 52 88 48 89 49 90 50 91 51 92
REMARK H PARENT 75 45 43 56
REMARK Flexibility Score: inf
ROOT
ATOM      1  C   UNL A   1      34.977  21.220  25.082  1.00  0.00     0.274 C 
ENDROOT
BRANCH   1   2
ATOM      2  O   UNL A   1      35.024  22.634  24.816  1.00  0.00    -0.462 OA
BRANCH   2   3
ATOM      3  C   UNL A   1      34.885  23.015  23.524  1.00  0.00     0.311 C 
ATOM      4  O   UNL A   1      35.801  23.069  22.711  1.00  0.00    -0.252 OA
BRANCH   3   5
ATOM      5  C   UNL A   1      33.458  23.351  23.143  1.00  0.00     0.128 C 
ATOM      6  N   UNL A   1      32.801  25.589  23.329  1.00  0.00    -0.312 N 
ATOM      7  C   UNL A   1      32.743  24.336  24.042  1.00  0.00     0.141 C 
ATOM      8  C   UNL A   1      33.220  25.416  22.006  1.00  0.00     0.227 C 
ATOM      9  C   UNL A   1      33.401  23.949  21.752  1.00  0.00     0.117 C 
ATOM     10  O   UNL A   1      33.407  26.266  21.148  1.00  0.00    -0.274 OA
BRANCH   6  11
ATOM     11  C   UNL A   1      32.360  26.807  23.893  1.00  0.00     0.044 A 
ATOM     12  C   UNL A   1      31.458  29.249  24.957  1.00  0.00     0.131 A 
ATOM     13  C   UNL A   1      32.510  28.561  25.566  1.00  0.00     0.049 A 
ATOM     14  C   UNL A   1      30.847  28.738  23.812  1.00  0.00     0.100 A 
ATOM     15  C   UNL A   1      32.941  27.334  25.052  1.00  0.00     0.030 A 
ATOM     16  C   UNL A   1      31.307  27.514  23.302  1.00  0.00     0.043 A 
BRANCH  12  17
ATOM     17  O   UNL A   1      31.104  30.484  25.418  1.00  0.00    -0.493 OA
BRANCH  17  18
ATOM     18  C   UNL A   1      31.918  30.937  26.504  1.00  0.00     0.226 C 
ATOM     19  C   UNL A   1      31.550  32.375  26.823  1.00  0.00     0.049 C 
ENDBRANCH  17  18
ENDBRANCH  12  17
BRANCH  14  20
ATOM     20  C   UNL A   1      29.670  29.399  23.151  1.00  0.00     0.420 C 
ATOM     21  F   UNL A   1      29.783  29.458  21.791  1.00  0.00    -0.166 F 
ATOM     22  F   UNL A   1      28.508  28.719  23.382  1.00  0.00    -0.166 F 
ATOM     23  F   UNL A   1      29.434  30.682  23.544  1.00  0.00    -0.166 F 
ENDBRANCH  14  20
ENDBRANCH   6  11
ENDBRANCH   3   5
ENDBRANCH   2   3
ENDBRANCH   1   2
BRANCH   1  24
ATOM     24  C   UNL A   1      36.386  20.661  25.317  1.00  0.00     0.275 C 
BRANCH  24  25
ATOM     25  O   UNL A   1      37.373  21.705  25.417  1.00  0.00    -0.458 OA
BRANCH  25  26
ATOM     26  C   UNL A   1      38.582  21.315  25.889  1.00  0.00     0.338 C 
ATOM     27  O   UNL A   1      39.099  20.218  25.769  1.00  0.00    -0.246 OA
BRANCH  26  28
ATOM     28  C   UNL A   1      39.295  22.476  26.446  1.00  0.00     0.060 A 
ATOM     29  C   UNL A   1      38.851  23.744  26.075  1.00  0.00     0.016 A 
ATOM     30  C   UNL A   1      40.430  22.333  27.242  1.00  0.00     0.016 A 
ATOM     31  C   UNL A   1      39.541  24.881  26.469  1.00  0.00     0.010 A 
ATOM     32  C   UNL A   1      41.106  23.481  27.674  1.00  0.00     0.010 A 
ATOM     33  C   UNL A   1      40.668  24.762  27.287  1.00  0.00    -0.014 A 
BRANCH  33  34
ATOM     34  C   UNL A   1      41.378  25.986  27.728  1.00  0.00     0.031 A 
ATOM     35  C   UNL A   1      40.649  27.026  28.525  1.00  0.00     0.074 A 
ATOM     36  C   UNL A   1      42.685  26.136  27.439  1.00  0.00     0.049 A 
ATOM     37  N   UNL A   1      41.032  28.229  28.859  1.00  0.00    -0.248 NA
ATOM     38  C   UNL A   1      39.310  26.660  29.014  1.00  0.00     0.031 C 
ATOM     39  C   UNL A   1      43.517  25.146  26.749  1.00  0.00     0.029 A 
ATOM     40  N   UNL A   1      43.544  27.176  27.683  1.00  0.00    -0.354 N 
ATOM     41  C   UNL A   1      39.976  28.778  29.579  1.00  0.00     0.074 A 
ATOM     42  C   UNL A   1      38.931  27.776  29.620  1.00  0.00     0.031 C 
ATOM     43  C   UNL A   1      44.763  25.630  26.624  1.00  0.00     0.029 A 
ATOM     44  C   UNL A   1      44.798  26.990  27.146  1.00  0.00     0.049 A 
ATOM     45  H   UNL A   1      43.289  27.980  28.193  1.00  0.00     0.167 HD
ATOM     46  C   UNL A   1      39.895  30.006  30.147  1.00  0.00     0.034 A 
ATOM     47  C   UNL A   1      45.835  27.842  27.034  1.00  0.00     0.034 A 
ATOM     48  C   UNL A   1      40.952  30.985  30.089  1.00  0.00     0.049 A 
ATOM     49  C   UNL A   1      45.677  29.241  27.575  1.00  0.00     0.074 A 
ATOM     50  C   UNL A   1      40.967  32.274  30.595  1.00  0.00     0.029 A 
ATOM     51  N   UNL A   1      42.189  30.782  29.489  1.00  0.00    -0.354 N 
ATOM     52  N   UNL A   1      44.646  29.777  28.188  1.00  0.00    -0.248 NA
ATOM     53  C   UNL A   1      46.814  30.152  27.398  1.00  0.00     0.031 C 
ATOM     54  C   UNL A   1      42.189  32.866  30.255  1.00  0.00     0.029 A 
ATOM     55  C   UNL A   1      42.963  31.928  29.592  1.00  0.00     0.049 A 
ATOM     56  H   UNL A   1      42.474  29.947  29.052  1.00  0.00     0.167 HD
ATOM     57  C   UNL A   1      45.021  31.083  28.485  1.00  0.00     0.074 A 
ATOM     58  C   UNL A   1      46.378  31.245  28.006  1.00  0.00     0.031 C 
ATOM     59  C   UNL A   1      44.310  32.065  29.095  1.00  0.00     0.034 A 
BRANCH  46  60
ATOM     60  C   UNL A   1      38.599  30.374  30.823  1.00  0.00     0.023 A 
ATOM     61  C   UNL A   1      37.579  31.066  30.147  1.00  0.00     0.031 A 
ATOM     62  C   UNL A   1      38.387  30.037  32.172  1.00  0.00     0.131 A 
ATOM     63  C   UNL A   1      36.416  31.443  30.835  1.00  0.00     0.055 A 
ATOM     64  C   UNL A   1      37.200  30.356  32.833  1.00  0.00     0.041 A 
ATOM     65  F   UNL A   1      39.336  29.398  32.873  1.00  0.00    -0.206 F 
ATOM     66  C   UNL A   1      36.209  31.072  32.167  1.00  0.00     0.022 A 
BRANCH  63  67
ATOM     67  S   UNL A   1      35.217  32.516  29.998  1.00  0.00     0.124 S 
ATOM     68  O   UNL A   1      34.247  32.759  31.064  1.00  0.00    -0.237 OA
ATOM     69  O   UNL A   1      36.034  33.659  29.606  1.00  0.00    -0.237 OA
ATOM     70  O   UNL A   1      34.729  31.691  28.895  1.00  0.00    -0.744 OA
ENDBRANCH  63  67
ENDBRANCH  46  60
BRANCH  47  71
ATOM     71  C   UNL A   1      47.075  27.443  26.307  1.00  0.00     0.023 A 
ATOM     72  C   UNL A   1      47.272  27.790  24.961  1.00  0.00     0.031 A 
ATOM     73  C   UNL A   1      48.052  26.643  26.931  1.00  0.00     0.131 A 
ATOM     74  C   UNL A   1      48.388  27.293  24.268  1.00  0.00     0.055 A 
ATOM     75  C   UNL A   1      49.190  26.205  26.254  1.00  0.00     0.041 A 
ATOM     76  F   UNL A   1      47.912  26.275  28.214  1.00  0.00    -0.206 F 
ATOM     77  C   UNL A   1      49.355  26.516  24.909  1.00  0.00     0.022 A 
BRANCH  74  78
ATOM     78  S   UNL A   1      48.495  27.581  22.480  1.00  0.00     0.124 S 
ATOM     79  O   UNL A   1      49.746  28.324  22.373  1.00  0.00    -0.237 OA
ATOM     80  O   UNL A   1      48.510  26.220  21.957  1.00  0.00    -0.237 OA
ATOM     81  O   UNL A   1      47.287  28.349  22.187  1.00  0.00    -0.744 OA
ENDBRANCH  74  78
ENDBRANCH  47  71
BRANCH  59  82
ATOM     82  C   UNL A   1      45.018  33.379  29.304  1.00  0.00     0.023 A 
ATOM     83  C   UNL A   1      44.969  34.400  28.339  1.00  0.00     0.031 A 
ATOM     84  C   UNL A   1      45.774  33.598  30.468  1.00  0.00     0.131 A 
ATOM     85  C   UNL A   1      45.710  35.574  28.530  1.00  0.00     0.055 A 
ATOM     86  C   UNL A   1      46.466  34.790  30.677  1.00  0.00     0.041 A 
ATOM     87  F   UNL A   1      45.854  32.653  31.418  1.00  0.00    -0.206 F 
ATOM     88  C   UNL A   1      46.447  35.782  29.700  1.00  0.00     0.022 A 
BRANCH  85  89
ATOM     89  S   UNL A   1      45.765  36.796  27.191  1.00  0.00     0.124 S 
ATOM     90  O   UNL A   1      46.438  36.054  26.131  1.00  0.00    -0.237 OA
ATOM     91  O   UNL A   1      44.351  37.083  26.970  1.00  0.00    -0.237 OA
ATOM     92  O   UNL A   1      46.537  37.899  27.764  1.00  0.00    -0.744 OA
ENDBRANCH  85  89
ENDBRANCH  59  82
ENDBRANCH  33  34
ENDBRANCH  26  28
ENDBRANCH  25  26
ENDBRANCH  24  25
ENDBRANCH   1  24
TORSDOF 18
ENDMDL
MODEL 3
REMARK VINA RESULT:     -11.5      1.874      2.361
REMARK SMILES CCOc1ccc(N2C[C@H](C(=O)OCCOC(=O)c3ccc(-c4c5nc(c(-c6cc(S(=O)(=O)[O-])ccc6F)c6ccc([nH]6)c(-c6cc(S(=O)(=O)[O-])ccc6F)c6nc(c(-c7cc(S(=O)(=O)[O-])ccc7F)c7ccc4[nH]7)C=C6)C=C5)cc3)CC2=O)cc1C(F)(F)F
REMARK SMILES IDX 14 1 13 2 11 3 12 4 10 5 8 6 9 7 83 8 82 9 84 10 7 11 4 12
REMARK SMILES IDX 5 13 86 14 6 15 85 16 3 17 2 18 1 19 87 20 88 21 89 22 90 23
REMARK SMILES IDX 15 24 16 25 17 26 18 27 19 28 20 29 81 30 21 31 80 32 22 33
REMARK SMILES IDX 23 34 24 35 74 36 25 37 79 38 73 39 75 40 26 41 78 42 72 43
REMARK SMILES IDX 71 44 27 46 59 47 39 48 58 49 40 50 43 51 57 52 76 53 41 54
REMARK SMILES IDX 42 55 56 57 77 58 44 59 28 60 29 61 37 62 30 63 36 64 38 65
REMARK SMILES IDX 35 66 31 67 32 68 33 69 34 70 60 71 61 72 69 73 62 74 68 75
REMARK SMILES IDX 70 76 67 77 63 78 64 79 65 80 66 81 45 82 46 83 54 84 47 85
REMARK SMILES IDX 53 86 55 87 52 88 48 89 49 90 50 91 51 92
REMARK H PARENT 75 45 43 56
REMARK Flexibility Score: inf
ROOT
ATOM      1  C   UNL A   1      32.403  28.321  26.624  1.00  0.00     0.274 C 
ENDROOT
BRANCH   1   2
ATOM      2  O   UNL A   1      31.471  27.762  25.679  1.00  0.00    -0.462 OA
BRANCH   2   3
ATOM      3  C   UNL A   1      31.949  26.809  24.843  1.00  0.00     0.311 C 
ATOM      4  O   UNL A   1      33.045  26.849  24.297  1.00  0.00    -0.252 OA
BRANCH   3   5
ATOM      5  C   UNL A   1      31.004  25.640  24.657  1.00  0.00     0.128 C 
ATOM      6  N   UNL A   1      31.821  23.512  25.186  1.00  0.00    -0.312 N 
ATOM      7  C   UNL A   1      31.605  24.387  24.059  1.00  0.00     0.141 C 
ATOM      8  C   UNL A   1      31.179  23.978  26.337  1.00  0.00     0.227 C 
ATOM      9  C   UNL A   1      30.409  25.216  25.984  1.00  0.00     0.117 C 
ATOM     10  O   UNL A   1      31.186  23.499  27.462  1.00  0.00    -0.274 OA
BRANCH   6  11
ATOM     11  C   UNL A   1      32.500  22.277  25.072  1.00  0.00     0.044 A 
ATOM     12  C   UNL A   1      33.902  19.853  24.821  1.00  0.00     0.131 A 
ATOM     13  C   UNL A   1      32.506  19.857  24.878  1.00  0.00     0.049 A 
ATOM     14  C   UNL A   1      34.616  21.049  24.883  1.00  0.00     0.100 A 
ATOM     15  C   UNL A   1      31.810  21.061  25.028  1.00  0.00     0.030 A 
ATOM     16  C   UNL A   1      33.898  22.248  25.016  1.00  0.00     0.043 A 
BRANCH  12  17
ATOM     17  O   UNL A   1      34.563  18.682  24.589  1.00  0.00    -0.493 OA
BRANCH  17  18
ATOM     18  C   UNL A   1      33.694  17.602  24.235  1.00  0.00     0.226 C 
ATOM     19  C   UNL A   1      34.331  16.812  23.106  1.00  0.00     0.049 C 
ENDBRANCH  17  18
ENDBRANCH  12  17
BRANCH  14  20
ATOM     20  C   UNL A   1      36.118  21.104  24.892  1.00  0.00     0.420 C 
ATOM     21  F   UNL A   1      36.700  19.868  24.878  1.00  0.00    -0.166 F 
ATOM     22  F   UNL A   1      36.611  21.741  23.789  1.00  0.00    -0.166 F 
ATOM     23  F   UNL A   1      36.665  21.741  25.964  1.00  0.00    -0.166 F 
ENDBRANCH  14  20
ENDBRANCH   6  11
ENDBRANCH   3   5
ENDBRANCH   2   3
ENDBRANCH   1   2
BRANCH   1  24
ATOM     24  C   UNL A   1      32.265  29.846  26.690  1.00  0.00     0.275 C 
BRANCH  24  25
ATOM     25  O   UNL A   1      33.517  30.515  26.445  1.00  0.00    -0.458 OA
BRANCH  25  26
ATOM     26  C   UNL A   1      33.848  31.473  27.344  1.00  0.00     0.338 C 
ATOM     27  O   UNL A   1      33.203  32.467  27.631  1.00  0.00    -0.246 OA
BRANCH  26  28
ATOM     28  C   UNL A   1      35.053  31.066  28.083  1.00  0.00     0.060 A 
ATOM     29  C   UNL A   1      36.127  31.955  28.104  1.00  0.00     0.016 A 
ATOM     30  C   UNL A   1      35.171  29.807  28.669  1.00  0.00     0.016 A 
ATOM     31  C   UNL A   1      37.335  31.595  28.684  1.00  0.00     0.010 A 
ATOM     32  C   UNL A   1      36.377  29.456  29.289  1.00  0.00     0.010 A 
ATOM     33  C   UNL A   1      37.467  30.347  29.297  1.00  0.00    -0.014 A 
BRANCH  33  34
ATOM     34  C   UNL A   1      38.752  29.987  29.942  1.00  0.00     0.031 A 
ATOM     35  C   UNL A   1      39.666  28.996  29.284  1.00  0.00     0.074 A 
ATOM     36  C   UNL A   1      39.105  30.581  31.098  1.00  0.00     0.049 A 
ATOM     37  N   UNL A   1      40.741  28.423  29.757  1.00  0.00    -0.248 NA
ATOM     38  C   UNL A   1      39.325  28.600  27.908  1.00  0.00     0.031 C 
ATOM     39  C   UNL A   1      38.336  31.626  31.780  1.00  0.00     0.029 A 
ATOM     40  N   UNL A   1      40.194  30.391  31.909  1.00  0.00    -0.354 N 
ATOM     41  C   UNL A   1      41.197  27.581  28.749  1.00  0.00     0.074 A 
ATOM     42  C   UNL A   1      40.270  27.710  27.642  1.00  0.00     0.031 C 
ATOM     43  C   UNL A   1      38.978  31.981  32.904  1.00  0.00     0.029 A 
ATOM     44  C   UNL A   1      40.153  31.135  33.066  1.00  0.00     0.049 A 
ATOM     45  H   UNL A   1      40.936  29.782  31.684  1.00  0.00     0.167 HD
ATOM     46  C   UNL A   1      42.288  26.776  28.755  1.00  0.00     0.034 A 
ATOM     47  C   UNL A   1      40.939  31.093  34.160  1.00  0.00     0.034 A 
ATOM     48  C   UNL A   1      43.194  26.666  29.872  1.00  0.00     0.049 A 
ATOM     49  C   UNL A   1      42.079  30.106  34.187  1.00  0.00     0.074 A 
ATOM     50  C   UNL A   1      44.309  25.857  30.006  1.00  0.00     0.029 A 
ATOM     51  N   UNL A   1      43.090  27.394  31.051  1.00  0.00    -0.354 N 
ATOM     52  N   UNL A   1      42.459  29.258  33.257  1.00  0.00    -0.248 NA
ATOM     53  C   UNL A   1      42.888  30.062  35.410  1.00  0.00     0.031 C 
ATOM     54  C   UNL A   1      44.846  26.056  31.283  1.00  0.00     0.029 A 
ATOM     55  C   UNL A   1      44.106  27.035  31.925  1.00  0.00     0.049 A 
ATOM     56  H   UNL A   1      42.395  28.065  31.241  1.00  0.00     0.167 HD
ATOM     57  C   UNL A   1      43.563  28.594  33.782  1.00  0.00     0.074 A 
ATOM     58  C   UNL A   1      43.802  29.156  35.096  1.00  0.00     0.031 C 
ATOM     59  C   UNL A   1      44.313  27.605  33.233  1.00  0.00     0.034 A 
BRANCH  46  60
ATOM     60  C   UNL A   1      42.519  25.912  27.543  1.00  0.00     0.023 A 
ATOM     61  C   UNL A   1      42.032  24.595  27.465  1.00  0.00     0.031 A 
ATOM     62  C   UNL A   1      43.253  26.410  26.451  1.00  0.00     0.131 A 
ATOM     63  C   UNL A   1      42.327  23.806  26.344  1.00  0.00     0.055 A 
ATOM     64  C   UNL A   1      43.487  25.642  25.309  1.00  0.00     0.041 A 
ATOM     65  F   UNL A   1      43.763  27.651  26.481  1.00  0.00    -0.206 F 
ATOM     66  C   UNL A   1      43.031  24.329  25.254  1.00  0.00     0.022 A 
BRANCH  63  67
ATOM     67  S   UNL A   1      41.869  22.052  26.367  1.00  0.00     0.124 S 
ATOM     68  O   UNL A   1      42.258  21.665  27.722  1.00  0.00    -0.237 OA
ATOM     69  O   UNL A   1      40.436  22.094  26.102  1.00  0.00    -0.237 OA
ATOM     70  O   UNL A   1      42.684  21.470  25.302  1.00  0.00    -0.744 OA
ENDBRANCH  63  67
ENDBRANCH  46  60
BRANCH  47  71
ATOM     71  C   UNL A   1      40.631  31.933  35.353  1.00  0.00     0.023 A 
ATOM     72  C   UNL A   1      39.528  31.652  36.174  1.00  0.00     0.031 A 
ATOM     73  C   UNL A   1      41.398  33.076  35.649  1.00  0.00     0.131 A 
ATOM     74  C   UNL A   1      39.189  32.533  37.215  1.00  0.00     0.055 A 
ATOM     75  C   UNL A   1      41.094  33.912  36.723  1.00  0.00     0.041 A 
ATOM     76  F   UNL A   1      42.460  33.397  34.893  1.00  0.00    -0.206 F 
ATOM     77  C   UNL A   1      39.973  33.652  37.504  1.00  0.00     0.022 A 
BRANCH  74  78
ATOM     78  S   UNL A   1      37.638  32.256  38.113  1.00  0.00     0.124 S 
ATOM     79  O   UNL A   1      38.015  32.614  39.476  1.00  0.00    -0.237 OA
ATOM     80  O   UNL A   1      36.730  33.175  37.435  1.00  0.00    -0.237 OA
ATOM     81  O   UNL A   1      37.367  30.837  37.893  1.00  0.00    -0.744 OA
ENDBRANCH  74  78
ENDBRANCH  47  71
BRANCH  59  82
ATOM     82  C   UNL A   1      45.478  27.111  34.051  1.00  0.00     0.023 A 
ATOM     83  C   UNL A   1      45.357  26.000  34.903  1.00  0.00     0.031 A 
ATOM     84  C   UNL A   1      46.714  27.778  33.997  1.00  0.00     0.131 A 
ATOM     85  C   UNL A   1      46.438  25.622  35.712  1.00  0.00     0.055 A 
ATOM     86  C   UNL A   1      47.802  27.364  34.764  1.00  0.00     0.041 A 
ATOM     87  F   UNL A   1      46.879  28.845  33.200  1.00  0.00    -0.206 F 
ATOM     88  C   UNL A   1      47.665  26.288  35.638  1.00  0.00     0.022 A 
BRANCH  85  89
ATOM     89  S   UNL A   1      46.195  24.297  36.927  1.00  0.00     0.124 S 
ATOM     90  O   UNL A   1      47.412  24.392  37.726  1.00  0.00    -0.237 OA
ATOM     91  O   UNL A   1      44.962  24.704  37.592  1.00  0.00    -0.237 OA
ATOM     92  O   UNL A   1      46.085  23.093  36.104  1.00  0.00    -0.744 OA
ENDBRANCH  85  89
ENDBRANCH  59  82
ENDBRANCH  33  34
ENDBRANCH  26  28
ENDBRANCH  25  26
ENDBRANCH  24  25
ENDBRANCH   1  24
TORSDOF 18
ENDMDL
