MODEL 1
REMARK VINA RESULT:     -12.1      0.000      0.000
REMARK SMILES COc1cccc([C@@H]2CC(c3cccc(C)c3)=NN2C(=O)CCC(=O)OCCOC(=O)c2ccc(-c3c4nc(c(-c5cc(S(=O)(=O)[O-])ccc5F)c5ccc([nH]5)c(-c5cc(S(=O)(=O)[O-])ccc5F)c5nc(c(-c6cc(S(=O)(=O)[O-])ccc6F)c6ccc3[nH]6)C=C5)C=C4)cc2)c1
REMARK SMILES IDX 27 1 26 2 24 3 25 4 23 5 22 6 20 7 21 8 19 9 8 10 9 11 10 12
REMARK SMILES IDX 18 13 7 14 3 15 4 16 95 17 5 18 6 19 2 20 1 21 11 22 12 23
REMARK SMILES IDX 17 24 13 25 15 26 14 27 16 28 28 29 29 30 30 31 31 32 32 33
REMARK SMILES IDX 33 34 94 35 34 36 93 37 35 38 36 39 37 40 87 41 38 42 92 43
REMARK SMILES IDX 86 44 88 45 39 46 91 47 85 48 84 49 40 51 72 52 52 53 71 54
REMARK SMILES IDX 53 55 56 56 70 57 89 58 54 59 55 60 69 62 90 63 57 64 41 65
REMARK SMILES IDX 42 66 50 67 43 68 49 69 51 70 48 71 44 72 45 73 46 74 47 75
REMARK SMILES IDX 73 76 74 77 82 78 75 79 81 80 83 81 80 82 76 83 77 84 78 85
REMARK SMILES IDX 79 86 58 87 59 88 67 89 60 90 66 91 68 92 65 93 61 94 62 95
REMARK SMILES IDX 63 96 64 97
REMARK H PARENT 88 50 56 61
REMARK Flexibility Score: inf
ROOT
ATOM      1  C   UNL A   1      31.272  29.529  24.630  1.00  0.00     0.274 C 
ENDROOT
BRANCH   1   2
ATOM      2  O   UNL A   1      30.151  28.620  24.677  1.00  0.00    -0.462 OA
BRANCH   2   3
ATOM      3  C   UNL A   1      30.447  27.317  24.424  1.00  0.00     0.306 C 
ATOM      4  O   UNL A   1      30.503  26.830  23.301  1.00  0.00    -0.252 OA
BRANCH   3   5
ATOM      5  C   UNL A   1      30.635  26.489  25.673  1.00  0.00     0.132 C 
BRANCH   5   6
ATOM      6  C   UNL A   1      30.305  24.998  25.567  1.00  0.00     0.114 C 
BRANCH   6   7
ATOM      7  C   UNL A   1      31.359  24.172  26.271  1.00  0.00     0.243 C 
ATOM      8  O   UNL A   1      31.182  23.898  27.465  1.00  0.00    -0.273 OA
BRANCH   7   9
ATOM      9  N   UNL A   1      32.510  23.823  25.579  1.00  0.00    -0.225 N 
ATOM     10  C   UNL A   1      33.782  24.557  25.419  1.00  0.00     0.147 C 
ATOM     11  C   UNL A   1      34.804  23.477  25.081  1.00  0.00     0.091 C 
ATOM     12  C   UNL A   1      33.915  22.277  25.094  1.00  0.00     0.071 C 
ATOM     13  N   UNL A   1      32.655  22.484  25.286  1.00  0.00    -0.174 NA
BRANCH  10  14
ATOM     14  C   UNL A   1      33.810  25.682  24.394  1.00  0.00    -0.019 A 
ATOM     15  C   UNL A   1      33.573  26.366  22.044  1.00  0.00     0.119 A 
ATOM     16  C   UNL A   1      33.890  27.670  22.418  1.00  0.00     0.046 A 
ATOM     17  C   UNL A   1      33.500  25.392  23.039  1.00  0.00     0.052 A 
ATOM     18  C   UNL A   1      34.136  27.994  23.754  1.00  0.00     0.004 A 
ATOM     19  C   UNL A   1      34.102  27.005  24.738  1.00  0.00     0.006 A 
BRANCH  15  20
ATOM     20  O   UNL A   1      33.365  26.208  20.706  1.00  0.00    -0.497 OA
ATOM     21  C   UNL A   1      32.570  25.146  20.201  1.00  0.00     0.278 C 
ENDBRANCH  15  20
ENDBRANCH  10  14
BRANCH  12  22
ATOM     22  C   UNL A   1      34.469  20.932  24.972  1.00  0.00    -0.002 A 
ATOM     23  C   UNL A   1      35.845  20.744  25.050  1.00  0.00     0.010 A 
ATOM     24  C   UNL A   1      33.607  19.876  24.658  1.00  0.00     0.013 A 
ATOM     25  C   UNL A   1      36.366  19.469  24.844  1.00  0.00     0.001 A 
ATOM     26  C   UNL A   1      34.129  18.602  24.421  1.00  0.00    -0.050 A 
ATOM     27  C   UNL A   1      35.513  18.405  24.532  1.00  0.00     0.003 A 
ATOM     28  C   UNL A   1      33.233  17.467  24.023  1.00  0.00     0.044 C 
ENDBRANCH  12  22
ENDBRANCH   7   9
ENDBRANCH   6   7
ENDBRANCH   5   6
ENDBRANCH   3   5
ENDBRANCH   2   3
ENDBRANCH   1   2
BRANCH   1  29
ATOM     29  C   UNL A   1      31.855  29.836  26.015  1.00  0.00     0.275 C 
BRANCH  29  30
ATOM     30  O   UNL A   1      33.147  30.466  25.948  1.00  0.00    -0.458 OA
BRANCH  30  31
ATOM     31  C   UNL A   1      33.483  31.084  27.097  1.00  0.00     0.338 C 
ATOM     32  O   UNL A   1      32.819  31.949  27.656  1.00  0.00    -0.246 OA
BRANCH  31  33
ATOM     33  C   UNL A   1      34.810  30.787  27.595  1.00  0.00     0.060 A 
ATOM     34  C   UNL A   1      35.752  31.766  27.879  1.00  0.00     0.016 A 
ATOM     35  C   UNL A   1      35.119  29.429  27.678  1.00  0.00     0.016 A 
ATOM     36  C   UNL A   1      37.010  31.360  28.328  1.00  0.00     0.010 A 
ATOM     37  C   UNL A   1      36.329  29.025  28.199  1.00  0.00     0.010 A 
ATOM     38  C   UNL A   1      37.268  29.992  28.570  1.00  0.00    -0.014 A 
BRANCH  38  39
ATOM     39  C   UNL A   1      38.383  29.563  29.443  1.00  0.00     0.031 A 
ATOM     40  C   UNL A   1      38.557  30.105  30.833  1.00  0.00     0.074 A 
ATOM     41  C   UNL A   1      39.355  28.841  28.851  1.00  0.00     0.049 A 
ATOM     42  N   UNL A   1      39.547  29.921  31.666  1.00  0.00    -0.248 NA
ATOM     43  C   UNL A   1      37.525  31.030  31.321  1.00  0.00     0.031 C 
ATOM     44  C   UNL A   1      39.359  28.438  27.437  1.00  0.00     0.029 A 
ATOM     45  N   UNL A   1      40.524  28.329  29.336  1.00  0.00    -0.354 N 
ATOM     46  C   UNL A   1      39.290  30.748  32.755  1.00  0.00     0.074 A 
ATOM     47  C   UNL A   1      38.065  31.461  32.453  1.00  0.00     0.031 C 
ATOM     48  C   UNL A   1      40.432  27.677  27.194  1.00  0.00     0.029 A 
ATOM     49  C   UNL A   1      41.219  27.585  28.413  1.00  0.00     0.049 A 
ATOM     50  H   UNL A   1      40.837  28.477  30.258  1.00  0.00     0.167 HD
ATOM     51  C   UNL A   1      40.015  30.885  33.894  1.00  0.00     0.034 A 
ATOM     52  C   UNL A   1      42.363  26.891  28.538  1.00  0.00     0.034 A 
ATOM     53  C   UNL A   1      41.208  30.112  34.162  1.00  0.00     0.049 A 
ATOM     54  C   UNL A   1      43.035  26.895  29.876  1.00  0.00     0.074 A 
ATOM     55  C   UNL A   1      41.965  30.056  35.319  1.00  0.00     0.029 A 
ATOM     56  N   UNL A   1      41.816  29.252  33.252  1.00  0.00    -0.354 N 
ATOM     57  N   UNL A   1      42.724  27.594  30.944  1.00  0.00    -0.248 NA
ATOM     58  C   UNL A   1      44.187  26.009  30.037  1.00  0.00     0.031 C 
ATOM     59  C   UNL A   1      43.049  29.197  35.096  1.00  0.00     0.029 A 
ATOM     60  C   UNL A   1      42.939  28.668  33.819  1.00  0.00     0.049 A 
ATOM     61  H   UNL A   1      41.495  29.083  32.337  1.00  0.00     0.167 HD
ATOM     62  C   UNL A   1      43.646  27.227  31.913  1.00  0.00     0.074 A 
ATOM     63  C   UNL A   1      44.499  26.219  31.308  1.00  0.00     0.031 C 
ATOM     64  C   UNL A   1      43.783  27.684  33.183  1.00  0.00     0.034 A 
BRANCH  51  65
ATOM     65  C   UNL A   1      39.549  31.901  34.915  1.00  0.00     0.023 A 
ATOM     66  C   UNL A   1      38.933  31.518  36.120  1.00  0.00     0.031 A 
ATOM     67  C   UNL A   1      39.705  33.279  34.676  1.00  0.00     0.131 A 
ATOM     68  C   UNL A   1      38.419  32.491  36.992  1.00  0.00     0.055 A 
ATOM     69  C   UNL A   1      39.270  34.245  35.591  1.00  0.00     0.041 A 
ATOM     70  F   UNL A   1      40.271  33.718  33.541  1.00  0.00    -0.206 F 
ATOM     71  C   UNL A   1      38.606  33.852  36.749  1.00  0.00     0.022 A 
BRANCH  68  72
ATOM     72  S   UNL A   1      37.378  31.949  38.375  1.00  0.00     0.124 S 
ATOM     73  O   UNL A   1      38.248  32.212  39.519  1.00  0.00    -0.237 OA
ATOM     74  O   UNL A   1      36.210  32.814  38.249  1.00  0.00    -0.237 OA
ATOM     75  O   UNL A   1      37.140  30.535  38.093  1.00  0.00    -0.744 OA
ENDBRANCH  68  72
ENDBRANCH  51  65
BRANCH  52  76
ATOM     76  C   UNL A   1      42.873  26.095  27.391  1.00  0.00     0.023 A 
ATOM     77  C   UNL A   1      42.480  24.759  27.223  1.00  0.00     0.031 A 
ATOM     78  C   UNL A   1      43.705  26.670  26.415  1.00  0.00     0.131 A 
ATOM     79  C   UNL A   1      42.942  24.028  26.119  1.00  0.00     0.055 A 
ATOM     80  C   UNL A   1      44.129  25.951  25.295  1.00  0.00     0.041 A 
ATOM     81  F   UNL A   1      44.080  27.955  26.513  1.00  0.00    -0.206 F 
ATOM     82  C   UNL A   1      43.754  24.619  25.148  1.00  0.00     0.022 A 
BRANCH  79  83
ATOM     83  S   UNL A   1      42.502  22.274  25.999  1.00  0.00     0.124 S 
ATOM     84  O   UNL A   1      43.004  21.752  27.266  1.00  0.00    -0.237 OA
ATOM     85  O   UNL A   1      41.052  22.336  25.860  1.00  0.00    -0.237 OA
ATOM     86  O   UNL A   1      43.223  21.825  24.810  1.00  0.00    -0.744 OA
ENDBRANCH  79  83
ENDBRANCH  52  76
BRANCH  64  87
ATOM     87  C   UNL A   1      44.895  27.071  33.988  1.00  0.00     0.023 A 
ATOM     88  C   UNL A   1      44.697  25.888  34.719  1.00  0.00     0.031 A 
ATOM     89  C   UNL A   1      46.149  27.700  34.056  1.00  0.00     0.131 A 
ATOM     90  C   UNL A   1      45.720  25.403  35.544  1.00  0.00     0.055 A 
ATOM     91  C   UNL A   1      47.182  27.181  34.835  1.00  0.00     0.041 A 
ATOM     92  F   UNL A   1      46.384  28.834  33.377  1.00  0.00    -0.206 F 
ATOM     93  C   UNL A   1      46.966  26.034  35.597  1.00  0.00     0.022 A 
BRANCH  90  94
ATOM     94  S   UNL A   1      45.366  23.990  36.623  1.00  0.00     0.124 S 
ATOM     95  O   UNL A   1      44.849  24.647  37.820  1.00  0.00    -0.237 OA
ATOM     96  O   UNL A   1      44.393  23.235  35.840  1.00  0.00    -0.237 OA
ATOM     97  O   UNL A   1      46.668  23.345  36.782  1.00  0.00    -0.744 OA
ENDBRANCH  90  94
ENDBRANCH  64  87
ENDBRANCH  38  39
ENDBRANCH  31  33
ENDBRANCH  30  31
ENDBRANCH  29  30
ENDBRANCH   1  29
TORSDOF 20
ENDMDL
MODEL 2
REMARK VINA RESULT:     -11.9      4.842      7.509
REMARK SMILES COc1cccc([C@@H]2CC(c3cccc(C)c3)=NN2C(=O)CCC(=O)OCCOC(=O)c2ccc(-c3c4nc(c(-c5cc(S(=O)(=O)[O-])ccc5F)c5ccc([nH]5)c(-c5cc(S(=O)(=O)[O-])ccc5F)c5nc(c(-c6cc(S(=O)(=O)[O-])ccc6F)c6ccc3[nH]6)C=C5)C=C4)cc2)c1
REMARK SMILES IDX 27 1 26 2 24 3 25 4 23 5 22 6 20 7 21 8 19 9 8 10 9 11 10 12
REMARK SMILES IDX 18 13 7 14 3 15 4 16 95 17 5 18 6 19 2 20 1 21 11 22 12 23
REMARK SMILES IDX 17 24 13 25 15 26 14 27 16 28 28 29 29 30 30 31 31 32 32 33
REMARK SMILES IDX 33 34 94 35 34 36 93 37 35 38 36 39 37 40 87 41 38 42 92 43
REMARK SMILES IDX 86 44 88 45 39 46 91 47 85 48 84 49 40 51 72 52 52 53 71 54
REMARK SMILES IDX 53 55 56 56 70 57 89 58 54 59 55 60 69 62 90 63 57 64 41 65
REMARK SMILES IDX 42 66 50 67 43 68 49 69 51 70 48 71 44 72 45 73 46 74 47 75
REMARK SMILES IDX 73 76 74 77 82 78 75 79 81 80 83 81 80 82 76 83 77 84 78 85
REMARK SMILES IDX 79 86 58 87 59 88 67 89 60 90 66 91 68 92 65 93 61 94 62 95
REMARK SMILES IDX 63 96 64 97
REMARK H PARENT 88 50 56 61
REMARK Flexibility Score: inf
ROOT
ATOM      1  C   UNL A   1      37.704  20.135  24.655  1.00  0.00     0.274 C 
ENDROOT
BRANCH   1   2
ATOM      2  O   UNL A   1      37.321  21.293  25.428  1.00  0.00    -0.462 OA
BRANCH   2   3
ATOM      3  C   UNL A   1      37.024  22.405  24.703  1.00  0.00     0.306 C 
ATOM      4  O   UNL A   1      36.814  22.402  23.496  1.00  0.00    -0.252 OA
BRANCH   3   5
ATOM      5  C   UNL A   1      37.047  23.677  25.516  1.00  0.00     0.132 C 
BRANCH   5   6
ATOM      6  C   UNL A   1      35.708  24.393  25.710  1.00  0.00     0.114 C 
BRANCH   6   7
ATOM      7  C   UNL A   1      34.675  23.440  26.272  1.00  0.00     0.243 C 
ATOM      8  O   UNL A   1      34.730  23.167  27.479  1.00  0.00    -0.273 OA
BRANCH   7   9
ATOM      9  N   UNL A   1      33.762  22.854  25.407  1.00  0.00    -0.225 N 
ATOM     10  C   UNL A   1      33.083  23.414  24.220  1.00  0.00     0.147 C 
ATOM     11  C   UNL A   1      32.690  22.194  23.396  1.00  0.00     0.091 C 
ATOM     12  C   UNL A   1      33.215  21.112  24.282  1.00  0.00     0.071 C 
ATOM     13  N   UNL A   1      33.724  21.477  25.412  1.00  0.00    -0.174 NA
BRANCH  10  14
ATOM     14  C   UNL A   1      31.885  24.320  24.469  1.00  0.00    -0.019 A 
ATOM     15  C   UNL A   1      30.498  26.200  23.699  1.00  0.00     0.119 A 
ATOM     16  C   UNL A   1      29.735  26.078  24.858  1.00  0.00     0.046 A 
ATOM     17  C   UNL A   1      31.542  25.297  23.497  1.00  0.00     0.052 A 
ATOM     18  C   UNL A   1      30.012  25.084  25.799  1.00  0.00     0.004 A 
ATOM     19  C   UNL A   1      31.085  24.212  25.609  1.00  0.00     0.006 A 
BRANCH  15  20
ATOM     20  O   UNL A   1      30.107  27.218  22.882  1.00  0.00    -0.497 OA
ATOM     21  C   UNL A   1      28.920  27.955  23.133  1.00  0.00     0.278 C 
ENDBRANCH  15  20
ENDBRANCH  10  14
BRANCH  12  22
ATOM     22  C   UNL A   1      33.217  19.719  23.846  1.00  0.00    -0.002 A 
ATOM     23  C   UNL A   1      32.322  19.303  22.865  1.00  0.00     0.010 A 
ATOM     24  C   UNL A   1      34.039  18.807  24.515  1.00  0.00     0.013 A 
ATOM     25  C   UNL A   1      32.275  17.955  22.522  1.00  0.00     0.001 A 
ATOM     26  C   UNL A   1      33.972  17.449  24.194  1.00  0.00    -0.050 A 
ATOM     27  C   UNL A   1      33.095  17.034  23.181  1.00  0.00     0.003 A 
ATOM     28  C   UNL A   1      34.799  16.442  24.937  1.00  0.00     0.044 C 
ENDBRANCH  12  22
ENDBRANCH   7   9
ENDBRANCH   6   7
ENDBRANCH   5   6
ENDBRANCH   3   5
ENDBRANCH   2   3
ENDBRANCH   1   2
BRANCH   1  29
ATOM     29  C   UNL A   1      38.922  19.403  25.234  1.00  0.00     0.275 C 
BRANCH  29  30
ATOM     30  O   UNL A   1      39.378  19.975  26.474  1.00  0.00    -0.458 OA
BRANCH  30  31
ATOM     31  C   UNL A   1      40.664  20.372  26.419  1.00  0.00     0.338 C 
ATOM     32  O   UNL A   1      41.601  19.686  26.027  1.00  0.00    -0.246 OA
BRANCH  31  33
ATOM     33  C   UNL A   1      40.942  21.657  27.025  1.00  0.00     0.060 A 
ATOM     34  C   UNL A   1      41.708  21.808  28.173  1.00  0.00     0.016 A 
ATOM     35  C   UNL A   1      40.297  22.742  26.429  1.00  0.00     0.016 A 
ATOM     36  C   UNL A   1      41.885  23.094  28.683  1.00  0.00     0.010 A 
ATOM     37  C   UNL A   1      40.537  24.022  26.879  1.00  0.00     0.010 A 
ATOM     38  C   UNL A   1      41.371  24.210  27.986  1.00  0.00    -0.014 A 
BRANCH  38  39
ATOM     39  C   UNL A   1      41.896  25.573  28.223  1.00  0.00     0.031 A 
ATOM     40  C   UNL A   1      41.061  26.644  28.864  1.00  0.00     0.074 A 
ATOM     41  C   UNL A   1      43.071  25.867  27.633  1.00  0.00     0.049 A 
ATOM     42  N   UNL A   1      41.336  27.913  29.023  1.00  0.00    -0.248 NA
ATOM     43  C   UNL A   1      39.717  26.260  29.317  1.00  0.00     0.031 C 
ATOM     44  C   UNL A   1      43.858  24.931  26.817  1.00  0.00     0.029 A 
ATOM     45  N   UNL A   1      43.807  27.016  27.606  1.00  0.00    -0.354 N 
ATOM     46  C   UNL A   1      40.183  28.492  29.542  1.00  0.00     0.074 A 
ATOM     47  C   UNL A   1      39.195  27.437  29.634  1.00  0.00     0.031 C 
ATOM     48  C   UNL A   1      44.999  25.519  26.440  1.00  0.00     0.029 A 
ATOM     49  C   UNL A   1      45.001  26.886  26.936  1.00  0.00     0.049 A 
ATOM     50  H   UNL A   1      43.513  27.857  28.026  1.00  0.00     0.167 HD
ATOM     51  C   UNL A   1      39.985  29.785  29.906  1.00  0.00     0.034 A 
ATOM     52  C   UNL A   1      45.996  27.768  26.752  1.00  0.00     0.034 A 
ATOM     53  C   UNL A   1      41.024  30.789  29.834  1.00  0.00     0.049 A 
ATOM     54  C   UNL A   1      45.834  29.132  27.347  1.00  0.00     0.074 A 
ATOM     55  C   UNL A   1      41.002  32.097  30.286  1.00  0.00     0.029 A 
ATOM     56  N   UNL A   1      42.283  30.586  29.275  1.00  0.00    -0.354 N 
ATOM     57  N   UNL A   1      44.779  29.645  27.939  1.00  0.00    -0.248 NA
ATOM     58  C   UNL A   1      46.990  30.025  27.274  1.00  0.00     0.031 C 
ATOM     59  C   UNL A   1      42.226  32.696  29.963  1.00  0.00     0.029 A 
ATOM     60  C   UNL A   1      43.039  31.746  29.363  1.00  0.00     0.049 A 
ATOM     61  H   UNL A   1      42.591  29.743  28.873  1.00  0.00     0.167 HD
ATOM     62  C   UNL A   1      45.148  30.928  28.317  1.00  0.00     0.074 A 
ATOM     63  C   UNL A   1      46.534  31.092  27.915  1.00  0.00     0.031 C 
ATOM     64  C   UNL A   1      44.410  31.886  28.932  1.00  0.00     0.034 A 
BRANCH  51  65
ATOM     65  C   UNL A   1      38.609  30.182  30.398  1.00  0.00     0.023 A 
ATOM     66  C   UNL A   1      37.632  30.708  29.534  1.00  0.00     0.031 A 
ATOM     67  C   UNL A   1      38.269  30.051  31.758  1.00  0.00     0.131 A 
ATOM     68  C   UNL A   1      36.406  31.163  30.046  1.00  0.00     0.055 A 
ATOM     69  C   UNL A   1      37.013  30.424  32.248  1.00  0.00     0.041 A 
ATOM     70  F   UNL A   1      39.157  29.571  32.642  1.00  0.00    -0.206 F 
ATOM     71  C   UNL A   1      36.079  31.001  31.392  1.00  0.00     0.022 A 
BRANCH  68  72
ATOM     72  S   UNL A   1      35.306  32.100  28.949  1.00  0.00     0.124 S 
ATOM     73  O   UNL A   1      34.909  31.075  27.986  1.00  0.00    -0.237 OA
ATOM     74  O   UNL A   1      34.264  32.555  29.862  1.00  0.00    -0.237 OA
ATOM     75  O   UNL A   1      36.168  33.150  28.412  1.00  0.00    -0.744 OA
ENDBRANCH  68  72
ENDBRANCH  51  65
BRANCH  52  76
ATOM     76  C   UNL A   1      47.234  27.349  26.044  1.00  0.00     0.023 A 
ATOM     77  C   UNL A   1      48.242  26.654  26.729  1.00  0.00     0.031 A 
ATOM     78  C   UNL A   1      47.402  27.577  24.667  1.00  0.00     0.131 A 
ATOM     79  C   UNL A   1      49.391  26.235  26.043  1.00  0.00     0.055 A 
ATOM     80  C   UNL A   1      48.529  27.119  23.979  1.00  0.00     0.041 A 
ATOM     81  F   UNL A   1      46.450  28.205  23.962  1.00  0.00    -0.206 F 
ATOM     82  C   UNL A   1      49.536  26.452  24.671  1.00  0.00     0.022 A 
BRANCH  79  83
ATOM     83  S   UNL A   1      50.719  25.441  26.987  1.00  0.00     0.124 S 
ATOM     84  O   UNL A   1      50.014  24.332  27.622  1.00  0.00    -0.237 OA
ATOM     85  O   UNL A   1      51.664  25.082  25.935  1.00  0.00    -0.237 OA
ATOM     86  O   UNL A   1      51.168  26.495  27.894  1.00  0.00    -0.744 OA
ENDBRANCH  79  83
ENDBRANCH  52  76
BRANCH  64  87
ATOM     87  C   UNL A   1      45.116  33.185  29.209  1.00  0.00     0.023 A 
ATOM     88  C   UNL A   1      45.110  34.231  28.271  1.00  0.00     0.031 A 
ATOM     89  C   UNL A   1      45.835  33.359  30.403  1.00  0.00     0.131 A 
ATOM     90  C   UNL A   1      45.867  35.384  28.513  1.00  0.00     0.055 A 
ATOM     91  C   UNL A   1      46.540  34.532  30.663  1.00  0.00     0.041 A 
ATOM     92  F   UNL A   1      45.872  32.386  31.327  1.00  0.00    -0.206 F 
ATOM     93  C   UNL A   1      46.571  35.548  29.709  1.00  0.00     0.022 A 
BRANCH  90  94
ATOM     94  S   UNL A   1      45.997  36.626  27.199  1.00  0.00     0.124 S 
ATOM     95  O   UNL A   1      46.440  35.821  26.065  1.00  0.00    -0.237 OA
ATOM     96  O   UNL A   1      44.634  37.142  27.122  1.00  0.00    -0.237 OA
ATOM     97  O   UNL A   1      46.988  37.569  27.715  1.00  0.00    -0.744 OA
ENDBRANCH  90  94
ENDBRANCH  64  87
ENDBRANCH  38  39
ENDBRANCH  31  33
ENDBRANCH  30  31
ENDBRANCH  29  30
ENDBRANCH   1  29
TORSDOF 20
ENDMDL
MODEL 3
REMARK VINA RESULT:     -11.9      4.908     10.142
REMARK SMILES COc1cccc([C@@H]2CC(c3cccc(C)c3)=NN2C(=O)CCC(=O)OCCOC(=O)c2ccc(-c3c4nc(c(-c5cc(S(=O)(=O)[O-])ccc5F)c5ccc([nH]5)c(-c5cc(S(=O)(=O)[O-])ccc5F)c5nc(c(-c6cc(S(=O)(=O)[O-])ccc6F)c6ccc3[nH]6)C=C5)C=C4)cc2)c1
REMARK SMILES IDX 27 1 26 2 24 3 25 4 23 5 22 6 20 7 21 8 19 9 8 10 9 11 10 12
REMARK SMILES IDX 18 13 7 14 3 15 4 16 95 17 5 18 6 19 2 20 1 21 11 22 12 23
REMARK SMILES IDX 17 24 13 25 15 26 14 27 16 28 28 29 29 30 30 31 31 32 32 33
REMARK SMILES IDX 33 34 94 35 34 36 93 37 35 38 36 39 37 40 87 41 38 42 92 43
REMARK SMILES IDX 86 44 88 45 39 46 91 47 85 48 84 49 40 51 72 52 52 53 71 54
REMARK SMILES IDX 53 55 56 56 70 57 89 58 54 59 55 60 69 62 90 63 57 64 41 65
REMARK SMILES IDX 42 66 50 67 43 68 49 69 51 70 48 71 44 72 45 73 46 74 47 75
REMARK SMILES IDX 73 76 74 77 82 78 75 79 81 80 83 81 80 82 76 83 77 84 78 85
REMARK SMILES IDX 79 86 58 87 59 88 67 89 60 90 66 91 68 92 65 93 61 94 62 95
REMARK SMILES IDX 63 96 64 97
REMARK H PARENT 88 50 56 61
REMARK Flexibility Score: inf
ROOT
ATOM      1  C   UNL A   1      35.770  20.374  25.020  1.00  0.00     0.274 C 
ENDROOT
BRANCH   1   2
ATOM      2  O   UNL A   1      35.021  21.420  25.676  1.00  0.00    -0.462 OA
BRANCH   2   3
ATOM      3  C   UNL A   1      33.764  21.624  25.198  1.00  0.00     0.306 C 
ATOM      4  O   UNL A   1      33.274  20.997  24.266  1.00  0.00    -0.252 OA
BRANCH   3   5
ATOM      5  C   UNL A   1      33.039  22.759  25.878  1.00  0.00     0.132 C 
BRANCH   5   6
ATOM      6  C   UNL A   1      32.725  23.987  25.020  1.00  0.00     0.114 C 
BRANCH   6   7
ATOM      7  C   UNL A   1      33.672  25.120  25.352  1.00  0.00     0.243 C 
ATOM      8  O   UNL A   1      34.885  24.875  25.383  1.00  0.00    -0.273 OA
BRANCH   7   9
ATOM      9  N   UNL A   1      33.144  26.361  25.681  1.00  0.00    -0.225 N 
ATOM     10  C   UNL A   1      31.826  26.713  26.249  1.00  0.00     0.147 C 
ATOM     11  C   UNL A   1      32.045  28.073  26.900  1.00  0.00     0.091 C 
ATOM     12  C   UNL A   1      33.488  28.280  26.575  1.00  0.00     0.071 C 
ATOM     13  N   UNL A   1      34.057  27.381  25.842  1.00  0.00    -0.174 NA
BRANCH  10  14
ATOM     14  C   UNL A   1      30.644  26.744  25.290  1.00  0.00    -0.019 A 
ATOM     15  C   UNL A   1      29.586  27.764  23.318  1.00  0.00     0.119 A 
ATOM     16  C   UNL A   1      28.491  26.922  23.503  1.00  0.00     0.046 A 
ATOM     17  C   UNL A   1      30.667  27.642  24.190  1.00  0.00     0.052 A 
ATOM     18  C   UNL A   1      28.472  25.986  24.538  1.00  0.00     0.004 A 
ATOM     19  C   UNL A   1      29.540  25.899  25.432  1.00  0.00     0.006 A 
BRANCH  15  20
ATOM     20  O   UNL A   1      29.454  28.624  22.269  1.00  0.00    -0.497 OA
ATOM     21  C   UNL A   1      29.813  29.992  22.384  1.00  0.00     0.278 C 
ENDBRANCH  15  20
ENDBRANCH  10  14
BRANCH  12  22
ATOM     22  C   UNL A   1      34.229  29.408  27.131  1.00  0.00    -0.002 A 
ATOM     23  C   UNL A   1      33.574  30.613  27.366  1.00  0.00     0.010 A 
ATOM     24  C   UNL A   1      35.612  29.286  27.299  1.00  0.00     0.013 A 
ATOM     25  C   UNL A   1      34.312  31.706  27.813  1.00  0.00     0.001 A 
ATOM     26  C   UNL A   1      36.359  30.389  27.718  1.00  0.00    -0.050 A 
ATOM     27  C   UNL A   1      35.695  31.595  27.989  1.00  0.00     0.003 A 
ATOM     28  C   UNL A   1      37.850  30.303  27.848  1.00  0.00     0.044 C 
ENDBRANCH  12  22
ENDBRANCH   7   9
ENDBRANCH   6   7
ENDBRANCH   5   6
ENDBRANCH   3   5
ENDBRANCH   2   3
ENDBRANCH   1   2
BRANCH   1  29
ATOM     29  C   UNL A   1      37.263  20.701  24.883  1.00  0.00     0.275 C 
BRANCH  29  30
ATOM     30  O   UNL A   1      37.681  21.769  25.752  1.00  0.00    -0.458 OA
BRANCH  30  31
ATOM     31  C   UNL A   1      38.972  21.660  26.123  1.00  0.00     0.338 C 
ATOM     32  O   UNL A   1      39.627  20.625  26.113  1.00  0.00    -0.246 OA
BRANCH  31  33
ATOM     33  C   UNL A   1      39.547  22.848  26.719  1.00  0.00     0.060 A 
ATOM     34  C   UNL A   1      40.548  22.808  27.681  1.00  0.00     0.016 A 
ATOM     35  C   UNL A   1      38.952  24.049  26.334  1.00  0.00     0.016 A 
ATOM     36  C   UNL A   1      41.006  24.017  28.206  1.00  0.00     0.010 A 
ATOM     37  C   UNL A   1      39.457  25.248  26.787  1.00  0.00     0.010 A 
ATOM     38  C   UNL A   1      40.520  25.241  27.695  1.00  0.00    -0.014 A 
BRANCH  38  39
ATOM     39  C   UNL A   1      41.269  26.504  27.883  1.00  0.00     0.031 A 
ATOM     40  C   UNL A   1      42.636  26.710  27.299  1.00  0.00     0.074 A 
ATOM     41  C   UNL A   1      40.760  27.365  28.786  1.00  0.00     0.049 A 
ATOM     42  N   UNL A   1      43.464  27.706  27.481  1.00  0.00    -0.248 NA
ATOM     43  C   UNL A   1      43.176  25.626  26.466  1.00  0.00     0.031 C 
ATOM     44  C   UNL A   1      39.525  27.146  29.553  1.00  0.00     0.029 A 
ATOM     45  N   UNL A   1      41.205  28.577  29.230  1.00  0.00    -0.354 N 
ATOM     46  C   UNL A   1      44.642  27.348  26.833  1.00  0.00     0.074 A 
ATOM     47  C   UNL A   1      44.428  26.024  26.286  1.00  0.00     0.031 C 
ATOM     48  C   UNL A   1      39.273  28.221  30.307  1.00  0.00     0.029 A 
ATOM     49  C   UNL A   1      40.352  29.178  30.125  1.00  0.00     0.049 A 
ATOM     50  H   UNL A   1      42.054  28.981  28.937  1.00  0.00     0.167 HD
ATOM     51  C   UNL A   1      45.785  28.071  26.712  1.00  0.00     0.034 A 
ATOM     52  C   UNL A   1      40.424  30.378  30.724  1.00  0.00     0.034 A 
ATOM     53  C   UNL A   1      45.926  29.410  27.241  1.00  0.00     0.049 A 
ATOM     54  C   UNL A   1      41.605  31.242  30.407  1.00  0.00     0.074 A 
ATOM     55  C   UNL A   1      46.974  30.300  27.082  1.00  0.00     0.029 A 
ATOM     56  N   UNL A   1      44.978  30.053  28.031  1.00  0.00    -0.354 N 
ATOM     57  N   UNL A   1      42.670  30.943  29.700  1.00  0.00    -0.248 NA
ATOM     58  C   UNL A   1      41.587  32.604  30.942  1.00  0.00     0.031 C 
ATOM     59  C   UNL A   1      46.680  31.462  27.808  1.00  0.00     0.029 A 
ATOM     60  C   UNL A   1      45.421  31.323  28.373  1.00  0.00     0.049 A 
ATOM     61  H   UNL A   1      44.119  29.663  28.309  1.00  0.00     0.167 HD
ATOM     62  C   UNL A   1      43.454  32.088  29.700  1.00  0.00     0.074 A 
ATOM     63  C   UNL A   1      42.718  33.090  30.449  1.00  0.00     0.031 C 
ATOM     64  C   UNL A   1      44.673  32.291  29.141  1.00  0.00     0.034 A 
BRANCH  51  65
ATOM     65  C   UNL A   1      46.957  27.432  25.998  1.00  0.00     0.023 A 
ATOM     66  C   UNL A   1      47.963  26.736  26.693  1.00  0.00     0.031 A 
ATOM     67  C   UNL A   1      47.086  27.533  24.600  1.00  0.00     0.131 A 
ATOM     68  C   UNL A   1      49.088  26.249  26.008  1.00  0.00     0.055 A 
ATOM     69  C   UNL A   1      48.165  26.969  23.912  1.00  0.00     0.041 A 
ATOM     70  F   UNL A   1      46.171  28.195  23.875  1.00  0.00    -0.206 F 
ATOM     71  C   UNL A   1      49.184  26.338  24.619  1.00  0.00     0.022 A 
BRANCH  68  72
ATOM     72  S   UNL A   1      50.488  25.628  26.979  1.00  0.00     0.124 S 
ATOM     73  O   UNL A   1      49.903  24.454  27.623  1.00  0.00    -0.237 OA
ATOM     74  O   UNL A   1      51.490  25.360  25.953  1.00  0.00    -0.237 OA
ATOM     75  O   UNL A   1      50.800  26.735  27.881  1.00  0.00    -0.744 OA
ENDBRANCH  68  72
ENDBRANCH  51  65
BRANCH  52  76
ATOM     76  C   UNL A   1      39.316  30.832  31.604  1.00  0.00     0.023 A 
ATOM     77  C   UNL A   1      38.362  31.745  31.131  1.00  0.00     0.031 A 
ATOM     78  C   UNL A   1      39.156  30.317  32.902  1.00  0.00     0.131 A 
ATOM     79  C   UNL A   1      37.303  32.141  31.959  1.00  0.00     0.055 A 
ATOM     80  C   UNL A   1      38.075  30.682  33.709  1.00  0.00     0.041 A 
ATOM     81  F   UNL A   1      40.022  29.415  33.387  1.00  0.00    -0.206 F 
ATOM     82  C   UNL A   1      37.146  31.607  33.240  1.00  0.00     0.022 A 
BRANCH  79  83
ATOM     83  S   UNL A   1      36.157  33.406  31.351  1.00  0.00     0.124 S 
ATOM     84  O   UNL A   1      36.777  33.791  30.088  1.00  0.00    -0.237 OA
ATOM     85  O   UNL A   1      34.908  32.659  31.251  1.00  0.00    -0.237 OA
ATOM     86  O   UNL A   1      36.190  34.425  32.398  1.00  0.00    -0.744 OA
ENDBRANCH  79  83
ENDBRANCH  52  76
BRANCH  64  87
ATOM     87  C   UNL A   1      45.259  33.664  29.321  1.00  0.00     0.023 A 
ATOM     88  C   UNL A   1      45.083  34.664  28.349  1.00  0.00     0.031 A 
ATOM     89  C   UNL A   1      46.035  33.960  30.454  1.00  0.00     0.131 A 
ATOM     90  C   UNL A   1      45.733  35.896  28.496  1.00  0.00     0.055 A 
ATOM     91  C   UNL A   1      46.633  35.208  30.622  1.00  0.00     0.041 A 
ATOM     92  F   UNL A   1      46.234  33.036  31.407  1.00  0.00    -0.206 F 
ATOM     93  C   UNL A   1      46.495  36.180  29.632  1.00  0.00     0.022 A 
BRANCH  90  94
ATOM     94  S   UNL A   1      45.646  37.088  27.133  1.00  0.00     0.124 S 
ATOM     95  O   UNL A   1      44.224  37.417  27.109  1.00  0.00    -0.237 OA
ATOM     96  O   UNL A   1      46.538  38.150  27.591  1.00  0.00    -0.237 OA
ATOM     97  O   UNL A   1      46.127  36.328  25.981  1.00  0.00    -0.744 OA
ENDBRANCH  90  94
ENDBRANCH  64  87
ENDBRANCH  38  39
ENDBRANCH  31  33
ENDBRANCH  30  31
ENDBRANCH  29  30
ENDBRANCH   1  29
TORSDOF 20
ENDMDL
