MODEL 1
REMARK VINA RESULT:     -12.4      0.000      0.000
REMARK SMILES Cc1cc(S(=O)(=O)Nc2cccc(I)c2)ccc1OCC(=O)OCCOC(=O)c1ccc(-c2c3nc(c(-c4cc(S(=O)(=O)[O-])ccc4F)c4ccc([nH]4)c(-c4cc(S(=O)(=O)[O-])ccc4F)c4nc(c(-c5cc(S(=O)(=O)[O-])ccc5F)c5ccc2[nH]5)C=C4)C=C3)cc1
REMARK SMILES IDX 24 1 23 2 21 3 22 4 20 5 19 6 18 7 1 8 2 9 3 10 4 11 17 12
REMARK SMILES IDX 16 13 5 14 6 15 7 16 8 17 9 19 10 20 15 21 11 22 13 23 12 24
REMARK SMILES IDX 14 25 25 26 26 27 27 28 28 29 29 30 30 31 91 32 31 33 90 34
REMARK SMILES IDX 32 35 33 36 34 37 84 38 35 39 89 40 83 41 85 42 36 43 88 44
REMARK SMILES IDX 82 45 81 46 37 48 69 49 49 50 68 51 50 52 53 53 67 54 86 55
REMARK SMILES IDX 51 56 52 57 66 59 87 60 54 61 38 62 39 63 47 64 40 65 46 66
REMARK SMILES IDX 48 67 45 68 41 69 42 70 43 71 44 72 70 73 71 74 79 75 72 76
REMARK SMILES IDX 78 77 80 78 77 79 73 80 74 81 75 82 76 83 55 84 56 85 64 86
REMARK SMILES IDX 57 87 63 88 65 89 62 90 58 91 59 92 60 93 61 94
REMARK H PARENT 8 18 85 47 53 58
REMARK Flexibility Score: inf
ROOT
ATOM      1  C   UNL A   1      36.623  21.019  25.278  1.00  0.00     0.274 C 
ENDROOT
BRANCH   1   2
ATOM      2  O   UNL A   1      35.643  21.954  25.742  1.00  0.00    -0.460 OA
BRANCH   2   3
ATOM      3  C   UNL A   1      34.531  21.428  26.312  1.00  0.00     0.344 C 
ATOM      4  O   UNL A   1      34.215  21.590  27.486  1.00  0.00    -0.248 OA
BRANCH   3   5
ATOM      5  C   UNL A   1      33.729  20.531  25.347  1.00  0.00     0.351 C 
BRANCH   5   6
ATOM      6  O   UNL A   1      32.475  20.915  24.803  1.00  0.00    -0.482 OA
BRANCH   6   7
ATOM      7  C   UNL A   1      32.396  22.064  24.061  1.00  0.00     0.123 A 
ATOM      8  C   UNL A   1      30.972  23.059  25.948  1.00  0.00     0.048 C 
ATOM      9  C   UNL A   1      31.645  23.128  24.601  1.00  0.00    -0.008 A 
ATOM     10  C   UNL A   1      31.629  24.368  23.934  1.00  0.00     0.029 A 
ATOM     11  C   UNL A   1      32.356  24.543  22.757  1.00  0.00     0.088 A 
ATOM     12  C   UNL A   1      33.073  22.243  22.850  1.00  0.00     0.048 A 
ATOM     13  C   UNL A   1      33.116  23.493  22.243  1.00  0.00     0.026 A 
BRANCH  11  14
ATOM     14  S   UNL A   1      32.396  26.119  21.953  1.00  0.00     0.261 S 
ATOM     15  O   UNL A   1      33.765  26.457  21.624  1.00  0.00    -0.201 OA
ATOM     16  O   UNL A   1      31.364  26.134  20.934  1.00  0.00    -0.201 OA
BRANCH  14  17
ATOM     17  N   UNL A   1      31.915  27.306  23.098  1.00  0.00    -0.280 N 
ATOM     18  H   UNL A   1      32.557  27.651  23.760  1.00  0.00     0.180 HD
BRANCH  17  19
ATOM     19  C   UNL A   1      30.565  27.786  23.075  1.00  0.00     0.050 A 
ATOM     20  C   UNL A   1      29.567  26.999  23.655  1.00  0.00     0.027 A 
ATOM     21  C   UNL A   1      30.234  28.986  22.441  1.00  0.00     0.041 A 
ATOM     22  C   UNL A   1      28.231  27.392  23.580  1.00  0.00     0.003 A 
ATOM     23  C   UNL A   1      28.896  29.389  22.399  1.00  0.00     0.015 A 
ATOM     24  C   UNL A   1      27.894  28.591  22.955  1.00  0.00     0.015 A 
ATOM     25  I   UNL A   1      28.384  31.194  21.501  1.00  0.00    -0.044 I 
ENDBRANCH  17  19
ENDBRANCH  14  17
ENDBRANCH  11  14
ENDBRANCH   6   7
ENDBRANCH   5   6
ENDBRANCH   3   5
ENDBRANCH   2   3
ENDBRANCH   1   2
BRANCH   1  26
ATOM     26  C   UNL A   1      38.040  21.605  25.414  1.00  0.00     0.275 C 
BRANCH  26  27
ATOM     27  O   UNL A   1      38.265  22.936  25.948  1.00  0.00    -0.458 OA
BRANCH  27  28
ATOM     28  C   UNL A   1      39.464  23.291  26.479  1.00  0.00     0.338 C 
ATOM     29  O   UNL A   1      40.458  22.581  26.437  1.00  0.00    -0.246 OA
BRANCH  28  30
ATOM     30  C   UNL A   1      39.386  24.631  27.091  1.00  0.00     0.060 A 
ATOM     31  C   UNL A   1      38.900  24.816  28.399  1.00  0.00     0.016 A 
ATOM     32  C   UNL A   1      40.068  25.642  26.431  1.00  0.00     0.016 A 
ATOM     33  C   UNL A   1      39.191  25.981  29.098  1.00  0.00     0.010 A 
ATOM     34  C   UNL A   1      40.514  26.695  27.170  1.00  0.00     0.010 A 
ATOM     35  C   UNL A   1      40.021  26.896  28.474  1.00  0.00    -0.014 A 
BRANCH  35  36
ATOM     36  C   UNL A   1      40.258  28.253  28.921  1.00  0.00     0.031 A 
ATOM     37  C   UNL A   1      39.248  29.307  28.796  1.00  0.00     0.074 A 
ATOM     38  C   UNL A   1      41.283  28.247  29.802  1.00  0.00     0.049 A 
ATOM     39  N   UNL A   1      39.400  30.496  29.251  1.00  0.00    -0.248 NA
ATOM     40  C   UNL A   1      37.966  29.135  28.121  1.00  0.00     0.031 C 
ATOM     41  C   UNL A   1      41.534  29.036  30.990  1.00  0.00     0.029 A 
ATOM     42  N   UNL A   1      42.372  27.389  29.766  1.00  0.00    -0.354 N 
ATOM     43  C   UNL A   1      38.155  31.091  29.292  1.00  0.00     0.074 A 
ATOM     44  C   UNL A   1      37.329  30.266  28.449  1.00  0.00     0.031 C 
ATOM     45  C   UNL A   1      42.809  28.820  31.385  1.00  0.00     0.029 A 
ATOM     46  C   UNL A   1      43.454  28.018  30.348  1.00  0.00     0.049 A 
ATOM     47  H   UNL A   1      42.373  26.480  29.387  1.00  0.00     0.167 HD
ATOM     48  C   UNL A   1      37.967  32.102  30.189  1.00  0.00     0.034 A 
ATOM     49  C   UNL A   1      44.415  28.473  29.483  1.00  0.00     0.034 A 
ATOM     50  C   UNL A   1      39.238  32.403  30.854  1.00  0.00     0.049 A 
ATOM     51  C   UNL A   1      44.373  29.986  29.445  1.00  0.00     0.074 A 
ATOM     52  C   UNL A   1      39.760  32.033  32.082  1.00  0.00     0.029 A 
ATOM     53  N   UNL A   1      40.306  32.851  30.086  1.00  0.00    -0.354 N 
ATOM     54  N   UNL A   1      43.287  30.712  29.545  1.00  0.00    -0.248 NA
ATOM     55  C   UNL A   1      45.594  30.779  29.475  1.00  0.00     0.031 C 
ATOM     56  C   UNL A   1      41.176  32.166  32.002  1.00  0.00     0.029 A 
ATOM     57  C   UNL A   1      41.503  32.621  30.732  1.00  0.00     0.049 A 
ATOM     58  H   UNL A   1      40.219  33.276  29.203  1.00  0.00     0.167 HD
ATOM     59  C   UNL A   1      43.642  32.015  29.788  1.00  0.00     0.074 A 
ATOM     60  C   UNL A   1      45.097  32.005  29.700  1.00  0.00     0.031 C 
ATOM     61  C   UNL A   1      42.757  33.010  30.109  1.00  0.00     0.034 A 
BRANCH  48  62
ATOM     62  C   UNL A   1      36.645  32.638  30.704  1.00  0.00     0.023 A 
ATOM     63  C   UNL A   1      35.874  33.449  29.840  1.00  0.00     0.031 A 
ATOM     64  C   UNL A   1      36.098  32.449  31.987  1.00  0.00     0.131 A 
ATOM     65  C   UNL A   1      34.686  34.074  30.259  1.00  0.00     0.055 A 
ATOM     66  C   UNL A   1      34.916  33.081  32.413  1.00  0.00     0.041 A 
ATOM     67  F   UNL A   1      36.650  31.623  32.881  1.00  0.00    -0.206 F 
ATOM     68  C   UNL A   1      34.206  33.905  31.550  1.00  0.00     0.022 A 
BRANCH  65  69
ATOM     69  S   UNL A   1      33.788  35.123  29.082  1.00  0.00     0.124 S 
ATOM     70  O   UNL A   1      33.317  36.209  29.936  1.00  0.00    -0.237 OA
ATOM     71  O   UNL A   1      34.823  35.465  28.113  1.00  0.00    -0.237 OA
ATOM     72  O   UNL A   1      32.737  34.240  28.575  1.00  0.00    -0.744 OA
ENDBRANCH  65  69
ENDBRANCH  48  62
BRANCH  49  73
ATOM     73  C   UNL A   1      44.599  27.546  28.301  1.00  0.00     0.023 A 
ATOM     74  C   UNL A   1      44.594  26.153  28.569  1.00  0.00     0.031 A 
ATOM     75  C   UNL A   1      44.335  27.941  26.979  1.00  0.00     0.131 A 
ATOM     76  C   UNL A   1      44.160  25.235  27.595  1.00  0.00     0.055 A 
ATOM     77  C   UNL A   1      43.968  27.009  25.991  1.00  0.00     0.041 A 
ATOM     78  F   UNL A   1      44.309  29.239  26.644  1.00  0.00    -0.206 F 
ATOM     79  C   UNL A   1      43.837  25.656  26.307  1.00  0.00     0.022 A 
BRANCH  76  80
ATOM     80  S   UNL A   1      43.765  23.539  28.126  1.00  0.00     0.124 S 
ATOM     81  O   UNL A   1      44.865  23.241  29.037  1.00  0.00    -0.237 OA
ATOM     82  O   UNL A   1      42.452  23.716  28.744  1.00  0.00    -0.237 OA
ATOM     83  O   UNL A   1      43.762  22.781  26.878  1.00  0.00    -0.744 OA
ENDBRANCH  76  80
ENDBRANCH  49  73
BRANCH  61  84
ATOM     84  C   UNL A   1      43.045  34.484  29.949  1.00  0.00     0.023 A 
ATOM     85  C   UNL A   1      42.753  35.172  28.769  1.00  0.00     0.031 A 
ATOM     86  C   UNL A   1      43.519  35.284  31.019  1.00  0.00     0.131 A 
ATOM     87  C   UNL A   1      43.047  36.531  28.625  1.00  0.00     0.055 A 
ATOM     88  C   UNL A   1      43.692  36.666  30.915  1.00  0.00     0.041 A 
ATOM     89  F   UNL A   1      43.815  34.771  32.222  1.00  0.00    -0.206 F 
ATOM     90  C   UNL A   1      43.484  37.297  29.700  1.00  0.00     0.022 A 
BRANCH  87  91
ATOM     91  S   UNL A   1      42.949  37.222  26.961  1.00  0.00     0.124 S 
ATOM     92  O   UNL A   1      44.246  37.886  26.841  1.00  0.00    -0.237 OA
ATOM     93  O   UNL A   1      42.772  36.032  26.136  1.00  0.00    -0.237 OA
ATOM     94  O   UNL A   1      41.797  38.117  27.027  1.00  0.00    -0.744 OA
ENDBRANCH  87  91
ENDBRANCH  61  84
ENDBRANCH  35  36
ENDBRANCH  28  30
ENDBRANCH  27  28
ENDBRANCH  26  27
ENDBRANCH   1  26
TORSDOF 19
ENDMDL
MODEL 2
REMARK VINA RESULT:     -12.4      2.138      2.467
REMARK SMILES Cc1cc(S(=O)(=O)Nc2cccc(I)c2)ccc1OCC(=O)OCCOC(=O)c1ccc(-c2c3nc(c(-c4cc(S(=O)(=O)[O-])ccc4F)c4ccc([nH]4)c(-c4cc(S(=O)(=O)[O-])ccc4F)c4nc(c(-c5cc(S(=O)(=O)[O-])ccc5F)c5ccc2[nH]5)C=C4)C=C3)cc1
REMARK SMILES IDX 24 1 23 2 21 3 22 4 20 5 19 6 18 7 1 8 2 9 3 10 4 11 17 12
REMARK SMILES IDX 16 13 5 14 6 15 7 16 8 17 9 19 10 20 15 21 11 22 13 23 12 24
REMARK SMILES IDX 14 25 25 26 26 27 27 28 28 29 29 30 30 31 91 32 31 33 90 34
REMARK SMILES IDX 32 35 33 36 34 37 84 38 35 39 89 40 83 41 85 42 36 43 88 44
REMARK SMILES IDX 82 45 81 46 37 48 69 49 49 50 68 51 50 52 53 53 67 54 86 55
REMARK SMILES IDX 51 56 52 57 66 59 87 60 54 61 38 62 39 63 47 64 40 65 46 66
REMARK SMILES IDX 48 67 45 68 41 69 42 70 43 71 44 72 70 73 71 74 79 75 72 76
REMARK SMILES IDX 78 77 80 78 77 79 73 80 74 81 75 82 76 83 55 84 56 85 64 86
REMARK SMILES IDX 57 87 63 88 65 89 62 90 58 91 59 92 60 93 61 94
REMARK H PARENT 8 18 85 47 53 58
REMARK Flexibility Score: inf
ROOT
ATOM      1  C   UNL A   1      36.540  21.810  24.615  1.00  0.00     0.274 C 
ENDROOT
BRANCH   1   2
ATOM      2  O   UNL A   1      35.889  20.618  25.066  1.00  0.00    -0.460 OA
BRANCH   2   3
ATOM      3  C   UNL A   1      34.562  20.520  24.807  1.00  0.00     0.344 C 
ATOM      4  O   UNL A   1      33.950  19.459  24.732  1.00  0.00    -0.248 OA
BRANCH   3   5
ATOM      5  C   UNL A   1      33.901  21.887  24.537  1.00  0.00     0.351 C 
BRANCH   5   6
ATOM      6  O   UNL A   1      32.939  22.462  25.410  1.00  0.00    -0.482 OA
BRANCH   6   7
ATOM      7  C   UNL A   1      32.914  23.821  25.568  1.00  0.00     0.123 A 
ATOM      8  C   UNL A   1      30.603  23.548  26.647  1.00  0.00     0.048 C 
ATOM      9  C   UNL A   1      31.763  24.379  26.162  1.00  0.00    -0.008 A 
ATOM     10  C   UNL A   1      31.737  25.756  26.453  1.00  0.00     0.029 A 
ATOM     11  C   UNL A   1      32.841  26.558  26.164  1.00  0.00     0.088 A 
ATOM     12  C   UNL A   1      33.990  24.652  25.236  1.00  0.00     0.048 A 
ATOM     13  C   UNL A   1      33.984  25.994  25.601  1.00  0.00     0.026 A 
BRANCH  11  14
ATOM     14  S   UNL A   1      32.839  28.275  26.592  1.00  0.00     0.261 S 
ATOM     15  O   UNL A   1      31.606  28.599  27.279  1.00  0.00    -0.201 OA
ATOM     16  O   UNL A   1      34.123  28.595  27.184  1.00  0.00    -0.201 OA
BRANCH  14  17
ATOM     17  N   UNL A   1      32.777  29.181  25.133  1.00  0.00    -0.280 N 
ATOM     18  H   UNL A   1      33.517  29.781  24.886  1.00  0.00     0.180 HD
BRANCH  17  19
ATOM     19  C   UNL A   1      31.631  29.049  24.283  1.00  0.00     0.050 A 
ATOM     20  C   UNL A   1      31.551  27.939  23.438  1.00  0.00     0.027 A 
ATOM     21  C   UNL A   1      30.637  30.030  24.250  1.00  0.00     0.041 A 
ATOM     22  C   UNL A   1      30.494  27.817  22.538  1.00  0.00     0.003 A 
ATOM     23  C   UNL A   1      29.563  29.884  23.368  1.00  0.00     0.015 A 
ATOM     24  C   UNL A   1      29.495  28.788  22.504  1.00  0.00     0.015 A 
ATOM     25  I   UNL A   1      28.047  31.308  23.333  1.00  0.00    -0.044 I 
ENDBRANCH  17  19
ENDBRANCH  14  17
ENDBRANCH  11  14
ENDBRANCH   6   7
ENDBRANCH   5   6
ENDBRANCH   3   5
ENDBRANCH   2   3
ENDBRANCH   1   2
BRANCH   1  26
ATOM     26  C   UNL A   1      37.042  22.640  25.811  1.00  0.00     0.275 C 
BRANCH  26  27
ATOM     27  O   UNL A   1      38.273  23.407  25.742  1.00  0.00    -0.458 OA
BRANCH  27  28
ATOM     28  C   UNL A   1      39.280  23.207  26.631  1.00  0.00     0.338 C 
ATOM     29  O   UNL A   1      39.670  22.100  26.973  1.00  0.00    -0.246 OA
BRANCH  28  30
ATOM     30  C   UNL A   1      39.820  24.496  27.104  1.00  0.00     0.060 A 
ATOM     31  C   UNL A   1      40.414  25.414  26.217  1.00  0.00     0.016 A 
ATOM     32  C   UNL A   1      39.463  24.871  28.390  1.00  0.00     0.016 A 
ATOM     33  C   UNL A   1      40.553  26.749  26.579  1.00  0.00     0.010 A 
ATOM     34  C   UNL A   1      39.422  26.201  28.676  1.00  0.00     0.010 A 
ATOM     35  C   UNL A   1      40.027  27.126  27.802  1.00  0.00    -0.014 A 
BRANCH  35  36
ATOM     36  C   UNL A   1      40.265  28.393  28.462  1.00  0.00     0.031 A 
ATOM     37  C   UNL A   1      39.266  29.466  28.481  1.00  0.00     0.074 A 
ATOM     38  C   UNL A   1      41.268  28.238  29.352  1.00  0.00     0.049 A 
ATOM     39  N   UNL A   1      39.416  30.567  29.120  1.00  0.00    -0.248 NA
ATOM     40  C   UNL A   1      37.999  29.416  27.759  1.00  0.00     0.031 C 
ATOM     41  C   UNL A   1      41.498  28.829  30.654  1.00  0.00     0.029 A 
ATOM     42  N   UNL A   1      42.351  27.384  29.206  1.00  0.00    -0.354 N 
ATOM     43  C   UNL A   1      38.176  31.163  29.226  1.00  0.00     0.074 A 
ATOM     44  C   UNL A   1      37.363  30.489  28.247  1.00  0.00     0.031 C 
ATOM     45  C   UNL A   1      42.761  28.539  31.038  1.00  0.00     0.029 A 
ATOM     46  C   UNL A   1      43.425  27.901  29.903  1.00  0.00     0.049 A 
ATOM     47  H   UNL A   1      42.354  26.545  28.690  1.00  0.00     0.167 HD
ATOM     48  C   UNL A   1      37.975  32.022  30.266  1.00  0.00     0.034 A 
ATOM     49  C   UNL A   1      44.409  28.475  29.141  1.00  0.00     0.034 A 
ATOM     50  C   UNL A   1      39.233  32.202  30.997  1.00  0.00     0.049 A 
ATOM     51  C   UNL A   1      44.380  29.976  29.339  1.00  0.00     0.074 A 
ATOM     52  C   UNL A   1      39.723  31.638  32.164  1.00  0.00     0.029 A 
ATOM     53  N   UNL A   1      40.322  32.752  30.333  1.00  0.00    -0.354 N 
ATOM     54  N   UNL A   1      43.297  30.690  29.528  1.00  0.00    -0.248 NA
ATOM     55  C   UNL A   1      45.606  30.740  29.520  1.00  0.00     0.031 C 
ATOM     56  C   UNL A   1      41.141  31.766  32.136  1.00  0.00     0.029 A 
ATOM     57  C   UNL A   1      41.502  32.410  30.960  1.00  0.00     0.049 A 
ATOM     58  H   UNL A   1      40.259  33.311  29.525  1.00  0.00     0.167 HD
ATOM     59  C   UNL A   1      43.657  31.934  29.979  1.00  0.00     0.074 A 
ATOM     60  C   UNL A   1      45.114  31.922  29.923  1.00  0.00     0.031 C 
ATOM     61  C   UNL A   1      42.772  32.877  30.434  1.00  0.00     0.034 A 
BRANCH  48  62
ATOM     62  C   UNL A   1      36.646  32.487  30.830  1.00  0.00     0.023 A 
ATOM     63  C   UNL A   1      35.856  33.355  30.042  1.00  0.00     0.031 A 
ATOM     64  C   UNL A   1      36.108  32.177  32.093  1.00  0.00     0.131 A 
ATOM     65  C   UNL A   1      34.658  33.919  30.518  1.00  0.00     0.055 A 
ATOM     66  C   UNL A   1      34.916  32.747  32.576  1.00  0.00     0.041 A 
ATOM     67  F   UNL A   1      36.679  31.286  32.910  1.00  0.00    -0.206 F 
ATOM     68  C   UNL A   1      34.187  33.629  31.791  1.00  0.00     0.022 A 
BRANCH  65  69
ATOM     69  S   UNL A   1      33.736  35.050  29.440  1.00  0.00     0.124 S 
ATOM     70  O   UNL A   1      33.342  36.106  30.367  1.00  0.00    -0.237 OA
ATOM     71  O   UNL A   1      34.731  35.409  28.437  1.00  0.00    -0.237 OA
ATOM     72  O   UNL A   1      32.634  34.223  28.946  1.00  0.00    -0.744 OA
ENDBRANCH  65  69
ENDBRANCH  48  62
BRANCH  49  73
ATOM     73  C   UNL A   1      44.613  27.742  27.833  1.00  0.00     0.023 A 
ATOM     74  C   UNL A   1      45.191  26.448  27.903  1.00  0.00     0.031 A 
ATOM     75  C   UNL A   1      43.892  28.054  26.668  1.00  0.00     0.131 A 
ATOM     76  C   UNL A   1      44.893  25.474  26.933  1.00  0.00     0.055 A 
ATOM     77  C   UNL A   1      43.655  27.093  25.669  1.00  0.00     0.041 A 
ATOM     78  F   UNL A   1      43.303  29.251  26.526  1.00  0.00    -0.206 F 
ATOM     79  C   UNL A   1      44.119  25.786  25.818  1.00  0.00     0.022 A 
BRANCH  76  80
ATOM     80  S   UNL A   1      45.303  23.739  27.304  1.00  0.00     0.124 S 
ATOM     81  O   UNL A   1      45.240  23.715  28.761  1.00  0.00    -0.237 OA
ATOM     82  O   UNL A   1      44.238  23.022  26.605  1.00  0.00    -0.237 OA
ATOM     83  O   UNL A   1      46.636  23.572  26.731  1.00  0.00    -0.744 OA
ENDBRANCH  76  80
ENDBRANCH  49  73
BRANCH  61  84
ATOM     84  C   UNL A   1      43.076  34.355  30.513  1.00  0.00     0.023 A 
ATOM     85  C   UNL A   1      43.530  34.956  31.689  1.00  0.00     0.031 A 
ATOM     86  C   UNL A   1      43.035  35.198  29.374  1.00  0.00     0.131 A 
ATOM     87  C   UNL A   1      43.785  36.329  31.755  1.00  0.00     0.055 A 
ATOM     88  C   UNL A   1      43.412  36.542  29.411  1.00  0.00     0.041 A 
ATOM     89  F   UNL A   1      42.649  34.757  28.168  1.00  0.00    -0.206 F 
ATOM     90  C   UNL A   1      43.764  37.127  30.616  1.00  0.00     0.022 A 
BRANCH  87  91
ATOM     91  S   UNL A   1      44.025  37.044  33.395  1.00  0.00     0.124 S 
ATOM     92  O   UNL A   1      43.439  36.016  34.253  1.00  0.00    -0.237 OA
ATOM     93  O   UNL A   1      45.476  37.176  33.471  1.00  0.00    -0.237 OA
ATOM     94  O   UNL A   1      43.283  38.300  33.334  1.00  0.00    -0.744 OA
ENDBRANCH  87  91
ENDBRANCH  61  84
ENDBRANCH  35  36
ENDBRANCH  28  30
ENDBRANCH  27  28
ENDBRANCH  26  27
ENDBRANCH   1  26
TORSDOF 19
ENDMDL
MODEL 3
REMARK VINA RESULT:     -12.2      4.716     10.250
REMARK SMILES Cc1cc(S(=O)(=O)Nc2cccc(I)c2)ccc1OCC(=O)OCCOC(=O)c1ccc(-c2c3nc(c(-c4cc(S(=O)(=O)[O-])ccc4F)c4ccc([nH]4)c(-c4cc(S(=O)(=O)[O-])ccc4F)c4nc(c(-c5cc(S(=O)(=O)[O-])ccc5F)c5ccc2[nH]5)C=C4)C=C3)cc1
REMARK SMILES IDX 24 1 23 2 21 3 22 4 20 5 19 6 18 7 1 8 2 9 3 10 4 11 17 12
REMARK SMILES IDX 16 13 5 14 6 15 7 16 8 17 9 19 10 20 15 21 11 22 13 23 12 24
REMARK SMILES IDX 14 25 25 26 26 27 27 28 28 29 29 30 30 31 91 32 31 33 90 34
REMARK SMILES IDX 32 35 33 36 34 37 84 38 35 39 89 40 83 41 85 42 36 43 88 44
REMARK SMILES IDX 82 45 81 46 37 48 69 49 49 50 68 51 50 52 53 53 67 54 86 55
REMARK SMILES IDX 51 56 52 57 66 59 87 60 54 61 38 62 39 63 47 64 40 65 46 66
REMARK SMILES IDX 48 67 45 68 41 69 42 70 43 71 44 72 70 73 71 74 79 75 72 76
REMARK SMILES IDX 78 77 80 78 77 79 73 80 74 81 75 82 76 83 55 84 56 85 64 86
REMARK SMILES IDX 57 87 63 88 65 89 62 90 58 91 59 92 60 93 61 94
REMARK H PARENT 8 18 85 47 53 58
REMARK Flexibility Score: inf
ROOT
ATOM      1  C   UNL A   1      32.950  35.930  29.881  1.00  0.00     0.274 C 
ENDROOT
BRANCH   1   2
ATOM      2  O   UNL A   1      32.731  34.592  29.421  1.00  0.00    -0.460 OA
BRANCH   2   3
ATOM      3  C   UNL A   1      33.664  34.085  28.578  1.00  0.00     0.344 C 
ATOM      4  O   UNL A   1      34.274  34.746  27.744  1.00  0.00    -0.248 OA
BRANCH   3   5
ATOM      5  C   UNL A   1      33.832  32.558  28.718  1.00  0.00     0.351 C 
BRANCH   5   6
ATOM      6  O   UNL A   1      34.529  31.770  27.764  1.00  0.00    -0.482 OA
BRANCH   6   7
ATOM      7  C   UNL A   1      33.900  30.687  27.210  1.00  0.00     0.123 A 
ATOM      8  C   UNL A   1      36.054  29.358  27.621  1.00  0.00     0.048 C 
ATOM      9  C   UNL A   1      34.641  29.491  27.115  1.00  0.00    -0.008 A 
ATOM     10  C   UNL A   1      34.004  28.321  26.661  1.00  0.00     0.029 A 
ATOM     11  C   UNL A   1      32.652  28.343  26.317  1.00  0.00     0.088 A 
ATOM     12  C   UNL A   1      32.560  30.702  26.808  1.00  0.00     0.048 A 
ATOM     13  C   UNL A   1      31.921  29.523  26.438  1.00  0.00     0.026 A 
BRANCH  11  14
ATOM     14  S   UNL A   1      31.831  26.859  25.813  1.00  0.00     0.261 S 
ATOM     15  O   UNL A   1      31.816  25.919  26.915  1.00  0.00    -0.201 OA
ATOM     16  O   UNL A   1      30.602  27.229  25.138  1.00  0.00    -0.201 OA
BRANCH  14  17
ATOM     17  N   UNL A   1      32.797  26.105  24.609  1.00  0.00    -0.280 N 
ATOM     18  H   UNL A   1      32.902  26.519  23.721  1.00  0.00     0.180 HD
BRANCH  17  19
ATOM     19  C   UNL A   1      33.446  24.865  24.916  1.00  0.00     0.050 A 
ATOM     20  C   UNL A   1      34.751  24.901  25.414  1.00  0.00     0.027 A 
ATOM     21  C   UNL A   1      32.819  23.641  24.675  1.00  0.00     0.041 A 
ATOM     22  C   UNL A   1      35.446  23.715  25.647  1.00  0.00     0.003 A 
ATOM     23  C   UNL A   1      33.511  22.456  24.942  1.00  0.00     0.015 A 
ATOM     24  C   UNL A   1      34.825  22.489  25.415  1.00  0.00     0.015 A 
ATOM     25  I   UNL A   1      32.582  20.620  24.634  1.00  0.00    -0.044 I 
ENDBRANCH  17  19
ENDBRANCH  14  17
ENDBRANCH  11  14
ENDBRANCH   6   7
ENDBRANCH   5   6
ENDBRANCH   3   5
ENDBRANCH   2   3
ENDBRANCH   1   2
BRANCH   1  26
ATOM     26  C   UNL A   1      32.696  36.031  31.396  1.00  0.00     0.275 C 
BRANCH  26  27
ATOM     27  O   UNL A   1      33.218  35.042  32.323  1.00  0.00    -0.458 OA
BRANCH  27  28
ATOM     28  C   UNL A   1      34.325  35.291  33.071  1.00  0.00     0.338 C 
ATOM     29  O   UNL A   1      34.413  36.219  33.860  1.00  0.00    -0.246 OA
BRANCH  28  30
ATOM     30  C   UNL A   1      35.374  34.290  32.795  1.00  0.00     0.060 A 
ATOM     31  C   UNL A   1      36.336  34.491  31.787  1.00  0.00     0.016 A 
ATOM     32  C   UNL A   1      35.532  33.295  33.748  1.00  0.00     0.016 A 
ATOM     33  C   UNL A   1      37.521  33.765  31.794  1.00  0.00     0.010 A 
ATOM     34  C   UNL A   1      36.761  32.723  33.870  1.00  0.00     0.010 A 
ATOM     35  C   UNL A   1      37.724  32.905  32.859  1.00  0.00    -0.014 A 
BRANCH  35  36
ATOM     36  C   UNL A   1      38.766  31.903  32.939  1.00  0.00     0.031 A 
ATOM     37  C   UNL A   1      38.687  30.631  32.215  1.00  0.00     0.074 A 
ATOM     38  C   UNL A   1      39.902  32.491  33.373  1.00  0.00     0.049 A 
ATOM     39  N   UNL A   1      39.626  29.758  32.205  1.00  0.00    -0.248 NA
ATOM     40  C   UNL A   1      37.526  30.201  31.442  1.00  0.00     0.031 C 
ATOM     41  C   UNL A   1      41.293  32.253  33.047  1.00  0.00     0.029 A 
ATOM     42  N   UNL A   1      39.972  33.553  34.261  1.00  0.00    -0.354 N 
ATOM     43  C   UNL A   1      39.381  28.890  31.161  1.00  0.00     0.074 A 
ATOM     44  C   UNL A   1      38.001  29.117  30.815  1.00  0.00     0.031 C 
ATOM     45  C   UNL A   1      42.061  32.935  33.925  1.00  0.00     0.029 A 
ATOM     46  C   UNL A   1      41.170  33.486  34.944  1.00  0.00     0.049 A 
ATOM     47  H   UNL A   1      39.280  34.243  34.385  1.00  0.00     0.167 HD
ATOM     48  C   UNL A   1      40.447  28.232  30.621  1.00  0.00     0.034 A 
ATOM     49  C   UNL A   1      41.092  33.053  36.242  1.00  0.00     0.034 A 
ATOM     50  C   UNL A   1      41.651  28.540  31.399  1.00  0.00     0.049 A 
ATOM     51  C   UNL A   1      41.697  31.667  36.340  1.00  0.00     0.074 A 
ATOM     52  C   UNL A   1      42.690  29.433  31.197  1.00  0.00     0.029 A 
ATOM     53  N   UNL A   1      41.694  28.175  32.739  1.00  0.00    -0.354 N 
ATOM     54  N   UNL A   1      41.623  30.746  35.411  1.00  0.00    -0.248 NA
ATOM     55  C   UNL A   1      42.587  31.306  37.433  1.00  0.00     0.031 C 
ATOM     56  C   UNL A   1      43.292  29.681  32.464  1.00  0.00     0.029 A 
ATOM     57  C   UNL A   1      42.621  28.934  33.423  1.00  0.00     0.049 A 
ATOM     58  H   UNL A   1      41.139  27.471  33.144  1.00  0.00     0.167 HD
ATOM     59  C   UNL A   1      42.530  29.756  35.692  1.00  0.00     0.074 A 
ATOM     60  C   UNL A   1      43.081  30.141  36.986  1.00  0.00     0.031 C 
ATOM     61  C   UNL A   1      42.834  28.723  34.844  1.00  0.00     0.034 A 
BRANCH  48  62
ATOM     62  C   UNL A   1      40.519  27.556  29.266  1.00  0.00     0.023 A 
ATOM     63  C   UNL A   1      41.476  28.027  28.337  1.00  0.00     0.031 A 
ATOM     64  C   UNL A   1      39.701  26.512  28.797  1.00  0.00     0.131 A 
ATOM     65  C   UNL A   1      41.552  27.533  27.022  1.00  0.00     0.055 A 
ATOM     66  C   UNL A   1      39.767  26.023  27.479  1.00  0.00     0.041 A 
ATOM     67  F   UNL A   1      38.823  25.886  29.588  1.00  0.00    -0.206 F 
ATOM     68  C   UNL A   1      40.691  26.538  26.581  1.00  0.00     0.022 A 
BRANCH  65  69
ATOM     69  S   UNL A   1      42.793  28.229  25.897  1.00  0.00     0.124 S 
ATOM     70  O   UNL A   1      44.027  27.624  26.388  1.00  0.00    -0.237 OA
ATOM     71  O   UNL A   1      42.324  27.774  24.593  1.00  0.00    -0.237 OA
ATOM     72  O   UNL A   1      42.684  29.671  26.122  1.00  0.00    -0.744 OA
ENDBRANCH  65  69
ENDBRANCH  48  62
BRANCH  49  73
ATOM     73  C   UNL A   1      39.834  33.539  36.928  1.00  0.00     0.023 A 
ATOM     74  C   UNL A   1      38.854  32.563  37.241  1.00  0.00     0.031 A 
ATOM     75  C   UNL A   1      39.779  34.748  37.640  1.00  0.00     0.131 A 
ATOM     76  C   UNL A   1      37.992  32.736  38.340  1.00  0.00     0.055 A 
ATOM     77  C   UNL A   1      38.868  34.941  38.694  1.00  0.00     0.041 A 
ATOM     78  F   UNL A   1      40.676  35.719  37.415  1.00  0.00    -0.206 F 
ATOM     79  C   UNL A   1      37.999  33.918  39.077  1.00  0.00     0.022 A 
BRANCH  76  80
ATOM     80  S   UNL A   1      37.071  31.287  38.946  1.00  0.00     0.124 S 
ATOM     81  O   UNL A   1      37.742  31.007  40.211  1.00  0.00    -0.237 OA
ATOM     82  O   UNL A   1      35.712  31.815  39.046  1.00  0.00    -0.237 OA
ATOM     83  O   UNL A   1      37.270  30.291  37.897  1.00  0.00    -0.744 OA
ENDBRANCH  76  80
ENDBRANCH  49  73
BRANCH  61  84
ATOM     84  C   UNL A   1      43.466  27.424  35.285  1.00  0.00     0.023 A 
ATOM     85  C   UNL A   1      44.720  27.017  34.824  1.00  0.00     0.031 A 
ATOM     86  C   UNL A   1      42.885  26.598  36.280  1.00  0.00     0.131 A 
ATOM     87  C   UNL A   1      45.284  25.801  35.221  1.00  0.00     0.055 A 
ATOM     88  C   UNL A   1      43.508  25.449  36.771  1.00  0.00     0.041 A 
ATOM     89  F   UNL A   1      41.699  26.876  36.839  1.00  0.00    -0.206 F 
ATOM     90  C   UNL A   1      44.705  25.025  36.220  1.00  0.00     0.022 A 
BRANCH  87  91
ATOM     91  S   UNL A   1      46.727  25.223  34.304  1.00  0.00     0.124 S 
ATOM     92  O   UNL A   1      46.586  25.952  33.044  1.00  0.00    -0.237 OA
ATOM     93  O   UNL A   1      47.832  25.646  35.157  1.00  0.00    -0.237 OA
ATOM     94  O   UNL A   1      46.521  23.780  34.213  1.00  0.00    -0.744 OA
ENDBRANCH  87  91
ENDBRANCH  61  84
ENDBRANCH  35  36
ENDBRANCH  28  30
ENDBRANCH  27  28
ENDBRANCH  26  27
ENDBRANCH   1  26
TORSDOF 19
ENDMDL
