MODEL 1
REMARK VINA RESULT:     -14.7      0.000      0.000
REMARK SMILES O=C(OCCOC(=O)c1ccc(-c2c3nc(c(-c4cc(S(=O)(=O)[O-])ccc4F)c4ccc([nH]4)c(-c4cc(S(=O)(=O)[O-])ccc4F)c4nc(c(-c5cc(S(=O)(=O)[O-])ccc5F)c5ccc2[nH]5)C=C4)C=C3)cc1)C1=Cc2cc(Cl)cc(C#Cc3ccccc3)c2O[C@@H]1C(F)(F)F
REMARK SMILES IDX 5 1 4 2 3 3 2 4 1 5 72 6 73 7 90 8 74 9 89 10 75 11 88 12
REMARK SMILES IDX 76 13 79 14 77 15 78 16 91 17 92 18 93 19 94 20 80 21 81 22
REMARK SMILES IDX 82 23 83 24 87 25 84 26 86 27 85 28 6 29 7 30 8 31 9 32
REMARK SMILES IDX 10 33 71 34 11 35 70 36 12 37 13 38 14 39 64 40 15 41 69 42
REMARK SMILES IDX 63 43 65 44 16 45 68 46 62 47 61 48 17 50 49 51 29 52 48 53
REMARK SMILES IDX 30 54 33 55 47 56 66 57 31 58 32 59 46 61 67 62 34 63 18 64
REMARK SMILES IDX 19 65 27 66 20 67 26 68 28 69 25 70 21 71 22 72 23 73 24 74
REMARK SMILES IDX 50 75 51 76 59 77 52 78 58 79 60 80 57 81 53 82 54 83 55 84
REMARK SMILES IDX 56 85 35 86 36 87 44 88 37 89 43 90 45 91 42 92 38 93 39 94
REMARK SMILES IDX 40 95 41 96
REMARK H PARENT 65 49 33 60
REMARK Flexibility Score: inf
ROOT
ATOM      1  C   UNL A   1      37.353  21.144  24.816  1.00  0.00     0.275 C 
ENDROOT
BRANCH   1   2
ATOM      2  C   UNL A   1      35.669  22.139  23.847  1.00  0.00     0.275 C 
BRANCH   2   3
ATOM      3  O   UNL A   1      34.249  22.232  24.350  1.00  0.00    -0.459 OA
BRANCH   3   4
ATOM      4  C   UNL A   1      33.681  23.388  24.003  1.00  0.00     0.338 C 
ATOM      5  O   UNL A   1      33.860  24.029  22.996  1.00  0.00    -0.246 OA
BRANCH   4   6
ATOM      6  C   UNL A   1      33.234  23.802  25.331  1.00  0.00     0.087 C 
ATOM      7  C   UNL A   1      33.954  24.889  25.935  1.00  0.00     0.027 C 
ATOM      8  C   UNL A   1      31.414  23.882  24.746  1.00  0.00     0.316 C 
ATOM      9  C   UNL A   1      33.374  26.555  26.022  1.00  0.00     0.020 A 
ATOM     10  O   UNL A   1      30.793  25.737  24.656  1.00  0.00    -0.474 OA
ATOM     11  C   UNL A   1      34.234  27.466  26.563  1.00  0.00     0.032 A 
ATOM     12  C   UNL A   1      31.898  27.074  25.279  1.00  0.00     0.143 A 
ATOM     13  C   UNL A   1      33.851  28.795  26.390  1.00  0.00     0.043 A 
ATOM     14  C   UNL A   1      31.643  28.406  25.113  1.00  0.00     0.069 A 
ATOM     15  Cl  UNL A   1      34.938  29.997  27.006  1.00  0.00    -0.084 Cl
ATOM     16  C   UNL A   1      32.655  29.236  25.691  1.00  0.00     0.041 A 
BRANCH   8  17
ATOM     17  C   UNL A   1      31.158  22.571  25.780  1.00  0.00     0.430 C 
ATOM     18  F   UNL A   1      31.669  22.802  26.989  1.00  0.00    -0.167 F 
ATOM     19  F   UNL A   1      29.822  22.433  26.079  1.00  0.00    -0.167 F 
ATOM     20  F   UNL A   1      31.461  21.330  25.348  1.00  0.00    -0.167 F 
ENDBRANCH   8  17
BRANCH  14  21
ATOM     21  C   UNL A   1      30.630  29.027  24.340  1.00  0.00    -0.058 C 
ATOM     22  C   UNL A   1      29.949  29.695  23.617  1.00  0.00    -0.062 C 
BRANCH  22  23
ATOM     23  C   UNL A   1      29.208  30.611  22.807  1.00  0.00     0.025 A 
ATOM     24  C   UNL A   1      28.713  30.237  21.554  1.00  0.00     0.017 A 
ATOM     25  C   UNL A   1      29.038  31.917  23.266  1.00  0.00     0.017 A 
ATOM     26  C   UNL A   1      28.048  31.177  20.762  1.00  0.00     0.001 A 
ATOM     27  C   UNL A   1      28.377  32.853  22.475  1.00  0.00     0.001 A 
ATOM     28  C   UNL A   1      27.884  32.486  21.223  1.00  0.00     0.000 A 
ENDBRANCH  22  23
ENDBRANCH  14  21
ENDBRANCH   4   6
ENDBRANCH   3   4
ENDBRANCH   2   3
ENDBRANCH   1   2
BRANCH   1  29
ATOM     29  O   UNL A   1      38.693  22.043  25.550  1.00  0.00    -0.458 OA
BRANCH  29  30
ATOM     30  C   UNL A   1      39.684  21.926  26.521  1.00  0.00     0.338 C 
ATOM     31  O   UNL A   1      40.617  21.144  26.579  1.00  0.00    -0.246 OA
BRANCH  30  32
ATOM     32  C   UNL A   1      39.722  23.228  27.265  1.00  0.00     0.060 A 
ATOM     33  C   UNL A   1      40.842  23.526  28.073  1.00  0.00     0.016 A 
ATOM     34  C   UNL A   1      38.879  24.255  26.850  1.00  0.00     0.016 A 
ATOM     35  C   UNL A   1      41.239  24.870  28.252  1.00  0.00     0.010 A 
ATOM     36  C   UNL A   1      39.284  25.581  27.016  1.00  0.00     0.010 A 
ATOM     37  C   UNL A   1      40.503  25.902  27.650  1.00  0.00    -0.014 A 
BRANCH  37  38
ATOM     38  C   UNL A   1      40.756  27.334  27.970  1.00  0.00     0.031 A 
ATOM     39  C   UNL A   1      42.186  27.740  27.776  1.00  0.00     0.074 A 
ATOM     40  C   UNL A   1      39.858  28.195  28.499  1.00  0.00     0.049 A 
ATOM     41  N   UNL A   1      42.814  28.817  28.151  1.00  0.00    -0.248 NA
ATOM     42  C   UNL A   1      43.040  26.729  27.126  1.00  0.00     0.031 C 
ATOM     43  C   UNL A   1      38.439  27.930  28.738  1.00  0.00     0.029 A 
ATOM     44  N   UNL A   1      40.024  29.489  28.954  1.00  0.00    -0.354 N 
ATOM     45  C   UNL A   1      44.138  28.593  27.800  1.00  0.00     0.074 A 
ATOM     46  C   UNL A   1      44.237  27.245  27.298  1.00  0.00     0.031 C 
ATOM     47  C   UNL A   1      37.867  29.024  29.286  1.00  0.00     0.029 A 
ATOM     48  C   UNL A   1      38.881  30.063  29.477  1.00  0.00     0.049 A 
ATOM     49  H   UNL A   1      40.886  29.962  28.909  1.00  0.00     0.167 HD
ATOM     50  C   UNL A   1      45.181  29.449  27.847  1.00  0.00     0.034 A 
ATOM     51  C   UNL A   1      38.695  31.279  30.047  1.00  0.00     0.034 A 
ATOM     52  C   UNL A   1      45.069  30.776  28.373  1.00  0.00     0.049 A 
ATOM     53  C   UNL A   1      39.898  32.202  30.179  1.00  0.00     0.074 A 
ATOM     54  C   UNL A   1      46.048  31.740  28.489  1.00  0.00     0.029 A 
ATOM     55  N   UNL A   1      43.898  31.317  28.890  1.00  0.00    -0.354 N 
ATOM     56  N   UNL A   1      41.145  31.997  29.812  1.00  0.00    -0.248 NA
ATOM     57  C   UNL A   1      39.672  33.519  30.794  1.00  0.00     0.031 C 
ATOM     58  C   UNL A   1      45.490  32.834  29.154  1.00  0.00     0.029 A 
ATOM     59  C   UNL A   1      44.137  32.597  29.352  1.00  0.00     0.049 A 
ATOM     60  H   UNL A   1      43.028  30.858  28.921  1.00  0.00     0.167 HD
ATOM     61  C   UNL A   1      41.834  33.174  30.105  1.00  0.00     0.074 A 
ATOM     62  C   UNL A   1      40.866  34.084  30.682  1.00  0.00     0.031 C 
ATOM     63  C   UNL A   1      43.142  33.485  29.907  1.00  0.00     0.034 A 
BRANCH  50  64
ATOM     64  C   UNL A   1      46.504  28.912  27.366  1.00  0.00     0.023 A 
ATOM     65  C   UNL A   1      46.769  28.748  25.992  1.00  0.00     0.031 A 
ATOM     66  C   UNL A   1      47.442  28.417  28.284  1.00  0.00     0.131 A 
ATOM     67  C   UNL A   1      47.874  27.990  25.583  1.00  0.00     0.055 A 
ATOM     68  C   UNL A   1      48.603  27.767  27.864  1.00  0.00     0.041 A 
ATOM     69  F   UNL A   1      47.220  28.507  29.605  1.00  0.00    -0.206 F 
ATOM     70  C   UNL A   1      48.811  27.527  26.508  1.00  0.00     0.022 A 
BRANCH  67  71
ATOM     71  S   UNL A   1      47.939  27.424  23.860  1.00  0.00     0.124 S 
ATOM     72  O   UNL A   1      46.868  28.210  23.251  1.00  0.00    -0.237 OA
ATOM     73  O   UNL A   1      49.296  27.777  23.459  1.00  0.00    -0.237 OA
ATOM     74  O   UNL A   1      47.669  25.990  23.961  1.00  0.00    -0.744 OA
ENDBRANCH  67  71
ENDBRANCH  50  64
BRANCH  51  75
ATOM     75  C   UNL A   1      37.355  31.722  30.568  1.00  0.00     0.023 A 
ATOM     76  C   UNL A   1      36.429  32.398  29.747  1.00  0.00     0.031 A 
ATOM     77  C   UNL A   1      37.015  31.565  31.924  1.00  0.00     0.131 A 
ATOM     78  C   UNL A   1      35.244  32.926  30.294  1.00  0.00     0.055 A 
ATOM     79  C   UNL A   1      35.808  32.042  32.452  1.00  0.00     0.041 A 
ATOM     80  F   UNL A   1      37.859  30.953  32.769  1.00  0.00    -0.206 F 
ATOM     81  C   UNL A   1      34.919  32.737  31.637  1.00  0.00     0.022 A 
BRANCH  78  82
ATOM     82  S   UNL A   1      34.170  33.959  29.251  1.00  0.00     0.124 S 
ATOM     83  O   UNL A   1      33.606  32.973  28.336  1.00  0.00    -0.237 OA
ATOM     84  O   UNL A   1      33.251  34.529  30.229  1.00  0.00    -0.237 OA
ATOM     85  O   UNL A   1      35.097  34.913  28.643  1.00  0.00    -0.744 OA
ENDBRANCH  78  82
ENDBRANCH  51  75
BRANCH  63  86
ATOM     86  C   UNL A   1      43.592  34.889  30.228  1.00  0.00     0.023 A 
ATOM     87  C   UNL A   1      43.485  35.943  29.307  1.00  0.00     0.031 A 
ATOM     88  C   UNL A   1      44.082  35.180  31.516  1.00  0.00     0.131 A 
ATOM     89  C   UNL A   1      43.900  37.231  29.675  1.00  0.00     0.055 A 
ATOM     90  C   UNL A   1      44.420  36.476  31.900  1.00  0.00     0.041 A 
ATOM     91  F   UNL A   1      44.207  34.209  32.435  1.00  0.00    -0.206 F 
ATOM     92  C   UNL A   1      44.341  37.510  30.972  1.00  0.00     0.022 A 
BRANCH  89  93
ATOM     93  S   UNL A   1      43.949  38.525  28.407  1.00  0.00     0.124 S 
ATOM     94  O   UNL A   1      45.328  38.993  28.504  1.00  0.00    -0.237 OA
ATOM     95  O   UNL A   1      43.610  37.789  27.194  1.00  0.00    -0.237 OA
ATOM     96  O   UNL A   1      42.937  39.481  28.854  1.00  0.00    -0.744 OA
ENDBRANCH  89  93
ENDBRANCH  63  86
ENDBRANCH  37  38
ENDBRANCH  30  32
ENDBRANCH  29  30
ENDBRANCH   1  29
TORSDOF 17
ENDMDL
MODEL 2
REMARK VINA RESULT:     -14.7      5.052     10.706
REMARK SMILES O=C(OCCOC(=O)c1ccc(-c2c3nc(c(-c4cc(S(=O)(=O)[O-])ccc4F)c4ccc([nH]4)c(-c4cc(S(=O)(=O)[O-])ccc4F)c4nc(c(-c5cc(S(=O)(=O)[O-])ccc5F)c5ccc2[nH]5)C=C4)C=C3)cc1)C1=Cc2cc(Cl)cc(C#Cc3ccccc3)c2O[C@@H]1C(F)(F)F
REMARK SMILES IDX 5 1 4 2 3 3 2 4 1 5 72 6 73 7 90 8 74 9 89 10 75 11 88 12
REMARK SMILES IDX 76 13 79 14 77 15 78 16 91 17 92 18 93 19 94 20 80 21 81 22
REMARK SMILES IDX 82 23 83 24 87 25 84 26 86 27 85 28 6 29 7 30 8 31 9 32
REMARK SMILES IDX 10 33 71 34 11 35 70 36 12 37 13 38 14 39 64 40 15 41 69 42
REMARK SMILES IDX 63 43 65 44 16 45 68 46 62 47 61 48 17 50 49 51 29 52 48 53
REMARK SMILES IDX 30 54 33 55 47 56 66 57 31 58 32 59 46 61 67 62 34 63 18 64
REMARK SMILES IDX 19 65 27 66 20 67 26 68 28 69 25 70 21 71 22 72 23 73 24 74
REMARK SMILES IDX 50 75 51 76 59 77 52 78 58 79 60 80 57 81 53 82 54 83 55 84
REMARK SMILES IDX 56 85 35 86 36 87 44 88 37 89 43 90 45 91 42 92 38 93 39 94
REMARK SMILES IDX 40 95 41 96
REMARK H PARENT 65 49 33 60
REMARK Flexibility Score: inf
ROOT
ATOM      1  C   UNL A   1      32.073  30.286  26.902  1.00  0.00     0.275 C 
ENDROOT
BRANCH   1   2
ATOM      2  C   UNL A   1      31.800  28.121  26.937  1.00  0.00     0.275 C 
BRANCH   2   3
ATOM      3  O   UNL A   1      31.274  27.249  25.823  1.00  0.00    -0.459 OA
BRANCH   3   4
ATOM      4  C   UNL A   1      31.694  25.989  25.949  1.00  0.00     0.338 C 
ATOM      5  O   UNL A   1      31.559  25.253  26.897  1.00  0.00    -0.246 OA
BRANCH   4   6
ATOM      6  C   UNL A   1      32.697  26.002  24.886  1.00  0.00     0.087 C 
ATOM      7  C   UNL A   1      34.064  25.844  25.300  1.00  0.00     0.027 C 
ATOM      8  C   UNL A   1      31.704  24.722  23.868  1.00  0.00     0.316 C 
ATOM      9  C   UNL A   1      34.993  24.349  25.155  1.00  0.00     0.020 A 
ATOM     10  O   UNL A   1      32.621  22.991  23.841  1.00  0.00    -0.474 OA
ATOM     11  C   UNL A   1      36.254  24.369  25.677  1.00  0.00     0.032 A 
ATOM     12  C   UNL A   1      34.301  22.866  24.590  1.00  0.00     0.143 A 
ATOM     13  C   UNL A   1      36.860  23.117  25.771  1.00  0.00     0.043 A 
ATOM     14  C   UNL A   1      34.959  21.683  24.778  1.00  0.00     0.069 A 
ATOM     15  Cl  UNL A   1      38.441  23.078  26.482  1.00  0.00    -0.084 Cl
ATOM     16  C   UNL A   1      36.247  21.861  25.376  1.00  0.00     0.041 A 
BRANCH   8  17
ATOM     17  C   UNL A   1      31.461  25.978  22.765  1.00  0.00     0.430 C 
ATOM     18  F   UNL A   1      31.402  25.520  21.516  1.00  0.00    -0.167 F 
ATOM     19  F   UNL A   1      30.205  26.522  22.907  1.00  0.00    -0.167 F 
ATOM     20  F   UNL A   1      32.236  27.078  22.849  1.00  0.00    -0.167 F 
ENDBRANCH   8  17
BRANCH  14  21
ATOM     21  C   UNL A   1      34.478  20.361  24.605  1.00  0.00    -0.058 C 
ATOM     22  C   UNL A   1      34.105  19.227  24.694  1.00  0.00    -0.062 C 
BRANCH  22  23
ATOM     23  C   UNL A   1      33.774  17.850  24.891  1.00  0.00     0.025 A 
ATOM     24  C   UNL A   1      32.527  17.467  25.394  1.00  0.00     0.017 A 
ATOM     25  C   UNL A   1      34.748  16.888  24.629  1.00  0.00     0.017 A 
ATOM     26  C   UNL A   1      32.261  16.116  25.635  1.00  0.00     0.001 A 
ATOM     27  C   UNL A   1      34.483  15.543  24.870  1.00  0.00     0.001 A 
ATOM     28  C   UNL A   1      33.242  15.156  25.375  1.00  0.00     0.000 A 
ENDBRANCH  22  23
ENDBRANCH  14  21
ENDBRANCH   4   6
ENDBRANCH   3   4
ENDBRANCH   2   3
ENDBRANCH   1   2
BRANCH   1  29
ATOM     29  O   UNL A   1      33.677  31.042  26.919  1.00  0.00    -0.458 OA
BRANCH  29  30
ATOM     30  C   UNL A   1      34.656  31.507  27.793  1.00  0.00     0.338 C 
ATOM     31  O   UNL A   1      34.616  32.451  28.564  1.00  0.00    -0.246 OA
BRANCH  30  32
ATOM     32  C   UNL A   1      35.623  30.380  28.004  1.00  0.00     0.060 A 
ATOM     33  C   UNL A   1      36.775  30.302  27.189  1.00  0.00     0.016 A 
ATOM     34  C   UNL A   1      35.585  29.689  29.211  1.00  0.00     0.016 A 
ATOM     35  C   UNL A   1      37.960  29.731  27.704  1.00  0.00     0.010 A 
ATOM     36  C   UNL A   1      36.763  29.141  29.723  1.00  0.00     0.010 A 
ATOM     37  C   UNL A   1      37.979  29.221  29.011  1.00  0.00    -0.014 A 
BRANCH  37  38
ATOM     38  C   UNL A   1      39.132  28.434  29.528  1.00  0.00     0.031 A 
ATOM     39  C   UNL A   1      39.659  28.944  30.835  1.00  0.00     0.074 A 
ATOM     40  C   UNL A   1      39.759  27.431  28.874  1.00  0.00     0.049 A 
ATOM     41  N   UNL A   1      40.761  28.660  31.467  1.00  0.00    -0.248 NA
ATOM     42  C   UNL A   1      38.841  29.991  31.473  1.00  0.00     0.031 C 
ATOM     43  C   UNL A   1      39.352  26.839  27.598  1.00  0.00     0.029 A 
ATOM     44  N   UNL A   1      40.906  26.734  29.198  1.00  0.00    -0.354 N 
ATOM     45  C   UNL A   1      40.770  29.515  32.562  1.00  0.00     0.074 A 
ATOM     46  C   UNL A   1      39.636  30.396  32.438  1.00  0.00     0.031 C 
ATOM     47  C   UNL A   1      40.228  25.870  27.257  1.00  0.00     0.029 A 
ATOM     48  C   UNL A   1      41.288  25.789  28.265  1.00  0.00     0.049 A 
ATOM     49  H   UNL A   1      41.412  26.899  30.027  1.00  0.00     0.167 HD
ATOM     50  C   UNL A   1      41.623  29.540  33.608  1.00  0.00     0.034 A 
ATOM     51  C   UNL A   1      42.369  24.972  28.237  1.00  0.00     0.034 A 
ATOM     52  C   UNL A   1      42.759  28.673  33.700  1.00  0.00     0.049 A 
ATOM     53  C   UNL A   1      43.374  25.072  29.376  1.00  0.00     0.074 A 
ATOM     54  C   UNL A   1      43.708  28.602  34.698  1.00  0.00     0.029 A 
ATOM     55  N   UNL A   1      43.107  27.733  32.736  1.00  0.00    -0.354 N 
ATOM     56  N   UNL A   1      43.358  25.862  30.429  1.00  0.00    -0.248 NA
ATOM     57  C   UNL A   1      44.536  24.172  29.328  1.00  0.00     0.031 C 
ATOM     58  C   UNL A   1      44.677  27.678  34.299  1.00  0.00     0.029 A 
ATOM     59  C   UNL A   1      44.274  27.094  33.106  1.00  0.00     0.049 A 
ATOM     60  H   UNL A   1      42.597  27.550  31.914  1.00  0.00     0.167 HD
ATOM     61  C   UNL A   1      44.476  25.516  31.188  1.00  0.00     0.074 A 
ATOM     62  C   UNL A   1      45.146  24.449  30.473  1.00  0.00     0.031 C 
ATOM     63  C   UNL A   1      44.906  26.020  32.375  1.00  0.00     0.034 A 
BRANCH  50  64
ATOM     64  C   UNL A   1      41.352  30.580  34.663  1.00  0.00     0.023 A 
ATOM     65  C   UNL A   1      40.233  30.481  35.514  1.00  0.00     0.031 A 
ATOM     66  C   UNL A   1      42.121  31.751  34.716  1.00  0.00     0.131 A 
ATOM     67  C   UNL A   1      39.844  31.587  36.281  1.00  0.00     0.055 A 
ATOM     68  C   UNL A   1      41.793  32.803  35.572  1.00  0.00     0.041 A 
ATOM     69  F   UNL A   1      43.171  31.918  33.896  1.00  0.00    -0.206 F 
ATOM     70  C   UNL A   1      40.634  32.735  36.341  1.00  0.00     0.022 A 
BRANCH  67  71
ATOM     71  S   UNL A   1      38.179  31.589  37.006  1.00  0.00     0.124 S 
ATOM     72  O   UNL A   1      37.854  30.164  37.001  1.00  0.00    -0.237 OA
ATOM     73  O   UNL A   1      38.403  32.187  38.316  1.00  0.00    -0.237 OA
ATOM     74  O   UNL A   1      37.401  32.400  36.071  1.00  0.00    -0.744 OA
ENDBRANCH  67  71
ENDBRANCH  50  64
BRANCH  51  75
ATOM     75  C   UNL A   1      42.611  24.003  27.112  1.00  0.00     0.023 A 
ATOM     76  C   UNL A   1      42.059  22.706  27.123  1.00  0.00     0.031 A 
ATOM     77  C   UNL A   1      43.480  24.322  26.052  1.00  0.00     0.131 A 
ATOM     78  C   UNL A   1      42.415  21.771  26.131  1.00  0.00     0.055 A 
ATOM     79  C   UNL A   1      43.787  23.407  25.037  1.00  0.00     0.041 A 
ATOM     80  F   UNL A   1      44.061  25.530  25.991  1.00  0.00    -0.206 F 
ATOM     81  C   UNL A   1      43.261  22.119  25.078  1.00  0.00     0.022 A 
BRANCH  78  82
ATOM     82  S   UNL A   1      41.840  20.053  26.286  1.00  0.00     0.124 S 
ATOM     83  O   UNL A   1      40.399  20.205  26.124  1.00  0.00    -0.237 OA
ATOM     84  O   UNL A   1      42.544  19.395  25.191  1.00  0.00    -0.237 OA
ATOM     85  O   UNL A   1      42.278  19.664  27.626  1.00  0.00    -0.744 OA
ENDBRANCH  78  82
ENDBRANCH  51  75
BRANCH  63  86
ATOM     86  C   UNL A   1      46.105  25.373  33.025  1.00  0.00     0.023 A 
ATOM     87  C   UNL A   1      45.989  24.278  33.896  1.00  0.00     0.031 A 
ATOM     88  C   UNL A   1      47.397  25.834  32.706  1.00  0.00     0.131 A 
ATOM     89  C   UNL A   1      47.144  23.707  34.450  1.00  0.00     0.055 A 
ATOM     90  C   UNL A   1      48.543  25.213  33.200  1.00  0.00     0.041 A 
ATOM     91  F   UNL A   1      47.565  26.879  31.881  1.00  0.00    -0.206 F 
ATOM     92  C   UNL A   1      48.420  24.149  34.087  1.00  0.00     0.022 A 
BRANCH  89  93
ATOM     93  S   UNL A   1      46.959  22.437  35.730  1.00  0.00     0.124 S 
ATOM     94  O   UNL A   1      47.744  21.336  35.180  1.00  0.00    -0.237 OA
ATOM     95  O   UNL A   1      47.519  23.093  36.906  1.00  0.00    -0.237 OA
ATOM     96  O   UNL A   1      45.516  22.206  35.778  1.00  0.00    -0.744 OA
ENDBRANCH  89  93
ENDBRANCH  63  86
ENDBRANCH  37  38
ENDBRANCH  30  32
ENDBRANCH  29  30
ENDBRANCH   1  29
TORSDOF 17
ENDMDL
MODEL 3
REMARK VINA RESULT:     -14.5      1.749      2.194
REMARK SMILES O=C(OCCOC(=O)c1ccc(-c2c3nc(c(-c4cc(S(=O)(=O)[O-])ccc4F)c4ccc([nH]4)c(-c4cc(S(=O)(=O)[O-])ccc4F)c4nc(c(-c5cc(S(=O)(=O)[O-])ccc5F)c5ccc2[nH]5)C=C4)C=C3)cc1)C1=Cc2cc(Cl)cc(C#Cc3ccccc3)c2O[C@@H]1C(F)(F)F
REMARK SMILES IDX 5 1 4 2 3 3 2 4 1 5 72 6 73 7 90 8 74 9 89 10 75 11 88 12
REMARK SMILES IDX 76 13 79 14 77 15 78 16 91 17 92 18 93 19 94 20 80 21 81 22
REMARK SMILES IDX 82 23 83 24 87 25 84 26 86 27 85 28 6 29 7 30 8 31 9 32
REMARK SMILES IDX 10 33 71 34 11 35 70 36 12 37 13 38 14 39 64 40 15 41 69 42
REMARK SMILES IDX 63 43 65 44 16 45 68 46 62 47 61 48 17 50 49 51 29 52 48 53
REMARK SMILES IDX 30 54 33 55 47 56 66 57 31 58 32 59 46 61 67 62 34 63 18 64
REMARK SMILES IDX 19 65 27 66 20 67 26 68 28 69 25 70 21 71 22 72 23 73 24 74
REMARK SMILES IDX 50 75 51 76 59 77 52 78 58 79 60 80 57 81 53 82 54 83 55 84
REMARK SMILES IDX 56 85 35 86 36 87 44 88 37 89 43 90 45 91 42 92 38 93 39 94
REMARK SMILES IDX 40 95 41 96
REMARK H PARENT 65 49 33 60
REMARK Flexibility Score: inf
ROOT
ATOM      1  C   UNL A   1      37.150  20.404  24.999  1.00  0.00     0.275 C 
ENDROOT
BRANCH   1   2
ATOM      2  C   UNL A   1      35.878  22.032  24.294  1.00  0.00     0.275 C 
BRANCH   2   3
ATOM      3  O   UNL A   1      34.376  22.020  24.148  1.00  0.00    -0.459 OA
BRANCH   3   4
ATOM      4  C   UNL A   1      33.905  23.231  23.846  1.00  0.00     0.338 C 
ATOM      5  O   UNL A   1      34.161  23.908  22.880  1.00  0.00    -0.246 OA
BRANCH   4   6
ATOM      6  C   UNL A   1      33.448  23.610  25.182  1.00  0.00     0.087 C 
ATOM      7  C   UNL A   1      34.147  24.697  25.809  1.00  0.00     0.027 C 
ATOM      8  C   UNL A   1      31.627  23.669  24.594  1.00  0.00     0.316 C 
ATOM      9  C   UNL A   1      33.536  26.350  25.930  1.00  0.00     0.020 A 
ATOM     10  O   UNL A   1      30.973  25.515  24.541  1.00  0.00    -0.474 OA
ATOM     11  C   UNL A   1      34.379  27.265  26.491  1.00  0.00     0.032 A 
ATOM     12  C   UNL A   1      32.054  26.858  25.194  1.00  0.00     0.143 A 
ATOM     13  C   UNL A   1      33.973  28.591  26.345  1.00  0.00     0.043 A 
ATOM     14  C   UNL A   1      31.775  28.188  25.055  1.00  0.00     0.069 A 
ATOM     15  Cl  UNL A   1      35.038  29.799  26.988  1.00  0.00    -0.084 Cl
ATOM     16  C   UNL A   1      32.771  29.024  25.652  1.00  0.00     0.041 A 
BRANCH   8  17
ATOM     17  C   UNL A   1      31.393  22.333  25.601  1.00  0.00     0.430 C 
ATOM     18  F   UNL A   1      31.918  22.539  26.808  1.00  0.00    -0.167 F 
ATOM     19  F   UNL A   1      30.061  22.180  25.913  1.00  0.00    -0.167 F 
ATOM     20  F   UNL A   1      31.698  21.105  25.136  1.00  0.00    -0.167 F 
ENDBRANCH   8  17
BRANCH  14  21
ATOM     21  C   UNL A   1      30.752  28.807  24.293  1.00  0.00    -0.058 C 
ATOM     22  C   UNL A   1      30.054  29.493  23.604  1.00  0.00    -0.062 C 
BRANCH  22  23
ATOM     23  C   UNL A   1      29.279  30.430  22.851  1.00  0.00     0.025 A 
ATOM     24  C   UNL A   1      28.726  30.086  21.613  1.00  0.00     0.017 A 
ATOM     25  C   UNL A   1      29.133  31.724  23.348  1.00  0.00     0.017 A 
ATOM     26  C   UNL A   1      28.028  31.046  20.875  1.00  0.00     0.001 A 
ATOM     27  C   UNL A   1      28.440  32.680  22.611  1.00  0.00     0.001 A 
ATOM     28  C   UNL A   1      27.889  32.344  21.375  1.00  0.00     0.000 A 
ENDBRANCH  22  23
ENDBRANCH  14  21
ENDBRANCH   4   6
ENDBRANCH   3   4
ENDBRANCH   2   3
ENDBRANCH   1   2
BRANCH   1  29
ATOM     29  O   UNL A   1      38.886  20.612  25.290  1.00  0.00    -0.458 OA
BRANCH  29  30
ATOM     30  C   UNL A   1      39.850  20.484  26.287  1.00  0.00     0.338 C 
ATOM     31  O   UNL A   1      40.727  19.647  26.407  1.00  0.00    -0.246 OA
BRANCH  30  32
ATOM     32  C   UNL A   1      39.961  21.820  26.960  1.00  0.00     0.060 A 
ATOM     33  C   UNL A   1      41.029  22.051  27.856  1.00  0.00     0.016 A 
ATOM     34  C   UNL A   1      39.278  22.900  26.410  1.00  0.00     0.016 A 
ATOM     35  C   UNL A   1      41.553  23.355  28.000  1.00  0.00     0.010 A 
ATOM     36  C   UNL A   1      39.809  24.185  26.543  1.00  0.00     0.010 A 
ATOM     37  C   UNL A   1      40.992  24.418  27.275  1.00  0.00    -0.014 A 
BRANCH  37  38
ATOM     38  C   UNL A   1      41.370  25.833  27.540  1.00  0.00     0.031 A 
ATOM     39  C   UNL A   1      42.751  26.175  27.070  1.00  0.00     0.074 A 
ATOM     40  C   UNL A   1      40.635  26.729  28.237  1.00  0.00     0.049 A 
ATOM     41  N   UNL A   1      43.491  27.217  27.316  1.00  0.00    -0.248 NA
ATOM     42  C   UNL A   1      43.413  25.132  26.265  1.00  0.00     0.031 C 
ATOM     43  C   UNL A   1      39.279  26.527  28.749  1.00  0.00     0.029 A 
ATOM     44  N   UNL A   1      40.947  28.008  28.651  1.00  0.00    -0.354 N 
ATOM     45  C   UNL A   1      44.709  26.937  26.711  1.00  0.00     0.074 A 
ATOM     46  C   UNL A   1      44.644  25.591  26.199  1.00  0.00     0.031 C 
ATOM     47  C   UNL A   1      38.878  27.641  29.400  1.00  0.00     0.029 A 
ATOM     48  C   UNL A   1      39.958  28.630  29.390  1.00  0.00     0.049 A 
ATOM     49  H   UNL A   1      41.805  28.442  28.439  1.00  0.00     0.167 HD
ATOM     50  C   UNL A   1      45.780  27.743  26.554  1.00  0.00     0.034 A 
ATOM     51  C   UNL A   1      39.944  29.847  29.986  1.00  0.00     0.034 A 
ATOM     52  C   UNL A   1      45.836  29.068  27.093  1.00  0.00     0.049 A 
ATOM     53  C   UNL A   1      41.192  30.712  29.881  1.00  0.00     0.074 A 
ATOM     54  C   UNL A   1      46.863  29.985  27.016  1.00  0.00     0.029 A 
ATOM     55  N   UNL A   1      44.815  29.657  27.831  1.00  0.00    -0.354 N 
ATOM     56  N   UNL A   1      42.332  30.453  29.276  1.00  0.00    -0.248 NA
ATOM     57  C   UNL A   1      41.152  32.031  30.530  1.00  0.00     0.031 C 
ATOM     58  C   UNL A   1      46.498  31.097  27.779  1.00  0.00     0.029 A 
ATOM     59  C   UNL A   1      45.201  30.920  28.239  1.00  0.00     0.049 A 
ATOM     60  H   UNL A   1      43.948  29.238  28.032  1.00  0.00     0.167 HD
ATOM     61  C   UNL A   1      43.119  31.594  29.430  1.00  0.00     0.074 A 
ATOM     62  C   UNL A   1      42.327  32.542  30.186  1.00  0.00     0.031 C 
ATOM     63  C   UNL A   1      44.376  31.847  28.979  1.00  0.00     0.034 A 
BRANCH  50  64
ATOM     64  C   UNL A   1      46.956  27.151  25.823  1.00  0.00     0.023 A 
ATOM     65  C   UNL A   1      47.941  26.409  26.504  1.00  0.00     0.031 A 
ATOM     66  C   UNL A   1      47.178  27.461  24.473  1.00  0.00     0.131 A 
ATOM     67  C   UNL A   1      49.156  26.119  25.869  1.00  0.00     0.055 A 
ATOM     68  C   UNL A   1      48.342  27.064  23.814  1.00  0.00     0.041 A 
ATOM     69  F   UNL A   1      46.294  28.204  23.787  1.00  0.00    -0.206 F 
ATOM     70  C   UNL A   1      49.350  26.412  24.519  1.00  0.00     0.022 A 
BRANCH  67  71
ATOM     71  S   UNL A   1      50.552  25.571  26.892  1.00  0.00     0.124 S 
ATOM     72  O   UNL A   1      49.961  24.453  27.624  1.00  0.00    -0.237 OA
ATOM     73  O   UNL A   1      51.558  25.221  25.896  1.00  0.00    -0.237 OA
ATOM     74  O   UNL A   1      50.860  26.745  27.706  1.00  0.00    -0.744 OA
ENDBRANCH  67  71
ENDBRANCH  50  64
BRANCH  51  75
ATOM     75  C   UNL A   1      38.755  30.345  30.761  1.00  0.00     0.023 A 
ATOM     76  C   UNL A   1      37.771  31.159  30.162  1.00  0.00     0.031 A 
ATOM     77  C   UNL A   1      38.630  30.099  32.140  1.00  0.00     0.131 A 
ATOM     78  C   UNL A   1      36.745  31.728  30.941  1.00  0.00     0.055 A 
ATOM     79  C   UNL A   1      37.576  30.621  32.900  1.00  0.00     0.041 A 
ATOM     80  F   UNL A   1      39.543  29.353  32.781  1.00  0.00    -0.206 F 
ATOM     81  C   UNL A   1      36.632  31.450  32.303  1.00  0.00     0.022 A 
BRANCH  78  82
ATOM     82  S   UNL A   1      35.612  32.928  30.175  1.00  0.00     0.124 S 
ATOM     83  O   UNL A   1      34.412  32.762  30.986  1.00  0.00    -0.237 OA
ATOM     84  O   UNL A   1      36.335  34.183  30.346  1.00  0.00    -0.237 OA
ATOM     85  O   UNL A   1      35.500  32.460  28.794  1.00  0.00    -0.744 OA
ENDBRANCH  78  82
ENDBRANCH  51  75
BRANCH  63  86
ATOM     86  C   UNL A   1      44.946  33.226  29.207  1.00  0.00     0.023 A 
ATOM     87  C   UNL A   1      44.770  34.274  28.291  1.00  0.00     0.031 A 
ATOM     88  C   UNL A   1      45.629  33.501  30.408  1.00  0.00     0.131 A 
ATOM     89  C   UNL A   1      45.306  35.539  28.572  1.00  0.00     0.055 A 
ATOM     90  C   UNL A   1      46.091  34.779  30.716  1.00  0.00     0.041 A 
ATOM     91  F   UNL A   1      45.828  32.534  31.318  1.00  0.00    -0.206 F 
ATOM     92  C   UNL A   1      45.940  35.806  29.790  1.00  0.00     0.022 A 
BRANCH  89  93
ATOM     93  S   UNL A   1      45.248  36.815  27.286  1.00  0.00     0.124 S 
ATOM     94  O   UNL A   1      46.149  36.269  26.277  1.00  0.00    -0.237 OA
ATOM     95  O   UNL A   1      43.833  36.838  26.931  1.00  0.00    -0.237 OA
ATOM     96  O   UNL A   1      45.734  38.013  27.969  1.00  0.00    -0.744 OA
ENDBRANCH  89  93
ENDBRANCH  63  86
ENDBRANCH  37  38
ENDBRANCH  30  32
ENDBRANCH  29  30
ENDBRANCH   1  29
TORSDOF 17
ENDMDL
