MODEL 1
REMARK VINA RESULT:     -12.4      0.000      0.000
REMARK SMILES O=C(OCCOC(=O)[C@H]1CCCN(C(=O)C2CC[NH+](Cc3ccco3)CC2)C1)c1ccc(-c2c3nc(c(-c4cc(S(=O)(=O)[O-])ccc4F)c4ccc([nH]4)c(-c4cc(S(=O)(=O)[O-])ccc4F)c4nc(c(-c5cc(S(=O)(=O)[O-])ccc5F)c5ccc2[nH]5)C=C4)C=C3)cc1
REMARK SMILES IDX 5 1 4 2 3 3 2 4 1 5 29 6 30 7 91 8 31 9 90 10 32 11 33 12
REMARK SMILES IDX 34 13 84 14 35 15 89 16 83 17 85 18 36 19 88 20 82 21 81 22
REMARK SMILES IDX 37 24 69 25 49 26 68 27 50 28 53 29 67 30 86 31 51 32 52 33
REMARK SMILES IDX 66 35 87 36 54 37 38 38 39 39 47 40 40 41 46 42 48 43 45 44
REMARK SMILES IDX 41 45 42 46 43 47 44 48 70 49 71 50 79 51 72 52 78 53 80 54
REMARK SMILES IDX 77 55 73 56 74 57 75 58 76 59 55 60 56 61 64 62 57 63 63 64
REMARK SMILES IDX 65 65 62 66 58 67 59 68 60 69 61 70 6 71 7 72 8 73 9 74
REMARK SMILES IDX 10 75 28 76 11 77 13 78 12 79 14 80 15 81 16 82 17 83 27 84
REMARK SMILES IDX 18 85 26 86 19 87 20 89 21 90 22 91 25 92 23 93 24 94
REMARK H PARENT 85 23 53 34 19 88
REMARK Flexibility Score: inf
ROOT
ATOM      1  C   UNL A   1      37.251  21.599  25.460  1.00  0.00     0.274 C 
ENDROOT
BRANCH   1   2
ATOM      2  C   UNL A   1      38.562  20.795  25.492  1.00  0.00     0.275 C 
BRANCH   2   3
ATOM      3  O   UNL A   1      39.435  21.075  26.605  1.00  0.00    -0.458 OA
BRANCH   3   4
ATOM      4  C   UNL A   1      40.451  21.962  26.773  1.00  0.00     0.338 C 
ATOM      5  O   UNL A   1      41.598  21.542  26.611  1.00  0.00    -0.246 OA
BRANCH   4   6
ATOM      6  C   UNL A   1      40.289  23.354  27.335  1.00  0.00     0.060 A 
ATOM      7  C   UNL A   1      41.113  23.977  28.270  1.00  0.00     0.016 A 
ATOM      8  C   UNL A   1      39.284  24.146  26.747  1.00  0.00     0.016 A 
ATOM      9  C   UNL A   1      41.088  25.377  28.441  1.00  0.00     0.010 A 
ATOM     10  C   UNL A   1      39.304  25.546  26.873  1.00  0.00     0.010 A 
ATOM     11  C   UNL A   1      40.293  26.199  27.629  1.00  0.00    -0.014 A 
BRANCH  11  12
ATOM     12  C   UNL A   1      40.313  27.739  27.683  1.00  0.00     0.031 A 
ATOM     13  C   UNL A   1      41.761  28.234  27.700  1.00  0.00     0.074 A 
ATOM     14  C   UNL A   1      39.225  28.646  27.884  1.00  0.00     0.049 A 
ATOM     15  N   UNL A   1      42.302  29.355  28.108  1.00  0.00    -0.248 NA
ATOM     16  C   UNL A   1      42.756  27.213  27.292  1.00  0.00     0.031 C 
ATOM     17  C   UNL A   1      37.062  28.724  28.256  1.00  0.00     0.029 A 
ATOM     18  N   UNL A   1      39.666  30.362  28.505  1.00  0.00    -0.354 N 
ATOM     19  C   UNL A   1      43.676  29.161  27.964  1.00  0.00     0.074 A 
ATOM     20  C   UNL A   1      43.883  27.763  27.687  1.00  0.00     0.031 C 
ATOM     21  C   UNL A   1      36.675  30.178  28.945  1.00  0.00     0.029 A 
ATOM     22  C   UNL A   1      38.216  31.226  29.168  1.00  0.00     0.049 A 
ATOM     23  H   UNL A   1      40.573  30.744  28.473  1.00  0.00     0.167 HD
ATOM     24  C   UNL A   1      44.694  30.055  27.947  1.00  0.00     0.034 A 
ATOM     25  C   UNL A   1      38.120  32.387  29.850  1.00  0.00     0.034 A 
ATOM     26  C   UNL A   1      44.534  31.438  28.288  1.00  0.00     0.049 A 
ATOM     27  C   UNL A   1      39.349  33.193  29.997  1.00  0.00     0.074 A 
ATOM     28  C   UNL A   1      45.486  32.437  28.256  1.00  0.00     0.029 A 
ATOM     29  N   UNL A   1      43.360  32.007  28.777  1.00  0.00    -0.354 N 
ATOM     30  N   UNL A   1      40.583  32.868  29.709  1.00  0.00    -0.248 NA
ATOM     31  C   UNL A   1      39.151  34.554  30.494  1.00  0.00     0.031 C 
ATOM     32  C   UNL A   1      44.923  33.580  28.825  1.00  0.00     0.029 A 
ATOM     33  C   UNL A   1      43.586  33.332  29.105  1.00  0.00     0.049 A 
ATOM     34  H   UNL A   1      42.501  31.537  28.874  1.00  0.00     0.167 HD
ATOM     35  C   UNL A   1      41.312  34.028  29.895  1.00  0.00     0.074 A 
ATOM     36  C   UNL A   1      40.381  35.030  30.392  1.00  0.00     0.031 C 
ATOM     37  C   UNL A   1      42.615  34.268  29.617  1.00  0.00     0.034 A 
BRANCH  24  38
ATOM     38  C   UNL A   1      46.051  29.508  27.532  1.00  0.00     0.023 A 
ATOM     39  C   UNL A   1      46.289  29.120  26.195  1.00  0.00     0.031 A 
ATOM     40  C   UNL A   1      47.040  29.215  28.481  1.00  0.00     0.131 A 
ATOM     41  C   UNL A   1      47.392  28.310  25.884  1.00  0.00     0.055 A 
ATOM     42  C   UNL A   1      48.203  28.518  28.135  1.00  0.00     0.041 A 
ATOM     43  F   UNL A   1      46.872  29.542  29.771  1.00  0.00    -0.206 F 
ATOM     44  C   UNL A   1      48.368  28.030  26.840  1.00  0.00     0.022 A 
BRANCH  41  45
ATOM     45  S   UNL A   1      47.384  27.419  24.299  1.00  0.00     0.124 S 
ATOM     46  O   UNL A   1      46.218  26.551  24.456  1.00  0.00    -0.237 OA
ATOM     47  O   UNL A   1      47.248  28.496  23.328  1.00  0.00    -0.237 OA
ATOM     48  O   UNL A   1      48.670  26.725  24.290  1.00  0.00    -0.744 OA
ENDBRANCH  41  45
ENDBRANCH  24  38
BRANCH  25  49
ATOM     49  C   UNL A   1      36.820  32.809  30.454  1.00  0.00     0.023 A 
ATOM     50  C   UNL A   1      35.812  33.455  29.723  1.00  0.00     0.031 A 
ATOM     51  C   UNL A   1      36.568  32.560  31.814  1.00  0.00     0.131 A 
ATOM     52  C   UNL A   1      34.582  33.757  30.344  1.00  0.00     0.055 A 
ATOM     53  C   UNL A   1      35.307  32.751  32.391  1.00  0.00     0.041 A 
ATOM     54  F   UNL A   1      37.550  32.104  32.606  1.00  0.00    -0.206 F 
ATOM     55  C   UNL A   1      34.296  33.341  31.647  1.00  0.00     0.022 A 
BRANCH  52  56
ATOM     56  S   UNL A   1      33.394  34.825  29.479  1.00  0.00     0.124 S 
ATOM     57  O   UNL A   1      34.239  35.954  29.108  1.00  0.00    -0.237 OA
ATOM     58  O   UNL A   1      32.947  33.969  28.385  1.00  0.00    -0.237 OA
ATOM     59  O   UNL A   1      32.384  35.109  30.496  1.00  0.00    -0.744 OA
ENDBRANCH  52  56
ENDBRANCH  25  49
BRANCH  37  60
ATOM     60  C   UNL A   1      43.054  35.692  29.751  1.00  0.00     0.023 A 
ATOM     61  C   UNL A   1      42.929  36.605  28.696  1.00  0.00     0.031 A 
ATOM     62  C   UNL A   1      43.606  36.126  30.968  1.00  0.00     0.131 A 
ATOM     63  C   UNL A   1      43.401  37.909  28.868  1.00  0.00     0.055 A 
ATOM     64  C   UNL A   1      43.993  37.447  31.159  1.00  0.00     0.041 A 
ATOM     65  F   UNL A   1      43.762  35.270  31.991  1.00  0.00    -0.206 F 
ATOM     66  C   UNL A   1      43.900  38.346  30.100  1.00  0.00     0.022 A 
BRANCH  63  67
ATOM     67  S   UNL A   1      43.448  38.997  27.423  1.00  0.00     0.124 S 
ATOM     68  O   UNL A   1      42.236  38.599  26.714  1.00  0.00    -0.237 OA
ATOM     69  O   UNL A   1      43.425  40.324  28.027  1.00  0.00    -0.237 OA
ATOM     70  O   UNL A   1      44.701  38.634  26.766  1.00  0.00    -0.744 OA
ENDBRANCH  63  67
ENDBRANCH  37  60
ENDBRANCH  11  12
ENDBRANCH   4   6
ENDBRANCH   3   4
ENDBRANCH   2   3
ENDBRANCH   1   2
BRANCH   1  71
ATOM     71  O   UNL A   1      36.391  21.180  24.397  1.00  0.00    -0.462 OA
BRANCH  71  72
ATOM     72  C   UNL A   1      35.084  20.815  24.622  1.00  0.00     0.310 C 
ATOM     73  O   UNL A   1      34.727  19.688  24.933  1.00  0.00    -0.252 OA
BRANCH  72  74
ATOM     74  C   UNL A   1      34.154  22.044  24.545  1.00  0.00     0.119 C 
ATOM     75  C   UNL A   1      32.946  21.607  23.721  1.00  0.00     0.019 C 
ATOM     76  C   UNL A   1      33.745  22.728  25.890  1.00  0.00     0.134 C 
ATOM     77  C   UNL A   1      31.882  22.641  23.666  1.00  0.00     0.022 C 
ATOM     78  N   UNL A   1      32.461  23.491  25.793  1.00  0.00    -0.342 N 
ATOM     79  C   UNL A   1      31.478  22.776  25.088  1.00  0.00     0.119 C 
BRANCH  78  80
ATOM     80  C   UNL A   1      32.149  24.736  26.309  1.00  0.00     0.226 C 
ATOM     81  O   UNL A   1      31.051  24.918  26.847  1.00  0.00    -0.275 OA
BRANCH  80  82
ATOM     82  C   UNL A   1      33.167  25.972  26.190  1.00  0.00     0.090 C 
ATOM     83  C   UNL A   1      32.648  27.320  26.701  1.00  0.00     0.075 C 
ATOM     84  C   UNL A   1      33.995  26.214  24.905  1.00  0.00     0.075 C 
ATOM     85  C   UNL A   1      31.880  28.147  25.669  1.00  0.00     0.263 C 
ATOM     86  C   UNL A   1      33.529  27.329  23.926  1.00  0.00     0.263 C 
ATOM     87  N   UNL A   1      32.468  28.232  24.351  1.00  0.00    -0.329 N 
ATOM     88  H   UNL A   1      33.057  28.959  24.758  1.00  0.00     0.348 HD
BRANCH  87  89
ATOM     89  C   UNL A   1      31.749  28.937  23.267  1.00  0.00     0.338 C 
BRANCH  89  90
ATOM     90  C   UNL A   1      30.292  29.532  23.544  1.00  0.00     0.157 A 
ATOM     91  C   UNL A   1      29.147  31.227  23.731  1.00  0.00     0.052 A 
ATOM     92  O   UNL A   1      28.905  28.383  23.046  1.00  0.00    -0.463 OA
ATOM     93  C   UNL A   1      27.384  30.744  23.314  1.00  0.00     0.042 A 
ATOM     94  C   UNL A   1      27.298  29.204  23.019  1.00  0.00     0.195 A 
ENDBRANCH  89  90
ENDBRANCH  87  89
ENDBRANCH  80  82
ENDBRANCH  78  80
ENDBRANCH  72  74
ENDBRANCH  71  72
ENDBRANCH   1  71
TORSDOF 18
ENDMDL
MODEL 2
REMARK VINA RESULT:     -12.2      2.755      3.420
REMARK SMILES O=C(OCCOC(=O)[C@H]1CCCN(C(=O)C2CC[NH+](Cc3ccco3)CC2)C1)c1ccc(-c2c3nc(c(-c4cc(S(=O)(=O)[O-])ccc4F)c4ccc([nH]4)c(-c4cc(S(=O)(=O)[O-])ccc4F)c4nc(c(-c5cc(S(=O)(=O)[O-])ccc5F)c5ccc2[nH]5)C=C4)C=C3)cc1
REMARK SMILES IDX 5 1 4 2 3 3 2 4 1 5 29 6 30 7 91 8 31 9 90 10 32 11 33 12
REMARK SMILES IDX 34 13 84 14 35 15 89 16 83 17 85 18 36 19 88 20 82 21 81 22
REMARK SMILES IDX 37 24 69 25 49 26 68 27 50 28 53 29 67 30 86 31 51 32 52 33
REMARK SMILES IDX 66 35 87 36 54 37 38 38 39 39 47 40 40 41 46 42 48 43 45 44
REMARK SMILES IDX 41 45 42 46 43 47 44 48 70 49 71 50 79 51 72 52 78 53 80 54
REMARK SMILES IDX 77 55 73 56 74 57 75 58 76 59 55 60 56 61 64 62 57 63 63 64
REMARK SMILES IDX 65 65 62 66 58 67 59 68 60 69 61 70 6 71 7 72 8 73 9 74
REMARK SMILES IDX 10 75 28 76 11 77 13 78 12 79 14 80 15 81 16 82 17 83 27 84
REMARK SMILES IDX 18 85 26 86 19 87 20 89 21 90 22 91 25 92 23 93 24 94
REMARK H PARENT 85 23 53 34 19 88
REMARK Flexibility Score: inf
ROOT
ATOM      1  C   UNL A   1      36.282  21.182  25.299  1.00  0.00     0.274 C 
ENDROOT
BRANCH   1   2
ATOM      2  C   UNL A   1      37.721  20.871  24.851  1.00  0.00     0.275 C 
BRANCH   2   3
ATOM      3  O   UNL A   1      38.642  20.536  25.909  1.00  0.00    -0.458 OA
BRANCH   3   4
ATOM      4  C   UNL A   1      39.858  21.032  26.257  1.00  0.00     0.338 C 
ATOM      5  O   UNL A   1      40.819  20.263  26.196  1.00  0.00    -0.246 OA
BRANCH   4   6
ATOM      6  C   UNL A   1      40.082  22.380  26.899  1.00  0.00     0.060 A 
ATOM      7  C   UNL A   1      41.108  22.726  27.776  1.00  0.00     0.016 A 
ATOM      8  C   UNL A   1      39.249  23.424  26.453  1.00  0.00     0.016 A 
ATOM      9  C   UNL A   1      41.433  24.078  28.016  1.00  0.00     0.010 A 
ATOM     10  C   UNL A   1      39.613  24.768  26.644  1.00  0.00     0.010 A 
ATOM     11  C   UNL A   1      40.790  25.117  27.328  1.00  0.00    -0.014 A 
BRANCH  11  12
ATOM     12  C   UNL A   1      41.182  26.602  27.455  1.00  0.00     0.031 A 
ATOM     13  C   UNL A   1      42.670  26.770  27.140  1.00  0.00     0.074 A 
ATOM     14  C   UNL A   1      40.412  27.696  27.963  1.00  0.00     0.049 A 
ATOM     15  N   UNL A   1      43.537  27.699  27.459  1.00  0.00    -0.248 NA
ATOM     16  C   UNL A   1      43.279  25.608  26.448  1.00  0.00     0.031 C 
ATOM     17  C   UNL A   1      38.470  28.197  28.859  1.00  0.00     0.029 A 
ATOM     18  N   UNL A   1      41.372  29.201  28.543  1.00  0.00    -0.354 N 
ATOM     19  C   UNL A   1      44.757  27.230  26.972  1.00  0.00     0.074 A 
ATOM     20  C   UNL A   1      44.563  25.858  26.582  1.00  0.00     0.031 C 
ATOM     21  C   UNL A   1      38.602  29.619  29.695  1.00  0.00     0.029 A 
ATOM     22  C   UNL A   1      40.354  30.281  29.586  1.00  0.00     0.049 A 
ATOM     23  H   UNL A   1      42.311  29.381  28.309  1.00  0.00     0.167 HD
ATOM     24  C   UNL A   1      45.925  27.882  26.751  1.00  0.00     0.034 A 
ATOM     25  C   UNL A   1      40.691  31.357  30.329  1.00  0.00     0.034 A 
ATOM     26  C   UNL A   1      46.176  29.223  27.192  1.00  0.00     0.049 A 
ATOM     27  C   UNL A   1      42.074  31.859  30.211  1.00  0.00     0.074 A 
ATOM     28  C   UNL A   1      47.302  29.991  26.977  1.00  0.00     0.029 A 
ATOM     29  N   UNL A   1      45.311  29.975  27.982  1.00  0.00    -0.354 N 
ATOM     30  N   UNL A   1      43.100  31.310  29.611  1.00  0.00    -0.248 NA
ATOM     31  C   UNL A   1      42.319  33.171  30.809  1.00  0.00     0.031 C 
ATOM     32  C   UNL A   1      47.167  31.162  27.725  1.00  0.00     0.029 A 
ATOM     33  C   UNL A   1      45.909  31.178  28.312  1.00  0.00     0.049 A 
ATOM     34  H   UNL A   1      44.411  29.694  28.263  1.00  0.00     0.167 HD
ATOM     35  C   UNL A   1      44.102  32.259  29.671  1.00  0.00     0.074 A 
ATOM     36  C   UNL A   1      43.571  33.380  30.433  1.00  0.00     0.031 C 
ATOM     37  C   UNL A   1      45.327  32.242  29.094  1.00  0.00     0.034 A 
BRANCH  24  38
ATOM     38  C   UNL A   1      46.985  27.103  25.988  1.00  0.00     0.023 A 
ATOM     39  C   UNL A   1      47.943  26.329  26.679  1.00  0.00     0.031 A 
ATOM     40  C   UNL A   1      47.151  27.259  24.604  1.00  0.00     0.131 A 
ATOM     41  C   UNL A   1      49.106  25.900  26.023  1.00  0.00     0.055 A 
ATOM     42  C   UNL A   1      48.250  26.715  23.932  1.00  0.00     0.041 A 
ATOM     43  F   UNL A   1      46.285  27.994  23.888  1.00  0.00    -0.206 F 
ATOM     44  C   UNL A   1      49.254  26.062  24.645  1.00  0.00     0.022 A 
BRANCH  41  45
ATOM     45  S   UNL A   1      50.522  25.377  27.037  1.00  0.00     0.124 S 
ATOM     46  O   UNL A   1      49.913  24.357  27.889  1.00  0.00    -0.237 OA
ATOM     47  O   UNL A   1      51.467  24.891  26.040  1.00  0.00    -0.237 OA
ATOM     48  O   UNL A   1      50.917  26.601  27.731  1.00  0.00    -0.744 OA
ENDBRANCH  41  45
ENDBRANCH  24  38
BRANCH  25  49
ATOM     49  C   UNL A   1      39.699  31.983  31.254  1.00  0.00     0.023 A 
ATOM     50  C   UNL A   1      39.581  31.624  32.606  1.00  0.00     0.031 A 
ATOM     51  C   UNL A   1      38.832  32.981  30.777  1.00  0.00     0.131 A 
ATOM     52  C   UNL A   1      38.671  32.312  33.435  1.00  0.00     0.055 A 
ATOM     53  C   UNL A   1      38.021  33.740  31.628  1.00  0.00     0.041 A 
ATOM     54  F   UNL A   1      38.776  33.248  29.463  1.00  0.00    -0.206 F 
ATOM     55  C   UNL A   1      37.948  33.416  32.974  1.00  0.00     0.022 A 
BRANCH  52  56
ATOM     56  S   UNL A   1      38.331  31.669  35.099  1.00  0.00     0.124 S 
ATOM     57  O   UNL A   1      38.112  30.254  34.822  1.00  0.00    -0.237 OA
ATOM     58  O   UNL A   1      39.558  32.000  35.817  1.00  0.00    -0.237 OA
ATOM     59  O   UNL A   1      37.147  32.412  35.520  1.00  0.00    -0.744 OA
ENDBRANCH  52  56
ENDBRANCH  25  49
BRANCH  37  60
ATOM     60  C   UNL A   1      46.106  33.516  29.189  1.00  0.00     0.023 A 
ATOM     61  C   UNL A   1      45.984  34.528  28.229  1.00  0.00     0.031 A 
ATOM     62  C   UNL A   1      46.983  33.702  30.270  1.00  0.00     0.131 A 
ATOM     63  C   UNL A   1      46.773  35.675  28.348  1.00  0.00     0.055 A 
ATOM     64  C   UNL A   1      47.700  34.882  30.427  1.00  0.00     0.041 A 
ATOM     65  F   UNL A   1      47.141  32.741  31.196  1.00  0.00    -0.206 F 
ATOM     66  C   UNL A   1      47.604  35.875  29.455  1.00  0.00     0.022 A 
BRANCH  63  67
ATOM     67  S   UNL A   1      46.775  36.855  26.977  1.00  0.00     0.124 S 
ATOM     68  O   UNL A   1      48.123  37.409  27.065  1.00  0.00    -0.237 OA
ATOM     69  O   UNL A   1      46.512  36.000  25.825  1.00  0.00    -0.237 OA
ATOM     70  O   UNL A   1      45.698  37.780  27.323  1.00  0.00    -0.744 OA
ENDBRANCH  63  67
ENDBRANCH  37  60
ENDBRANCH  11  12
ENDBRANCH   4   6
ENDBRANCH   3   4
ENDBRANCH   2   3
ENDBRANCH   1   2
BRANCH   1  71
ATOM     71  O   UNL A   1      35.322  20.358  24.631  1.00  0.00    -0.462 OA
BRANCH  71  72
ATOM     72  C   UNL A   1      33.981  20.417  24.932  1.00  0.00     0.310 C 
ATOM     73  O   UNL A   1      33.326  19.472  25.346  1.00  0.00    -0.252 OA
BRANCH  72  74
ATOM     74  C   UNL A   1      33.454  21.860  24.790  1.00  0.00     0.119 C 
ATOM     75  C   UNL A   1      32.737  21.915  23.443  1.00  0.00     0.019 C 
ATOM     76  C   UNL A   1      32.582  22.431  25.956  1.00  0.00     0.134 C 
ATOM     77  C   UNL A   1      32.048  23.209  23.210  1.00  0.00     0.022 C 
ATOM     78  N   UNL A   1      31.674  23.538  25.520  1.00  0.00    -0.342 N 
ATOM     79  C   UNL A   1      31.041  23.248  24.299  1.00  0.00     0.119 C 
BRANCH  78  80
ATOM     80  C   UNL A   1      31.391  24.732  26.159  1.00  0.00     0.226 C 
ATOM     81  O   UNL A   1      30.318  24.866  26.758  1.00  0.00    -0.275 OA
BRANCH  80  82
ATOM     82  C   UNL A   1      32.410  25.972  26.110  1.00  0.00     0.090 C 
ATOM     83  C   UNL A   1      31.811  27.345  26.426  1.00  0.00     0.075 C 
ATOM     84  C   UNL A   1      33.433  26.129  24.959  1.00  0.00     0.075 C 
ATOM     85  C   UNL A   1      31.215  28.080  25.224  1.00  0.00     0.263 C 
ATOM     86  C   UNL A   1      33.126  27.159  23.835  1.00  0.00     0.263 C 
ATOM     87  N   UNL A   1      32.006  28.074  24.014  1.00  0.00    -0.329 N 
ATOM     88  H   UNL A   1      32.519  28.840  24.453  1.00  0.00     0.348 HD
BRANCH  87  89
ATOM     89  C   UNL A   1      31.468  28.684  22.778  1.00  0.00     0.338 C 
BRANCH  89  90
ATOM     90  C   UNL A   1      30.165  29.606  22.856  1.00  0.00     0.157 A 
ATOM     91  C   UNL A   1      29.218  31.145  23.831  1.00  0.00     0.052 A 
ATOM     92  O   UNL A   1      29.296  29.818  21.215  1.00  0.00    -0.463 OA
ATOM     93  C   UNL A   1      28.032  31.922  22.604  1.00  0.00     0.042 A 
ATOM     94  C   UNL A   1      28.066  31.138  21.244  1.00  0.00     0.195 A 
ENDBRANCH  89  90
ENDBRANCH  87  89
ENDBRANCH  80  82
ENDBRANCH  78  80
ENDBRANCH  72  74
ENDBRANCH  71  72
ENDBRANCH   1  71
TORSDOF 18
ENDMDL
MODEL 3
REMARK VINA RESULT:     -12.1      1.436      1.644
REMARK SMILES O=C(OCCOC(=O)[C@H]1CCCN(C(=O)C2CC[NH+](Cc3ccco3)CC2)C1)c1ccc(-c2c3nc(c(-c4cc(S(=O)(=O)[O-])ccc4F)c4ccc([nH]4)c(-c4cc(S(=O)(=O)[O-])ccc4F)c4nc(c(-c5cc(S(=O)(=O)[O-])ccc5F)c5ccc2[nH]5)C=C4)C=C3)cc1
REMARK SMILES IDX 5 1 4 2 3 3 2 4 1 5 29 6 30 7 91 8 31 9 90 10 32 11 33 12
REMARK SMILES IDX 34 13 84 14 35 15 89 16 83 17 85 18 36 19 88 20 82 21 81 22
REMARK SMILES IDX 37 24 69 25 49 26 68 27 50 28 53 29 67 30 86 31 51 32 52 33
REMARK SMILES IDX 66 35 87 36 54 37 38 38 39 39 47 40 40 41 46 42 48 43 45 44
REMARK SMILES IDX 41 45 42 46 43 47 44 48 70 49 71 50 79 51 72 52 78 53 80 54
REMARK SMILES IDX 77 55 73 56 74 57 75 58 76 59 55 60 56 61 64 62 57 63 63 64
REMARK SMILES IDX 65 65 62 66 58 67 59 68 60 69 61 70 6 71 7 72 8 73 9 74
REMARK SMILES IDX 10 75 28 76 11 77 13 78 12 79 14 80 15 81 16 82 17 83 27 84
REMARK SMILES IDX 18 85 26 86 19 87 20 89 21 90 22 91 25 92 23 93 24 94
REMARK H PARENT 85 23 53 34 19 88
REMARK Flexibility Score: inf
ROOT
ATOM      1  C   UNL A   1      37.275  21.708  25.439  1.00  0.00     0.274 C 
ENDROOT
BRANCH   1   2
ATOM      2  C   UNL A   1      38.466  20.739  25.529  1.00  0.00     0.275 C 
BRANCH   2   3
ATOM      3  O   UNL A   1      39.452  21.059  26.531  1.00  0.00    -0.458 OA
BRANCH   3   4
ATOM      4  C   UNL A   1      40.424  22.007  26.592  1.00  0.00     0.338 C 
ATOM      5  O   UNL A   1      41.567  21.663  26.288  1.00  0.00    -0.246 OA
BRANCH   4   6
ATOM      6  C   UNL A   1      40.245  23.380  27.195  1.00  0.00     0.060 A 
ATOM      7  C   UNL A   1      40.994  23.942  28.226  1.00  0.00     0.016 A 
ATOM      8  C   UNL A   1      39.317  24.222  26.551  1.00  0.00     0.016 A 
ATOM      9  C   UNL A   1      40.987  25.335  28.451  1.00  0.00     0.010 A 
ATOM     10  C   UNL A   1      39.359  25.614  26.736  1.00  0.00     0.010 A 
ATOM     11  C   UNL A   1      40.290  26.209  27.605  1.00  0.00    -0.014 A 
BRANCH  11  12
ATOM     12  C   UNL A   1      40.342  27.745  27.725  1.00  0.00     0.031 A 
ATOM     13  C   UNL A   1      41.799  28.208  27.782  1.00  0.00     0.074 A 
ATOM     14  C   UNL A   1      39.270  28.667  27.949  1.00  0.00     0.049 A 
ATOM     15  N   UNL A   1      42.358  29.298  28.245  1.00  0.00    -0.248 NA
ATOM     16  C   UNL A   1      42.779  27.183  27.346  1.00  0.00     0.031 C 
ATOM     17  C   UNL A   1      37.104  28.776  28.293  1.00  0.00     0.029 A 
ATOM     18  N   UNL A   1      39.739  30.345  28.647  1.00  0.00    -0.354 N 
ATOM     19  C   UNL A   1      43.730  29.080  28.112  1.00  0.00     0.074 A 
ATOM     20  C   UNL A   1      43.911  27.691  27.779  1.00  0.00     0.031 C 
ATOM     21  C   UNL A   1      36.739  30.209  29.037  1.00  0.00     0.029 A 
ATOM     22  C   UNL A   1      38.297  31.211  29.326  1.00  0.00     0.049 A 
ATOM     23  H   UNL A   1      40.654  30.708  28.644  1.00  0.00     0.167 HD
ATOM     24  C   UNL A   1      44.766  29.952  28.146  1.00  0.00     0.034 A 
ATOM     25  C   UNL A   1      38.216  32.345  30.056  1.00  0.00     0.034 A 
ATOM     26  C   UNL A   1      44.631  31.323  28.544  1.00  0.00     0.049 A 
ATOM     27  C   UNL A   1      39.459  33.117  30.253  1.00  0.00     0.074 A 
ATOM     28  C   UNL A   1      45.604  32.301  28.567  1.00  0.00     0.029 A 
ATOM     29  N   UNL A   1      43.463  31.896  29.040  1.00  0.00    -0.354 N 
ATOM     30  N   UNL A   1      40.691  32.778  29.969  1.00  0.00    -0.248 NA
ATOM     31  C   UNL A   1      39.283  34.460  30.804  1.00  0.00     0.031 C 
ATOM     32  C   UNL A   1      45.057  33.431  29.176  1.00  0.00     0.029 A 
ATOM     33  C   UNL A   1      43.712  33.201  29.427  1.00  0.00     0.049 A 
ATOM     34  H   UNL A   1      42.592  31.442  29.105  1.00  0.00     0.167 HD
ATOM     35  C   UNL A   1      41.441  33.913  30.214  1.00  0.00     0.074 A 
ATOM     36  C   UNL A   1      40.525  34.913  30.740  1.00  0.00     0.031 C 
ATOM     37  C   UNL A   1      42.753  34.136  29.964  1.00  0.00     0.034 A 
BRANCH  24  38
ATOM     38  C   UNL A   1      46.117  29.393  27.728  1.00  0.00     0.023 A 
ATOM     39  C   UNL A   1      46.418  29.191  26.362  1.00  0.00     0.031 A 
ATOM     40  C   UNL A   1      47.031  28.908  28.674  1.00  0.00     0.131 A 
ATOM     41  C   UNL A   1      47.496  28.372  25.994  1.00  0.00     0.055 A 
ATOM     42  C   UNL A   1      48.177  28.203  28.291  1.00  0.00     0.041 A 
ATOM     43  F   UNL A   1      46.800  29.053  29.988  1.00  0.00    -0.206 F 
ATOM     44  C   UNL A   1      48.397  27.900  26.948  1.00  0.00     0.022 A 
BRANCH  41  45
ATOM     45  S   UNL A   1      47.540  27.723  24.296  1.00  0.00     0.124 S 
ATOM     46  O   UNL A   1      46.841  28.775  23.560  1.00  0.00    -0.237 OA
ATOM     47  O   UNL A   1      48.970  27.607  24.036  1.00  0.00    -0.237 OA
ATOM     48  O   UNL A   1      46.817  26.457  24.395  1.00  0.00    -0.744 OA
ENDBRANCH  41  45
ENDBRANCH  24  38
BRANCH  25  49
ATOM     49  C   UNL A   1      36.917  32.770  30.658  1.00  0.00     0.023 A 
ATOM     50  C   UNL A   1      36.003  33.602  29.995  1.00  0.00     0.031 A 
ATOM     51  C   UNL A   1      36.567  32.330  31.947  1.00  0.00     0.131 A 
ATOM     52  C   UNL A   1      34.763  33.900  30.600  1.00  0.00     0.055 A 
ATOM     53  C   UNL A   1      35.292  32.528  32.487  1.00  0.00     0.041 A 
ATOM     54  F   UNL A   1      37.466  31.677  32.699  1.00  0.00    -0.206 F 
ATOM     55  C   UNL A   1      34.372  33.308  31.803  1.00  0.00     0.022 A 
BRANCH  52  56
ATOM     56  S   UNL A   1      33.708  35.183  29.865  1.00  0.00     0.124 S 
ATOM     57  O   UNL A   1      34.550  35.658  28.773  1.00  0.00    -0.237 OA
ATOM     58  O   UNL A   1      32.521  34.427  29.480  1.00  0.00    -0.237 OA
ATOM     59  O   UNL A   1      33.511  36.133  30.957  1.00  0.00    -0.744 OA
ENDBRANCH  52  56
ENDBRANCH  25  49
BRANCH  37  60
ATOM     60  C   UNL A   1      43.221  35.543  30.164  1.00  0.00     0.023 A 
ATOM     61  C   UNL A   1      43.679  35.998  31.407  1.00  0.00     0.031 A 
ATOM     62  C   UNL A   1      43.201  36.432  29.076  1.00  0.00     0.131 A 
ATOM     63  C   UNL A   1      44.058  37.336  31.542  1.00  0.00     0.055 A 
ATOM     64  C   UNL A   1      43.662  37.737  29.198  1.00  0.00     0.041 A 
ATOM     65  F   UNL A   1      42.746  36.034  27.877  1.00  0.00    -0.206 F 
ATOM     66  C   UNL A   1      44.086  38.199  30.442  1.00  0.00     0.022 A 
BRANCH  63  67
ATOM     67  S   UNL A   1      44.416  37.958  33.203  1.00  0.00     0.124 S 
ATOM     68  O   UNL A   1      44.347  39.402  32.999  1.00  0.00    -0.237 OA
ATOM     69  O   UNL A   1      43.339  37.375  33.996  1.00  0.00    -0.237 OA
ATOM     70  O   UNL A   1      45.750  37.432  33.483  1.00  0.00    -0.744 OA
ENDBRANCH  63  67
ENDBRANCH  37  60
ENDBRANCH  11  12
ENDBRANCH   4   6
ENDBRANCH   3   4
ENDBRANCH   2   3
ENDBRANCH   1   2
BRANCH   1  71
ATOM     71  O   UNL A   1      36.376  21.358  24.383  1.00  0.00    -0.462 OA
BRANCH  71  72
ATOM     72  C   UNL A   1      35.087  20.947  24.634  1.00  0.00     0.310 C 
ATOM     73  O   UNL A   1      34.783  19.821  24.999  1.00  0.00    -0.252 OA
BRANCH  72  74
ATOM     74  C   UNL A   1      34.104  22.128  24.506  1.00  0.00     0.119 C 
ATOM     75  C   UNL A   1      32.929  21.611  23.680  1.00  0.00     0.019 C 
ATOM     76  C   UNL A   1      33.644  22.833  25.824  1.00  0.00     0.134 C 
ATOM     77  C   UNL A   1      31.820  22.592  23.579  1.00  0.00     0.022 C 
ATOM     78  N   UNL A   1      32.328  23.532  25.686  1.00  0.00    -0.342 N 
ATOM     79  C   UNL A   1      31.390  22.752  24.990  1.00  0.00     0.119 C 
BRANCH  78  80
ATOM     80  C   UNL A   1      31.951  24.777  26.159  1.00  0.00     0.226 C 
ATOM     81  O   UNL A   1      30.803  24.949  26.583  1.00  0.00    -0.275 OA
BRANCH  80  82
ATOM     82  C   UNL A   1      32.962  26.025  26.133  1.00  0.00     0.090 C 
ATOM     83  C   UNL A   1      32.370  27.376  26.547  1.00  0.00     0.075 C 
ATOM     84  C   UNL A   1      33.934  26.250  24.951  1.00  0.00     0.075 C 
ATOM     85  C   UNL A   1      31.720  28.170  25.412  1.00  0.00     0.263 C 
ATOM     86  C   UNL A   1      33.575  27.337  23.897  1.00  0.00     0.263 C 
ATOM     87  N   UNL A   1      32.460  28.234  24.172  1.00  0.00    -0.329 N 
ATOM     88  H   UNL A   1      32.988  28.978  24.629  1.00  0.00     0.348 HD
BRANCH  87  89
ATOM     89  C   UNL A   1      31.868  28.905  22.994  1.00  0.00     0.338 C 
BRANCH  89  90
ATOM     90  C   UNL A   1      30.421  29.573  23.112  1.00  0.00     0.157 A 
ATOM     91  C   UNL A   1      29.294  31.069  23.954  1.00  0.00     0.052 A 
ATOM     92  O   UNL A   1      29.350  29.315  21.602  1.00  0.00    -0.463 OA
ATOM     93  C   UNL A   1      27.845  31.376  22.804  1.00  0.00     0.042 A 
ATOM     94  C   UNL A   1      27.887  30.372  21.598  1.00  0.00     0.195 A 
ENDBRANCH  89  90
ENDBRANCH  87  89
ENDBRANCH  80  82
ENDBRANCH  78  80
ENDBRANCH  72  74
ENDBRANCH  71  72
ENDBRANCH   1  71
TORSDOF 18
ENDMDL
