MODEL 1
REMARK VINA RESULT:     -12.5      0.000      0.000
REMARK SMILES CN1C(=O)C[C@@H](C(=O)OCCOC(=O)c2ccc(-c3c4nc(c(-c5cc(S(=O)(=O)[O-])ccc5F)c5ccc([nH]5)c(-c5cc(S(=O)(=O)[O-])ccc5F)c5nc(c(-c6cc(S(=O)(=O)[O-])ccc6F)c6ccc3[nH]6)C=C5)C=C4)cc2)C12CCN(C(=O)c1ccccc1-n1cccn1)CC2
REMARK SMILES IDX 11 1 10 2 9 3 7 4 8 5 6 6 1 7 2 8 3 9 78 10 4 11 5 12 79 13
REMARK SMILES IDX 96 14 80 15 95 16 81 17 82 18 83 19 84 20 85 21 89 22 86 23
REMARK SMILES IDX 88 24 87 25 90 26 91 27 94 28 92 29 93 30 12 31 13 32 14 33
REMARK SMILES IDX 15 34 16 35 77 36 17 37 76 38 18 39 19 40 20 41 70 42 21 43
REMARK SMILES IDX 75 44 69 45 71 46 22 47 74 48 68 49 67 50 23 52 55 53 35 54
REMARK SMILES IDX 54 55 36 56 39 57 53 58 72 59 37 60 38 61 52 63 73 64 40 65
REMARK SMILES IDX 24 66 25 67 33 68 26 69 32 70 34 71 31 72 27 73 28 74 29 75
REMARK SMILES IDX 30 76 56 77 57 78 65 79 58 80 64 81 66 82 63 83 59 84 60 85
REMARK SMILES IDX 61 86 62 87 41 88 42 89 50 90 43 91 49 92 51 93 48 94 44 95
REMARK SMILES IDX 45 96 46 97 47 98
REMARK H PARENT 71 51 39 62
REMARK Flexibility Score: inf
ROOT
ATOM      1  C   UNL A   1      31.779  30.786  26.814  1.00  0.00     0.275 C 
ENDROOT
BRANCH   1   2
ATOM      2  C   UNL A   1      31.803  29.431  27.523  1.00  0.00     0.274 C 
BRANCH   2   3
ATOM      3  O   UNL A   1      31.712  28.350  26.570  1.00  0.00    -0.462 OA
BRANCH   3   4
ATOM      4  C   UNL A   1      32.808  28.156  25.808  1.00  0.00     0.311 C 
ATOM      5  O   UNL A   1      33.956  28.177  26.246  1.00  0.00    -0.252 OA
BRANCH   4   6
ATOM      6  C   UNL A   1      32.550  27.927  24.327  1.00  0.00     0.134 C 
ATOM      7  C   UNL A   1      29.066  26.844  23.444  1.00  0.00     0.147 C 
ATOM      8  N   UNL A   1      30.325  27.496  23.749  1.00  0.00    -0.339 N 
ATOM      9  C   UNL A   1      30.445  28.878  23.743  1.00  0.00     0.223 C 
ATOM     10  C   UNL A   1      31.625  26.805  23.781  1.00  0.00     0.060 C 
ATOM     11  O   UNL A   1      29.538  29.689  23.635  1.00  0.00    -0.275 OA
ATOM     12  C   UNL A   1      31.904  29.227  23.823  1.00  0.00     0.118 C 
ATOM     13  C   UNL A   1      31.572  25.484  24.577  1.00  0.00     0.051 C 
ATOM     14  C   UNL A   1      32.045  26.446  22.314  1.00  0.00     0.051 C 
ATOM     15  C   UNL A   1      32.872  24.697  24.491  1.00  0.00     0.122 C 
ATOM     16  C   UNL A   1      33.279  25.540  22.218  1.00  0.00     0.122 C 
ATOM     17  N   UNL A   1      33.165  24.383  23.099  1.00  0.00    -0.338 N 
ATOM     18  C   UNL A   1      33.445  23.114  22.580  1.00  0.00     0.256 C 
ATOM     19  O   UNL A   1      33.744  22.925  21.404  1.00  0.00    -0.269 OA
BRANCH  18  20
ATOM     20  C   UNL A   1      33.391  21.925  23.463  1.00  0.00     0.065 A 
ATOM     21  C   UNL A   1      32.268  21.096  23.309  1.00  0.00     0.016 A 
ATOM     22  C   UNL A   1      34.409  21.557  24.357  1.00  0.00     0.077 A 
ATOM     23  C   UNL A   1      32.195  19.874  23.981  1.00  0.00     0.001 A 
ATOM     24  C   UNL A   1      34.357  20.294  24.976  1.00  0.00     0.029 A 
ATOM     25  C   UNL A   1      33.251  19.462  24.791  1.00  0.00     0.002 A 
BRANCH  22  26
ATOM     26  N   UNL A   1      35.486  22.418  24.683  1.00  0.00    -0.240 N 
ATOM     27  C   UNL A   1      36.598  22.731  23.929  1.00  0.00     0.115 A 
ATOM     28  N   UNL A   1      35.504  23.085  25.872  1.00  0.00    -0.177 NA
ATOM     29  C   UNL A   1      37.393  23.553  24.692  1.00  0.00     0.042 A 
ATOM     30  C   UNL A   1      36.673  23.726  25.882  1.00  0.00     0.135 A 
ENDBRANCH  22  26
ENDBRANCH  18  20
ENDBRANCH   4   6
ENDBRANCH   3   4
ENDBRANCH   2   3
ENDBRANCH   1   2
BRANCH   1  31
ATOM     31  O   UNL A   1      33.124  31.257  26.610  1.00  0.00    -0.458 OA
BRANCH  31  32
ATOM     32  C   UNL A   1      33.516  32.277  27.409  1.00  0.00     0.338 C 
ATOM     33  O   UNL A   1      32.906  33.315  27.607  1.00  0.00    -0.246 OA
BRANCH  32  34
ATOM     34  C   UNL A   1      34.792  31.952  28.090  1.00  0.00     0.060 A 
ATOM     35  C   UNL A   1      35.842  32.873  28.150  1.00  0.00     0.016 A 
ATOM     36  C   UNL A   1      34.983  30.658  28.571  1.00  0.00     0.016 A 
ATOM     37  C   UNL A   1      37.094  32.486  28.628  1.00  0.00     0.010 A 
ATOM     38  C   UNL A   1      36.205  30.304  29.148  1.00  0.00     0.010 A 
ATOM     39  C   UNL A   1      37.280  31.210  29.172  1.00  0.00    -0.014 A 
BRANCH  39  40
ATOM     40  C   UNL A   1      38.565  30.827  29.821  1.00  0.00     0.031 A 
ATOM     41  C   UNL A   1      39.477  29.817  29.178  1.00  0.00     0.074 A 
ATOM     42  C   UNL A   1      38.869  31.324  31.037  1.00  0.00     0.049 A 
ATOM     43  N   UNL A   1      40.490  29.169  29.690  1.00  0.00    -0.248 NA
ATOM     44  C   UNL A   1      39.189  29.477  27.778  1.00  0.00     0.031 C 
ATOM     45  C   UNL A   1      38.079  32.318  31.768  1.00  0.00     0.029 A 
ATOM     46  N   UNL A   1      39.908  31.039  31.887  1.00  0.00    -0.354 N 
ATOM     47  C   UNL A   1      40.930  28.299  28.697  1.00  0.00     0.074 A 
ATOM     48  C   UNL A   1      40.058  28.501  27.556  1.00  0.00     0.031 C 
ATOM     49  C   UNL A   1      38.655  32.556  32.952  1.00  0.00     0.029 A 
ATOM     50  C   UNL A   1      39.802  31.669  33.106  1.00  0.00     0.049 A 
ATOM     51  H   UNL A   1      40.655  30.444  31.649  1.00  0.00     0.167 HD
ATOM     52  C   UNL A   1      41.960  27.414  28.743  1.00  0.00     0.034 A 
ATOM     53  C   UNL A   1      40.497  31.510  34.248  1.00  0.00     0.034 A 
ATOM     54  C   UNL A   1      42.836  27.259  29.883  1.00  0.00     0.049 A 
ATOM     55  C   UNL A   1      41.615  30.508  34.289  1.00  0.00     0.074 A 
ATOM     56  C   UNL A   1      43.953  26.449  30.010  1.00  0.00     0.029 A 
ATOM     57  N   UNL A   1      42.693  27.920  31.099  1.00  0.00    -0.354 N 
ATOM     58  N   UNL A   1      42.015  29.683  33.351  1.00  0.00    -0.248 NA
ATOM     59  C   UNL A   1      42.371  30.417  35.543  1.00  0.00     0.031 C 
ATOM     60  C   UNL A   1      44.437  26.564  31.318  1.00  0.00     0.029 A 
ATOM     61  C   UNL A   1      43.674  27.505  31.989  1.00  0.00     0.049 A 
ATOM     62  H   UNL A   1      41.996  28.585  31.299  1.00  0.00     0.167 HD
ATOM     63  C   UNL A   1      43.079  28.976  33.900  1.00  0.00     0.074 A 
ATOM     64  C   UNL A   1      43.268  29.488  35.243  1.00  0.00     0.031 C 
ATOM     65  C   UNL A   1      43.834  27.996  33.340  1.00  0.00     0.034 A 
BRANCH  52  66
ATOM     66  C   UNL A   1      42.149  26.499  27.552  1.00  0.00     0.023 A 
ATOM     67  C   UNL A   1      41.663  25.180  27.526  1.00  0.00     0.031 A 
ATOM     68  C   UNL A   1      42.863  26.953  26.427  1.00  0.00     0.131 A 
ATOM     69  C   UNL A   1      41.970  24.341  26.443  1.00  0.00     0.055 A 
ATOM     70  C   UNL A   1      43.091  26.140  25.315  1.00  0.00     0.041 A 
ATOM     71  F   UNL A   1      43.373  28.195  26.396  1.00  0.00    -0.206 F 
ATOM     72  C   UNL A   1      42.658  24.818  25.325  1.00  0.00     0.022 A 
BRANCH  69  73
ATOM     73  S   UNL A   1      41.602  22.569  26.584  1.00  0.00     0.124 S 
ATOM     74  O   UNL A   1      42.354  22.213  27.785  1.00  0.00    -0.237 OA
ATOM     75  O   UNL A   1      40.149  22.558  26.707  1.00  0.00    -0.237 OA
ATOM     76  O   UNL A   1      42.129  22.009  25.341  1.00  0.00    -0.744 OA
ENDBRANCH  69  73
ENDBRANCH  52  66
BRANCH  53  77
ATOM     77  C   UNL A   1      40.094  32.271  35.461  1.00  0.00     0.023 A 
ATOM     78  C   UNL A   1      39.114  31.781  36.335  1.00  0.00     0.031 A 
ATOM     79  C   UNL A   1      40.716  33.493  35.777  1.00  0.00     0.131 A 
ATOM     80  C   UNL A   1      38.770  32.518  37.478  1.00  0.00     0.055 A 
ATOM     81  C   UNL A   1      40.403  34.200  36.938  1.00  0.00     0.041 A 
ATOM     82  F   UNL A   1      41.668  33.997  34.977  1.00  0.00    -0.206 F 
ATOM     83  C   UNL A   1      39.420  33.715  37.794  1.00  0.00     0.022 A 
BRANCH  80  84
ATOM     84  S   UNL A   1      37.435  31.903  38.540  1.00  0.00     0.124 S 
ATOM     85  O   UNL A   1      37.201  30.576  37.983  1.00  0.00    -0.237 OA
ATOM     86  O   UNL A   1      38.054  31.945  39.860  1.00  0.00    -0.237 OA
ATOM     87  O   UNL A   1      36.360  32.869  38.327  1.00  0.00    -0.744 OA
ENDBRANCH  80  84
ENDBRANCH  53  77
BRANCH  65  88
ATOM     88  C   UNL A   1      44.954  27.440  34.184  1.00  0.00     0.023 A 
ATOM     89  C   UNL A   1      44.756  26.352  35.054  1.00  0.00     0.031 A 
ATOM     90  C   UNL A   1      46.231  28.029  34.143  1.00  0.00     0.131 A 
ATOM     91  C   UNL A   1      45.801  25.925  35.887  1.00  0.00     0.055 A 
ATOM     92  C   UNL A   1      47.282  27.561  34.931  1.00  0.00     0.041 A 
ATOM     93  F   UNL A   1      46.474  29.074  33.336  1.00  0.00    -0.206 F 
ATOM     94  C   UNL A   1      47.067  26.512  35.820  1.00  0.00     0.022 A 
BRANCH  91  95
ATOM     95  S   UNL A   1      45.459  24.649  37.132  1.00  0.00     0.124 S 
ATOM     96  O   UNL A   1      45.998  23.453  36.495  1.00  0.00    -0.237 OA
ATOM     97  O   UNL A   1      46.192  25.141  38.293  1.00  0.00    -0.237 OA
ATOM     98  O   UNL A   1      44.003  24.679  37.261  1.00  0.00    -0.744 OA
ENDBRANCH  91  95
ENDBRANCH  65  88
ENDBRANCH  39  40
ENDBRANCH  32  34
ENDBRANCH  31  32
ENDBRANCH   1  31
TORSDOF 16
ENDMDL
MODEL 2
REMARK VINA RESULT:     -12.5      4.817      8.033
REMARK SMILES CN1C(=O)C[C@@H](C(=O)OCCOC(=O)c2ccc(-c3c4nc(c(-c5cc(S(=O)(=O)[O-])ccc5F)c5ccc([nH]5)c(-c5cc(S(=O)(=O)[O-])ccc5F)c5nc(c(-c6cc(S(=O)(=O)[O-])ccc6F)c6ccc3[nH]6)C=C5)C=C4)cc2)C12CCN(C(=O)c1ccccc1-n1cccn1)CC2
REMARK SMILES IDX 11 1 10 2 9 3 7 4 8 5 6 6 1 7 2 8 3 9 78 10 4 11 5 12 79 13
REMARK SMILES IDX 96 14 80 15 95 16 81 17 82 18 83 19 84 20 85 21 89 22 86 23
REMARK SMILES IDX 88 24 87 25 90 26 91 27 94 28 92 29 93 30 12 31 13 32 14 33
REMARK SMILES IDX 15 34 16 35 77 36 17 37 76 38 18 39 19 40 20 41 70 42 21 43
REMARK SMILES IDX 75 44 69 45 71 46 22 47 74 48 68 49 67 50 23 52 55 53 35 54
REMARK SMILES IDX 54 55 36 56 39 57 53 58 72 59 37 60 38 61 52 63 73 64 40 65
REMARK SMILES IDX 24 66 25 67 33 68 26 69 32 70 34 71 31 72 27 73 28 74 29 75
REMARK SMILES IDX 30 76 56 77 57 78 65 79 58 80 64 81 66 82 63 83 59 84 60 85
REMARK SMILES IDX 61 86 62 87 41 88 42 89 50 90 43 91 49 92 51 93 48 94 44 95
REMARK SMILES IDX 45 96 46 97 47 98
REMARK H PARENT 71 51 39 62
REMARK Flexibility Score: inf
ROOT
ATOM      1  C   UNL A   1      37.551  20.726  24.717  1.00  0.00     0.275 C 
ENDROOT
BRANCH   1   2
ATOM      2  C   UNL A   1      36.132  21.287  24.603  1.00  0.00     0.274 C 
BRANCH   2   3
ATOM      3  O   UNL A   1      35.196  20.472  25.341  1.00  0.00    -0.462 OA
BRANCH   3   4
ATOM      4  C   UNL A   1      34.462  21.125  26.265  1.00  0.00     0.311 C 
ATOM      5  O   UNL A   1      34.912  21.521  27.338  1.00  0.00    -0.252 OA
BRANCH   4   6
ATOM      6  C   UNL A   1      32.997  21.335  25.917  1.00  0.00     0.134 C 
ATOM      7  C   UNL A   1      32.289  22.133  22.319  1.00  0.00     0.147 C 
ATOM      8  N   UNL A   1      32.529  21.585  23.639  1.00  0.00    -0.339 N 
ATOM      9  C   UNL A   1      32.510  20.217  23.870  1.00  0.00     0.223 C 
ATOM     10  C   UNL A   1      32.502  22.379  24.880  1.00  0.00     0.060 C 
ATOM     11  O   UNL A   1      32.442  19.336  23.027  1.00  0.00    -0.275 OA
ATOM     12  C   UNL A   1      32.517  19.988  25.355  1.00  0.00     0.118 C 
ATOM     13  C   UNL A   1      33.306  23.691  24.759  1.00  0.00     0.051 C 
ATOM     14  C   UNL A   1      31.018  22.772  25.197  1.00  0.00     0.051 C 
ATOM     15  C   UNL A   1      33.161  24.579  25.985  1.00  0.00     0.122 C 
ATOM     16  C   UNL A   1      30.867  23.775  26.347  1.00  0.00     0.122 C 
ATOM     17  N   UNL A   1      31.758  24.918  26.184  1.00  0.00    -0.338 N 
ATOM     18  C   UNL A   1      31.233  26.206  26.335  1.00  0.00     0.256 C 
ATOM     19  O   UNL A   1      30.046  26.420  26.560  1.00  0.00    -0.269 OA
BRANCH  18  20
ATOM     20  C   UNL A   1      32.124  27.386  26.228  1.00  0.00     0.065 A 
ATOM     21  C   UNL A   1      32.463  28.010  27.439  1.00  0.00     0.016 A 
ATOM     22  C   UNL A   1      32.688  27.845  25.028  1.00  0.00     0.077 A 
ATOM     23  C   UNL A   1      33.416  29.031  27.465  1.00  0.00     0.001 A 
ATOM     24  C   UNL A   1      33.695  28.828  25.073  1.00  0.00     0.029 A 
ATOM     25  C   UNL A   1      34.050  29.419  26.287  1.00  0.00     0.002 A 
BRANCH  22  26
ATOM     26  N   UNL A   1      32.269  27.374  23.759  1.00  0.00    -0.240 N 
ATOM     27  C   UNL A   1      31.079  27.610  23.101  1.00  0.00     0.115 A 
ATOM     28  N   UNL A   1      33.092  26.592  23.003  1.00  0.00    -0.177 NA
ATOM     29  C   UNL A   1      31.107  26.888  21.932  1.00  0.00     0.042 A 
ATOM     30  C   UNL A   1      32.365  26.272  21.933  1.00  0.00     0.135 A 
ENDBRANCH  22  26
ENDBRANCH  18  20
ENDBRANCH   4   6
ENDBRANCH   3   4
ENDBRANCH   2   3
ENDBRANCH   1   2
BRANCH   1  31
ATOM     31  O   UNL A   1      38.023  20.857  26.070  1.00  0.00    -0.458 OA
BRANCH  31  32
ATOM     32  C   UNL A   1      39.368  20.898  26.220  1.00  0.00     0.338 C 
ATOM     33  O   UNL A   1      40.137  19.958  26.107  1.00  0.00    -0.246 OA
BRANCH  32  34
ATOM     34  C   UNL A   1      39.825  22.282  26.490  1.00  0.00     0.060 A 
ATOM     35  C   UNL A   1      38.971  23.377  26.331  1.00  0.00     0.016 A 
ATOM     36  C   UNL A   1      41.170  22.495  26.793  1.00  0.00     0.016 A 
ATOM     37  C   UNL A   1      39.470  24.678  26.408  1.00  0.00     0.010 A 
ATOM     38  C   UNL A   1      41.643  23.797  26.976  1.00  0.00     0.010 A 
ATOM     39  C   UNL A   1      40.802  24.905  26.773  1.00  0.00    -0.014 A 
BRANCH  39  40
ATOM     40  C   UNL A   1      41.315  26.284  27.006  1.00  0.00     0.031 A 
ATOM     41  C   UNL A   1      42.681  26.686  26.519  1.00  0.00     0.074 A 
ATOM     42  C   UNL A   1      40.583  27.151  27.734  1.00  0.00     0.049 A 
ATOM     43  N   UNL A   1      43.402  27.729  26.836  1.00  0.00    -0.248 NA
ATOM     44  C   UNL A   1      43.329  25.771  25.569  1.00  0.00     0.031 C 
ATOM     45  C   UNL A   1      39.238  26.895  28.256  1.00  0.00     0.029 A 
ATOM     46  N   UNL A   1      40.878  28.413  28.188  1.00  0.00    -0.354 N 
ATOM     47  C   UNL A   1      44.614  27.574  26.171  1.00  0.00     0.074 A 
ATOM     48  C   UNL A   1      44.528  26.324  25.442  1.00  0.00     0.031 C 
ATOM     49  C   UNL A   1      38.828  27.958  28.959  1.00  0.00     0.029 A 
ATOM     50  C   UNL A   1      39.910  28.932  29.016  1.00  0.00     0.049 A 
ATOM     51  H   UNL A   1      41.700  28.897  27.945  1.00  0.00     0.167 HD
ATOM     52  C   UNL A   1      45.695  28.398  26.179  1.00  0.00     0.034 A 
ATOM     53  C   UNL A   1      39.908  30.032  29.793  1.00  0.00     0.034 A 
ATOM     54  C   UNL A   1      45.739  29.658  26.888  1.00  0.00     0.049 A 
ATOM     55  C   UNL A   1      41.121  30.917  29.810  1.00  0.00     0.074 A 
ATOM     56  C   UNL A   1      46.752  30.604  26.903  1.00  0.00     0.029 A 
ATOM     57  N   UNL A   1      44.734  30.148  27.715  1.00  0.00    -0.354 N 
ATOM     58  N   UNL A   1      42.265  30.756  29.189  1.00  0.00    -0.248 NA
ATOM     59  C   UNL A   1      41.040  32.128  30.634  1.00  0.00     0.031 C 
ATOM     60  C   UNL A   1      46.391  31.624  27.792  1.00  0.00     0.029 A 
ATOM     61  C   UNL A   1      45.120  31.359  28.274  1.00  0.00     0.049 A 
ATOM     62  H   UNL A   1      43.874  29.700  27.880  1.00  0.00     0.167 HD
ATOM     63  C   UNL A   1      43.042  31.855  29.542  1.00  0.00     0.074 A 
ATOM     64  C   UNL A   1      42.227  32.677  30.414  1.00  0.00     0.031 C 
ATOM     65  C   UNL A   1      44.313  32.156  29.171  1.00  0.00     0.034 A 
BRANCH  52  66
ATOM     66  C   UNL A   1      46.937  27.928  25.453  1.00  0.00     0.023 A 
ATOM     67  C   UNL A   1      47.163  28.191  24.091  1.00  0.00     0.031 A 
ATOM     68  C   UNL A   1      47.904  27.170  26.140  1.00  0.00     0.131 A 
ATOM     69  C   UNL A   1      48.277  27.631  23.444  1.00  0.00     0.055 A 
ATOM     70  C   UNL A   1      49.054  26.688  25.511  1.00  0.00     0.041 A 
ATOM     71  F   UNL A   1      47.739  26.864  27.437  1.00  0.00    -0.206 F 
ATOM     72  C   UNL A   1      49.237  26.903  24.149  1.00  0.00     0.022 A 
BRANCH  69  73
ATOM     73  S   UNL A   1      48.368  27.725  21.634  1.00  0.00     0.124 S 
ATOM     74  O   UNL A   1      48.636  26.333  21.285  1.00  0.00    -0.237 OA
ATOM     75  O   UNL A   1      47.049  28.237  21.278  1.00  0.00    -0.237 OA
ATOM     76  O   UNL A   1      49.480  28.643  21.394  1.00  0.00    -0.744 OA
ENDBRANCH  69  73
ENDBRANCH  52  66
BRANCH  53  77
ATOM     77  C   UNL A   1      38.740  30.302  30.675  1.00  0.00     0.023 A 
ATOM     78  C   UNL A   1      37.673  31.101  30.243  1.00  0.00     0.031 A 
ATOM     79  C   UNL A   1      38.666  29.730  31.958  1.00  0.00     0.131 A 
ATOM     80  C   UNL A   1      36.580  31.321  31.095  1.00  0.00     0.055 A 
ATOM     81  C   UNL A   1      37.557  29.915  32.784  1.00  0.00     0.041 A 
ATOM     82  F   UNL A   1      39.659  28.948  32.410  1.00  0.00    -0.206 F 
ATOM     83  C   UNL A   1      36.508  30.720  32.355  1.00  0.00     0.022 A 
BRANCH  80  84
ATOM     84  S   UNL A   1      35.258  32.433  30.544  1.00  0.00     0.124 S 
ATOM     85  O   UNL A   1      35.979  33.688  30.373  1.00  0.00    -0.237 OA
ATOM     86  O   UNL A   1      34.805  31.782  29.320  1.00  0.00    -0.237 OA
ATOM     87  O   UNL A   1      34.306  32.404  31.651  1.00  0.00    -0.744 OA
ENDBRANCH  80  84
ENDBRANCH  53  77
BRANCH  65  88
ATOM     88  C   UNL A   1      44.881  33.452  29.696  1.00  0.00     0.023 A 
ATOM     89  C   UNL A   1      44.721  34.665  29.000  1.00  0.00     0.031 A 
ATOM     90  C   UNL A   1      45.621  33.468  30.891  1.00  0.00     0.131 A 
ATOM     91  C   UNL A   1      45.341  35.830  29.477  1.00  0.00     0.055 A 
ATOM     92  C   UNL A   1      46.186  34.642  31.390  1.00  0.00     0.041 A 
ATOM     93  F   UNL A   1      45.811  32.339  31.591  1.00  0.00    -0.206 F 
ATOM     94  C   UNL A   1      46.059  35.829  30.675  1.00  0.00     0.022 A 
BRANCH  91  95
ATOM     95  S   UNL A   1      45.277  37.331  28.459  1.00  0.00     0.124 S 
ATOM     96  O   UNL A   1      43.858  37.412  28.129  1.00  0.00    -0.237 OA
ATOM     97  O   UNL A   1      45.779  38.351  29.375  1.00  0.00    -0.237 OA
ATOM     98  O   UNL A   1      46.158  37.020  27.335  1.00  0.00    -0.744 OA
ENDBRANCH  91  95
ENDBRANCH  65  88
ENDBRANCH  39  40
ENDBRANCH  32  34
ENDBRANCH  31  32
ENDBRANCH   1  31
TORSDOF 16
ENDMDL
MODEL 3
REMARK VINA RESULT:     -12.5      4.900     10.115
REMARK SMILES CN1C(=O)C[C@@H](C(=O)OCCOC(=O)c2ccc(-c3c4nc(c(-c5cc(S(=O)(=O)[O-])ccc5F)c5ccc([nH]5)c(-c5cc(S(=O)(=O)[O-])ccc5F)c5nc(c(-c6cc(S(=O)(=O)[O-])ccc6F)c6ccc3[nH]6)C=C5)C=C4)cc2)C12CCN(C(=O)c1ccccc1-n1cccn1)CC2
REMARK SMILES IDX 11 1 10 2 9 3 7 4 8 5 6 6 1 7 2 8 3 9 78 10 4 11 5 12 79 13
REMARK SMILES IDX 96 14 80 15 95 16 81 17 82 18 83 19 84 20 85 21 89 22 86 23
REMARK SMILES IDX 88 24 87 25 90 26 91 27 94 28 92 29 93 30 12 31 13 32 14 33
REMARK SMILES IDX 15 34 16 35 77 36 17 37 76 38 18 39 19 40 20 41 70 42 21 43
REMARK SMILES IDX 75 44 69 45 71 46 22 47 74 48 68 49 67 50 23 52 55 53 35 54
REMARK SMILES IDX 54 55 36 56 39 57 53 58 72 59 37 60 38 61 52 63 73 64 40 65
REMARK SMILES IDX 24 66 25 67 33 68 26 69 32 70 34 71 31 72 27 73 28 74 29 75
REMARK SMILES IDX 30 76 56 77 57 78 65 79 58 80 64 81 66 82 63 83 59 84 60 85
REMARK SMILES IDX 61 86 62 87 41 88 42 89 50 90 43 91 49 92 51 93 48 94 44 95
REMARK SMILES IDX 45 96 46 97 47 98
REMARK H PARENT 71 51 39 62
REMARK Flexibility Score: inf
ROOT
ATOM      1  C   UNL A   1      37.767  20.571  24.679  1.00  0.00     0.275 C 
ENDROOT
BRANCH   1   2
ATOM      2  C   UNL A   1      36.453  19.858  25.001  1.00  0.00     0.274 C 
BRANCH   2   3
ATOM      3  O   UNL A   1      35.322  20.708  24.713  1.00  0.00    -0.462 OA
BRANCH   3   4
ATOM      4  C   UNL A   1      34.591  21.083  25.784  1.00  0.00     0.311 C 
ATOM      5  O   UNL A   1      35.066  21.267  26.903  1.00  0.00    -0.252 OA
BRANCH   4   6
ATOM      6  C   UNL A   1      33.100  21.249  25.540  1.00  0.00     0.134 C 
ATOM      7  C   UNL A   1      32.124  22.100  22.018  1.00  0.00     0.147 C 
ATOM      8  N   UNL A   1      32.471  21.531  23.305  1.00  0.00    -0.339 N 
ATOM      9  C   UNL A   1      32.513  20.159  23.504  1.00  0.00     0.223 C 
ATOM     10  C   UNL A   1      32.502  22.297  24.563  1.00  0.00     0.060 C 
ATOM     11  O   UNL A   1      32.418  19.295  22.646  1.00  0.00    -0.275 OA
ATOM     12  C   UNL A   1      32.629  19.898  24.979  1.00  0.00     0.118 C 
ATOM     13  C   UNL A   1      33.251  23.638  24.421  1.00  0.00     0.051 C 
ATOM     14  C   UNL A   1      31.031  22.632  24.989  1.00  0.00     0.051 C 
ATOM     15  C   UNL A   1      33.160  24.495  25.675  1.00  0.00     0.122 C 
ATOM     16  C   UNL A   1      30.924  23.603  26.171  1.00  0.00     0.122 C 
ATOM     17  N   UNL A   1      31.763  24.780  25.976  1.00  0.00    -0.338 N 
ATOM     18  C   UNL A   1      31.207  26.046  26.192  1.00  0.00     0.256 C 
ATOM     19  O   UNL A   1      30.031  26.213  26.501  1.00  0.00    -0.269 OA
BRANCH  18  20
ATOM     20  C   UNL A   1      32.049  27.257  26.054  1.00  0.00     0.065 A 
ATOM     21  C   UNL A   1      32.284  27.979  27.236  1.00  0.00     0.016 A 
ATOM     22  C   UNL A   1      32.665  27.661  24.860  1.00  0.00     0.077 A 
ATOM     23  C   UNL A   1      33.186  29.045  27.244  1.00  0.00     0.001 A 
ATOM     24  C   UNL A   1      33.622  28.693  24.893  1.00  0.00     0.029 A 
ATOM     25  C   UNL A   1      33.875  29.382  26.081  1.00  0.00     0.002 A 
BRANCH  22  26
ATOM     26  N   UNL A   1      32.348  27.084  23.605  1.00  0.00    -0.240 N 
ATOM     27  C   UNL A   1      31.106  26.872  23.043  1.00  0.00     0.115 A 
ATOM     28  N   UNL A   1      33.337  26.670  22.762  1.00  0.00    -0.177 NA
ATOM     29  C   UNL A   1      31.302  26.226  21.846  1.00  0.00     0.042 A 
ATOM     30  C   UNL A   1      32.694  26.118  21.733  1.00  0.00     0.135 A 
ENDBRANCH  22  26
ENDBRANCH  18  20
ENDBRANCH   4   6
ENDBRANCH   3   4
ENDBRANCH   2   3
ENDBRANCH   1   2
BRANCH   1  31
ATOM     31  O   UNL A   1      38.231  21.290  25.836  1.00  0.00    -0.458 OA
BRANCH  31  32
ATOM     32  C   UNL A   1      39.501  21.024  26.222  1.00  0.00     0.338 C 
ATOM     33  O   UNL A   1      40.061  19.941  26.168  1.00  0.00    -0.246 OA
BRANCH  32  34
ATOM     34  C   UNL A   1      40.182  22.257  26.682  1.00  0.00     0.060 A 
ATOM     35  C   UNL A   1      41.061  22.244  27.769  1.00  0.00     0.016 A 
ATOM     36  C   UNL A   1      39.839  23.472  26.089  1.00  0.00     0.016 A 
ATOM     37  C   UNL A   1      41.544  23.440  28.301  1.00  0.00     0.010 A 
ATOM     38  C   UNL A   1      40.408  24.660  26.556  1.00  0.00     0.010 A 
ATOM     39  C   UNL A   1      41.258  24.660  27.676  1.00  0.00    -0.014 A 
BRANCH  39  40
ATOM     40  C   UNL A   1      41.883  25.930  28.139  1.00  0.00     0.031 A 
ATOM     41  C   UNL A   1      41.062  26.973  28.848  1.00  0.00     0.074 A 
ATOM     42  C   UNL A   1      43.173  26.183  27.842  1.00  0.00     0.049 A 
ATOM     43  N   UNL A   1      41.345  28.225  29.096  1.00  0.00    -0.248 NA
ATOM     44  C   UNL A   1      39.734  26.551  29.315  1.00  0.00     0.031 C 
ATOM     45  C   UNL A   1      44.085  25.254  27.169  1.00  0.00     0.029 A 
ATOM     46  N   UNL A   1      43.934  27.308  28.040  1.00  0.00    -0.354 N 
ATOM     47  C   UNL A   1      40.211  28.763  29.698  1.00  0.00     0.074 A 
ATOM     48  C   UNL A   1      39.233  27.694  29.763  1.00  0.00     0.031 C 
ATOM     49  C   UNL A   1      45.275  25.845  27.007  1.00  0.00     0.029 A 
ATOM     50  C   UNL A   1      45.187  27.221  27.478  1.00  0.00     0.049 A 
ATOM     51  H   UNL A   1      43.616  28.097  28.534  1.00  0.00     0.167 HD
ATOM     52  C   UNL A   1      40.010  30.030  30.144  1.00  0.00     0.034 A 
ATOM     53  C   UNL A   1      46.141  28.154  27.295  1.00  0.00     0.034 A 
ATOM     54  C   UNL A   1      41.018  31.067  30.098  1.00  0.00     0.049 A 
ATOM     55  C   UNL A   1      45.892  29.557  27.770  1.00  0.00     0.074 A 
ATOM     56  C   UNL A   1      40.948  32.361  30.589  1.00  0.00     0.029 A 
ATOM     57  N   UNL A   1      42.277  30.936  29.521  1.00  0.00    -0.354 N 
ATOM     58  N   UNL A   1      44.814  30.058  28.326  1.00  0.00    -0.248 NA
ATOM     59  C   UNL A   1      46.987  30.516  27.591  1.00  0.00     0.031 C 
ATOM     60  C   UNL A   1      42.129  33.029  30.245  1.00  0.00     0.029 A 
ATOM     61  C   UNL A   1      42.973  32.134  29.609  1.00  0.00     0.049 A 
ATOM     62  H   UNL A   1      42.624  30.112  29.110  1.00  0.00     0.167 HD
ATOM     63  C   UNL A   1      45.105  31.396  28.571  1.00  0.00     0.074 A 
ATOM     64  C   UNL A   1      46.465  31.614  28.120  1.00  0.00     0.031 C 
ATOM     65  C   UNL A   1      44.318  32.353  29.125  1.00  0.00     0.034 A 
BRANCH  52  66
ATOM     66  C   UNL A   1      38.630  30.381  30.656  1.00  0.00     0.023 A 
ATOM     67  C   UNL A   1      37.680  31.056  29.868  1.00  0.00     0.031 A 
ATOM     68  C   UNL A   1      38.270  30.058  31.978  1.00  0.00     0.131 A 
ATOM     69  C   UNL A   1      36.459  31.458  30.434  1.00  0.00     0.055 A 
ATOM     70  C   UNL A   1      37.020  30.385  32.507  1.00  0.00     0.041 A 
ATOM     71  F   UNL A   1      39.138  29.434  32.789  1.00  0.00    -0.206 F 
ATOM     72  C   UNL A   1      36.111  31.105  31.740  1.00  0.00     0.022 A 
BRANCH  69  73
ATOM     73  S   UNL A   1      35.398  32.592  29.495  1.00  0.00     0.124 S 
ATOM     74  O   UNL A   1      35.161  31.823  28.276  1.00  0.00    -0.237 OA
ATOM     75  O   UNL A   1      34.254  32.762  30.384  1.00  0.00    -0.237 OA
ATOM     76  O   UNL A   1      36.235  33.778  29.320  1.00  0.00    -0.744 OA
ENDBRANCH  69  73
ENDBRANCH  52  66
BRANCH  53  77
ATOM     77  C   UNL A   1      47.383  27.795  26.558  1.00  0.00     0.023 A 
ATOM     78  C   UNL A   1      47.435  27.834  25.159  1.00  0.00     0.031 A 
ATOM     79  C   UNL A   1      48.550  27.436  27.258  1.00  0.00     0.131 A 
ATOM     80  C   UNL A   1      48.629  27.504  24.498  1.00  0.00     0.055 A 
ATOM     81  C   UNL A   1      49.746  27.153  26.599  1.00  0.00     0.041 A 
ATOM     82  F   UNL A   1      48.551  27.396  28.600  1.00  0.00    -0.206 F 
ATOM     83  C   UNL A   1      49.788  27.181  25.209  1.00  0.00     0.022 A 
BRANCH  80  84
ATOM     84  S   UNL A   1      48.639  27.476  22.685  1.00  0.00     0.124 S 
ATOM     85  O   UNL A   1      49.877  28.186  22.385  1.00  0.00    -0.237 OA
ATOM     86  O   UNL A   1      48.637  26.044  22.404  1.00  0.00    -0.237 OA
ATOM     87  O   UNL A   1      47.411  28.181  22.327  1.00  0.00    -0.744 OA
ENDBRANCH  80  84
ENDBRANCH  53  77
BRANCH  65  88
ATOM     88  C   UNL A   1      44.934  33.720  29.295  1.00  0.00     0.023 A 
ATOM     89  C   UNL A   1      44.729  34.747  28.355  1.00  0.00     0.031 A 
ATOM     90  C   UNL A   1      45.766  33.988  30.397  1.00  0.00     0.131 A 
ATOM     91  C   UNL A   1      45.394  35.973  28.506  1.00  0.00     0.055 A 
ATOM     92  C   UNL A   1      46.378  35.230  30.571  1.00  0.00     0.041 A 
ATOM     93  F   UNL A   1      46.003  33.043  31.320  1.00  0.00    -0.206 F 
ATOM     94  C   UNL A   1      46.204  36.227  29.615  1.00  0.00     0.022 A 
BRANCH  91  95
ATOM     95  S   UNL A   1      45.261  37.206  27.179  1.00  0.00     0.124 S 
ATOM     96  O   UNL A   1      43.837  37.161  26.866  1.00  0.00    -0.237 OA
ATOM     97  O   UNL A   1      45.733  38.421  27.834  1.00  0.00    -0.237 OA
ATOM     98  O   UNL A   1      46.141  36.682  26.136  1.00  0.00    -0.744 OA
ENDBRANCH  91  95
ENDBRANCH  65  88
ENDBRANCH  39  40
ENDBRANCH  32  34
ENDBRANCH  31  32
ENDBRANCH   1  31
TORSDOF 16
ENDMDL
