MODEL 1
REMARK VINA RESULT:     -13.4      0.000      0.000
REMARK SMILES Cc1ccccc1[C@@H]1[NH2+][C@H](C(=O)OCCOC(=O)c2ccc(-c3c4nc(c(-c5cc(S(=O)(=O)[O-])ccc5F)c5ccc([nH]5)c(-c5cc(S(=O)(=O)[O-])ccc5F)c5nc(c(-c6cc(S(=O)(=O)[O-])ccc6F)c6ccc3[nH]6)C=C5)C=C4)cc2)CC2=c3ccccc3=N[C@H]21
REMARK SMILES IDX 15 1 14 2 13 3 11 4 12 5 10 6 8 7 9 8 91 9 83 12 90 13 82 14
REMARK SMILES IDX 84 15 89 16 85 17 88 18 86 19 87 20 7 21 1 22 2 23 3 24 4 25
REMARK SMILES IDX 6 26 5 27 16 28 17 29 18 30 19 31 20 32 81 33 21 34 80 35
REMARK SMILES IDX 22 36 23 37 24 38 74 39 25 40 79 41 73 42 75 43 26 44 78 45
REMARK SMILES IDX 72 46 71 47 27 49 59 50 39 51 58 52 40 53 43 54 57 55 76 56
REMARK SMILES IDX 41 57 42 58 56 60 77 61 44 62 28 63 29 64 37 65 30 66 36 67
REMARK SMILES IDX 38 68 35 69 31 70 32 71 33 72 34 73 60 74 61 75 69 76 62 77
REMARK SMILES IDX 68 78 70 79 67 80 63 81 64 82 65 83 66 84 45 85 46 86 54 87
REMARK SMILES IDX 47 88 53 89 55 90 52 91 48 92 49 93 50 94 51 95
REMARK H PARENT 9 10 9 11 75 48 43 59
REMARK Flexibility Score: inf
ROOT
ATOM      1  C   UNL A   1      33.578  31.541  27.660  1.00  0.00     0.275 C 
ENDROOT
BRANCH   1   2
ATOM      2  C   UNL A   1      32.721  30.595  26.818  1.00  0.00     0.274 C 
BRANCH   2   3
ATOM      3  O   UNL A   1      32.660  29.287  27.392  1.00  0.00    -0.458 OA
BRANCH   3   4
ATOM      4  C   UNL A   1      33.426  28.389  26.729  1.00  0.00     0.365 C 
ATOM      5  O   UNL A   1      34.613  28.184  26.979  1.00  0.00    -0.245 OA
BRANCH   4   6
ATOM      6  C   UNL A   1      32.795  27.794  25.499  1.00  0.00     0.298 C 
ATOM      7  C   UNL A   1      31.079  27.619  23.750  1.00  0.00     0.243 C 
ATOM      8  N   UNL A   1      31.541  28.384  24.961  1.00  0.00    -0.326 N 
ATOM      9  C   UNL A   1      32.204  27.248  22.684  1.00  0.00     0.196 C 
ATOM     10  H   UNL A   1      30.816  28.345  25.678  1.00  0.00     0.347 HD
ATOM     11  H   UNL A   1      31.719  29.352  24.694  1.00  0.00     0.347 HD
ATOM     12  C   UNL A   1      33.472  26.936  23.414  1.00  0.00    -0.024 C 
ATOM     13  N   UNL A   1      31.874  25.967  21.974  1.00  0.00    -0.270 NA
ATOM     14  C   UNL A   1      33.896  27.898  24.446  1.00  0.00     0.111 C 
ATOM     15  C   UNL A   1      33.778  25.650  23.353  1.00  0.00     0.002 A 
ATOM     16  C   UNL A   1      32.760  25.135  22.431  1.00  0.00     0.066 A 
ATOM     17  C   UNL A   1      34.581  24.798  24.167  1.00  0.00     0.010 A 
ATOM     18  C   UNL A   1      32.824  23.684  22.165  1.00  0.00     0.028 A 
ATOM     19  C   UNL A   1      34.475  23.474  23.982  1.00  0.00     0.001 A 
ATOM     20  C   UNL A   1      33.638  22.927  22.924  1.00  0.00     0.002 A 
BRANCH   7  21
ATOM     21  C   UNL A   1      29.926  28.307  23.018  1.00  0.00     0.015 A 
ATOM     22  C   UNL A   1      28.112  26.735  23.944  1.00  0.00     0.045 C 
ATOM     23  C   UNL A   1      28.569  27.959  23.197  1.00  0.00    -0.042 A 
ATOM     24  C   UNL A   1      27.570  28.828  22.720  1.00  0.00     0.004 A 
ATOM     25  C   UNL A   1      27.894  29.983  22.010  1.00  0.00     0.000 A 
ATOM     26  C   UNL A   1      30.230  29.449  22.243  1.00  0.00     0.010 A 
ATOM     27  C   UNL A   1      29.224  30.276  21.742  1.00  0.00     0.001 A 
ENDBRANCH   7  21
ENDBRANCH   4   6
ENDBRANCH   3   4
ENDBRANCH   2   3
ENDBRANCH   1   2
BRANCH   1  28
ATOM     28  O   UNL A   1      34.964  31.198  27.955  1.00  0.00    -0.458 OA
BRANCH  28  29
ATOM     29  C   UNL A   1      35.690  31.629  29.022  1.00  0.00     0.338 C 
ATOM     30  O   UNL A   1      35.344  32.594  29.696  1.00  0.00    -0.246 OA
BRANCH  29  31
ATOM     31  C   UNL A   1      36.865  30.810  29.384  1.00  0.00     0.060 A 
ATOM     32  C   UNL A   1      36.697  29.643  30.158  1.00  0.00     0.016 A 
ATOM     33  C   UNL A   1      38.086  31.098  28.793  1.00  0.00     0.016 A 
ATOM     34  C   UNL A   1      37.713  28.690  30.218  1.00  0.00     0.010 A 
ATOM     35  C   UNL A   1      39.020  30.099  28.718  1.00  0.00     0.010 A 
ATOM     36  C   UNL A   1      38.855  28.912  29.455  1.00  0.00    -0.014 A 
BRANCH  36  37
ATOM     37  C   UNL A   1      40.096  28.166  29.567  1.00  0.00     0.031 A 
ATOM     38  C   UNL A   1      40.318  26.823  29.005  1.00  0.00     0.074 A 
ATOM     39  C   UNL A   1      41.098  28.966  29.996  1.00  0.00     0.049 A 
ATOM     40  N   UNL A   1      41.377  26.136  29.249  1.00  0.00    -0.248 NA
ATOM     41  C   UNL A   1      39.392  26.101  28.139  1.00  0.00     0.031 C 
ATOM     42  C   UNL A   1      42.534  28.864  29.824  1.00  0.00     0.029 A 
ATOM     43  N   UNL A   1      40.960  30.114  30.757  1.00  0.00    -0.354 N 
ATOM     44  C   UNL A   1      41.441  25.095  28.345  1.00  0.00     0.074 A 
ATOM     45  C   UNL A   1      40.128  25.044  27.758  1.00  0.00     0.031 C 
ATOM     46  C   UNL A   1      43.133  29.731  30.668  1.00  0.00     0.029 A 
ATOM     47  C   UNL A   1      42.096  30.297  31.523  1.00  0.00     0.049 A 
ATOM     48  H   UNL A   1      40.176  30.708  30.755  1.00  0.00     0.167 HD
ATOM     49  C   UNL A   1      42.660  24.521  28.123  1.00  0.00     0.034 A 
ATOM     50  C   UNL A   1      41.982  30.105  32.874  1.00  0.00     0.034 A 
ATOM     51  C   UNL A   1      43.653  25.137  29.000  1.00  0.00     0.049 A 
ATOM     52  C   UNL A   1      42.739  28.863  33.289  1.00  0.00     0.074 A 
ATOM     53  C   UNL A   1      44.599  26.126  28.796  1.00  0.00     0.029 A 
ATOM     54  N   UNL A   1      43.526  24.978  30.369  1.00  0.00    -0.354 N 
ATOM     55  N   UNL A   1      42.948  27.827  32.517  1.00  0.00    -0.248 NA
ATOM     56  C   UNL A   1      43.422  28.758  34.569  1.00  0.00     0.031 C 
ATOM     57  C   UNL A   1      44.994  26.608  30.072  1.00  0.00     0.029 A 
ATOM     58  C   UNL A   1      44.306  25.893  31.039  1.00  0.00     0.049 A 
ATOM     59  H   UNL A   1      42.956  24.304  30.804  1.00  0.00     0.167 HD
ATOM     60  C   UNL A   1      43.850  26.985  33.118  1.00  0.00     0.074 A 
ATOM     61  C   UNL A   1      44.095  27.606  34.411  1.00  0.00     0.031 C 
ATOM     62  C   UNL A   1      44.361  25.877  32.491  1.00  0.00     0.034 A 
BRANCH  49  63
ATOM     63  C   UNL A   1      43.086  23.601  26.999  1.00  0.00     0.023 A 
ATOM     64  C   UNL A   1      42.625  22.262  27.037  1.00  0.00     0.031 A 
ATOM     65  C   UNL A   1      43.919  23.912  25.912  1.00  0.00     0.131 A 
ATOM     66  C   UNL A   1      43.028  21.298  26.099  1.00  0.00     0.055 A 
ATOM     67  C   UNL A   1      44.323  22.949  24.967  1.00  0.00     0.041 A 
ATOM     68  F   UNL A   1      44.363  25.155  25.691  1.00  0.00    -0.206 F 
ATOM     69  C   UNL A   1      43.887  21.633  25.062  1.00  0.00     0.022 A 
BRANCH  66  70
ATOM     70  S   UNL A   1      42.424  19.598  26.287  1.00  0.00     0.124 S 
ATOM     71  O   UNL A   1      43.551  18.815  25.788  1.00  0.00    -0.237 OA
ATOM     72  O   UNL A   1      42.164  19.515  27.719  1.00  0.00    -0.237 OA
ATOM     73  O   UNL A   1      41.231  19.567  25.441  1.00  0.00    -0.744 OA
ENDBRANCH  66  70
ENDBRANCH  49  63
BRANCH  50  74
ATOM     74  C   UNL A   1      40.653  30.570  33.409  1.00  0.00     0.023 A 
ATOM     75  C   UNL A   1      40.480  31.968  33.553  1.00  0.00     0.031 A 
ATOM     76  C   UNL A   1      39.493  29.784  33.339  1.00  0.00     0.131 A 
ATOM     77  C   UNL A   1      39.206  32.550  33.433  1.00  0.00     0.055 A 
ATOM     78  C   UNL A   1      38.214  30.368  33.293  1.00  0.00     0.041 A 
ATOM     79  F   UNL A   1      39.572  28.454  33.190  1.00  0.00    -0.206 F 
ATOM     80  C   UNL A   1      38.070  31.757  33.291  1.00  0.00     0.022 A 
BRANCH  77  81
ATOM     81  S   UNL A   1      39.104  34.348  33.161  1.00  0.00     0.124 S 
ATOM     82  O   UNL A   1      40.503  34.751  33.260  1.00  0.00    -0.237 OA
ATOM     83  O   UNL A   1      38.507  34.427  31.830  1.00  0.00    -0.237 OA
ATOM     84  O   UNL A   1      38.236  34.808  34.239  1.00  0.00    -0.744 OA
ENDBRANCH  77  81
ENDBRANCH  50  74
BRANCH  62  85
ATOM     85  C   UNL A   1      45.065  24.712  33.160  1.00  0.00     0.023 A 
ATOM     86  C   UNL A   1      46.380  24.791  33.617  1.00  0.00     0.031 A 
ATOM     87  C   UNL A   1      44.405  23.485  33.440  1.00  0.00     0.131 A 
ATOM     88  C   UNL A   1      47.023  23.689  34.199  1.00  0.00     0.055 A 
ATOM     89  C   UNL A   1      45.014  22.420  34.110  1.00  0.00     0.041 A 
ATOM     90  F   UNL A   1      43.127  23.261  33.106  1.00  0.00    -0.206 F 
ATOM     91  C   UNL A   1      46.345  22.509  34.473  1.00  0.00     0.022 A 
BRANCH  88  92
ATOM     92  S   UNL A   1      48.796  23.839  34.507  1.00  0.00     0.124 S 
ATOM     93  O   UNL A   1      49.248  22.462  34.317  1.00  0.00    -0.237 OA
ATOM     94  O   UNL A   1      49.213  24.785  33.477  1.00  0.00    -0.237 OA
ATOM     95  O   UNL A   1      48.868  24.336  35.878  1.00  0.00    -0.744 OA
ENDBRANCH  88  92
ENDBRANCH  62  85
ENDBRANCH  36  37
ENDBRANCH  29  31
ENDBRANCH  28  29
ENDBRANCH   1  28
TORSDOF 15
ENDMDL
MODEL 2
REMARK VINA RESULT:     -13.3      3.988      9.757
REMARK SMILES Cc1ccccc1[C@@H]1[NH2+][C@H](C(=O)OCCOC(=O)c2ccc(-c3c4nc(c(-c5cc(S(=O)(=O)[O-])ccc5F)c5ccc([nH]5)c(-c5cc(S(=O)(=O)[O-])ccc5F)c5nc(c(-c6cc(S(=O)(=O)[O-])ccc6F)c6ccc3[nH]6)C=C5)C=C4)cc2)CC2=c3ccccc3=N[C@H]21
REMARK SMILES IDX 15 1 14 2 13 3 11 4 12 5 10 6 8 7 9 8 91 9 83 12 90 13 82 14
REMARK SMILES IDX 84 15 89 16 85 17 88 18 86 19 87 20 7 21 1 22 2 23 3 24 4 25
REMARK SMILES IDX 6 26 5 27 16 28 17 29 18 30 19 31 20 32 81 33 21 34 80 35
REMARK SMILES IDX 22 36 23 37 24 38 74 39 25 40 79 41 73 42 75 43 26 44 78 45
REMARK SMILES IDX 72 46 71 47 27 49 59 50 39 51 58 52 40 53 43 54 57 55 76 56
REMARK SMILES IDX 41 57 42 58 56 60 77 61 44 62 28 63 29 64 37 65 30 66 36 67
REMARK SMILES IDX 38 68 35 69 31 70 32 71 33 72 34 73 60 74 61 75 69 76 62 77
REMARK SMILES IDX 68 78 70 79 67 80 63 81 64 82 65 83 66 84 45 85 46 86 54 87
REMARK SMILES IDX 47 88 53 89 55 90 52 91 48 92 49 93 50 94 51 95
REMARK H PARENT 9 10 9 11 75 48 43 59
REMARK Flexibility Score: inf
ROOT
ATOM      1  C   UNL A   1      40.149  20.788  25.684  1.00  0.00     0.275 C 
ENDROOT
BRANCH   1   2
ATOM      2  C   UNL A   1      38.841  21.450  26.118  1.00  0.00     0.274 C 
BRANCH   2   3
ATOM      3  O   UNL A   1      38.131  21.995  25.003  1.00  0.00    -0.458 OA
BRANCH   3   4
ATOM      4  C   UNL A   1      37.383  23.073  25.337  1.00  0.00     0.365 C 
ATOM      5  O   UNL A   1      37.823  24.053  25.937  1.00  0.00    -0.245 OA
BRANCH   4   6
ATOM      6  C   UNL A   1      35.902  22.916  25.123  1.00  0.00     0.298 C 
ATOM      7  C   UNL A   1      33.869  21.683  24.504  1.00  0.00     0.243 C 
ATOM      8  N   UNL A   1      35.362  21.605  24.676  1.00  0.00    -0.326 N 
ATOM      9  C   UNL A   1      33.068  22.422  25.667  1.00  0.00     0.196 C 
ATOM     10  H   UNL A   1      35.789  21.351  23.785  1.00  0.00     0.347 HD
ATOM     11  H   UNL A   1      35.578  20.900  25.381  1.00  0.00     0.347 HD
ATOM     12  C   UNL A   1      33.894  23.563  26.169  1.00  0.00    -0.024 C 
ATOM     13  N   UNL A   1      31.829  23.083  25.134  1.00  0.00    -0.270 NA
ATOM     14  C   UNL A   1      35.304  23.272  26.483  1.00  0.00     0.111 C 
ATOM     15  C   UNL A   1      33.381  24.736  25.832  1.00  0.00     0.002 A 
ATOM     16  C   UNL A   1      32.105  24.349  25.222  1.00  0.00     0.066 A 
ATOM     17  C   UNL A   1      33.939  26.040  25.690  1.00  0.00     0.010 A 
ATOM     18  C   UNL A   1      31.282  25.466  24.715  1.00  0.00     0.028 A 
ATOM     19  C   UNL A   1      33.197  26.974  25.075  1.00  0.00     0.001 A 
ATOM     20  C   UNL A   1      31.834  26.692  24.650  1.00  0.00     0.002 A 
BRANCH   7  21
ATOM     21  C   UNL A   1      33.227  20.316  24.266  1.00  0.00     0.015 A 
ATOM     22  C   UNL A   1      31.979  21.031  22.133  1.00  0.00     0.045 C 
ATOM     23  C   UNL A   1      32.452  20.005  23.127  1.00  0.00    -0.042 A 
ATOM     24  C   UNL A   1      32.155  18.657  22.848  1.00  0.00     0.004 A 
ATOM     25  C   UNL A   1      32.545  17.636  23.713  1.00  0.00     0.000 A 
ATOM     26  C   UNL A   1      33.557  19.272  25.160  1.00  0.00     0.010 A 
ATOM     27  C   UNL A   1      33.216  17.947  24.887  1.00  0.00     0.001 A 
ENDBRANCH   7  21
ENDBRANCH   4   6
ENDBRANCH   3   4
ENDBRANCH   2   3
ENDBRANCH   1   2
BRANCH   1  28
ATOM     28  O   UNL A   1      41.421  21.290  26.192  1.00  0.00    -0.458 OA
BRANCH  28  29
ATOM     29  C   UNL A   1      42.043  22.438  25.809  1.00  0.00     0.338 C 
ATOM     30  O   UNL A   1      42.787  22.479  24.833  1.00  0.00    -0.246 OA
BRANCH  29  31
ATOM     31  C   UNL A   1      41.697  23.653  26.573  1.00  0.00     0.060 A 
ATOM     32  C   UNL A   1      41.134  23.536  27.861  1.00  0.00     0.016 A 
ATOM     33  C   UNL A   1      42.110  24.885  26.090  1.00  0.00     0.016 A 
ATOM     34  C   UNL A   1      41.121  24.633  28.721  1.00  0.00     0.010 A 
ATOM     35  C   UNL A   1      42.245  25.917  26.980  1.00  0.00     0.010 A 
ATOM     36  C   UNL A   1      41.721  25.809  28.282  1.00  0.00    -0.014 A 
BRANCH  36  37
ATOM     37  C   UNL A   1      41.603  27.104  28.928  1.00  0.00     0.031 A 
ATOM     38  C   UNL A   1      40.454  28.013  28.775  1.00  0.00     0.074 A 
ATOM     39  C   UNL A   1      42.534  27.241  29.899  1.00  0.00     0.049 A 
ATOM     40  N   UNL A   1      40.450  29.209  29.245  1.00  0.00    -0.248 NA
ATOM     41  C   UNL A   1      39.211  27.700  28.078  1.00  0.00     0.031 C 
ATOM     42  C   UNL A   1      42.549  28.068  31.089  1.00  0.00     0.029 A 
ATOM     43  N   UNL A   1      43.758  26.597  29.956  1.00  0.00    -0.354 N 
ATOM     44  C   UNL A   1      39.153  29.681  29.231  1.00  0.00     0.074 A 
ATOM     45  C   UNL A   1      38.441  28.756  28.388  1.00  0.00     0.031 C 
ATOM     46  C   UNL A   1      43.803  28.080  31.591  1.00  0.00     0.029 A 
ATOM     47  C   UNL A   1      44.663  27.388  30.638  1.00  0.00     0.049 A 
ATOM     48  H   UNL A   1      43.955  25.713  29.571  1.00  0.00     0.167 HD
ATOM     49  C   UNL A   1      38.844  30.713  30.068  1.00  0.00     0.034 A 
ATOM     50  C   UNL A   1      45.671  27.962  29.911  1.00  0.00     0.034 A 
ATOM     51  C   UNL A   1      40.050  31.146  30.771  1.00  0.00     0.049 A 
ATOM     52  C   UNL A   1      45.471  29.459  29.833  1.00  0.00     0.074 A 
ATOM     53  C   UNL A   1      40.544  30.879  32.035  1.00  0.00     0.029 A 
ATOM     54  N   UNL A   1      41.089  31.694  30.040  1.00  0.00    -0.354 N 
ATOM     55  N   UNL A   1      44.308  30.057  29.884  1.00  0.00    -0.248 NA
ATOM     56  C   UNL A   1      46.584  30.394  29.816  1.00  0.00     0.031 C 
ATOM     57  C   UNL A   1      41.923  31.217  32.034  1.00  0.00     0.029 A 
ATOM     58  C   UNL A   1      42.249  31.709  30.780  1.00  0.00     0.049 A 
ATOM     59  H   UNL A   1      41.010  32.027  29.116  1.00  0.00     0.167 HD
ATOM     60  C   UNL A   1      44.496  31.410  30.015  1.00  0.00     0.074 A 
ATOM     61  C   UNL A   1      45.941  31.567  29.943  1.00  0.00     0.031 C 
ATOM     62  C   UNL A   1      43.461  32.286  30.221  1.00  0.00     0.034 A 
BRANCH  49  63
ATOM     63  C   UNL A   1      37.480  31.220  30.489  1.00  0.00     0.023 A 
ATOM     64  C   UNL A   1      36.649  31.776  29.485  1.00  0.00     0.031 A 
ATOM     65  C   UNL A   1      36.936  31.228  31.784  1.00  0.00     0.131 A 
ATOM     66  C   UNL A   1      35.404  32.357  29.774  1.00  0.00     0.055 A 
ATOM     67  C   UNL A   1      35.686  31.807  32.077  1.00  0.00     0.041 A 
ATOM     68  F   UNL A   1      37.563  30.660  32.821  1.00  0.00    -0.206 F 
ATOM     69  C   UNL A   1      34.917  32.384  31.074  1.00  0.00     0.022 A 
BRANCH  66  70
ATOM     70  S   UNL A   1      34.456  33.097  28.416  1.00  0.00     0.124 S 
ATOM     71  O   UNL A   1      33.641  34.087  29.115  1.00  0.00    -0.237 OA
ATOM     72  O   UNL A   1      35.506  33.620  27.550  1.00  0.00    -0.237 OA
ATOM     73  O   UNL A   1      33.710  31.965  27.867  1.00  0.00    -0.744 OA
ENDBRANCH  66  70
ENDBRANCH  49  63
BRANCH  50  74
ATOM     74  C   UNL A   1      46.167  27.062  28.809  1.00  0.00     0.023 A 
ATOM     75  C   UNL A   1      45.738  27.371  27.495  1.00  0.00     0.031 A 
ATOM     76  C   UNL A   1      47.320  26.273  28.939  1.00  0.00     0.131 A 
ATOM     77  C   UNL A   1      46.546  27.064  26.387  1.00  0.00     0.055 A 
ATOM     78  C   UNL A   1      48.086  25.904  27.818  1.00  0.00     0.041 A 
ATOM     79  F   UNL A   1      47.797  25.947  30.149  1.00  0.00    -0.206 F 
ATOM     80  C   UNL A   1      47.726  26.340  26.541  1.00  0.00     0.022 A 
BRANCH  77  81
ATOM     81  S   UNL A   1      46.179  27.884  24.802  1.00  0.00     0.124 S 
ATOM     82  O   UNL A   1      46.987  27.111  23.864  1.00  0.00    -0.237 OA
ATOM     83  O   UNL A   1      44.732  27.714  24.693  1.00  0.00    -0.237 OA
ATOM     84  O   UNL A   1      46.609  29.261  25.022  1.00  0.00    -0.744 OA
ENDBRANCH  77  81
ENDBRANCH  50  74
BRANCH  62  85
ATOM     85  C   UNL A   1      43.505  33.789  30.028  1.00  0.00     0.023 A 
ATOM     86  C   UNL A   1      43.252  34.397  28.799  1.00  0.00     0.031 A 
ATOM     87  C   UNL A   1      43.728  34.687  31.107  1.00  0.00     0.131 A 
ATOM     88  C   UNL A   1      43.335  35.787  28.635  1.00  0.00     0.055 A 
ATOM     89  C   UNL A   1      43.712  36.078  30.965  1.00  0.00     0.041 A 
ATOM     90  F   UNL A   1      43.945  34.269  32.361  1.00  0.00    -0.206 F 
ATOM     91  C   UNL A   1      43.539  36.639  29.713  1.00  0.00     0.022 A 
BRANCH  88  92
ATOM     92  S   UNL A   1      43.244  36.424  26.948  1.00  0.00     0.124 S 
ATOM     93  O   UNL A   1      41.944  37.091  26.951  1.00  0.00    -0.237 OA
ATOM     94  O   UNL A   1      44.404  37.308  26.885  1.00  0.00    -0.237 OA
ATOM     95  O   UNL A   1      43.328  35.224  26.121  1.00  0.00    -0.744 OA
ENDBRANCH  88  92
ENDBRANCH  62  85
ENDBRANCH  36  37
ENDBRANCH  29  31
ENDBRANCH  28  29
ENDBRANCH   1  28
TORSDOF 15
ENDMDL
MODEL 3
REMARK VINA RESULT:     -13.3      5.745      8.617
REMARK SMILES Cc1ccccc1[C@@H]1[NH2+][C@H](C(=O)OCCOC(=O)c2ccc(-c3c4nc(c(-c5cc(S(=O)(=O)[O-])ccc5F)c5ccc([nH]5)c(-c5cc(S(=O)(=O)[O-])ccc5F)c5nc(c(-c6cc(S(=O)(=O)[O-])ccc6F)c6ccc3[nH]6)C=C5)C=C4)cc2)CC2=c3ccccc3=N[C@H]21
REMARK SMILES IDX 15 1 14 2 13 3 11 4 12 5 10 6 8 7 9 8 91 9 83 12 90 13 82 14
REMARK SMILES IDX 84 15 89 16 85 17 88 18 86 19 87 20 7 21 1 22 2 23 3 24 4 25
REMARK SMILES IDX 6 26 5 27 16 28 17 29 18 30 19 31 20 32 81 33 21 34 80 35
REMARK SMILES IDX 22 36 23 37 24 38 74 39 25 40 79 41 73 42 75 43 26 44 78 45
REMARK SMILES IDX 72 46 71 47 27 49 59 50 39 51 58 52 40 53 43 54 57 55 76 56
REMARK SMILES IDX 41 57 42 58 56 60 77 61 44 62 28 63 29 64 37 65 30 66 36 67
REMARK SMILES IDX 38 68 35 69 31 70 32 71 33 72 34 73 60 74 61 75 69 76 62 77
REMARK SMILES IDX 68 78 70 79 67 80 63 81 64 82 65 83 66 84 45 85 46 86 54 87
REMARK SMILES IDX 47 88 53 89 55 90 52 91 48 92 49 93 50 94 51 95
REMARK H PARENT 9 10 9 11 75 48 43 59
REMARK Flexibility Score: inf
ROOT
ATOM      1  C   UNL A   1      38.640  30.826  35.801  1.00  0.00     0.275 C 
ENDROOT
BRANCH   1   2
ATOM      2  C   UNL A   1      39.068  32.261  36.109  1.00  0.00     0.274 C 
BRANCH   2   3
ATOM      3  O   UNL A   1      37.980  33.177  35.966  1.00  0.00    -0.458 OA
BRANCH   3   4
ATOM      4  C   UNL A   1      38.161  34.048  34.946  1.00  0.00     0.365 C 
ATOM      5  O   UNL A   1      38.835  35.073  35.031  1.00  0.00    -0.245 OA
BRANCH   4   6
ATOM      6  C   UNL A   1      37.299  33.803  33.736  1.00  0.00     0.298 C 
ATOM      7  C   UNL A   1      36.704  32.700  31.623  1.00  0.00     0.243 C 
ATOM      8  N   UNL A   1      37.691  32.754  32.758  1.00  0.00    -0.326 N 
ATOM      9  C   UNL A   1      35.165  32.753  32.029  1.00  0.00     0.196 C 
ATOM     10  H   UNL A   1      38.617  32.968  32.388  1.00  0.00     0.347 HD
ATOM     11  H   UNL A   1      37.703  31.850  33.230  1.00  0.00     0.347 HD
ATOM     12  C   UNL A   1      35.010  33.665  33.205  1.00  0.00    -0.024 C 
ATOM     13  N   UNL A   1      34.345  33.408  30.955  1.00  0.00    -0.270 NA
ATOM     14  C   UNL A   1      35.936  33.457  34.331  1.00  0.00     0.111 C 
ATOM     15  C   UNL A   1      34.388  34.789  32.885  1.00  0.00     0.002 A 
ATOM     16  C   UNL A   1      33.995  34.537  31.494  1.00  0.00     0.066 A 
ATOM     17  C   UNL A   1      34.359  36.088  33.470  1.00  0.00     0.010 A 
ATOM     18  C   UNL A   1      33.276  35.643  30.830  1.00  0.00     0.028 A 
ATOM     19  C   UNL A   1      33.833  37.088  32.747  1.00  0.00     0.001 A 
ATOM     20  C   UNL A   1      33.228  36.839  31.447  1.00  0.00     0.002 A 
BRANCH   7  21
ATOM     21  C   UNL A   1      36.923  31.497  30.704  1.00  0.00     0.015 A 
ATOM     22  C   UNL A   1      37.330  32.908  28.592  1.00  0.00     0.045 C 
ATOM     23  C   UNL A   1      37.308  31.608  29.350  1.00  0.00    -0.042 A 
ATOM     24  C   UNL A   1      37.770  30.464  28.673  1.00  0.00     0.004 A 
ATOM     25  C   UNL A   1      37.781  29.213  29.290  1.00  0.00     0.000 A 
ATOM     26  C   UNL A   1      36.884  30.211  31.288  1.00  0.00     0.010 A 
ATOM     27  C   UNL A   1      37.305  29.081  30.587  1.00  0.00     0.001 A 
ENDBRANCH   7  21
ENDBRANCH   4   6
ENDBRANCH   3   4
ENDBRANCH   2   3
ENDBRANCH   1   2
BRANCH   1  28
ATOM     28  O   UNL A   1      39.304  30.083  34.735  1.00  0.00    -0.458 OA
BRANCH  28  29
ATOM     29  C   UNL A   1      40.428  29.327  34.861  1.00  0.00     0.338 C 
ATOM     30  O   UNL A   1      40.763  28.834  35.935  1.00  0.00    -0.246 OA
BRANCH  29  31
ATOM     31  C   UNL A   1      41.169  29.049  33.614  1.00  0.00     0.060 A 
ATOM     32  C   UNL A   1      42.540  28.724  33.670  1.00  0.00     0.016 A 
ATOM     33  C   UNL A   1      40.459  28.925  32.430  1.00  0.00     0.016 A 
ATOM     34  C   UNL A   1      43.164  28.132  32.571  1.00  0.00     0.010 A 
ATOM     35  C   UNL A   1      41.021  28.203  31.411  1.00  0.00     0.010 A 
ATOM     36  C   UNL A   1      42.379  27.837  31.461  1.00  0.00    -0.014 A 
BRANCH  36  37
ATOM     37  C   UNL A   1      42.884  27.445  30.157  1.00  0.00     0.031 A 
ATOM     38  C   UNL A   1      43.335  26.086  29.809  1.00  0.00     0.074 A 
ATOM     39  C   UNL A   1      42.622  28.399  29.236  1.00  0.00     0.049 A 
ATOM     40  N   UNL A   1      43.909  25.813  28.693  1.00  0.00    -0.248 NA
ATOM     41  C   UNL A   1      43.213  24.907  30.659  1.00  0.00     0.031 C 
ATOM     42  C   UNL A   1      42.479  28.315  27.796  1.00  0.00     0.029 A 
ATOM     43  N   UNL A   1      42.445  29.750  29.484  1.00  0.00    -0.354 N 
ATOM     44  C   UNL A   1      43.914  24.443  28.527  1.00  0.00     0.074 A 
ATOM     45  C   UNL A   1      43.581  23.920  29.827  1.00  0.00     0.031 C 
ATOM     46  C   UNL A   1      42.507  29.564  27.285  1.00  0.00     0.029 A 
ATOM     47  C   UNL A   1      42.834  30.476  28.375  1.00  0.00     0.049 A 
ATOM     48  H   UNL A   1      42.096  30.134  30.320  1.00  0.00     0.167 HD
ATOM     49  C   UNL A   1      44.056  23.957  27.259  1.00  0.00     0.034 A 
ATOM     50  C   UNL A   1      43.981  31.217  28.478  1.00  0.00     0.034 A 
ATOM     51  C   UNL A   1      44.252  25.069  26.332  1.00  0.00     0.049 A 
ATOM     52  C   UNL A   1      45.068  30.619  27.612  1.00  0.00     0.074 A 
ATOM     53  C   UNL A   1      43.394  25.741  25.481  1.00  0.00     0.029 A 
ATOM     54  N   UNL A   1      45.391  25.846  26.452  1.00  0.00    -0.354 N 
ATOM     55  N   UNL A   1      45.159  29.351  27.304  1.00  0.00    -0.248 NA
ATOM     56  C   UNL A   1      46.058  31.438  26.930  1.00  0.00     0.031 C 
ATOM     57  C   UNL A   1      44.011  26.974  25.140  1.00  0.00     0.029 A 
ATOM     58  C   UNL A   1      45.247  27.029  25.764  1.00  0.00     0.049 A 
ATOM     59  H   UNL A   1      46.194  25.589  26.961  1.00  0.00     0.167 HD
ATOM     60  C   UNL A   1      46.113  29.185  26.331  1.00  0.00     0.074 A 
ATOM     61  C   UNL A   1      46.660  30.522  26.153  1.00  0.00     0.031 C 
ATOM     62  C   UNL A   1      46.344  27.981  25.717  1.00  0.00     0.034 A 
BRANCH  49  63
ATOM     63  C   UNL A   1      43.795  22.557  26.743  1.00  0.00     0.023 A 
ATOM     64  C   UNL A   1      44.877  21.868  26.142  1.00  0.00     0.031 A 
ATOM     65  C   UNL A   1      42.580  21.853  26.767  1.00  0.00     0.131 A 
ATOM     66  C   UNL A   1      44.729  20.604  25.549  1.00  0.00     0.055 A 
ATOM     67  C   UNL A   1      42.429  20.583  26.176  1.00  0.00     0.041 A 
ATOM     68  F   UNL A   1      41.492  22.335  27.378  1.00  0.00    -0.206 F 
ATOM     69  C   UNL A   1      43.501  19.956  25.554  1.00  0.00     0.022 A 
BRANCH  66  70
ATOM     70  S   UNL A   1      46.170  19.845  24.749  1.00  0.00     0.124 S 
ATOM     71  O   UNL A   1      45.548  18.978  23.754  1.00  0.00    -0.237 OA
ATOM     72  O   UNL A   1      46.889  21.006  24.236  1.00  0.00    -0.237 OA
ATOM     73  O   UNL A   1      46.836  19.144  25.847  1.00  0.00    -0.744 OA
ENDBRANCH  66  70
ENDBRANCH  49  63
BRANCH  50  74
ATOM     74  C   UNL A   1      44.152  31.821  29.848  1.00  0.00     0.023 A 
ATOM     75  C   UNL A   1      43.106  32.658  30.308  1.00  0.00     0.031 A 
ATOM     76  C   UNL A   1      45.006  31.270  30.816  1.00  0.00     0.131 A 
ATOM     77  C   UNL A   1      42.826  32.767  31.681  1.00  0.00     0.055 A 
ATOM     78  C   UNL A   1      44.764  31.444  32.190  1.00  0.00     0.041 A 
ATOM     79  F   UNL A   1      46.011  30.458  30.462  1.00  0.00    -0.206 F 
ATOM     80  C   UNL A   1      43.644  32.155  32.628  1.00  0.00     0.022 A 
BRANCH  77  81
ATOM     81  S   UNL A   1      41.218  33.464  32.178  1.00  0.00     0.124 S 
ATOM     82  O   UNL A   1      40.802  32.547  33.234  1.00  0.00    -0.237 OA
ATOM     83  O   UNL A   1      41.583  34.812  32.606  1.00  0.00    -0.237 OA
ATOM     84  O   UNL A   1      40.430  33.413  30.950  1.00  0.00    -0.744 OA
ENDBRANCH  77  81
ENDBRANCH  50  74
BRANCH  62  85
ATOM     85  C   UNL A   1      47.573  27.605  24.912  1.00  0.00     0.023 A 
ATOM     86  C   UNL A   1      47.639  27.754  23.527  1.00  0.00     0.031 A 
ATOM     87  C   UNL A   1      48.772  27.150  25.525  1.00  0.00     0.131 A 
ATOM     88  C   UNL A   1      48.773  27.365  22.799  1.00  0.00     0.055 A 
ATOM     89  C   UNL A   1      49.936  26.856  24.810  1.00  0.00     0.041 A 
ATOM     90  F   UNL A   1      48.890  26.993  26.850  1.00  0.00    -0.206 F 
ATOM     91  C   UNL A   1      49.935  26.939  23.430  1.00  0.00     0.022 A 
BRANCH  88  92
ATOM     92  S   UNL A   1      48.635  27.364  20.999  1.00  0.00     0.124 S 
ATOM     93  O   UNL A   1      48.775  25.942  20.691  1.00  0.00    -0.237 OA
ATOM     94  O   UNL A   1      47.305  27.925  20.787  1.00  0.00    -0.237 OA
ATOM     95  O   UNL A   1      49.746  28.208  20.567  1.00  0.00    -0.744 OA
ENDBRANCH  88  92
ENDBRANCH  62  85
ENDBRANCH  36  37
ENDBRANCH  29  31
ENDBRANCH  28  29
ENDBRANCH   1  28
TORSDOF 15
ENDMDL
