MODEL 1
REMARK VINA RESULT:     -10.7      0.000      0.000
REMARK SMILES C=CCN1C(=O)/C(=C/c2ccc(OCC(=O)OCCOC(=O)c3ccc(-c4c5nc(c(-c6cc(S(=O)(=O)[O-])ccc6F)c6ccc([nH]6)c(-c6cc(S(=O)(=O)[O-])ccc6F)c6nc(c(-c7cc(S(=O)(=O)[O-])ccc7F)c7ccc4[nH]7)C=C6)C=C5)cc3)c(OC)c2)C(=O)[NH+]=C1S
REMARK SMILES IDX 18 1 17 2 15 3 16 4 14 5 13 6 12 7 9 8 10 9 89 10 11 11
REMARK SMILES IDX 86 12 8 13 4 14 5 15 93 16 6 17 7 18 92 19 90 20 91 22 3 23
REMARK SMILES IDX 2 24 1 25 94 26 87 28 88 29 19 30 20 31 21 32 22 33 23 34
REMARK SMILES IDX 24 35 85 36 25 37 84 38 26 39 27 40 28 41 78 42 29 43 83 44
REMARK SMILES IDX 77 45 79 46 30 47 82 48 76 49 75 50 31 52 63 53 43 54 62 55
REMARK SMILES IDX 44 56 47 57 61 58 80 59 45 60 46 61 60 63 81 64 48 65 32 66
REMARK SMILES IDX 33 67 41 68 34 69 40 70 42 71 39 72 35 73 36 74 37 75 38 76
REMARK SMILES IDX 64 77 65 78 73 79 66 80 72 81 74 82 71 83 67 84 68 85 69 86
REMARK SMILES IDX 70 87 49 88 50 89 58 90 51 91 57 92 59 93 56 94 52 95 53 96
REMARK SMILES IDX 54 97 55 98
REMARK H PARENT 92 21 94 27 79 51 47 62
REMARK Flexibility Score: inf
ROOT
ATOM      1  C   UNL A   1      44.104  21.922  26.540  1.00  0.00     0.274 C 
ENDROOT
BRANCH   1   2
ATOM      2  O   UNL A   1      43.378  21.210  25.510  1.00  0.00    -0.460 OA
BRANCH   2   3
ATOM      3  C   UNL A   1      42.226  20.607  25.904  1.00  0.00     0.344 C 
ATOM      4  O   UNL A   1      41.804  19.559  25.416  1.00  0.00    -0.248 OA
BRANCH   3   5
ATOM      5  C   UNL A   1      41.432  21.371  26.974  1.00  0.00     0.352 C 
BRANCH   5   6
ATOM      6  O   UNL A   1      40.046  21.198  27.201  1.00  0.00    -0.478 OA
BRANCH   6   7
ATOM      7  C   UNL A   1      39.135  21.784  26.364  1.00  0.00     0.162 A 
ATOM      8  C   UNL A   1      37.155  23.283  25.034  1.00  0.00    -0.021 A 
ATOM      9  C   UNL A   1      38.055  23.927  25.873  1.00  0.00     0.012 A 
ATOM     10  C   UNL A   1      37.338  21.927  24.768  1.00  0.00     0.058 A 
ATOM     11  C   UNL A   1      39.021  23.171  26.551  1.00  0.00     0.051 A 
ATOM     12  C   UNL A   1      38.372  21.188  25.360  1.00  0.00     0.161 A 
BRANCH   8  13
ATOM     13  C   UNL A   1      36.056  23.956  24.339  1.00  0.00     0.032 C 
ATOM     14  N   UNL A   1      32.455  24.442  24.146  1.00  0.00    -0.183 N 
ATOM     15  C   UNL A   1      33.778  24.457  23.743  1.00  0.00     0.349 C 
ATOM     16  C   UNL A   1      32.122  23.989  25.395  1.00  0.00     0.318 C 
ATOM     17  O   UNL A   1      34.134  24.830  22.625  1.00  0.00    -0.240 OA
ATOM     18  C   UNL A   1      34.764  23.978  24.739  1.00  0.00     0.154 C 
ATOM     19  N   UNL A   1      32.942  23.558  26.284  1.00  0.00    -0.200 N 
ATOM     20  C   UNL A   1      34.288  23.552  26.078  1.00  0.00     0.347 C 
ATOM     21  H   UNL A   1      32.587  23.223  27.138  1.00  0.00     0.316 HD
ATOM     22  O   UNL A   1      35.052  23.292  27.002  1.00  0.00    -0.241 OA
BRANCH  14  23
ATOM     23  C   UNL A   1      31.482  24.934  23.168  1.00  0.00     0.275 C 
BRANCH  23  24
ATOM     24  C   UNL A   1      31.386  26.429  23.309  1.00  0.00     0.011 C 
ATOM     25  C   UNL A   1      30.228  27.100  23.367  1.00  0.00     0.008 C 
ENDBRANCH  23  24
ENDBRANCH  14  23
BRANCH  16  26
ATOM     26  S   UNL A   1      30.447  24.008  25.908  1.00  0.00    -0.055 SA
ATOM     27  H   UNL A   1      29.953  22.741  25.889  1.00  0.00     0.116 HD
ENDBRANCH  16  26
ENDBRANCH   8  13
BRANCH  12  28
ATOM     28  O   UNL A   1      38.668  19.916  24.947  1.00  0.00    -0.493 OA
ATOM     29  C   UNL A   1      37.603  18.977  25.075  1.00  0.00     0.278 C 
ENDBRANCH  12  28
ENDBRANCH   6   7
ENDBRANCH   5   6
ENDBRANCH   3   5
ENDBRANCH   2   3
ENDBRANCH   1   2
BRANCH   1  30
ATOM     30  C   UNL A   1      45.346  22.632  25.993  1.00  0.00     0.275 C 
BRANCH  30  31
ATOM     31  O   UNL A   1      45.282  24.055  26.228  1.00  0.00    -0.458 OA
BRANCH  31  32
ATOM     32  C   UNL A   1      44.382  24.668  25.431  1.00  0.00     0.338 C 
ATOM     33  O   UNL A   1      44.241  24.492  24.232  1.00  0.00    -0.246 OA
BRANCH  32  34
ATOM     34  C   UNL A   1      43.511  25.623  26.119  1.00  0.00     0.060 A 
ATOM     35  C   UNL A   1      44.071  26.808  26.592  1.00  0.00     0.016 A 
ATOM     36  C   UNL A   1      42.309  25.143  26.648  1.00  0.00     0.016 A 
ATOM     37  C   UNL A   1      43.475  27.455  27.674  1.00  0.00     0.010 A 
ATOM     38  C   UNL A   1      41.686  25.829  27.697  1.00  0.00     0.010 A 
ATOM     39  C   UNL A   1      42.287  26.967  28.253  1.00  0.00    -0.014 A 
BRANCH  39  40
ATOM     40  C   UNL A   1      41.642  27.696  29.382  1.00  0.00     0.031 A 
ATOM     41  C   UNL A   1      40.414  28.563  29.213  1.00  0.00     0.074 A 
ATOM     42  C   UNL A   1      42.205  27.567  30.598  1.00  0.00     0.049 A 
ATOM     43  N   UNL A   1      39.828  29.343  30.089  1.00  0.00    -0.248 NA
ATOM     44  C   UNL A   1      39.739  28.538  27.908  1.00  0.00     0.031 C 
ATOM     45  C   UNL A   1      43.353  26.709  30.907  1.00  0.00     0.029 A 
ATOM     46  N   UNL A   1      41.905  28.164  31.794  1.00  0.00    -0.354 N 
ATOM     47  C   UNL A   1      38.711  29.885  29.452  1.00  0.00     0.074 A 
ATOM     48  C   UNL A   1      38.705  29.349  28.108  1.00  0.00     0.031 C 
ATOM     49  C   UNL A   1      43.658  26.832  32.202  1.00  0.00     0.029 A 
ATOM     50  C   UNL A   1      42.812  27.863  32.783  1.00  0.00     0.049 A 
ATOM     51  H   UNL A   1      41.124  28.747  31.931  1.00  0.00     0.167 HD
ATOM     52  C   UNL A   1      37.794  30.761  29.942  1.00  0.00     0.034 A 
ATOM     53  C   UNL A   1      43.005  28.411  33.995  1.00  0.00     0.034 A 
ATOM     54  C   UNL A   1      37.859  31.334  31.270  1.00  0.00     0.049 A 
ATOM     55  C   UNL A   1      42.088  29.508  34.449  1.00  0.00     0.074 A 
ATOM     56  C   UNL A   1      37.000  32.250  31.858  1.00  0.00     0.029 A 
ATOM     57  N   UNL A   1      38.847  31.068  32.209  1.00  0.00    -0.354 N 
ATOM     58  N   UNL A   1      41.062  30.036  33.824  1.00  0.00    -0.248 NA
ATOM     59  C   UNL A   1      42.353  30.078  35.773  1.00  0.00     0.031 C 
ATOM     60  C   UNL A   1      37.518  32.605  33.108  1.00  0.00     0.029 A 
ATOM     61  C   UNL A   1      38.643  31.834  33.348  1.00  0.00     0.049 A 
ATOM     62  H   UNL A   1      39.583  30.427  32.085  1.00  0.00     0.167 HD
ATOM     63  C   UNL A   1      40.534  30.976  34.701  1.00  0.00     0.074 A 
ATOM     64  C   UNL A   1      41.347  30.931  35.899  1.00  0.00     0.031 C 
ATOM     65  C   UNL A   1      39.466  31.797  34.533  1.00  0.00     0.034 A 
BRANCH  52  66
ATOM     66  C   UNL A   1      36.673  31.223  29.032  1.00  0.00     0.023 A 
ATOM     67  C   UNL A   1      35.657  30.356  28.595  1.00  0.00     0.031 A 
ATOM     68  C   UNL A   1      36.583  32.578  28.655  1.00  0.00     0.131 A 
ATOM     69  C   UNL A   1      34.611  30.848  27.792  1.00  0.00     0.055 A 
ATOM     70  C   UNL A   1      35.509  33.072  27.912  1.00  0.00     0.041 A 
ATOM     71  F   UNL A   1      37.534  33.452  29.022  1.00  0.00    -0.206 F 
ATOM     72  C   UNL A   1      34.516  32.205  27.471  1.00  0.00     0.022 A 
BRANCH  69  73
ATOM     73  S   UNL A   1      33.421  29.674  27.085  1.00  0.00     0.124 S 
ATOM     74  O   UNL A   1      33.584  28.522  27.966  1.00  0.00    -0.237 OA
ATOM     75  O   UNL A   1      32.160  30.396  27.199  1.00  0.00    -0.237 OA
ATOM     76  O   UNL A   1      33.905  29.476  25.718  1.00  0.00    -0.744 OA
ENDBRANCH  69  73
ENDBRANCH  52  66
BRANCH  53  77
ATOM     77  C   UNL A   1      44.163  27.975  34.822  1.00  0.00     0.023 A 
ATOM     78  C   UNL A   1      43.991  27.055  35.862  1.00  0.00     0.031 A 
ATOM     79  C   UNL A   1      45.452  28.494  34.601  1.00  0.00     0.131 A 
ATOM     80  C   UNL A   1      45.079  26.720  36.677  1.00  0.00     0.055 A 
ATOM     81  C   UNL A   1      46.549  28.095  35.363  1.00  0.00     0.041 A 
ATOM     82  F   UNL A   1      45.671  29.384  33.618  1.00  0.00    -0.206 F 
ATOM     83  C   UNL A   1      46.361  27.215  36.422  1.00  0.00     0.022 A 
BRANCH  80  84
ATOM     84  S   UNL A   1      44.762  25.725  38.157  1.00  0.00     0.124 S 
ATOM     85  O   UNL A   1      44.480  24.416  37.576  1.00  0.00    -0.237 OA
ATOM     86  O   UNL A   1      46.022  25.848  38.880  1.00  0.00    -0.237 OA
ATOM     87  O   UNL A   1      43.619  26.393  38.775  1.00  0.00    -0.744 OA
ENDBRANCH  80  84
ENDBRANCH  53  77
BRANCH  65  88
ATOM     88  C   UNL A   1      39.091  32.668  35.706  1.00  0.00     0.023 A 
ATOM     89  C   UNL A   1      39.573  33.982  35.837  1.00  0.00     0.031 A 
ATOM     90  C   UNL A   1      38.275  32.157  36.730  1.00  0.00     0.131 A 
ATOM     91  C   UNL A   1      39.296  34.714  37.001  1.00  0.00     0.055 A 
ATOM     92  C   UNL A   1      37.943  32.917  37.853  1.00  0.00     0.041 A 
ATOM     93  F   UNL A   1      37.793  30.906  36.661  1.00  0.00    -0.206 F 
ATOM     94  C   UNL A   1      38.469  34.197  38.001  1.00  0.00     0.022 A 
BRANCH  91  95
ATOM     95  S   UNL A   1      40.131  36.305  37.243  1.00  0.00     0.124 S 
ATOM     96  O   UNL A   1      40.049  36.897  35.912  1.00  0.00    -0.237 OA
ATOM     97  O   UNL A   1      39.310  36.935  38.272  1.00  0.00    -0.237 OA
ATOM     98  O   UNL A   1      41.476  35.924  37.672  1.00  0.00    -0.744 OA
ENDBRANCH  91  95
ENDBRANCH  65  88
ENDBRANCH  39  40
ENDBRANCH  32  34
ENDBRANCH  31  32
ENDBRANCH  30  31
ENDBRANCH   1  30
TORSDOF 21
ENDMDL
MODEL 2
REMARK VINA RESULT:     -10.5      2.986      8.930
REMARK SMILES C=CCN1C(=O)/C(=C/c2ccc(OCC(=O)OCCOC(=O)c3ccc(-c4c5nc(c(-c6cc(S(=O)(=O)[O-])ccc6F)c6ccc([nH]6)c(-c6cc(S(=O)(=O)[O-])ccc6F)c6nc(c(-c7cc(S(=O)(=O)[O-])ccc7F)c7ccc4[nH]7)C=C6)C=C5)cc3)c(OC)c2)C(=O)[NH+]=C1S
REMARK SMILES IDX 18 1 17 2 15 3 16 4 14 5 13 6 12 7 9 8 10 9 89 10 11 11
REMARK SMILES IDX 86 12 8 13 4 14 5 15 93 16 6 17 7 18 92 19 90 20 91 22 3 23
REMARK SMILES IDX 2 24 1 25 94 26 87 28 88 29 19 30 20 31 21 32 22 33 23 34
REMARK SMILES IDX 24 35 85 36 25 37 84 38 26 39 27 40 28 41 78 42 29 43 83 44
REMARK SMILES IDX 77 45 79 46 30 47 82 48 76 49 75 50 31 52 63 53 43 54 62 55
REMARK SMILES IDX 44 56 47 57 61 58 80 59 45 60 46 61 60 63 81 64 48 65 32 66
REMARK SMILES IDX 33 67 41 68 34 69 40 70 42 71 39 72 35 73 36 74 37 75 38 76
REMARK SMILES IDX 64 77 65 78 73 79 66 80 72 81 74 82 71 83 67 84 68 85 69 86
REMARK SMILES IDX 70 87 49 88 50 89 58 90 51 91 57 92 59 93 56 94 52 95 53 96
REMARK SMILES IDX 54 97 55 98
REMARK H PARENT 92 21 94 27 79 51 47 62
REMARK Flexibility Score: inf
ROOT
ATOM      1  C   UNL A   1      31.524  29.288  25.518  1.00  0.00     0.274 C 
ENDROOT
BRANCH   1   2
ATOM      2  O   UNL A   1      32.130  28.996  24.236  1.00  0.00    -0.460 OA
BRANCH   2   3
ATOM      3  C   UNL A   1      31.271  28.680  23.231  1.00  0.00     0.344 C 
ATOM      4  O   UNL A   1      30.306  29.374  22.916  1.00  0.00    -0.248 OA
BRANCH   3   5
ATOM      5  C   UNL A   1      31.552  27.335  22.543  1.00  0.00     0.352 C 
BRANCH   5   6
ATOM      6  O   UNL A   1      32.723  26.570  22.756  1.00  0.00    -0.478 OA
BRANCH   6   7
ATOM      7  C   UNL A   1      32.627  25.240  23.062  1.00  0.00     0.162 A 
ATOM      8  C   UNL A   1      32.416  22.434  23.196  1.00  0.00    -0.021 A 
ATOM      9  C   UNL A   1      33.243  23.015  22.244  1.00  0.00     0.012 A 
ATOM     10  C   UNL A   1      31.812  23.252  24.150  1.00  0.00     0.058 A 
ATOM     11  C   UNL A   1      33.323  24.412  22.167  1.00  0.00     0.051 A 
ATOM     12  C   UNL A   1      31.977  24.644  24.144  1.00  0.00     0.161 A 
BRANCH   8  13
ATOM     13  C   UNL A   1      32.191  20.992  23.318  1.00  0.00     0.032 C 
ATOM     14  N   UNL A   1      33.671  17.759  24.090  1.00  0.00    -0.183 N 
ATOM     15  C   UNL A   1      32.756  18.668  23.589  1.00  0.00     0.349 C 
ATOM     16  C   UNL A   1      34.787  18.200  24.752  1.00  0.00     0.318 C 
ATOM     17  O   UNL A   1      31.750  18.332  22.966  1.00  0.00    -0.240 OA
ATOM     18  C   UNL A   1      33.062  20.097  23.835  1.00  0.00     0.154 C 
ATOM     19  N   UNL A   1      35.093  19.426  24.979  1.00  0.00    -0.200 N 
ATOM     20  C   UNL A   1      34.280  20.452  24.604  1.00  0.00     0.347 C 
ATOM     21  H   UNL A   1      35.940  19.630  25.436  1.00  0.00     0.316 HD
ATOM     22  O   UNL A   1      34.517  21.596  24.980  1.00  0.00    -0.241 OA
BRANCH  14  23
ATOM     23  C   UNL A   1      33.360  16.346  23.864  1.00  0.00     0.275 C 
BRANCH  23  24
ATOM     24  C   UNL A   1      32.565  15.846  25.040  1.00  0.00     0.011 C 
ATOM     25  C   UNL A   1      32.889  14.757  25.750  1.00  0.00     0.008 C 
ENDBRANCH  23  24
ENDBRANCH  14  23
BRANCH  16  26
ATOM     26  S   UNL A   1      35.920  17.040  25.413  1.00  0.00    -0.055 SA
ATOM     27  H   UNL A   1      36.775  17.674  26.260  1.00  0.00     0.116 HD
ENDBRANCH  16  26
ENDBRANCH   8  13
BRANCH  12  28
ATOM     28  O   UNL A   1      31.549  25.419  25.189  1.00  0.00    -0.493 OA
ATOM     29  C   UNL A   1      32.478  25.547  26.263  1.00  0.00     0.278 C 
ENDBRANCH  12  28
ENDBRANCH   6   7
ENDBRANCH   5   6
ENDBRANCH   3   5
ENDBRANCH   2   3
ENDBRANCH   1   2
BRANCH   1  30
ATOM     30  C   UNL A   1      31.774  30.733  25.964  1.00  0.00     0.275 C 
BRANCH  30  31
ATOM     31  O   UNL A   1      32.353  30.780  27.285  1.00  0.00    -0.458 OA
BRANCH  31  32
ATOM     32  C   UNL A   1      33.232  31.795  27.425  1.00  0.00     0.338 C 
ATOM     33  O   UNL A   1      32.967  32.986  27.414  1.00  0.00    -0.246 OA
BRANCH  32  34
ATOM     34  C   UNL A   1      34.622  31.375  27.609  1.00  0.00     0.060 A 
ATOM     35  C   UNL A   1      34.878  30.035  27.891  1.00  0.00     0.016 A 
ATOM     36  C   UNL A   1      35.563  32.361  27.924  1.00  0.00     0.016 A 
ATOM     37  C   UNL A   1      36.036  29.698  28.589  1.00  0.00     0.010 A 
ATOM     38  C   UNL A   1      36.750  32.007  28.575  1.00  0.00     0.010 A 
ATOM     39  C   UNL A   1      36.979  30.678  28.957  1.00  0.00    -0.014 A 
BRANCH  39  40
ATOM     40  C   UNL A   1      38.232  30.292  29.667  1.00  0.00     0.031 A 
ATOM     41  C   UNL A   1      39.227  29.301  29.107  1.00  0.00     0.074 A 
ATOM     42  C   UNL A   1      38.460  30.862  30.865  1.00  0.00     0.049 A 
ATOM     43  N   UNL A   1      40.294  28.791  29.677  1.00  0.00    -0.248 NA
ATOM     44  C   UNL A   1      39.023  28.836  27.729  1.00  0.00     0.031 C 
ATOM     45  C   UNL A   1      37.610  31.883  31.486  1.00  0.00     0.029 A 
ATOM     46  N   UNL A   1      39.457  30.657  31.782  1.00  0.00    -0.354 N 
ATOM     47  C   UNL A   1      40.894  27.965  28.726  1.00  0.00     0.074 A 
ATOM     48  C   UNL A   1      40.066  28.035  27.541  1.00  0.00     0.031 C 
ATOM     49  C   UNL A   1      38.121  32.215  32.676  1.00  0.00     0.029 A 
ATOM     50  C   UNL A   1      39.256  31.349  32.953  1.00  0.00     0.049 A 
ATOM     51  H   UNL A   1      40.234  30.075  31.620  1.00  0.00     0.167 HD
ATOM     52  C   UNL A   1      42.016  27.207  28.845  1.00  0.00     0.034 A 
ATOM     53  C   UNL A   1      39.857  31.244  34.151  1.00  0.00     0.034 A 
ATOM     54  C   UNL A   1      42.791  27.103  30.063  1.00  0.00     0.049 A 
ATOM     55  C   UNL A   1      40.983  30.267  34.312  1.00  0.00     0.074 A 
ATOM     56  C   UNL A   1      43.928  26.346  30.302  1.00  0.00     0.029 A 
ATOM     57  N   UNL A   1      42.500  27.755  31.255  1.00  0.00    -0.354 N 
ATOM     58  N   UNL A   1      41.516  29.467  33.418  1.00  0.00    -0.248 NA
ATOM     59  C   UNL A   1      41.594  30.184  35.643  1.00  0.00     0.031 C 
ATOM     60  C   UNL A   1      44.265  26.467  31.654  1.00  0.00     0.029 A 
ATOM     61  C   UNL A   1      43.405  27.381  32.238  1.00  0.00     0.049 A 
ATOM     62  H   UNL A   1      41.760  28.390  31.382  1.00  0.00     0.167 HD
ATOM     63  C   UNL A   1      42.553  28.812  34.074  1.00  0.00     0.074 A 
ATOM     64  C   UNL A   1      42.577  29.322  35.429  1.00  0.00     0.031 C 
ATOM     65  C   UNL A   1      43.414  27.880  33.592  1.00  0.00     0.034 A 
BRANCH  52  66
ATOM     66  C   UNL A   1      42.455  26.368  27.661  1.00  0.00     0.023 A 
ATOM     67  C   UNL A   1      42.056  25.031  27.500  1.00  0.00     0.031 A 
ATOM     68  C   UNL A   1      43.233  26.945  26.637  1.00  0.00     0.131 A 
ATOM     69  C   UNL A   1      42.451  24.312  26.357  1.00  0.00     0.055 A 
ATOM     70  C   UNL A   1      43.568  26.247  25.475  1.00  0.00     0.041 A 
ATOM     71  F   UNL A   1      43.664  28.213  26.741  1.00  0.00    -0.206 F 
ATOM     72  C   UNL A   1      43.181  24.919  25.331  1.00  0.00     0.022 A 
BRANCH  69  73
ATOM     73  S   UNL A   1      42.084  22.536  26.266  1.00  0.00     0.124 S 
ATOM     74  O   UNL A   1      42.701  22.045  27.496  1.00  0.00    -0.237 OA
ATOM     75  O   UNL A   1      40.627  22.517  26.228  1.00  0.00    -0.237 OA
ATOM     76  O   UNL A   1      42.747  22.111  25.033  1.00  0.00    -0.744 OA
ENDBRANCH  69  73
ENDBRANCH  52  66
BRANCH  53  77
ATOM     77  C   UNL A   1      39.345  32.035  35.302  1.00  0.00     0.023 A 
ATOM     78  C   UNL A   1      39.753  33.360  35.495  1.00  0.00     0.031 A 
ATOM     79  C   UNL A   1      38.460  31.469  36.239  1.00  0.00     0.131 A 
ATOM     80  C   UNL A   1      39.321  34.059  36.628  1.00  0.00     0.055 A 
ATOM     81  C   UNL A   1      37.968  32.196  37.321  1.00  0.00     0.041 A 
ATOM     82  F   UNL A   1      38.040  30.200  36.101  1.00  0.00    -0.206 F 
ATOM     83  C   UNL A   1      38.413  33.496  37.531  1.00  0.00     0.022 A 
BRANCH  80  84
ATOM     84  S   UNL A   1      40.066  35.674  36.971  1.00  0.00     0.124 S 
ATOM     85  O   UNL A   1      41.484  35.336  37.027  1.00  0.00    -0.237 OA
ATOM     86  O   UNL A   1      39.637  36.455  35.817  1.00  0.00    -0.237 OA
ATOM     87  O   UNL A   1      39.465  36.060  38.245  1.00  0.00    -0.744 OA
ENDBRANCH  80  84
ENDBRANCH  53  77
BRANCH  65  88
ATOM     88  C   UNL A   1      44.490  27.402  34.536  1.00  0.00     0.023 A 
ATOM     89  C   UNL A   1      45.716  28.076  34.664  1.00  0.00     0.031 A 
ATOM     90  C   UNL A   1      44.300  26.225  35.281  1.00  0.00     0.131 A 
ATOM     91  C   UNL A   1      46.733  27.531  35.461  1.00  0.00     0.055 A 
ATOM     92  C   UNL A   1      45.289  25.726  36.130  1.00  0.00     0.041 A 
ATOM     93  F   UNL A   1      43.152  25.536  35.192  1.00  0.00    -0.206 F 
ATOM     94  C   UNL A   1      46.521  26.370  36.210  1.00  0.00     0.022 A 
BRANCH  91  95
ATOM     95  S   UNL A   1      48.377  28.294  35.413  1.00  0.00     0.124 S 
ATOM     96  O   UNL A   1      49.212  27.186  34.964  1.00  0.00    -0.237 OA
ATOM     97  O   UNL A   1      48.189  29.380  34.456  1.00  0.00    -0.237 OA
ATOM     98  O   UNL A   1      48.598  28.719  36.795  1.00  0.00    -0.744 OA
ENDBRANCH  91  95
ENDBRANCH  65  88
ENDBRANCH  39  40
ENDBRANCH  32  34
ENDBRANCH  31  32
ENDBRANCH  30  31
ENDBRANCH   1  30
TORSDOF 21
ENDMDL
MODEL 3
REMARK VINA RESULT:     -10.1      2.887      8.967
REMARK SMILES C=CCN1C(=O)/C(=C/c2ccc(OCC(=O)OCCOC(=O)c3ccc(-c4c5nc(c(-c6cc(S(=O)(=O)[O-])ccc6F)c6ccc([nH]6)c(-c6cc(S(=O)(=O)[O-])ccc6F)c6nc(c(-c7cc(S(=O)(=O)[O-])ccc7F)c7ccc4[nH]7)C=C6)C=C5)cc3)c(OC)c2)C(=O)[NH+]=C1S
REMARK SMILES IDX 18 1 17 2 15 3 16 4 14 5 13 6 12 7 9 8 10 9 89 10 11 11
REMARK SMILES IDX 86 12 8 13 4 14 5 15 93 16 6 17 7 18 92 19 90 20 91 22 3 23
REMARK SMILES IDX 2 24 1 25 94 26 87 28 88 29 19 30 20 31 21 32 22 33 23 34
REMARK SMILES IDX 24 35 85 36 25 37 84 38 26 39 27 40 28 41 78 42 29 43 83 44
REMARK SMILES IDX 77 45 79 46 30 47 82 48 76 49 75 50 31 52 63 53 43 54 62 55
REMARK SMILES IDX 44 56 47 57 61 58 80 59 45 60 46 61 60 63 81 64 48 65 32 66
REMARK SMILES IDX 33 67 41 68 34 69 40 70 42 71 39 72 35 73 36 74 37 75 38 76
REMARK SMILES IDX 64 77 65 78 73 79 66 80 72 81 74 82 71 83 67 84 68 85 69 86
REMARK SMILES IDX 70 87 49 88 50 89 58 90 51 91 57 92 59 93 56 94 52 95 53 96
REMARK SMILES IDX 54 97 55 98
REMARK H PARENT 92 21 94 27 79 51 47 62
REMARK Flexibility Score: inf
ROOT
ATOM      1  C   UNL A   1      31.790  29.466  25.743  1.00  0.00     0.274 C 
ENDROOT
BRANCH   1   2
ATOM      2  O   UNL A   1      31.542  28.040  25.745  1.00  0.00    -0.460 OA
BRANCH   2   3
ATOM      3  C   UNL A   1      30.871  27.551  24.670  1.00  0.00     0.344 C 
ATOM      4  O   UNL A   1      30.600  28.220  23.673  1.00  0.00    -0.248 OA
BRANCH   3   5
ATOM      5  C   UNL A   1      30.400  26.096  24.812  1.00  0.00     0.352 C 
BRANCH   5   6
ATOM      6  O   UNL A   1      31.059  24.993  24.219  1.00  0.00    -0.478 OA
BRANCH   6   7
ATOM      7  C   UNL A   1      32.390  24.781  24.454  1.00  0.00     0.162 A 
ATOM      8  C   UNL A   1      35.031  24.522  25.399  1.00  0.00    -0.021 A 
ATOM      9  C   UNL A   1      33.970  24.175  26.225  1.00  0.00     0.012 A 
ATOM     10  C   UNL A   1      34.766  24.866  24.075  1.00  0.00     0.058 A 
ATOM     11  C   UNL A   1      32.658  24.330  25.757  1.00  0.00     0.051 A 
ATOM     12  C   UNL A   1      33.460  24.918  23.569  1.00  0.00     0.161 A 
BRANCH   8  13
ATOM     13  C   UNL A   1      36.437  24.479  25.807  1.00  0.00     0.032 C 
ATOM     14  N   UNL A   1      39.314  22.364  26.507  1.00  0.00    -0.183 N 
ATOM     15  C   UNL A   1      38.520  23.496  26.509  1.00  0.00     0.349 C 
ATOM     16  C   UNL A   1      38.890  21.228  25.869  1.00  0.00     0.318 C 
ATOM     17  O   UNL A   1      38.837  24.537  27.085  1.00  0.00    -0.240 OA
ATOM     18  C   UNL A   1      37.235  23.387  25.779  1.00  0.00     0.154 C 
ATOM     19  N   UNL A   1      37.784  21.089  25.233  1.00  0.00    -0.200 N 
ATOM     20  C   UNL A   1      36.903  22.117  25.088  1.00  0.00     0.347 C 
ATOM     21  H   UNL A   1      37.565  20.213  24.841  1.00  0.00     0.316 HD
ATOM     22  O   UNL A   1      35.938  22.002  24.339  1.00  0.00    -0.241 OA
BRANCH  14  23
ATOM     23  C   UNL A   1      40.593  22.477  27.212  1.00  0.00     0.275 C 
BRANCH  23  24
ATOM     24  C   UNL A   1      41.575  23.161  26.299  1.00  0.00     0.011 C 
ATOM     25  C   UNL A   1      42.455  22.509  25.528  1.00  0.00     0.008 C 
ENDBRANCH  23  24
ENDBRANCH  14  23
BRANCH  16  26
ATOM     26  S   UNL A   1      39.920  19.812  25.842  1.00  0.00    -0.055 SA
ATOM     27  H   UNL A   1      40.764  19.845  26.908  1.00  0.00     0.116 HD
ENDBRANCH  16  26
ENDBRANCH   8  13
BRANCH  12  28
ATOM     28  O   UNL A   1      33.217  25.060  22.228  1.00  0.00    -0.493 OA
ATOM     29  C   UNL A   1      32.981  26.398  21.797  1.00  0.00     0.278 C 
ENDBRANCH  12  28
ENDBRANCH   6   7
ENDBRANCH   5   6
ENDBRANCH   3   5
ENDBRANCH   2   3
ENDBRANCH   1   2
BRANCH   1  30
ATOM     30  C   UNL A   1      32.476  29.940  27.028  1.00  0.00     0.275 C 
BRANCH  30  31
ATOM     31  O   UNL A   1      33.825  30.384  26.768  1.00  0.00    -0.458 OA
BRANCH  31  32
ATOM     32  C   UNL A   1      34.735  29.409  26.976  1.00  0.00     0.338 C 
ATOM     33  O   UNL A   1      34.707  28.283  26.509  1.00  0.00    -0.246 OA
BRANCH  32  34
ATOM     34  C   UNL A   1      35.847  29.791  27.849  1.00  0.00     0.060 A 
ATOM     35  C   UNL A   1      37.092  30.030  27.270  1.00  0.00     0.016 A 
ATOM     36  C   UNL A   1      35.741  29.483  29.209  1.00  0.00     0.016 A 
ATOM     37  C   UNL A   1      38.241  29.852  28.038  1.00  0.00     0.010 A 
ATOM     38  C   UNL A   1      36.898  29.362  29.988  1.00  0.00     0.010 A 
ATOM     39  C   UNL A   1      38.163  29.499  29.400  1.00  0.00    -0.014 A 
BRANCH  39  40
ATOM     40  C   UNL A   1      39.403  29.354  30.216  1.00  0.00     0.031 A 
ATOM     41  C   UNL A   1      40.500  28.367  29.885  1.00  0.00     0.074 A 
ATOM     42  C   UNL A   1      39.523  30.147  31.297  1.00  0.00     0.049 A 
ATOM     43  N   UNL A   1      41.571  28.060  30.578  1.00  0.00    -0.248 NA
ATOM     44  C   UNL A   1      40.405  27.647  28.608  1.00  0.00     0.031 C 
ATOM     45  C   UNL A   1      38.566  31.187  31.688  1.00  0.00     0.029 A 
ATOM     46  N   UNL A   1      40.483  30.195  32.273  1.00  0.00    -0.354 N 
ATOM     47  C   UNL A   1      42.282  27.131  29.818  1.00  0.00     0.074 A 
ATOM     48  C   UNL A   1      41.515  26.917  28.609  1.00  0.00     0.031 C 
ATOM     49  C   UNL A   1      38.986  31.769  32.815  1.00  0.00     0.029 A 
ATOM     50  C   UNL A   1      40.168  31.066  33.289  1.00  0.00     0.049 A 
ATOM     51  H   UNL A   1      41.310  29.662  32.250  1.00  0.00     0.167 HD
ATOM     52  C   UNL A   1      43.451  26.506  30.116  1.00  0.00     0.034 A 
ATOM     53  C   UNL A   1      40.711  31.229  34.508  1.00  0.00     0.034 A 
ATOM     54  C   UNL A   1      44.167  26.688  31.361  1.00  0.00     0.049 A 
ATOM     55  C   UNL A   1      41.899  30.397  34.888  1.00  0.00     0.074 A 
ATOM     56  C   UNL A   1      45.344  26.085  31.777  1.00  0.00     0.029 A 
ATOM     57  N   UNL A   1      43.764  27.516  32.402  1.00  0.00    -0.354 N 
ATOM     58  N   UNL A   1      42.538  29.498  34.177  1.00  0.00    -0.248 NA
ATOM     59  C   UNL A   1      42.444  30.605  36.234  1.00  0.00     0.031 C 
ATOM     60  C   UNL A   1      45.599  26.475  33.096  1.00  0.00     0.029 A 
ATOM     61  C   UNL A   1      44.642  27.402  33.471  1.00  0.00     0.049 A 
ATOM     62  H   UNL A   1      42.971  28.098  32.382  1.00  0.00     0.167 HD
ATOM     63  C   UNL A   1      43.587  29.062  34.979  1.00  0.00     0.074 A 
ATOM     64  C   UNL A   1      43.499  29.806  36.218  1.00  0.00     0.031 C 
ATOM     65  C   UNL A   1      44.540  28.135  34.709  1.00  0.00     0.034 A 
BRANCH  52  66
ATOM     66  C   UNL A   1      44.015  25.509  29.123  1.00  0.00     0.023 A 
ATOM     67  C   UNL A   1      44.732  25.909  27.982  1.00  0.00     0.031 A 
ATOM     68  C   UNL A   1      43.891  24.125  29.364  1.00  0.00     0.131 A 
ATOM     69  C   UNL A   1      45.277  24.940  27.119  1.00  0.00     0.055 A 
ATOM     70  C   UNL A   1      44.488  23.171  28.538  1.00  0.00     0.041 A 
ATOM     71  F   UNL A   1      43.199  23.678  30.425  1.00  0.00    -0.206 F 
ATOM     72  C   UNL A   1      45.183  23.576  27.404  1.00  0.00     0.022 A 
BRANCH  69  73
ATOM     73  S   UNL A   1      46.030  25.480  25.559  1.00  0.00     0.124 S 
ATOM     74  O   UNL A   1      45.565  26.862  25.469  1.00  0.00    -0.237 OA
ATOM     75  O   UNL A   1      47.454  25.299  25.816  1.00  0.00    -0.237 OA
ATOM     76  O   UNL A   1      45.455  24.572  24.567  1.00  0.00    -0.744 OA
ENDBRANCH  69  73
ENDBRANCH  52  66
BRANCH  53  77
ATOM     77  C   UNL A   1      40.080  32.168  35.474  1.00  0.00     0.023 A 
ATOM     78  C   UNL A   1      39.250  31.690  36.495  1.00  0.00     0.031 A 
ATOM     79  C   UNL A   1      40.276  33.558  35.373  1.00  0.00     0.131 A 
ATOM     80  C   UNL A   1      38.604  32.597  37.343  1.00  0.00     0.055 A 
ATOM     81  C   UNL A   1      39.695  34.452  36.271  1.00  0.00     0.041 A 
ATOM     82  F   UNL A   1      41.060  34.069  34.409  1.00  0.00    -0.206 F 
ATOM     83  C   UNL A   1      38.837  33.972  37.254  1.00  0.00     0.022 A 
BRANCH  80  84
ATOM     84  S   UNL A   1      37.351  31.955  38.483  1.00  0.00     0.124 S 
ATOM     85  O   UNL A   1      37.229  30.572  38.036  1.00  0.00    -0.237 OA
ATOM     86  O   UNL A   1      37.990  32.158  39.779  1.00  0.00    -0.237 OA
ATOM     87  O   UNL A   1      36.190  32.802  38.221  1.00  0.00    -0.744 OA
ENDBRANCH  80  84
ENDBRANCH  53  77
BRANCH  65  88
ATOM     88  C   UNL A   1      45.599  27.927  35.765  1.00  0.00     0.023 A 
ATOM     89  C   UNL A   1      45.438  26.990  36.800  1.00  0.00     0.031 A 
ATOM     90  C   UNL A   1      46.765  28.712  35.758  1.00  0.00     0.131 A 
ATOM     91  C   UNL A   1      46.391  26.914  37.826  1.00  0.00     0.055 A 
ATOM     92  C   UNL A   1      47.745  28.580  36.742  1.00  0.00     0.041 A 
ATOM     93  F   UNL A   1      46.968  29.627  34.797  1.00  0.00    -0.206 F 
ATOM     94  C   UNL A   1      47.553  27.689  37.794  1.00  0.00     0.022 A 
BRANCH  91  95
ATOM     95  S   UNL A   1      46.032  25.872  39.267  1.00  0.00     0.124 S 
ATOM     96  O   UNL A   1      45.049  26.676  39.985  1.00  0.00    -0.237 OA
ATOM     97  O   UNL A   1      45.529  24.649  38.650  1.00  0.00    -0.237 OA
ATOM     98  O   UNL A   1      47.331  25.743  39.927  1.00  0.00    -0.744 OA
ENDBRANCH  91  95
ENDBRANCH  65  88
ENDBRANCH  39  40
ENDBRANCH  32  34
ENDBRANCH  31  32
ENDBRANCH  30  31
ENDBRANCH   1  30
TORSDOF 21
ENDMDL
