MODEL 1
REMARK VINA RESULT:     -12.0      0.000      0.000
REMARK SMILES Nc1c(CC(=O)OCCOC(=O)c2ccc(-c3c4nc(c(-c5cc(S(=O)(=O)[O-])ccc5F)c5ccc([nH]5)c(-c5cc(S(=O)(=O)[O-])ccc5F)c5nc(c(-c6cc(S(=O)(=O)[O-])ccc6F)c6ccc3[nH]6)C=C5)C=C4)cc2)cccc1C(=O)c1ccc(Br)cc1
REMARK SMILES IDX 8 1 7 2 5 3 6 4 4 5 3 6 2 7 79 8 76 9 78 10 77 11 1 12 80 15
REMARK SMILES IDX 81 16 82 17 83 18 88 19 84 20 87 21 85 22 86 23 9 24 10 25
REMARK SMILES IDX 11 26 12 27 13 28 14 29 75 30 15 31 74 32 16 33 17 34 18 35
REMARK SMILES IDX 68 36 19 37 73 38 67 39 69 40 20 41 72 42 66 43 65 44 21 46
REMARK SMILES IDX 53 47 33 48 52 49 34 50 37 51 51 52 70 53 35 54 36 55 50 57
REMARK SMILES IDX 71 58 38 59 22 60 23 61 31 62 24 63 30 64 32 65 29 66 25 67
REMARK SMILES IDX 26 68 27 69 28 70 54 71 55 72 63 73 56 74 62 75 64 76 61 77
REMARK SMILES IDX 57 78 58 79 59 80 60 81 39 82 40 83 48 84 41 85 47 86 49 87
REMARK SMILES IDX 46 88 42 89 43 90 44 91 45 92
REMARK H PARENT 1 13 1 14 69 45 37 56
REMARK Flexibility Score: inf
ROOT
ATOM      1  C   UNL A   1      31.142  29.691  24.622  1.00  0.00     0.274 C 
ENDROOT
BRANCH   1   2
ATOM      2  O   UNL A   1      31.331  28.654  23.641  1.00  0.00    -0.462 OA
BRANCH   2   3
ATOM      3  C   UNL A   1      30.260  28.368  22.858  1.00  0.00     0.310 C 
ATOM      4  O   UNL A   1      29.899  29.042  21.898  1.00  0.00    -0.252 OA
BRANCH   3   5
ATOM      5  C   UNL A   1      29.551  27.090  23.234  1.00  0.00     0.160 C 
BRANCH   5   6
ATOM      6  C   UNL A   1      30.360  26.049  23.972  1.00  0.00    -0.013 A 
ATOM      7  C   UNL A   1      31.274  25.209  23.301  1.00  0.00     0.047 A 
ATOM      8  C   UNL A   1      32.127  24.395  24.089  1.00  0.00     0.046 A 
ATOM      9  C   UNL A   1      30.181  25.931  25.363  1.00  0.00     0.006 A 
ATOM     10  C   UNL A   1      31.935  24.294  25.477  1.00  0.00     0.014 A 
ATOM     11  C   UNL A   1      30.948  25.044  26.108  1.00  0.00     0.001 A 
BRANCH   7  12
ATOM     12  N   UNL A   1      31.355  25.260  21.910  1.00  0.00    -0.398 N 
ATOM     13  H   UNL A   1      31.816  24.543  21.418  1.00  0.00     0.156 HD
ATOM     14  H   UNL A   1      30.951  26.012  21.420  1.00  0.00     0.156 HD
ENDBRANCH   7  12
BRANCH   8  15
ATOM     15  C   UNL A   1      33.262  23.601  23.532  1.00  0.00     0.195 C 
ATOM     16  O   UNL A   1      34.175  24.154  22.926  1.00  0.00    -0.289 OA
BRANCH  15  17
ATOM     17  C   UNL A   1      33.333  22.132  23.713  1.00  0.00     0.023 A 
ATOM     18  C   UNL A   1      34.356  21.624  24.521  1.00  0.00     0.013 A 
ATOM     19  C   UNL A   1      32.356  21.278  23.185  1.00  0.00     0.013 A 
ATOM     20  C   UNL A   1      34.363  20.271  24.862  1.00  0.00     0.016 A 
ATOM     21  C   UNL A   1      32.368  19.923  23.526  1.00  0.00     0.016 A 
ATOM     22  C   UNL A   1      33.361  19.431  24.376  1.00  0.00     0.018 A 
ATOM     23  Br  UNL A   1      33.333  17.614  24.898  1.00  0.00    -0.051 Br
ENDBRANCH  15  17
ENDBRANCH   8  15
ENDBRANCH   5   6
ENDBRANCH   3   5
ENDBRANCH   2   3
ENDBRANCH   1   2
BRANCH   1  24
ATOM     24  C   UNL A   1      31.889  29.331  25.902  1.00  0.00     0.275 C 
BRANCH  24  25
ATOM     25  O   UNL A   1      33.145  30.032  25.945  1.00  0.00    -0.458 OA
BRANCH  25  26
ATOM     26  C   UNL A   1      33.199  31.066  26.818  1.00  0.00     0.338 C 
ATOM     27  O   UNL A   1      32.400  31.976  26.944  1.00  0.00    -0.246 OA
BRANCH  26  28
ATOM     28  C   UNL A   1      34.424  30.961  27.625  1.00  0.00     0.060 A 
ATOM     29  C   UNL A   1      35.269  32.061  27.783  1.00  0.00     0.016 A 
ATOM     30  C   UNL A   1      34.775  29.717  28.147  1.00  0.00     0.016 A 
ATOM     31  C   UNL A   1      36.505  31.905  28.410  1.00  0.00     0.010 A 
ATOM     32  C   UNL A   1      35.974  29.585  28.847  1.00  0.00     0.010 A 
ATOM     33  C   UNL A   1      36.862  30.670  28.967  1.00  0.00    -0.014 A 
BRANCH  33  34
ATOM     34  C   UNL A   1      38.156  30.469  29.671  1.00  0.00     0.031 A 
ATOM     35  C   UNL A   1      39.189  29.557  29.068  1.00  0.00     0.074 A 
ATOM     36  C   UNL A   1      38.373  31.032  30.875  1.00  0.00     0.049 A 
ATOM     37  N   UNL A   1      40.222  28.987  29.628  1.00  0.00    -0.248 NA
ATOM     38  C   UNL A   1      39.014  29.232  27.645  1.00  0.00     0.031 C 
ATOM     39  C   UNL A   1      37.484  31.987  31.538  1.00  0.00     0.029 A 
ATOM     40  N   UNL A   1      39.397  30.855  31.771  1.00  0.00    -0.354 N 
ATOM     41  C   UNL A   1      40.797  28.194  28.640  1.00  0.00     0.074 A 
ATOM     42  C   UNL A   1      39.989  28.355  27.449  1.00  0.00     0.031 C 
ATOM     43  C   UNL A   1      37.994  32.302  32.739  1.00  0.00     0.029 A 
ATOM     44  C   UNL A   1      39.193  31.503  32.967  1.00  0.00     0.049 A 
ATOM     45  H   UNL A   1      40.199  30.317  31.577  1.00  0.00     0.167 HD
ATOM     46  C   UNL A   1      41.894  27.400  28.729  1.00  0.00     0.034 A 
ATOM     47  C   UNL A   1      39.854  31.412  34.140  1.00  0.00     0.034 A 
ATOM     48  C   UNL A   1      42.691  27.271  29.925  1.00  0.00     0.049 A 
ATOM     49  C   UNL A   1      41.021  30.465  34.245  1.00  0.00     0.074 A 
ATOM     50  C   UNL A   1      43.818  26.496  30.136  1.00  0.00     0.029 A 
ATOM     51  N   UNL A   1      42.443  27.942  31.117  1.00  0.00    -0.354 N 
ATOM     52  N   UNL A   1      41.516  29.663  33.331  1.00  0.00    -0.248 NA
ATOM     53  C   UNL A   1      41.708  30.402  35.541  1.00  0.00     0.031 C 
ATOM     54  C   UNL A   1      44.220  26.658  31.468  1.00  0.00     0.029 A 
ATOM     55  C   UNL A   1      43.384  27.585  32.069  1.00  0.00     0.049 A 
ATOM     56  H   UNL A   1      41.707  28.578  31.263  1.00  0.00     0.167 HD
ATOM     57  C   UNL A   1      42.595  29.024  33.934  1.00  0.00     0.074 A 
ATOM     58  C   UNL A   1      42.675  29.531  35.289  1.00  0.00     0.031 C 
ATOM     59  C   UNL A   1      43.450  28.110  33.412  1.00  0.00     0.034 A 
BRANCH  46  60
ATOM     60  C   UNL A   1      42.249  26.567  27.522  1.00  0.00     0.023 A 
ATOM     61  C   UNL A   1      41.867  25.219  27.408  1.00  0.00     0.031 A 
ATOM     62  C   UNL A   1      43.013  27.125  26.480  1.00  0.00     0.131 A 
ATOM     63  C   UNL A   1      42.308  24.458  26.315  1.00  0.00     0.055 A 
ATOM     64  C   UNL A   1      43.382  26.383  25.357  1.00  0.00     0.041 A 
ATOM     65  F   UNL A   1      43.425  28.401  26.543  1.00  0.00    -0.206 F 
ATOM     66  C   UNL A   1      43.042  25.036  25.277  1.00  0.00     0.022 A 
BRANCH  63  67
ATOM     67  S   UNL A   1      42.024  22.666  26.337  1.00  0.00     0.124 S 
ATOM     68  O   UNL A   1      40.565  22.599  26.391  1.00  0.00    -0.237 OA
ATOM     69  O   UNL A   1      42.637  22.234  25.087  1.00  0.00    -0.237 OA
ATOM     70  O   UNL A   1      42.706  22.226  27.552  1.00  0.00    -0.744 OA
ENDBRANCH  63  67
ENDBRANCH  46  60
BRANCH  47  71
ATOM     71  C   UNL A   1      39.381  32.179  35.327  1.00  0.00     0.023 A 
ATOM     72  C   UNL A   1      39.803  33.499  35.547  1.00  0.00     0.031 A 
ATOM     73  C   UNL A   1      38.519  31.593  36.271  1.00  0.00     0.131 A 
ATOM     74  C   UNL A   1      39.387  34.180  36.702  1.00  0.00     0.055 A 
ATOM     75  C   UNL A   1      38.068  32.292  37.392  1.00  0.00     0.041 A 
ATOM     76  F   UNL A   1      38.085  30.334  36.107  1.00  0.00    -0.206 F 
ATOM     77  C   UNL A   1      38.513  33.591  37.618  1.00  0.00     0.022 A 
BRANCH  74  78
ATOM     78  S   UNL A   1      40.068  35.828  37.028  1.00  0.00     0.124 S 
ATOM     79  O   UNL A   1      39.387  36.191  38.265  1.00  0.00    -0.237 OA
ATOM     80  O   UNL A   1      41.497  35.549  37.141  1.00  0.00    -0.237 OA
ATOM     81  O   UNL A   1      39.677  36.598  35.849  1.00  0.00    -0.744 OA
ENDBRANCH  74  78
ENDBRANCH  47  71
BRANCH  59  82
ATOM     82  C   UNL A   1      44.589  27.660  34.287  1.00  0.00     0.023 A 
ATOM     83  C   UNL A   1      44.506  26.505  35.080  1.00  0.00     0.031 A 
ATOM     84  C   UNL A   1      45.783  28.403  34.308  1.00  0.00     0.131 A 
ATOM     85  C   UNL A   1      45.592  26.141  35.892  1.00  0.00     0.055 A 
ATOM     86  C   UNL A   1      46.874  28.013  35.083  1.00  0.00     0.041 A 
ATOM     87  F   UNL A   1      45.909  29.514  33.566  1.00  0.00    -0.206 F 
ATOM     88  C   UNL A   1      46.779  26.880  35.887  1.00  0.00     0.022 A 
BRANCH  85  89
ATOM     89  S   UNL A   1      45.421  24.710  36.992  1.00  0.00     0.124 S 
ATOM     90  O   UNL A   1      46.811  24.415  37.323  1.00  0.00    -0.237 OA
ATOM     91  O   UNL A   1      44.606  25.243  38.080  1.00  0.00    -0.237 OA
ATOM     92  O   UNL A   1      44.757  23.711  36.156  1.00  0.00    -0.744 OA
ENDBRANCH  85  89
ENDBRANCH  59  82
ENDBRANCH  33  34
ENDBRANCH  26  28
ENDBRANCH  25  26
ENDBRANCH  24  25
ENDBRANCH   1  24
TORSDOF 18
ENDMDL
MODEL 2
REMARK VINA RESULT:     -11.9      1.376      1.843
REMARK SMILES Nc1c(CC(=O)OCCOC(=O)c2ccc(-c3c4nc(c(-c5cc(S(=O)(=O)[O-])ccc5F)c5ccc([nH]5)c(-c5cc(S(=O)(=O)[O-])ccc5F)c5nc(c(-c6cc(S(=O)(=O)[O-])ccc6F)c6ccc3[nH]6)C=C5)C=C4)cc2)cccc1C(=O)c1ccc(Br)cc1
REMARK SMILES IDX 8 1 7 2 5 3 6 4 4 5 3 6 2 7 79 8 76 9 78 10 77 11 1 12 80 15
REMARK SMILES IDX 81 16 82 17 83 18 88 19 84 20 87 21 85 22 86 23 9 24 10 25
REMARK SMILES IDX 11 26 12 27 13 28 14 29 75 30 15 31 74 32 16 33 17 34 18 35
REMARK SMILES IDX 68 36 19 37 73 38 67 39 69 40 20 41 72 42 66 43 65 44 21 46
REMARK SMILES IDX 53 47 33 48 52 49 34 50 37 51 51 52 70 53 35 54 36 55 50 57
REMARK SMILES IDX 71 58 38 59 22 60 23 61 31 62 24 63 30 64 32 65 29 66 25 67
REMARK SMILES IDX 26 68 27 69 28 70 54 71 55 72 63 73 56 74 62 75 64 76 61 77
REMARK SMILES IDX 57 78 58 79 59 80 60 81 39 82 40 83 48 84 41 85 47 86 49 87
REMARK SMILES IDX 46 88 42 89 43 90 44 91 45 92
REMARK H PARENT 1 13 1 14 69 45 37 56
REMARK Flexibility Score: inf
ROOT
ATOM      1  C   UNL A   1      31.770  28.612  24.711  1.00  0.00     0.274 C 
ENDROOT
BRANCH   1   2
ATOM      2  O   UNL A   1      30.423  28.385  24.256  1.00  0.00    -0.462 OA
BRANCH   2   3
ATOM      3  C   UNL A   1      30.269  27.453  23.281  1.00  0.00     0.310 C 
ATOM      4  O   UNL A   1      30.681  27.573  22.133  1.00  0.00    -0.252 OA
BRANCH   3   5
ATOM      5  C   UNL A   1      29.574  26.194  23.742  1.00  0.00     0.160 C 
BRANCH   5   6
ATOM      6  C   UNL A   1      30.420  25.169  24.461  1.00  0.00    -0.013 A 
ATOM      7  C   UNL A   1      31.332  24.344  23.768  1.00  0.00     0.047 A 
ATOM      8  C   UNL A   1      32.218  23.546  24.536  1.00  0.00     0.046 A 
ATOM      9  C   UNL A   1      30.279  25.051  25.856  1.00  0.00     0.006 A 
ATOM     10  C   UNL A   1      32.063  23.445  25.928  1.00  0.00     0.014 A 
ATOM     11  C   UNL A   1      31.080  24.178  26.583  1.00  0.00     0.001 A 
BRANCH   7  12
ATOM     12  N   UNL A   1      31.376  24.394  22.375  1.00  0.00    -0.398 N 
ATOM     13  H   UNL A   1      32.032  24.974  21.925  1.00  0.00     0.156 HD
ATOM     14  H   UNL A   1      30.753  23.850  21.843  1.00  0.00     0.156 HD
ENDBRANCH   7  12
BRANCH   8  15
ATOM     15  C   UNL A   1      33.352  22.771  23.951  1.00  0.00     0.195 C 
ATOM     16  O   UNL A   1      34.232  23.337  23.308  1.00  0.00    -0.289 OA
BRANCH  15  17
ATOM     17  C   UNL A   1      33.463  21.307  24.148  1.00  0.00     0.023 A 
ATOM     18  C   UNL A   1      32.397  20.509  23.718  1.00  0.00     0.013 A 
ATOM     19  C   UNL A   1      34.631  20.718  24.650  1.00  0.00     0.013 A 
ATOM     20  C   UNL A   1      32.525  19.120  23.723  1.00  0.00     0.016 A 
ATOM     21  C   UNL A   1      34.754  19.327  24.656  1.00  0.00     0.016 A 
ATOM     22  C   UNL A   1      33.707  18.536  24.177  1.00  0.00     0.018 A 
ATOM     23  Br  UNL A   1      33.903  16.657  24.115  1.00  0.00    -0.051 Br
ENDBRANCH  15  17
ENDBRANCH   8  15
ENDBRANCH   5   6
ENDBRANCH   3   5
ENDBRANCH   2   3
ENDBRANCH   1   2
BRANCH   1  24
ATOM     24  C   UNL A   1      31.773  29.679  25.800  1.00  0.00     0.275 C 
BRANCH  24  25
ATOM     25  O   UNL A   1      33.063  30.314  25.855  1.00  0.00    -0.458 OA
BRANCH  25  26
ATOM     26  C   UNL A   1      33.252  31.149  26.904  1.00  0.00     0.338 C 
ATOM     27  O   UNL A   1      32.489  32.001  27.323  1.00  0.00    -0.246 OA
BRANCH  26  28
ATOM     28  C   UNL A   1      34.575  30.902  27.494  1.00  0.00     0.060 A 
ATOM     29  C   UNL A   1      34.979  29.606  27.820  1.00  0.00     0.016 A 
ATOM     30  C   UNL A   1      35.379  31.995  27.813  1.00  0.00     0.016 A 
ATOM     31  C   UNL A   1      36.164  29.402  28.528  1.00  0.00     0.010 A 
ATOM     32  C   UNL A   1      36.603  31.781  28.446  1.00  0.00     0.010 A 
ATOM     33  C   UNL A   1      36.998  30.486  28.830  1.00  0.00    -0.014 A 
BRANCH  33  34
ATOM     34  C   UNL A   1      38.284  30.310  29.556  1.00  0.00     0.031 A 
ATOM     35  C   UNL A   1      39.310  29.353  29.016  1.00  0.00     0.074 A 
ATOM     36  C   UNL A   1      38.498  30.939  30.727  1.00  0.00     0.049 A 
ATOM     37  N   UNL A   1      40.332  28.804  29.618  1.00  0.00    -0.248 NA
ATOM     38  C   UNL A   1      39.143  28.947  27.613  1.00  0.00     0.031 C 
ATOM     39  C   UNL A   1      37.616  31.942  31.326  1.00  0.00     0.029 A 
ATOM     40  N   UNL A   1      39.513  30.803  31.641  1.00  0.00    -0.354 N 
ATOM     41  C   UNL A   1      40.906  27.948  28.683  1.00  0.00     0.074 A 
ATOM     42  C   UNL A   1      40.109  28.049  27.477  1.00  0.00     0.031 C 
ATOM     43  C   UNL A   1      38.121  32.320  32.511  1.00  0.00     0.029 A 
ATOM     44  C   UNL A   1      39.308  31.521  32.796  1.00  0.00     0.049 A 
ATOM     45  H   UNL A   1      40.310  30.245  31.486  1.00  0.00     0.167 HD
ATOM     46  C   UNL A   1      41.991  27.148  28.827  1.00  0.00     0.034 A 
ATOM     47  C   UNL A   1      39.957  31.492  33.977  1.00  0.00     0.034 A 
ATOM     48  C   UNL A   1      42.777  27.079  30.035  1.00  0.00     0.049 A 
ATOM     49  C   UNL A   1      41.112  30.539  34.148  1.00  0.00     0.074 A 
ATOM     50  C   UNL A   1      43.893  26.304  30.301  1.00  0.00     0.029 A 
ATOM     51  N   UNL A   1      42.528  27.821  31.184  1.00  0.00    -0.354 N 
ATOM     52  N   UNL A   1      41.605  29.679  33.286  1.00  0.00    -0.248 NA
ATOM     53  C   UNL A   1      41.788  30.542  35.451  1.00  0.00     0.031 C 
ATOM     54  C   UNL A   1      44.286  26.539  31.624  1.00  0.00     0.029 A 
ATOM     55  C   UNL A   1      43.457  27.509  32.163  1.00  0.00     0.049 A 
ATOM     56  H   UNL A   1      41.798  28.473  31.287  1.00  0.00     0.167 HD
ATOM     57  C   UNL A   1      42.671  29.064  33.935  1.00  0.00     0.074 A 
ATOM     58  C   UNL A   1      42.746  29.647  35.259  1.00  0.00     0.031 C 
ATOM     59  C   UNL A   1      43.518  28.110  33.474  1.00  0.00     0.034 A 
BRANCH  46  60
ATOM     60  C   UNL A   1      42.346  26.241  27.673  1.00  0.00     0.023 A 
ATOM     61  C   UNL A   1      41.841  24.934  27.571  1.00  0.00     0.031 A 
ATOM     62  C   UNL A   1      43.232  26.685  26.675  1.00  0.00     0.131 A 
ATOM     63  C   UNL A   1      42.280  24.095  26.534  1.00  0.00     0.055 A 
ATOM     64  C   UNL A   1      43.604  25.871  25.604  1.00  0.00     0.041 A 
ATOM     65  F   UNL A   1      43.764  27.917  26.731  1.00  0.00    -0.206 F 
ATOM     66  C   UNL A   1      43.139  24.562  25.537  1.00  0.00     0.022 A 
BRANCH  63  67
ATOM     67  S   UNL A   1      41.819  22.341  26.587  1.00  0.00     0.124 S 
ATOM     68  O   UNL A   1      42.458  21.832  25.375  1.00  0.00    -0.237 OA
ATOM     69  O   UNL A   1      42.401  21.899  27.849  1.00  0.00    -0.237 OA
ATOM     70  O   UNL A   1      40.359  22.369  26.548  1.00  0.00    -0.744 OA
ENDBRANCH  63  67
ENDBRANCH  46  60
BRANCH  47  71
ATOM     71  C   UNL A   1      39.485  32.332  35.113  1.00  0.00     0.023 A 
ATOM     72  C   UNL A   1      38.787  31.763  36.190  1.00  0.00     0.031 A 
ATOM     73  C   UNL A   1      39.702  33.721  35.126  1.00  0.00     0.131 A 
ATOM     74  C   UNL A   1      38.305  32.585  37.220  1.00  0.00     0.055 A 
ATOM     75  C   UNL A   1      39.264  34.527  36.178  1.00  0.00     0.041 A 
ATOM     76  F   UNL A   1      40.365  34.316  34.121  1.00  0.00    -0.206 F 
ATOM     77  C   UNL A   1      38.550  33.960  37.229  1.00  0.00     0.022 A 
BRANCH  74  78
ATOM     78  S   UNL A   1      37.283  31.837  38.518  1.00  0.00     0.124 S 
ATOM     79  O   UNL A   1      38.153  31.950  39.682  1.00  0.00    -0.237 OA
ATOM     80  O   UNL A   1      36.105  32.700  38.512  1.00  0.00    -0.237 OA
ATOM     81  O   UNL A   1      37.058  30.477  38.034  1.00  0.00    -0.744 OA
ENDBRANCH  74  78
ENDBRANCH  47  71
BRANCH  59  82
ATOM     82  C   UNL A   1      44.645  27.699  34.384  1.00  0.00     0.023 A 
ATOM     83  C   UNL A   1      44.507  26.656  35.314  1.00  0.00     0.031 A 
ATOM     84  C   UNL A   1      45.882  28.361  34.299  1.00  0.00     0.131 A 
ATOM     85  C   UNL A   1      45.583  26.326  36.151  1.00  0.00     0.055 A 
ATOM     86  C   UNL A   1      46.963  27.999  35.103  1.00  0.00     0.041 A 
ATOM     87  F   UNL A   1      46.062  29.363  33.425  1.00  0.00    -0.206 F 
ATOM     88  C   UNL A   1      46.814  26.981  36.041  1.00  0.00     0.022 A 
BRANCH  85  89
ATOM     89  S   UNL A   1      45.347  25.053  37.421  1.00  0.00     0.124 S 
ATOM     90  O   UNL A   1      44.419  25.707  38.337  1.00  0.00    -0.237 OA
ATOM     91  O   UNL A   1      44.803  23.938  36.651  1.00  0.00    -0.237 OA
ATOM     92  O   UNL A   1      46.694  24.840  37.948  1.00  0.00    -0.744 OA
ENDBRANCH  85  89
ENDBRANCH  59  82
ENDBRANCH  33  34
ENDBRANCH  26  28
ENDBRANCH  25  26
ENDBRANCH  24  25
ENDBRANCH   1  24
TORSDOF 18
ENDMDL
MODEL 3
REMARK VINA RESULT:     -11.9      4.946     10.127
REMARK SMILES Nc1c(CC(=O)OCCOC(=O)c2ccc(-c3c4nc(c(-c5cc(S(=O)(=O)[O-])ccc5F)c5ccc([nH]5)c(-c5cc(S(=O)(=O)[O-])ccc5F)c5nc(c(-c6cc(S(=O)(=O)[O-])ccc6F)c6ccc3[nH]6)C=C5)C=C4)cc2)cccc1C(=O)c1ccc(Br)cc1
REMARK SMILES IDX 8 1 7 2 5 3 6 4 4 5 3 6 2 7 79 8 76 9 78 10 77 11 1 12 80 15
REMARK SMILES IDX 81 16 82 17 83 18 88 19 84 20 87 21 85 22 86 23 9 24 10 25
REMARK SMILES IDX 11 26 12 27 13 28 14 29 75 30 15 31 74 32 16 33 17 34 18 35
REMARK SMILES IDX 68 36 19 37 73 38 67 39 69 40 20 41 72 42 66 43 65 44 21 46
REMARK SMILES IDX 53 47 33 48 52 49 34 50 37 51 51 52 70 53 35 54 36 55 50 57
REMARK SMILES IDX 71 58 38 59 22 60 23 61 31 62 24 63 30 64 32 65 29 66 25 67
REMARK SMILES IDX 26 68 27 69 28 70 54 71 55 72 63 73 56 74 62 75 64 76 61 77
REMARK SMILES IDX 57 78 58 79 59 80 60 81 39 82 40 83 48 84 41 85 47 86 49 87
REMARK SMILES IDX 46 88 42 89 43 90 44 91 45 92
REMARK H PARENT 1 13 1 14 69 45 37 56
REMARK Flexibility Score: inf
ROOT
ATOM      1  C   UNL A   1      35.235  20.255  25.374  1.00  0.00     0.274 C 
ENDROOT
BRANCH   1   2
ATOM      2  O   UNL A   1      34.049  20.478  24.587  1.00  0.00    -0.462 OA
BRANCH   2   3
ATOM      3  C   UNL A   1      32.962  20.937  25.258  1.00  0.00     0.310 C 
ATOM      4  O   UNL A   1      31.826  20.493  25.129  1.00  0.00    -0.252 OA
BRANCH   3   5
ATOM      5  C   UNL A   1      33.271  22.036  26.245  1.00  0.00     0.160 C 
BRANCH   5   6
ATOM      6  C   UNL A   1      33.277  23.451  25.715  1.00  0.00    -0.013 A 
ATOM      7  C   UNL A   1      32.194  24.329  25.934  1.00  0.00     0.047 A 
ATOM      8  C   UNL A   1      32.360  25.689  25.569  1.00  0.00     0.046 A 
ATOM      9  C   UNL A   1      34.401  23.883  24.985  1.00  0.00     0.006 A 
ATOM     10  C   UNL A   1      33.491  26.101  24.845  1.00  0.00     0.014 A 
ATOM     11  C   UNL A   1      34.498  25.194  24.534  1.00  0.00     0.001 A 
BRANCH   7  12
ATOM     12  N   UNL A   1      31.042  23.851  26.558  1.00  0.00    -0.398 N 
ATOM     13  H   UNL A   1      30.156  24.118  26.224  1.00  0.00     0.156 HD
ATOM     14  H   UNL A   1      31.116  23.247  27.331  1.00  0.00     0.156 HD
ENDBRANCH   7  12
BRANCH   8  15
ATOM     15  C   UNL A   1      31.380  26.764  25.909  1.00  0.00     0.195 C 
ATOM     16  O   UNL A   1      31.068  26.980  27.077  1.00  0.00    -0.289 OA
BRANCH  15  17
ATOM     17  C   UNL A   1      30.777  27.614  24.855  1.00  0.00     0.023 A 
ATOM     18  C   UNL A   1      29.811  27.033  24.025  1.00  0.00     0.013 A 
ATOM     19  C   UNL A   1      31.076  28.978  24.749  1.00  0.00     0.013 A 
ATOM     20  C   UNL A   1      29.092  27.832  23.136  1.00  0.00     0.016 A 
ATOM     21  C   UNL A   1      30.356  29.774  23.856  1.00  0.00     0.016 A 
ATOM     22  C   UNL A   1      29.356  29.200  23.067  1.00  0.00     0.018 A 
ATOM     23  Br  UNL A   1      28.331  30.291  21.912  1.00  0.00    -0.051 Br
ENDBRANCH  15  17
ENDBRANCH   8  15
ENDBRANCH   5   6
ENDBRANCH   3   5
ENDBRANCH   2   3
ENDBRANCH   1   2
BRANCH   1  24
ATOM     24  C   UNL A   1      36.437  20.892  24.685  1.00  0.00     0.275 C 
BRANCH  24  25
ATOM     25  O   UNL A   1      37.122  21.759  25.606  1.00  0.00    -0.458 OA
BRANCH  25  26
ATOM     26  C   UNL A   1      38.411  21.431  25.859  1.00  0.00     0.338 C 
ATOM     27  O   UNL A   1      38.957  20.359  25.668  1.00  0.00    -0.246 OA
BRANCH  26  28
ATOM     28  C   UNL A   1      39.104  22.585  26.449  1.00  0.00     0.060 A 
ATOM     29  C   UNL A   1      38.706  23.888  26.140  1.00  0.00     0.016 A 
ATOM     30  C   UNL A   1      40.226  22.357  27.244  1.00  0.00     0.016 A 
ATOM     31  C   UNL A   1      39.472  24.971  26.573  1.00  0.00     0.010 A 
ATOM     32  C   UNL A   1      40.940  23.445  27.745  1.00  0.00     0.010 A 
ATOM     33  C   UNL A   1      40.585  24.762  27.397  1.00  0.00    -0.014 A 
BRANCH  33  34
ATOM     34  C   UNL A   1      41.410  25.889  27.906  1.00  0.00     0.031 A 
ATOM     35  C   UNL A   1      40.761  26.963  28.735  1.00  0.00     0.074 A 
ATOM     36  C   UNL A   1      42.708  25.993  27.564  1.00  0.00     0.049 A 
ATOM     37  N   UNL A   1      41.181  28.168  29.010  1.00  0.00    -0.248 NA
ATOM     38  C   UNL A   1      39.449  26.632  29.311  1.00  0.00     0.031 C 
ATOM     39  C   UNL A   1      43.475  24.990  26.823  1.00  0.00     0.029 A 
ATOM     40  N   UNL A   1      43.606  27.012  27.767  1.00  0.00    -0.354 N 
ATOM     41  C   UNL A   1      40.165  28.763  29.752  1.00  0.00     0.074 A 
ATOM     42  C   UNL A   1      39.107  27.782  29.875  1.00  0.00     0.031 C 
ATOM     43  C   UNL A   1      44.720  25.447  26.624  1.00  0.00     0.029 A 
ATOM     44  C   UNL A   1      44.813  26.809  27.139  1.00  0.00     0.049 A 
ATOM     45  H   UNL A   1      43.405  27.810  28.309  1.00  0.00     0.167 HD
ATOM     46  C   UNL A   1      40.123  30.015  30.271  1.00  0.00     0.034 A 
ATOM     47  C   UNL A   1      45.851  27.645  26.938  1.00  0.00     0.034 A 
ATOM     48  C   UNL A   1      41.201  30.967  30.148  1.00  0.00     0.049 A 
ATOM     49  C   UNL A   1      45.755  29.059  27.452  1.00  0.00     0.074 A 
ATOM     50  C   UNL A   1      41.271  32.264  30.627  1.00  0.00     0.029 A 
ATOM     51  N   UNL A   1      42.404  30.720  29.497  1.00  0.00    -0.354 N 
ATOM     52  N   UNL A   1      44.764  29.638  28.089  1.00  0.00    -0.248 NA
ATOM     53  C   UNL A   1      46.910  29.932  27.210  1.00  0.00     0.031 C 
ATOM     54  C   UNL A   1      42.492  32.817  30.222  1.00  0.00     0.029 A 
ATOM     55  C   UNL A   1      43.212  31.844  29.547  1.00  0.00     0.049 A 
ATOM     56  H   UNL A   1      42.646  29.870  29.063  1.00  0.00     0.167 HD
ATOM     57  C   UNL A   1      45.192  30.936  28.352  1.00  0.00     0.074 A 
ATOM     58  C   UNL A   1      46.527  31.054  27.802  1.00  0.00     0.031 C 
ATOM     59  C   UNL A   1      44.544  31.936  28.999  1.00  0.00     0.034 A 
BRANCH  46  60
ATOM     60  C   UNL A   1      38.849  30.440  30.959  1.00  0.00     0.023 A 
ATOM     61  C   UNL A   1      37.777  31.013  30.254  1.00  0.00     0.031 A 
ATOM     62  C   UNL A   1      38.719  30.298  32.354  1.00  0.00     0.131 A 
ATOM     63  C   UNL A   1      36.655  31.486  30.953  1.00  0.00     0.055 A 
ATOM     64  C   UNL A   1      37.568  30.700  33.032  1.00  0.00     0.041 A 
ATOM     65  F   UNL A   1      39.719  29.777  33.083  1.00  0.00    -0.206 F 
ATOM     66  C   UNL A   1      36.532  31.312  32.333  1.00  0.00     0.022 A 
BRANCH  63  67
ATOM     67  S   UNL A   1      35.418  32.457  30.047  1.00  0.00     0.124 S 
ATOM     68  O   UNL A   1      36.152  33.691  29.777  1.00  0.00    -0.237 OA
ATOM     69  O   UNL A   1      35.139  31.614  28.891  1.00  0.00    -0.237 OA
ATOM     70  O   UNL A   1      34.321  32.590  31.003  1.00  0.00    -0.744 OA
ENDBRANCH  63  67
ENDBRANCH  46  60
BRANCH  47  71
ATOM     71  C   UNL A   1      47.034  27.196  26.152  1.00  0.00     0.023 A 
ATOM     72  C   UNL A   1      48.120  26.566  26.778  1.00  0.00     0.031 A 
ATOM     73  C   UNL A   1      47.106  27.412  24.764  1.00  0.00     0.131 A 
ATOM     74  C   UNL A   1      49.246  26.203  26.023  1.00  0.00     0.055 A 
ATOM     75  C   UNL A   1      48.206  27.004  24.009  1.00  0.00     0.041 A 
ATOM     76  F   UNL A   1      46.094  28.010  24.115  1.00  0.00    -0.206 F 
ATOM     77  C   UNL A   1      49.291  26.405  24.642  1.00  0.00     0.022 A 
BRANCH  74  78
ATOM     78  S   UNL A   1      50.688  25.526  26.889  1.00  0.00     0.124 S 
ATOM     79  O   UNL A   1      51.103  26.661  27.706  1.00  0.00    -0.237 OA
ATOM     80  O   UNL A   1      50.108  24.396  27.607  1.00  0.00    -0.237 OA
ATOM     81  O   UNL A   1      51.601  25.171  25.804  1.00  0.00    -0.744 OA
ENDBRANCH  74  78
ENDBRANCH  47  71
BRANCH  59  82
ATOM     82  C   UNL A   1      45.305  33.218  29.213  1.00  0.00     0.023 A 
ATOM     83  C   UNL A   1      45.286  34.260  28.272  1.00  0.00     0.031 A 
ATOM     84  C   UNL A   1      46.048  33.395  30.393  1.00  0.00     0.131 A 
ATOM     85  C   UNL A   1      46.028  35.426  28.513  1.00  0.00     0.055 A 
ATOM     86  C   UNL A   1      46.749  34.573  30.648  1.00  0.00     0.041 A 
ATOM     87  F   UNL A   1      46.096  32.426  31.322  1.00  0.00    -0.206 F 
ATOM     88  C   UNL A   1      46.747  35.594  29.701  1.00  0.00     0.022 A 
BRANCH  85  89
ATOM     89  S   UNL A   1      46.080  36.711  27.235  1.00  0.00     0.124 S 
ATOM     90  O   UNL A   1      44.683  37.127  27.168  1.00  0.00    -0.237 OA
ATOM     91  O   UNL A   1      47.008  37.684  27.803  1.00  0.00    -0.237 OA
ATOM     92  O   UNL A   1      46.574  36.003  26.055  1.00  0.00    -0.744 OA
ENDBRANCH  85  89
ENDBRANCH  59  82
ENDBRANCH  33  34
ENDBRANCH  26  28
ENDBRANCH  25  26
ENDBRANCH  24  25
ENDBRANCH   1  24
TORSDOF 18
ENDMDL
