MODEL 1
REMARK VINA RESULT:     -12.2      0.000      0.000
REMARK SMILES COc1ccc(C(=O)N[C@H](C(=O)OCCOC(=O)c2ccc(-c3c4nc(c(-c5cc(S(=O)(=O)[O-])ccc5F)c5ccc([nH]5)c(-c5cc(S(=O)(=O)[O-])ccc5F)c5nc(c(-c6cc(S(=O)(=O)[O-])ccc6F)c6ccc3[nH]6)C=C5)C=C4)cc2)C2=C(C)N=N[C@H]2C)c(F)c1F
REMARK SMILES IDX 14 1 13 2 11 3 12 4 10 5 9 6 7 7 8 8 6 10 3 11 4 12 91 13
REMARK SMILES IDX 5 14 89 15 92 16 90 17 2 18 1 19 82 20 83 21 87 22 84 23
REMARK SMILES IDX 85 24 86 25 88 26 15 27 16 28 17 29 18 30 19 31 20 32 81 33
REMARK SMILES IDX 21 34 80 35 22 36 23 37 24 38 74 39 25 40 79 41 73 42 75 43
REMARK SMILES IDX 26 44 78 45 72 46 71 47 27 49 59 50 39 51 58 52 40 53 43 54
REMARK SMILES IDX 57 55 76 56 41 57 42 58 56 60 77 61 44 62 28 63 29 64 37 65
REMARK SMILES IDX 30 66 36 67 38 68 35 69 31 70 32 71 33 72 34 73 60 74 61 75
REMARK SMILES IDX 69 76 62 77 68 78 70 79 67 80 63 81 64 82 65 83 66 84 45 85
REMARK SMILES IDX 46 86 54 87 47 88 53 89 55 90 52 91 48 92 49 93 50 94 51 95
REMARK H PARENT 9 9 75 48 43 59
REMARK Flexibility Score: inf
ROOT
ATOM      1  C   UNL A   1      31.498  29.795  25.327  1.00  0.00     0.274 C 
ENDROOT
BRANCH   1   2
ATOM      2  O   UNL A   1      32.298  28.819  26.031  1.00  0.00    -0.460 OA
BRANCH   2   3
ATOM      3  C   UNL A   1      31.653  27.773  26.604  1.00  0.00     0.333 C 
ATOM      4  O   UNL A   1      31.098  27.839  27.698  1.00  0.00    -0.249 OA
BRANCH   3   5
ATOM      5  C   UNL A   1      31.712  26.454  25.773  1.00  0.00     0.223 C 
BRANCH   5   6
ATOM      6  N   UNL A   1      30.812  25.490  26.404  1.00  0.00    -0.335 N 
ATOM      7  C   UNL A   1      30.762  24.143  26.583  1.00  0.00     0.255 C 
ATOM      8  O   UNL A   1      29.819  23.724  27.257  1.00  0.00    -0.269 OA
ATOM      9  H   UNL A   1      30.034  25.936  26.810  1.00  0.00     0.165 HD
BRANCH   7  10
ATOM     10  C   UNL A   1      31.727  23.155  26.056  1.00  0.00     0.078 A 
ATOM     11  C   UNL A   1      33.561  21.159  25.308  1.00  0.00     0.157 A 
ATOM     12  C   UNL A   1      33.502  21.566  26.634  1.00  0.00     0.050 A 
ATOM     13  C   UNL A   1      32.722  21.746  24.364  1.00  0.00     0.201 A 
ATOM     14  C   UNL A   1      32.587  22.556  27.004  1.00  0.00     0.021 A 
ATOM     15  C   UNL A   1      31.788  22.709  24.739  1.00  0.00     0.175 A 
ATOM     16  F   UNL A   1      32.789  21.363  23.078  1.00  0.00    -0.200 F 
ATOM     17  F   UNL A   1      30.926  23.129  23.806  1.00  0.00    -0.203 F 
BRANCH  11  18
ATOM     18  O   UNL A   1      34.486  20.219  24.945  1.00  0.00    -0.494 OA
ATOM     19  C   UNL A   1      35.808  20.743  25.087  1.00  0.00     0.278 C 
ENDBRANCH  11  18
ENDBRANCH   7  10
ENDBRANCH   5   6
BRANCH   5  20
ATOM     20  C   UNL A   1      31.405  26.479  24.300  1.00  0.00     0.012 C 
ATOM     21  C   UNL A   1      32.134  26.182  23.208  1.00  0.00     0.064 C 
ATOM     22  C   UNL A   1      30.189  27.168  23.756  1.00  0.00     0.156 C 
ATOM     23  C   UNL A   1      33.485  25.556  23.067  1.00  0.00     0.069 C 
ATOM     24  N   UNL A   1      31.545  26.626  22.048  1.00  0.00    -0.160 NA
ATOM     25  N   UNL A   1      30.483  27.248  22.301  1.00  0.00    -0.181 NA
ATOM     26  C   UNL A   1      28.870  26.416  23.884  1.00  0.00     0.040 C 
ENDBRANCH   5  20
ENDBRANCH   3   5
ENDBRANCH   2   3
ENDBRANCH   1   2
BRANCH   1  27
ATOM     27  C   UNL A   1      31.488  31.136  26.064  1.00  0.00     0.275 C 
BRANCH  27  28
ATOM     28  O   UNL A   1      32.375  31.113  27.196  1.00  0.00    -0.458 OA
BRANCH  28  29
ATOM     29  C   UNL A   1      33.138  32.217  27.335  1.00  0.00     0.338 C 
ATOM     30  O   UNL A   1      32.781  33.385  27.217  1.00  0.00    -0.246 OA
BRANCH  29  31
ATOM     31  C   UNL A   1      34.459  31.849  27.842  1.00  0.00     0.060 A 
ATOM     32  C   UNL A   1      34.627  30.538  28.275  1.00  0.00     0.016 A 
ATOM     33  C   UNL A   1      35.467  32.793  28.026  1.00  0.00     0.016 A 
ATOM     34  C   UNL A   1      35.753  30.179  28.998  1.00  0.00     0.010 A 
ATOM     35  C   UNL A   1      36.650  32.402  28.666  1.00  0.00     0.010 A 
ATOM     36  C   UNL A   1      36.789  31.100  29.183  1.00  0.00    -0.014 A 
BRANCH  36  37
ATOM     37  C   UNL A   1      37.998  30.683  29.940  1.00  0.00     0.031 A 
ATOM     38  C   UNL A   1      39.004  29.766  29.305  1.00  0.00     0.074 A 
ATOM     39  C   UNL A   1      38.209  31.170  31.179  1.00  0.00     0.049 A 
ATOM     40  N   UNL A   1      40.040  29.175  29.842  1.00  0.00    -0.248 NA
ATOM     41  C   UNL A   1      38.808  29.461  27.880  1.00  0.00     0.031 C 
ATOM     42  C   UNL A   1      37.332  32.119  31.874  1.00  0.00     0.029 A 
ATOM     43  N   UNL A   1      39.230  30.955  32.068  1.00  0.00    -0.354 N 
ATOM     44  C   UNL A   1      40.592  28.388  28.836  1.00  0.00     0.074 A 
ATOM     45  C   UNL A   1      39.766  28.572  27.660  1.00  0.00     0.031 C 
ATOM     46  C   UNL A   1      37.875  32.435  33.058  1.00  0.00     0.029 A 
ATOM     47  C   UNL A   1      39.084  31.645  33.250  1.00  0.00     0.049 A 
ATOM     48  H   UNL A   1      39.993  30.364  31.879  1.00  0.00     0.167 HD
ATOM     49  C   UNL A   1      41.683  27.585  28.898  1.00  0.00     0.034 A 
ATOM     50  C   UNL A   1      39.817  31.611  34.380  1.00  0.00     0.034 A 
ATOM     51  C   UNL A   1      42.509  27.451  30.075  1.00  0.00     0.049 A 
ATOM     52  C   UNL A   1      41.002  30.687  34.436  1.00  0.00     0.074 A 
ATOM     53  C   UNL A   1      43.634  26.664  30.258  1.00  0.00     0.029 A 
ATOM     54  N   UNL A   1      42.306  28.132  31.270  1.00  0.00    -0.354 N 
ATOM     55  N   UNL A   1      41.465  29.882  33.507  1.00  0.00    -0.248 NA
ATOM     56  C   UNL A   1      41.752  30.653  35.696  1.00  0.00     0.031 C 
ATOM     57  C   UNL A   1      44.076  26.829  31.576  1.00  0.00     0.029 A 
ATOM     58  C   UNL A   1      43.269  27.768  32.199  1.00  0.00     0.049 A 
ATOM     59  H   UNL A   1      41.581  28.779  31.432  1.00  0.00     0.167 HD
ATOM     60  C   UNL A   1      42.564  29.246  34.071  1.00  0.00     0.074 A 
ATOM     61  C   UNL A   1      42.709  29.783  35.411  1.00  0.00     0.031 C 
ATOM     62  C   UNL A   1      43.377  28.300  33.537  1.00  0.00     0.034 A 
BRANCH  49  63
ATOM     63  C   UNL A   1      41.990  26.739  27.684  1.00  0.00     0.023 A 
ATOM     64  C   UNL A   1      41.612  25.388  27.596  1.00  0.00     0.031 A 
ATOM     65  C   UNL A   1      42.720  27.288  26.615  1.00  0.00     0.131 A 
ATOM     66  C   UNL A   1      42.029  24.615  26.499  1.00  0.00     0.055 A 
ATOM     67  C   UNL A   1      43.065  26.535  25.491  1.00  0.00     0.041 A 
ATOM     68  F   UNL A   1      43.129  28.567  26.653  1.00  0.00    -0.206 F 
ATOM     69  C   UNL A   1      42.732  25.186  25.436  1.00  0.00     0.022 A 
BRANCH  66  70
ATOM     70  S   UNL A   1      41.761  22.822  26.546  1.00  0.00     0.124 S 
ATOM     71  O   UNL A   1      42.540  22.437  27.721  1.00  0.00    -0.237 OA
ATOM     72  O   UNL A   1      40.312  22.721  26.676  1.00  0.00    -0.237 OA
ATOM     73  O   UNL A   1      42.305  22.360  25.269  1.00  0.00    -0.744 OA
ENDBRANCH  66  70
ENDBRANCH  49  63
BRANCH  50  74
ATOM     74  C   UNL A   1      39.407  32.417  35.564  1.00  0.00     0.023 A 
ATOM     75  C   UNL A   1      39.853  33.736  35.738  1.00  0.00     0.031 A 
ATOM     76  C   UNL A   1      38.569  31.867  36.553  1.00  0.00     0.131 A 
ATOM     77  C   UNL A   1      39.479  34.453  36.885  1.00  0.00     0.055 A 
ATOM     78  C   UNL A   1      38.161  32.600  37.666  1.00  0.00     0.041 A 
ATOM     79  F   UNL A   1      38.115  30.609  36.435  1.00  0.00    -0.206 F 
ATOM     80  C   UNL A   1      38.625  33.900  37.842  1.00  0.00     0.022 A 
BRANCH  77  81
ATOM     81  S   UNL A   1      40.180  36.105  37.146  1.00  0.00     0.124 S 
ATOM     82  O   UNL A   1      41.599  35.808  37.306  1.00  0.00    -0.237 OA
ATOM     83  O   UNL A   1      39.804  36.793  35.916  1.00  0.00    -0.237 OA
ATOM     84  O   UNL A   1      39.501  36.576  38.353  1.00  0.00    -0.744 OA
ENDBRANCH  77  81
ENDBRANCH  50  74
BRANCH  62  85
ATOM     85  C   UNL A   1      44.504  27.816  34.411  1.00  0.00     0.023 A 
ATOM     86  C   UNL A   1      44.274  26.941  35.487  1.00  0.00     0.031 A 
ATOM     87  C   UNL A   1      45.817  28.261  34.183  1.00  0.00     0.131 A 
ATOM     88  C   UNL A   1      45.335  26.581  36.331  1.00  0.00     0.055 A 
ATOM     89  C   UNL A   1      46.878  27.859  34.995  1.00  0.00     0.041 A 
ATOM     90  F   UNL A   1      46.088  29.100  33.170  1.00  0.00    -0.206 F 
ATOM     91  C   UNL A   1      46.637  27.024  36.083  1.00  0.00     0.022 A 
BRANCH  88  92
ATOM     92  S   UNL A   1      44.975  25.595  37.809  1.00  0.00     0.124 S 
ATOM     93  O   UNL A   1      43.874  26.339  38.411  1.00  0.00    -0.237 OA
ATOM     94  O   UNL A   1      44.632  24.295  37.243  1.00  0.00    -0.237 OA
ATOM     95  O   UNL A   1      46.230  25.631  38.559  1.00  0.00    -0.744 OA
ENDBRANCH  88  92
ENDBRANCH  62  85
ENDBRANCH  36  37
ENDBRANCH  29  31
ENDBRANCH  28  29
ENDBRANCH  27  28
ENDBRANCH   1  27
TORSDOF 18
ENDMDL
MODEL 2
REMARK VINA RESULT:     -12.2      1.609      2.084
REMARK SMILES COc1ccc(C(=O)N[C@H](C(=O)OCCOC(=O)c2ccc(-c3c4nc(c(-c5cc(S(=O)(=O)[O-])ccc5F)c5ccc([nH]5)c(-c5cc(S(=O)(=O)[O-])ccc5F)c5nc(c(-c6cc(S(=O)(=O)[O-])ccc6F)c6ccc3[nH]6)C=C5)C=C4)cc2)C2=C(C)N=N[C@H]2C)c(F)c1F
REMARK SMILES IDX 14 1 13 2 11 3 12 4 10 5 9 6 7 7 8 8 6 10 3 11 4 12 91 13
REMARK SMILES IDX 5 14 89 15 92 16 90 17 2 18 1 19 82 20 83 21 87 22 84 23
REMARK SMILES IDX 85 24 86 25 88 26 15 27 16 28 17 29 18 30 19 31 20 32 81 33
REMARK SMILES IDX 21 34 80 35 22 36 23 37 24 38 74 39 25 40 79 41 73 42 75 43
REMARK SMILES IDX 26 44 78 45 72 46 71 47 27 49 59 50 39 51 58 52 40 53 43 54
REMARK SMILES IDX 57 55 76 56 41 57 42 58 56 60 77 61 44 62 28 63 29 64 37 65
REMARK SMILES IDX 30 66 36 67 38 68 35 69 31 70 32 71 33 72 34 73 60 74 61 75
REMARK SMILES IDX 69 76 62 77 68 78 70 79 67 80 63 81 64 82 65 83 66 84 45 85
REMARK SMILES IDX 46 86 54 87 47 88 53 89 55 90 52 91 48 92 49 93 50 94 51 95
REMARK H PARENT 9 9 75 48 43 59
REMARK Flexibility Score: inf
ROOT
ATOM      1  C   UNL A   1      31.449  29.359  25.335  1.00  0.00     0.274 C 
ENDROOT
BRANCH   1   2
ATOM      2  O   UNL A   1      32.313  28.364  25.928  1.00  0.00    -0.460 OA
BRANCH   2   3
ATOM      3  C   UNL A   1      31.726  27.344  26.601  1.00  0.00     0.333 C 
ATOM      4  O   UNL A   1      31.097  27.496  27.646  1.00  0.00    -0.249 OA
BRANCH   3   5
ATOM      5  C   UNL A   1      31.955  25.941  25.958  1.00  0.00     0.223 C 
BRANCH   5   6
ATOM      6  N   UNL A   1      31.047  24.999  26.610  1.00  0.00    -0.335 N 
ATOM      7  C   UNL A   1      30.985  23.657  26.819  1.00  0.00     0.255 C 
ATOM      8  O   UNL A   1      30.038  23.261  27.501  1.00  0.00    -0.269 OA
ATOM      9  H   UNL A   1      30.271  25.460  27.004  1.00  0.00     0.165 HD
BRANCH   7  10
ATOM     10  C   UNL A   1      31.943  22.649  26.318  1.00  0.00     0.078 A 
ATOM     11  C   UNL A   1      33.656  20.774  25.111  1.00  0.00     0.157 A 
ATOM     12  C   UNL A   1      32.410  21.019  24.548  1.00  0.00     0.050 A 
ATOM     13  C   UNL A   1      34.041  21.450  26.266  1.00  0.00     0.201 A 
ATOM     14  C   UNL A   1      31.562  21.953  25.148  1.00  0.00     0.021 A 
ATOM     15  C   UNL A   1      33.208  22.406  26.845  1.00  0.00     0.175 A 
ATOM     16  F   UNL A   1      35.239  21.203  26.819  1.00  0.00    -0.200 F 
ATOM     17  F   UNL A   1      33.698  23.109  27.872  1.00  0.00    -0.203 F 
BRANCH  11  18
ATOM     18  O   UNL A   1      34.464  19.829  24.542  1.00  0.00    -0.494 OA
ATOM     19  C   UNL A   1      33.872  18.534  24.658  1.00  0.00     0.278 C 
ENDBRANCH  11  18
ENDBRANCH   7  10
ENDBRANCH   5   6
BRANCH   5  20
ATOM     20  C   UNL A   1      31.816  25.764  24.470  1.00  0.00     0.012 C 
ATOM     21  C   UNL A   1      30.768  25.864  23.630  1.00  0.00     0.064 C 
ATOM     22  C   UNL A   1      32.890  25.121  23.645  1.00  0.00     0.156 C 
ATOM     23  C   UNL A   1      29.371  26.351  23.854  1.00  0.00     0.069 C 
ATOM     24  N   UNL A   1      31.037  25.335  22.391  1.00  0.00    -0.160 NA
ATOM     25  N   UNL A   1      32.192  24.841  22.362  1.00  0.00    -0.181 NA
ATOM     26  C   UNL A   1      34.089  25.993  23.296  1.00  0.00     0.040 C 
ENDBRANCH   5  20
ENDBRANCH   3   5
ENDBRANCH   2   3
ENDBRANCH   1   2
BRANCH   1  27
ATOM     27  C   UNL A   1      31.614  30.715  26.024  1.00  0.00     0.275 C 
BRANCH  27  28
ATOM     28  O   UNL A   1      32.572  30.641  27.094  1.00  0.00    -0.458 OA
BRANCH  28  29
ATOM     29  C   UNL A   1      33.292  31.766  27.284  1.00  0.00     0.338 C 
ATOM     30  O   UNL A   1      32.889  32.923  27.225  1.00  0.00    -0.246 OA
BRANCH  29  31
ATOM     31  C   UNL A   1      34.630  31.425  27.766  1.00  0.00     0.060 A 
ATOM     32  C   UNL A   1      34.854  30.100  28.125  1.00  0.00     0.016 A 
ATOM     33  C   UNL A   1      35.599  32.398  27.999  1.00  0.00     0.016 A 
ATOM     34  C   UNL A   1      35.997  29.749  28.824  1.00  0.00     0.010 A 
ATOM     35  C   UNL A   1      36.800  32.022  28.613  1.00  0.00     0.010 A 
ATOM     36  C   UNL A   1      36.995  30.700  29.057  1.00  0.00    -0.014 A 
BRANCH  36  37
ATOM     37  C   UNL A   1      38.224  30.292  29.786  1.00  0.00     0.031 A 
ATOM     38  C   UNL A   1      39.218  29.375  29.132  1.00  0.00     0.074 A 
ATOM     39  C   UNL A   1      38.464  30.787  31.016  1.00  0.00     0.049 A 
ATOM     40  N   UNL A   1      40.269  28.791  29.647  1.00  0.00    -0.248 NA
ATOM     41  C   UNL A   1      38.988  29.060  27.714  1.00  0.00     0.031 C 
ATOM     42  C   UNL A   1      37.600  31.737  31.727  1.00  0.00     0.029 A 
ATOM     43  N   UNL A   1      39.507  30.581  31.881  1.00  0.00    -0.354 N 
ATOM     44  C   UNL A   1      40.799  28.000  28.632  1.00  0.00     0.074 A 
ATOM     45  C   UNL A   1      39.944  28.174  27.476  1.00  0.00     0.031 C 
ATOM     46  C   UNL A   1      38.172  32.062  32.896  1.00  0.00     0.029 A 
ATOM     47  C   UNL A   1      39.388  31.277  33.063  1.00  0.00     0.049 A 
ATOM     48  H   UNL A   1      40.268  29.992  31.677  1.00  0.00     0.167 HD
ATOM     49  C   UNL A   1      41.894  27.201  28.672  1.00  0.00     0.034 A 
ATOM     50  C   UNL A   1      40.149  31.253  34.174  1.00  0.00     0.034 A 
ATOM     51  C   UNL A   1      42.750  27.077  29.829  1.00  0.00     0.049 A 
ATOM     52  C   UNL A   1      41.338  30.334  34.206  1.00  0.00     0.074 A 
ATOM     53  C   UNL A   1      43.882  26.296  29.989  1.00  0.00     0.029 A 
ATOM     54  N   UNL A   1      42.573  27.765  31.024  1.00  0.00    -0.354 N 
ATOM     55  N   UNL A   1      41.781  29.525  33.271  1.00  0.00    -0.248 NA
ATOM     56  C   UNL A   1      42.119  30.310  35.448  1.00  0.00     0.031 C 
ATOM     57  C   UNL A   1      44.356  26.470  31.295  1.00  0.00     0.029 A 
ATOM     58  C   UNL A   1      43.560  27.409  31.931  1.00  0.00     0.049 A 
ATOM     59  H   UNL A   1      41.850  28.410  31.201  1.00  0.00     0.167 HD
ATOM     60  C   UNL A   1      42.896  28.896  33.812  1.00  0.00     0.074 A 
ATOM     61  C   UNL A   1      43.072  29.442  35.144  1.00  0.00     0.031 C 
ATOM     62  C   UNL A   1      43.700  27.950  33.263  1.00  0.00     0.034 A 
BRANCH  49  63
ATOM     63  C   UNL A   1      42.174  26.349  27.456  1.00  0.00     0.023 A 
ATOM     64  C   UNL A   1      41.768  25.006  27.371  1.00  0.00     0.031 A 
ATOM     65  C   UNL A   1      42.907  26.883  26.381  1.00  0.00     0.131 A 
ATOM     66  C   UNL A   1      42.160  24.225  26.270  1.00  0.00     0.055 A 
ATOM     67  C   UNL A   1      43.228  26.123  25.255  1.00  0.00     0.041 A 
ATOM     68  F   UNL A   1      43.343  28.153  26.416  1.00  0.00    -0.206 F 
ATOM     69  C   UNL A   1      42.867  24.781  25.202  1.00  0.00     0.022 A 
BRANCH  66  70
ATOM     70  S   UNL A   1      41.856  22.437  26.320  1.00  0.00     0.124 S 
ATOM     71  O   UNL A   1      40.417  22.375  26.075  1.00  0.00    -0.237 OA
ATOM     72  O   UNL A   1      42.710  21.941  25.246  1.00  0.00    -0.237 OA
ATOM     73  O   UNL A   1      42.268  22.056  27.670  1.00  0.00    -0.744 OA
ENDBRANCH  66  70
ENDBRANCH  49  63
BRANCH  50  74
ATOM     74  C   UNL A   1      39.765  32.064  35.363  1.00  0.00     0.023 A 
ATOM     75  C   UNL A   1      38.905  31.553  36.347  1.00  0.00     0.031 A 
ATOM     76  C   UNL A   1      40.244  33.378  35.524  1.00  0.00     0.131 A 
ATOM     77  C   UNL A   1      38.532  32.358  37.435  1.00  0.00     0.055 A 
ATOM     78  C   UNL A   1      39.910  34.156  36.631  1.00  0.00     0.041 A 
ATOM     79  F   UNL A   1      41.070  33.915  34.611  1.00  0.00    -0.206 F 
ATOM     80  C   UNL A   1      39.040  33.650  37.591  1.00  0.00     0.022 A 
BRANCH  77  81
ATOM     81  S   UNL A   1      37.316  31.717  38.617  1.00  0.00     0.124 S 
ATOM     82  O   UNL A   1      36.224  32.674  38.474  1.00  0.00    -0.237 OA
ATOM     83  O   UNL A   1      37.065  30.376  38.099  1.00  0.00    -0.237 OA
ATOM     84  O   UNL A   1      38.024  31.765  39.895  1.00  0.00    -0.744 OA
ENDBRANCH  77  81
ENDBRANCH  50  74
BRANCH  62  85
ATOM     85  C   UNL A   1      44.850  27.475  34.112  1.00  0.00     0.023 A 
ATOM     86  C   UNL A   1      44.709  26.395  35.000  1.00  0.00     0.031 A 
ATOM     87  C   UNL A   1      46.090  28.132  34.053  1.00  0.00     0.131 A 
ATOM     88  C   UNL A   1      45.776  26.037  35.837  1.00  0.00     0.055 A 
ATOM     89  C   UNL A   1      47.165  27.740  34.851  1.00  0.00     0.041 A 
ATOM     90  F   UNL A   1      46.274  29.172  33.223  1.00  0.00    -0.206 F 
ATOM     91  C   UNL A   1      47.007  26.695  35.758  1.00  0.00     0.022 A 
BRANCH  88  92
ATOM     92  S   UNL A   1      45.507  24.757  37.092  1.00  0.00     0.124 S 
ATOM     93  O   UNL A   1      46.189  25.320  38.252  1.00  0.00    -0.237 OA
ATOM     94  O   UNL A   1      44.052  24.699  37.173  1.00  0.00    -0.237 OA
ATOM     95  O   UNL A   1      46.141  23.573  36.515  1.00  0.00    -0.744 OA
ENDBRANCH  88  92
ENDBRANCH  62  85
ENDBRANCH  36  37
ENDBRANCH  29  31
ENDBRANCH  28  29
ENDBRANCH  27  28
ENDBRANCH   1  27
TORSDOF 18
ENDMDL
MODEL 3
REMARK VINA RESULT:     -12.2      4.982      7.922
REMARK SMILES COc1ccc(C(=O)N[C@H](C(=O)OCCOC(=O)c2ccc(-c3c4nc(c(-c5cc(S(=O)(=O)[O-])ccc5F)c5ccc([nH]5)c(-c5cc(S(=O)(=O)[O-])ccc5F)c5nc(c(-c6cc(S(=O)(=O)[O-])ccc6F)c6ccc3[nH]6)C=C5)C=C4)cc2)C2=C(C)N=N[C@H]2C)c(F)c1F
REMARK SMILES IDX 14 1 13 2 11 3 12 4 10 5 9 6 7 7 8 8 6 10 3 11 4 12 91 13
REMARK SMILES IDX 5 14 89 15 92 16 90 17 2 18 1 19 82 20 83 21 87 22 84 23
REMARK SMILES IDX 85 24 86 25 88 26 15 27 16 28 17 29 18 30 19 31 20 32 81 33
REMARK SMILES IDX 21 34 80 35 22 36 23 37 24 38 74 39 25 40 79 41 73 42 75 43
REMARK SMILES IDX 26 44 78 45 72 46 71 47 27 49 59 50 39 51 58 52 40 53 43 54
REMARK SMILES IDX 57 55 76 56 41 57 42 58 56 60 77 61 44 62 28 63 29 64 37 65
REMARK SMILES IDX 30 66 36 67 38 68 35 69 31 70 32 71 33 72 34 73 60 74 61 75
REMARK SMILES IDX 69 76 62 77 68 78 70 79 67 80 63 81 64 82 65 83 66 84 45 85
REMARK SMILES IDX 46 86 54 87 47 88 53 89 55 90 52 91 48 92 49 93 50 94 51 95
REMARK H PARENT 9 9 75 48 43 59
REMARK Flexibility Score: inf
ROOT
ATOM      1  C   UNL A   1      35.793  21.088  25.033  1.00  0.00     0.274 C 
ENDROOT
BRANCH   1   2
ATOM      2  O   UNL A   1      35.915  22.526  24.964  1.00  0.00    -0.460 OA
BRANCH   2   3
ATOM      3  C   UNL A   1      35.489  23.140  23.833  1.00  0.00     0.333 C 
ATOM      4  O   UNL A   1      36.093  23.084  22.765  1.00  0.00    -0.249 OA
BRANCH   3   5
ATOM      5  C   UNL A   1      34.179  23.968  24.012  1.00  0.00     0.223 C 
BRANCH   5   6
ATOM      6  N   UNL A   1      33.869  24.594  22.728  1.00  0.00    -0.335 N 
ATOM      7  C   UNL A   1      33.388  25.789  22.292  1.00  0.00     0.255 C 
ATOM      8  O   UNL A   1      33.337  25.935  21.069  1.00  0.00    -0.269 OA
ATOM      9  H   UNL A   1      34.062  23.988  21.976  1.00  0.00     0.165 HD
BRANCH   7  10
ATOM     10  C   UNL A   1      32.935  26.911  23.140  1.00  0.00     0.078 A 
ATOM     11  C   UNL A   1      32.323  29.164  24.707  1.00  0.00     0.157 A 
ATOM     12  C   UNL A   1      33.648  28.773  24.566  1.00  0.00     0.050 A 
ATOM     13  C   UNL A   1      31.314  28.437  24.081  1.00  0.00     0.201 A 
ATOM     14  C   UNL A   1      33.950  27.654  23.784  1.00  0.00     0.021 A 
ATOM     15  C   UNL A   1      31.619  27.342  23.275  1.00  0.00     0.175 A 
ATOM     16  F   UNL A   1      30.032  28.806  24.228  1.00  0.00    -0.200 F 
ATOM     17  F   UNL A   1      30.613  26.775  22.599  1.00  0.00    -0.203 F 
BRANCH  11  18
ATOM     18  O   UNL A   1      32.031  30.235  25.506  1.00  0.00    -0.494 OA
ATOM     19  C   UNL A   1      32.141  29.872  26.883  1.00  0.00     0.278 C 
ENDBRANCH  11  18
ENDBRANCH   7  10
ENDBRANCH   5   6
BRANCH   5  20
ATOM     20  C   UNL A   1      32.929  23.298  24.514  1.00  0.00     0.012 C 
ATOM     21  C   UNL A   1      32.003  23.654  25.426  1.00  0.00     0.064 C 
ATOM     22  C   UNL A   1      32.636  21.855  24.234  1.00  0.00     0.156 C 
ATOM     23  C   UNL A   1      31.792  24.936  26.167  1.00  0.00     0.069 C 
ATOM     24  N   UNL A   1      31.186  22.606  25.779  1.00  0.00    -0.160 NA
ATOM     25  N   UNL A   1      31.539  21.553  25.191  1.00  0.00    -0.181 NA
ATOM     26  C   UNL A   1      32.094  21.531  22.848  1.00  0.00     0.040 C 
ENDBRANCH   5  20
ENDBRANCH   3   5
ENDBRANCH   2   3
ENDBRANCH   1   2
BRANCH   1  27
ATOM     27  C   UNL A   1      37.158  20.411  24.895  1.00  0.00     0.275 C 
BRANCH  27  28
ATOM     28  O   UNL A   1      38.226  21.367  25.011  1.00  0.00    -0.458 OA
BRANCH  28  29
ATOM     29  C   UNL A   1      39.094  21.122  26.015  1.00  0.00     0.338 C 
ATOM     30  O   UNL A   1      39.537  20.033  26.364  1.00  0.00    -0.246 OA
BRANCH  29  31
ATOM     31  C   UNL A   1      39.606  22.384  26.549  1.00  0.00     0.060 A 
ATOM     32  C   UNL A   1      38.996  23.553  26.105  1.00  0.00     0.016 A 
ATOM     33  C   UNL A   1      40.744  22.437  27.350  1.00  0.00     0.016 A 
ATOM     34  C   UNL A   1      39.577  24.784  26.358  1.00  0.00     0.010 A 
ATOM     35  C   UNL A   1      41.273  23.688  27.691  1.00  0.00     0.010 A 
ATOM     36  C   UNL A   1      40.709  24.870  27.173  1.00  0.00    -0.014 A 
BRANCH  36  37
ATOM     37  C   UNL A   1      41.299  26.206  27.450  1.00  0.00     0.031 A 
ATOM     38  C   UNL A   1      42.641  26.568  26.880  1.00  0.00     0.074 A 
ATOM     39  C   UNL A   1      40.604  27.103  28.176  1.00  0.00     0.049 A 
ATOM     40  N   UNL A   1      43.387  27.615  27.121  1.00  0.00    -0.248 NA
ATOM     41  C   UNL A   1      43.228  25.619  25.924  1.00  0.00     0.031 C 
ATOM     42  C   UNL A   1      39.263  26.885  28.729  1.00  0.00     0.029 A 
ATOM     43  N   UNL A   1      40.913  28.382  28.560  1.00  0.00    -0.354 N 
ATOM     44  C   UNL A   1      44.553  27.428  26.386  1.00  0.00     0.074 A 
ATOM     45  C   UNL A   1      44.416  26.159  25.700  1.00  0.00     0.031 C 
ATOM     46  C   UNL A   1      38.850  28.005  29.339  1.00  0.00     0.029 A 
ATOM     47  C   UNL A   1      39.927  28.986  29.307  1.00  0.00     0.049 A 
ATOM     48  H   UNL A   1      41.759  28.826  28.323  1.00  0.00     0.167 HD
ATOM     49  C   UNL A   1      45.636  28.240  26.302  1.00  0.00     0.034 A 
ATOM     50  C   UNL A   1      39.909  30.177  29.934  1.00  0.00     0.034 A 
ATOM     51  C   UNL A   1      45.728  29.518  26.969  1.00  0.00     0.049 A 
ATOM     52  C   UNL A   1      41.134  31.045  29.855  1.00  0.00     0.074 A 
ATOM     53  C   UNL A   1      46.775  30.424  26.963  1.00  0.00     0.029 A 
ATOM     54  N   UNL A   1      44.727  30.078  27.754  1.00  0.00    -0.354 N 
ATOM     55  N   UNL A   1      42.266  30.820  29.227  1.00  0.00    -0.248 NA
ATOM     56  C   UNL A   1      41.088  32.319  30.581  1.00  0.00     0.031 C 
ATOM     57  C   UNL A   1      46.428  31.503  27.786  1.00  0.00     0.029 A 
ATOM     58  C   UNL A   1      45.139  31.304  28.255  1.00  0.00     0.049 A 
ATOM     59  H   UNL A   1      43.851  29.662  27.930  1.00  0.00     0.167 HD
ATOM     60  C   UNL A   1      43.067  31.926  29.482  1.00  0.00     0.074 A 
ATOM     61  C   UNL A   1      42.277  32.829  30.297  1.00  0.00     0.031 C 
ATOM     62  C   UNL A   1      44.341  32.174  29.086  1.00  0.00     0.034 A 
BRANCH  49  63
ATOM     63  C   UNL A   1      46.827  27.730  25.525  1.00  0.00     0.023 A 
ATOM     64  C   UNL A   1      47.064  28.096  24.188  1.00  0.00     0.031 A 
ATOM     65  C   UNL A   1      47.715  26.819  26.124  1.00  0.00     0.131 A 
ATOM     66  C   UNL A   1      48.116  27.497  23.475  1.00  0.00     0.055 A 
ATOM     67  C   UNL A   1      48.805  26.286  25.434  1.00  0.00     0.041 A 
ATOM     68  F   UNL A   1      47.526  26.414  27.391  1.00  0.00    -0.206 F 
ATOM     69  C   UNL A   1      49.002  26.613  24.097  1.00  0.00     0.022 A 
BRANCH  66  70
ATOM     70  S   UNL A   1      48.229  27.781  21.687  1.00  0.00     0.124 S 
ATOM     71  O   UNL A   1      48.571  26.448  21.197  1.00  0.00    -0.237 OA
ATOM     72  O   UNL A   1      46.891  28.261  21.359  1.00  0.00    -0.237 OA
ATOM     73  O   UNL A   1      49.294  28.775  21.564  1.00  0.00    -0.744 OA
ENDBRANCH  66  70
ENDBRANCH  49  63
BRANCH  50  74
ATOM     74  C   UNL A   1      38.727  30.579  30.747  1.00  0.00     0.023 A 
ATOM     75  C   UNL A   1      37.647  31.267  30.173  1.00  0.00     0.031 A 
ATOM     76  C   UNL A   1      38.670  30.291  32.124  1.00  0.00     0.131 A 
ATOM     77  C   UNL A   1      36.568  31.666  30.977  1.00  0.00     0.055 A 
ATOM     78  C   UNL A   1      37.573  30.646  32.908  1.00  0.00     0.041 A 
ATOM     79  F   UNL A   1      39.677  29.635  32.723  1.00  0.00    -0.206 F 
ATOM     80  C   UNL A   1      36.516  31.347  32.336  1.00  0.00     0.022 A 
BRANCH  77  81
ATOM     81  S   UNL A   1      35.252  32.669  30.234  1.00  0.00     0.124 S 
ATOM     82  O   UNL A   1      35.978  33.872  29.841  1.00  0.00    -0.237 OA
ATOM     83  O   UNL A   1      34.794  31.813  29.145  1.00  0.00    -0.237 OA
ATOM     84  O   UNL A   1      34.299  32.845  31.328  1.00  0.00    -0.744 OA
ENDBRANCH  77  81
ENDBRANCH  50  74
BRANCH  62  85
ATOM     85  C   UNL A   1      44.932  33.490  29.521  1.00  0.00     0.023 A 
ATOM     86  C   UNL A   1      44.832  34.640  28.719  1.00  0.00     0.031 A 
ATOM     87  C   UNL A   1      45.631  33.583  30.736  1.00  0.00     0.131 A 
ATOM     88  C   UNL A   1      45.471  35.823  29.117  1.00  0.00     0.055 A 
ATOM     89  C   UNL A   1      46.220  34.777  31.152  1.00  0.00     0.041 A 
ATOM     90  F   UNL A   1      45.757  32.511  31.536  1.00  0.00    -0.206 F 
ATOM     91  C   UNL A   1      46.153  35.902  30.334  1.00  0.00     0.022 A 
BRANCH  88  92
ATOM     92  S   UNL A   1      45.472  37.236  27.980  1.00  0.00     0.124 S 
ATOM     93  O   UNL A   1      45.917  38.323  28.845  1.00  0.00    -0.237 OA
ATOM     94  O   UNL A   1      46.417  36.810  26.953  1.00  0.00    -0.237 OA
ATOM     95  O   UNL A   1      44.081  37.323  27.541  1.00  0.00    -0.744 OA
ENDBRANCH  88  92
ENDBRANCH  62  85
ENDBRANCH  36  37
ENDBRANCH  29  31
ENDBRANCH  28  29
ENDBRANCH  27  28
ENDBRANCH   1  27
TORSDOF 18
ENDMDL
