MODEL 1
REMARK VINA RESULT:     -10.6      0.000      0.000
REMARK SMILES CC1([C@@]2(C)C[C@@H]2C(=O)OCCOC(=O)c2ccc(-c3c4nc(c(-c5cc(S(=O)(=O)[O-])ccc5F)c5ccc([nH]5)c(-c5cc(S(=O)(=O)[O-])ccc5F)c5nc(c(-c6cc(S(=O)(=O)[O-])ccc6F)c6ccc3[nH]6)C=C5)C=C4)cc2)CC1
REMARK SMILES IDX 11 1 10 2 9 3 7 4 8 5 6 6 3 7 4 8 5 9 2 10 1 11 78 12 79 13
REMARK SMILES IDX 12 14 13 15 14 16 15 17 16 18 77 19 17 20 76 21 18 22 19 23
REMARK SMILES IDX 20 24 70 25 21 26 75 27 69 28 71 29 22 30 74 31 68 32 67 33
REMARK SMILES IDX 23 35 55 36 35 37 54 38 36 39 39 40 53 41 72 42 37 43 38 44
REMARK SMILES IDX 52 46 73 47 40 48 24 49 25 50 33 51 26 52 32 53 34 54 31 55
REMARK SMILES IDX 27 56 28 57 29 58 30 59 56 60 57 61 65 62 58 63 64 64 66 65
REMARK SMILES IDX 63 66 59 67 60 68 61 69 62 70 41 71 42 72 50 73 43 74 49 75
REMARK SMILES IDX 51 76 48 77 44 78 45 79 46 80 47 81
REMARK H PARENT 71 34 39 45
REMARK Flexibility Score: inf
ROOT
ATOM      1  C   UNL A   1      36.290  20.572  25.077  1.00  0.00     0.275 C 
ENDROOT
BRANCH   1   2
ATOM      2  C   UNL A   1      34.850  21.095  25.102  1.00  0.00     0.274 C 
BRANCH   2   3
ATOM      3  O   UNL A   1      34.647  22.011  26.195  1.00  0.00    -0.462 OA
BRANCH   3   4
ATOM      4  C   UNL A   1      33.466  22.689  26.178  1.00  0.00     0.309 C 
ATOM      5  O   UNL A   1      32.356  22.182  26.199  1.00  0.00    -0.252 OA
BRANCH   4   6
ATOM      6  C   UNL A   1      33.677  24.158  26.248  1.00  0.00     0.106 C 
ATOM      7  C   UNL A   1      33.483  25.082  25.031  1.00  0.00    -0.013 C 
ATOM      8  C   UNL A   1      33.220  24.465  23.670  1.00  0.00     0.013 C 
ATOM      9  C   UNL A   1      34.865  24.808  25.599  1.00  0.00     0.024 C 
BRANCH   7  10
ATOM     10  C   UNL A   1      32.749  26.457  25.227  1.00  0.00    -0.026 C 
ATOM     11  C   UNL A   1      33.645  27.671  25.137  1.00  0.00     0.012 C 
ATOM     12  C   UNL A   1      31.611  26.549  26.232  1.00  0.00     0.008 C 
ATOM     13  C   UNL A   1      31.319  26.701  24.773  1.00  0.00     0.008 C 
ENDBRANCH   7  10
ENDBRANCH   4   6
ENDBRANCH   3   4
ENDBRANCH   2   3
ENDBRANCH   1   2
BRANCH   1  14
ATOM     14  O   UNL A   1      37.248  21.633  25.253  1.00  0.00    -0.458 OA
BRANCH  14  15
ATOM     15  C   UNL A   1      38.451  21.243  25.739  1.00  0.00     0.338 C 
ATOM     16  O   UNL A   1      38.975  20.149  25.614  1.00  0.00    -0.246 OA
BRANCH  15  17
ATOM     17  C   UNL A   1      39.135  22.391  26.352  1.00  0.00     0.060 A 
ATOM     18  C   UNL A   1      38.631  23.660  26.087  1.00  0.00     0.016 A 
ATOM     19  C   UNL A   1      40.322  22.244  27.068  1.00  0.00     0.016 A 
ATOM     20  C   UNL A   1      39.332  24.790  26.492  1.00  0.00     0.010 A 
ATOM     21  C   UNL A   1      40.999  23.388  27.521  1.00  0.00     0.010 A 
ATOM     22  C   UNL A   1      40.521  24.675  27.218  1.00  0.00    -0.014 A 
BRANCH  22  23
ATOM     23  C   UNL A   1      41.263  25.912  27.597  1.00  0.00     0.031 A 
ATOM     24  C   UNL A   1      40.597  26.963  28.446  1.00  0.00     0.074 A 
ATOM     25  C   UNL A   1      42.553  26.068  27.237  1.00  0.00     0.049 A 
ATOM     26  N   UNL A   1      41.024  28.153  28.780  1.00  0.00    -0.248 NA
ATOM     27  C   UNL A   1      39.272  26.625  28.988  1.00  0.00     0.031 C 
ATOM     28  C   UNL A   1      43.347  25.089  26.489  1.00  0.00     0.029 A 
ATOM     29  N   UNL A   1      43.431  27.103  27.455  1.00  0.00    -0.354 N 
ATOM     30  C   UNL A   1      40.006  28.726  29.536  1.00  0.00     0.074 A 
ATOM     31  C   UNL A   1      38.933  27.755  29.592  1.00  0.00     0.031 C 
ATOM     32  C   UNL A   1      44.595  25.558  26.336  1.00  0.00     0.029 A 
ATOM     33  C   UNL A   1      44.668  26.907  26.883  1.00  0.00     0.049 A 
ATOM     34  H   UNL A   1      43.198  27.907  27.973  1.00  0.00     0.167 HD
ATOM     35  C   UNL A   1      39.974  29.947  30.128  1.00  0.00     0.034 A 
ATOM     36  C   UNL A   1      45.725  27.737  26.761  1.00  0.00     0.034 A 
ATOM     37  C   UNL A   1      41.065  30.893  30.077  1.00  0.00     0.049 A 
ATOM     38  C   UNL A   1      45.625  29.128  27.334  1.00  0.00     0.074 A 
ATOM     39  C   UNL A   1      41.138  32.154  30.646  1.00  0.00     0.029 A 
ATOM     40  N   UNL A   1      42.272  30.689  29.420  1.00  0.00    -0.354 N 
ATOM     41  N   UNL A   1      44.637  29.679  28.002  1.00  0.00    -0.248 NA
ATOM     42  C   UNL A   1      46.779  30.013  27.129  1.00  0.00     0.031 C 
ATOM     43  C   UNL A   1      42.348  32.742  30.263  1.00  0.00     0.029 A 
ATOM     44  C   UNL A   1      43.076  31.814  29.536  1.00  0.00     0.049 A 
ATOM     45  H   UNL A   1      42.521  29.864  28.943  1.00  0.00     0.167 HD
ATOM     46  C   UNL A   1      45.065  30.965  28.320  1.00  0.00     0.074 A 
ATOM     47  C   UNL A   1      46.405  31.099  27.789  1.00  0.00     0.031 C 
ATOM     48  C   UNL A   1      44.409  31.944  28.993  1.00  0.00     0.034 A 
BRANCH  35  49
ATOM     49  C   UNL A   1      38.693  30.356  30.817  1.00  0.00     0.023 A 
ATOM     50  C   UNL A   1      37.634  30.975  30.130  1.00  0.00     0.031 A 
ATOM     51  C   UNL A   1      38.540  30.144  32.201  1.00  0.00     0.131 A 
ATOM     52  C   UNL A   1      36.507  31.423  30.837  1.00  0.00     0.055 A 
ATOM     53  C   UNL A   1      37.379  30.513  32.882  1.00  0.00     0.041 A 
ATOM     54  F   UNL A   1      39.526  29.580  32.917  1.00  0.00    -0.206 F 
ATOM     55  C   UNL A   1      36.360  31.171  32.203  1.00  0.00     0.022 A 
BRANCH  52  56
ATOM     56  S   UNL A   1      35.306  32.476  29.977  1.00  0.00     0.124 S 
ATOM     57  O   UNL A   1      34.359  32.778  31.048  1.00  0.00    -0.237 OA
ATOM     58  O   UNL A   1      36.130  33.588  29.521  1.00  0.00    -0.237 OA
ATOM     59  O   UNL A   1      34.784  31.610  28.922  1.00  0.00    -0.744 OA
ENDBRANCH  52  56
ENDBRANCH  35  49
BRANCH  36  60
ATOM     60  C   UNL A   1      46.939  27.312  26.001  1.00  0.00     0.023 A 
ATOM     61  C   UNL A   1      47.149  27.720  24.676  1.00  0.00     0.031 A 
ATOM     62  C   UNL A   1      47.881  26.436  26.575  1.00  0.00     0.131 A 
ATOM     63  C   UNL A   1      48.245  27.220  23.954  1.00  0.00     0.055 A 
ATOM     64  C   UNL A   1      49.005  25.996  25.877  1.00  0.00     0.041 A 
ATOM     65  F   UNL A   1      47.725  26.001  27.837  1.00  0.00    -0.206 F 
ATOM     66  C   UNL A   1      49.184  26.376  24.552  1.00  0.00     0.022 A 
BRANCH  63  67
ATOM     67  S   UNL A   1      48.369  27.601  22.185  1.00  0.00     0.124 S 
ATOM     68  O   UNL A   1      48.574  26.277  21.610  1.00  0.00    -0.237 OA
ATOM     69  O   UNL A   1      47.076  28.223  21.917  1.00  0.00    -0.237 OA
ATOM     70  O   UNL A   1      49.518  28.500  22.111  1.00  0.00    -0.744 OA
ENDBRANCH  63  67
ENDBRANCH  36  60
BRANCH  48  71
ATOM     71  C   UNL A   1      45.158  33.234  29.234  1.00  0.00     0.023 A 
ATOM     72  C   UNL A   1      45.155  34.283  28.298  1.00  0.00     0.031 A 
ATOM     73  C   UNL A   1      45.901  33.408  30.416  1.00  0.00     0.131 A 
ATOM     74  C   UNL A   1      45.927  35.432  28.531  1.00  0.00     0.055 A 
ATOM     75  C   UNL A   1      46.610  34.582  30.675  1.00  0.00     0.041 A 
ATOM     76  F   UNL A   1      45.948  32.438  31.345  1.00  0.00    -0.206 F 
ATOM     77  C   UNL A   1      46.638  35.596  29.723  1.00  0.00     0.022 A 
BRANCH  74  78
ATOM     78  S   UNL A   1      46.077  36.665  27.209  1.00  0.00     0.124 S 
ATOM     79  O   UNL A   1      44.920  37.518  27.460  1.00  0.00    -0.237 OA
ATOM     80  O   UNL A   1      47.381  37.261  27.484  1.00  0.00    -0.237 OA
ATOM     81  O   UNL A   1      46.006  35.867  25.986  1.00  0.00    -0.744 OA
ENDBRANCH  74  78
ENDBRANCH  48  71
ENDBRANCH  22  23
ENDBRANCH  15  17
ENDBRANCH  14  15
ENDBRANCH   1  14
TORSDOF 15
ENDMDL
MODEL 2
REMARK VINA RESULT:     -10.5      2.980      9.287
REMARK SMILES CC1([C@@]2(C)C[C@@H]2C(=O)OCCOC(=O)c2ccc(-c3c4nc(c(-c5cc(S(=O)(=O)[O-])ccc5F)c5ccc([nH]5)c(-c5cc(S(=O)(=O)[O-])ccc5F)c5nc(c(-c6cc(S(=O)(=O)[O-])ccc6F)c6ccc3[nH]6)C=C5)C=C4)cc2)CC1
REMARK SMILES IDX 11 1 10 2 9 3 7 4 8 5 6 6 3 7 4 8 5 9 2 10 1 11 78 12 79 13
REMARK SMILES IDX 12 14 13 15 14 16 15 17 16 18 77 19 17 20 76 21 18 22 19 23
REMARK SMILES IDX 20 24 70 25 21 26 75 27 69 28 71 29 22 30 74 31 68 32 67 33
REMARK SMILES IDX 23 35 55 36 35 37 54 38 36 39 39 40 53 41 72 42 37 43 38 44
REMARK SMILES IDX 52 46 73 47 40 48 24 49 25 50 33 51 26 52 32 53 34 54 31 55
REMARK SMILES IDX 27 56 28 57 29 58 30 59 56 60 57 61 65 62 58 63 64 64 66 65
REMARK SMILES IDX 63 66 59 67 60 68 61 69 62 70 41 71 42 72 50 73 43 74 49 75
REMARK SMILES IDX 51 76 48 77 44 78 45 79 46 80 47 81
REMARK H PARENT 71 34 39 45
REMARK Flexibility Score: inf
ROOT
ATOM      1  C   UNL A   1      41.043  20.014  26.434  1.00  0.00     0.275 C 
ENDROOT
BRANCH   1   2
ATOM      2  C   UNL A   1      42.516  19.602  26.336  1.00  0.00     0.274 C 
BRANCH   2   3
ATOM      3  O   UNL A   1      42.855  19.190  24.998  1.00  0.00    -0.462 OA
BRANCH   3   4
ATOM      4  C   UNL A   1      44.181  19.224  24.692  1.00  0.00     0.309 C 
ATOM      5  O   UNL A   1      44.756  18.453  23.940  1.00  0.00    -0.252 OA
BRANCH   4   6
ATOM      6  C   UNL A   1      44.854  20.400  25.302  1.00  0.00     0.106 C 
ATOM      7  C   UNL A   1      44.973  21.754  24.578  1.00  0.00    -0.013 C 
ATOM      8  C   UNL A   1      44.531  21.859  23.130  1.00  0.00     0.013 C 
ATOM      9  C   UNL A   1      46.190  20.876  24.811  1.00  0.00     0.024 C 
BRANCH   7  10
ATOM     10  C   UNL A   1      44.721  23.076  25.388  1.00  0.00    -0.026 C 
ATOM     11  C   UNL A   1      45.930  23.973  25.527  1.00  0.00     0.012 C 
ATOM     12  C   UNL A   1      43.782  23.040  26.585  1.00  0.00     0.008 C 
ATOM     13  C   UNL A   1      43.393  23.815  25.367  1.00  0.00     0.008 C 
ENDBRANCH   7  10
ENDBRANCH   4   6
ENDBRANCH   3   4
ENDBRANCH   2   3
ENDBRANCH   1   2
BRANCH   1  14
ATOM     14  O   UNL A   1      40.813  21.318  25.870  1.00  0.00    -0.458 OA
BRANCH  14  15
ATOM     15  C   UNL A   1      39.648  21.904  26.236  1.00  0.00     0.338 C 
ATOM     16  O   UNL A   1      38.534  21.408  26.204  1.00  0.00    -0.246 OA
BRANCH  15  17
ATOM     17  C   UNL A   1      39.918  23.223  26.825  1.00  0.00     0.060 A 
ATOM     18  C   UNL A   1      39.494  24.344  26.119  1.00  0.00     0.016 A 
ATOM     19  C   UNL A   1      40.681  23.371  27.982  1.00  0.00     0.016 A 
ATOM     20  C   UNL A   1      39.871  25.617  26.534  1.00  0.00     0.010 A 
ATOM     21  C   UNL A   1      41.015  24.660  28.426  1.00  0.00     0.010 A 
ATOM     22  C   UNL A   1      40.630  25.797  27.694  1.00  0.00    -0.014 A 
BRANCH  22  23
ATOM     23  C   UNL A   1      41.048  27.176  28.081  1.00  0.00     0.031 A 
ATOM     24  C   UNL A   1      42.493  27.586  27.970  1.00  0.00     0.074 A 
ATOM     25  C   UNL A   1      40.127  28.081  28.469  1.00  0.00     0.049 A 
ATOM     26  N   UNL A   1      43.074  28.688  28.367  1.00  0.00    -0.248 NA
ATOM     27  C   UNL A   1      43.401  26.624  27.330  1.00  0.00     0.031 C 
ATOM     28  C   UNL A   1      38.682  27.843  28.536  1.00  0.00     0.029 A 
ATOM     29  N   UNL A   1      40.262  29.388  28.874  1.00  0.00    -0.354 N 
ATOM     30  C   UNL A   1      44.424  28.539  28.063  1.00  0.00     0.074 A 
ATOM     31  C   UNL A   1      44.572  27.228  27.467  1.00  0.00     0.031 C 
ATOM     32  C   UNL A   1      38.068  28.969  28.930  1.00  0.00     0.029 A 
ATOM     33  C   UNL A   1      39.073  29.978  29.239  1.00  0.00     0.049 A 
ATOM     34  H   UNL A   1      41.128  29.857  28.899  1.00  0.00     0.167 HD
ATOM     35  C   UNL A   1      45.440  29.416  28.264  1.00  0.00     0.034 A 
ATOM     36  C   UNL A   1      38.821  31.175  29.810  1.00  0.00     0.034 A 
ATOM     37  C   UNL A   1      45.266  30.729  28.841  1.00  0.00     0.049 A 
ATOM     38  C   UNL A   1      39.979  32.088  30.122  1.00  0.00     0.074 A 
ATOM     39  C   UNL A   1      46.226  31.697  29.083  1.00  0.00     0.029 A 
ATOM     40  N   UNL A   1      44.056  31.260  29.271  1.00  0.00    -0.354 N 
ATOM     41  N   UNL A   1      41.259  31.914  29.878  1.00  0.00    -0.248 NA
ATOM     42  C   UNL A   1      39.661  33.355  30.792  1.00  0.00     0.031 C 
ATOM     43  C   UNL A   1      45.615  32.774  29.733  1.00  0.00     0.029 A 
ATOM     44  C   UNL A   1      44.255  32.523  29.812  1.00  0.00     0.049 A 
ATOM     45  H   UNL A   1      43.185  30.807  29.201  1.00  0.00     0.167 HD
ATOM     46  C   UNL A   1      41.892  33.065  30.342  1.00  0.00     0.074 A 
ATOM     47  C   UNL A   1      40.853  33.930  30.860  1.00  0.00     0.031 C 
ATOM     48  C   UNL A   1      43.213  33.377  30.337  1.00  0.00     0.034 A 
BRANCH  35  49
ATOM     49  C   UNL A   1      46.838  28.956  27.922  1.00  0.00     0.023 A 
ATOM     50  C   UNL A   1      47.248  28.714  26.599  1.00  0.00     0.031 A 
ATOM     51  C   UNL A   1      47.775  28.730  28.949  1.00  0.00     0.131 A 
ATOM     52  C   UNL A   1      48.526  28.194  26.346  1.00  0.00     0.055 A 
ATOM     53  C   UNL A   1      49.074  28.296  28.682  1.00  0.00     0.041 A 
ATOM     54  F   UNL A   1      47.437  28.919  30.234  1.00  0.00    -0.206 F 
ATOM     55  C   UNL A   1      49.452  28.009  27.375  1.00  0.00     0.022 A 
BRANCH  52  56
ATOM     56  S   UNL A   1      48.911  27.614  24.670  1.00  0.00     0.124 S 
ATOM     57  O   UNL A   1      47.798  28.171  23.903  1.00  0.00    -0.237 OA
ATOM     58  O   UNL A   1      50.218  28.209  24.421  1.00  0.00    -0.237 OA
ATOM     59  O   UNL A   1      48.900  26.159  24.798  1.00  0.00    -0.744 OA
ENDBRANCH  52  56
ENDBRANCH  35  49
BRANCH  36  60
ATOM     60  C   UNL A   1      37.429  31.549  30.201  1.00  0.00     0.023 A 
ATOM     61  C   UNL A   1      36.523  32.066  29.263  1.00  0.00     0.031 A 
ATOM     62  C   UNL A   1      37.002  31.450  31.539  1.00  0.00     0.131 A 
ATOM     63  C   UNL A   1      35.257  32.506  29.681  1.00  0.00     0.055 A 
ATOM     64  C   UNL A   1      35.719  31.824  31.938  1.00  0.00     0.041 A 
ATOM     65  F   UNL A   1      37.831  30.974  32.484  1.00  0.00    -0.206 F 
ATOM     66  C   UNL A   1      34.842  32.371  31.009  1.00  0.00     0.022 A 
BRANCH  63  67
ATOM     67  S   UNL A   1      34.194  33.360  28.485  1.00  0.00     0.124 S 
ATOM     68  O   UNL A   1      33.494  32.243  27.861  1.00  0.00    -0.237 OA
ATOM     69  O   UNL A   1      33.391  34.218  29.349  1.00  0.00    -0.237 OA
ATOM     70  O   UNL A   1      35.145  34.060  27.624  1.00  0.00    -0.744 OA
ENDBRANCH  63  67
ENDBRANCH  36  60
BRANCH  48  71
ATOM     71  C   UNL A   1      43.600  34.737  30.867  1.00  0.00     0.023 A 
ATOM     72  C   UNL A   1      43.657  35.871  30.038  1.00  0.00     0.031 A 
ATOM     73  C   UNL A   1      43.934  34.896  32.225  1.00  0.00     0.131 A 
ATOM     74  C   UNL A   1      44.096  37.098  30.559  1.00  0.00     0.055 A 
ATOM     75  C   UNL A   1      44.301  36.135  32.753  1.00  0.00     0.041 A 
ATOM     76  F   UNL A   1      43.905  33.848  33.065  1.00  0.00    -0.206 F 
ATOM     77  C   UNL A   1      44.399  37.242  31.915  1.00  0.00     0.022 A 
BRANCH  74  78
ATOM     78  S   UNL A   1      44.370  38.482  29.418  1.00  0.00     0.124 S 
ATOM     79  O   UNL A   1      45.248  39.347  30.198  1.00  0.00    -0.237 OA
ATOM     80  O   UNL A   1      44.980  37.823  28.268  1.00  0.00    -0.237 OA
ATOM     81  O   UNL A   1      43.025  39.008  29.189  1.00  0.00    -0.744 OA
ENDBRANCH  74  78
ENDBRANCH  48  71
ENDBRANCH  22  23
ENDBRANCH  15  17
ENDBRANCH  14  15
ENDBRANCH   1  14
TORSDOF 15
ENDMDL
MODEL 3
REMARK VINA RESULT:     -10.5      5.390     10.336
REMARK SMILES CC1([C@@]2(C)C[C@@H]2C(=O)OCCOC(=O)c2ccc(-c3c4nc(c(-c5cc(S(=O)(=O)[O-])ccc5F)c5ccc([nH]5)c(-c5cc(S(=O)(=O)[O-])ccc5F)c5nc(c(-c6cc(S(=O)(=O)[O-])ccc6F)c6ccc3[nH]6)C=C5)C=C4)cc2)CC1
REMARK SMILES IDX 11 1 10 2 9 3 7 4 8 5 6 6 3 7 4 8 5 9 2 10 1 11 78 12 79 13
REMARK SMILES IDX 12 14 13 15 14 16 15 17 16 18 77 19 17 20 76 21 18 22 19 23
REMARK SMILES IDX 20 24 70 25 21 26 75 27 69 28 71 29 22 30 74 31 68 32 67 33
REMARK SMILES IDX 23 35 55 36 35 37 54 38 36 39 39 40 53 41 72 42 37 43 38 44
REMARK SMILES IDX 52 46 73 47 40 48 24 49 25 50 33 51 26 52 32 53 34 54 31 55
REMARK SMILES IDX 27 56 28 57 29 58 30 59 56 60 57 61 65 62 58 63 64 64 66 65
REMARK SMILES IDX 63 66 59 67 60 68 61 69 62 70 41 71 42 72 50 73 43 74 49 75
REMARK SMILES IDX 51 76 48 77 44 78 45 79 46 80 47 81
REMARK H PARENT 71 34 39 45
REMARK Flexibility Score: inf
ROOT
ATOM      1  C   UNL A   1      31.539  30.481  25.674  1.00  0.00     0.275 C 
ENDROOT
BRANCH   1   2
ATOM      2  C   UNL A   1      31.348  29.075  25.095  1.00  0.00     0.274 C 
BRANCH   2   3
ATOM      3  O   UNL A   1      31.160  29.119  23.668  1.00  0.00    -0.462 OA
BRANCH   3   4
ATOM      4  C   UNL A   1      30.819  27.937  23.085  1.00  0.00     0.309 C 
ATOM      5  O   UNL A   1      30.263  27.812  22.006  1.00  0.00    -0.252 OA
BRANCH   4   6
ATOM      6  C   UNL A   1      31.310  26.777  23.872  1.00  0.00     0.106 C 
ATOM      7  C   UNL A   1      32.733  26.209  23.715  1.00  0.00    -0.013 C 
ATOM      8  C   UNL A   1      33.623  26.745  22.609  1.00  0.00     0.013 C 
ATOM      9  C   UNL A   1      31.518  25.433  23.236  1.00  0.00     0.024 C 
BRANCH   7  10
ATOM     10  C   UNL A   1      33.538  25.803  25.001  1.00  0.00    -0.026 C 
ATOM     11  C   UNL A   1      34.026  26.966  25.834  1.00  0.00     0.012 C 
ATOM     12  C   UNL A   1      34.465  24.598  24.941  1.00  0.00     0.008 C 
ATOM     13  C   UNL A   1      33.241  24.544  25.797  1.00  0.00     0.008 C 
ENDBRANCH   7  10
ENDBRANCH   4   6
ENDBRANCH   3   4
ENDBRANCH   2   3
ENDBRANCH   1   2
BRANCH   1  14
ATOM     14  O   UNL A   1      32.336  30.462  26.873  1.00  0.00    -0.458 OA
BRANCH  14  15
ATOM     15  C   UNL A   1      32.975  31.623  27.155  1.00  0.00     0.338 C 
ATOM     16  O   UNL A   1      32.518  32.751  27.081  1.00  0.00    -0.246 OA
BRANCH  15  17
ATOM     17  C   UNL A   1      34.306  31.336  27.708  1.00  0.00     0.060 A 
ATOM     18  C   UNL A   1      34.591  30.020  28.056  1.00  0.00     0.016 A 
ATOM     19  C   UNL A   1      35.216  32.351  28.000  1.00  0.00     0.016 A 
ATOM     20  C   UNL A   1      35.761  29.715  28.742  1.00  0.00     0.010 A 
ATOM     21  C   UNL A   1      36.421  32.030  28.646  1.00  0.00     0.010 A 
ATOM     22  C   UNL A   1      36.696  30.709  29.043  1.00  0.00    -0.014 A 
BRANCH  22  23
ATOM     23  C   UNL A   1      37.919  30.346  29.816  1.00  0.00     0.031 A 
ATOM     24  C   UNL A   1      38.959  29.444  29.206  1.00  0.00     0.074 A 
ATOM     25  C   UNL A   1      38.131  30.873  31.039  1.00  0.00     0.049 A 
ATOM     26  N   UNL A   1      40.023  28.916  29.752  1.00  0.00    -0.248 NA
ATOM     27  C   UNL A   1      38.770  29.089  27.791  1.00  0.00     0.031 C 
ATOM     28  C   UNL A   1      37.249  31.830  31.713  1.00  0.00     0.029 A 
ATOM     29  N   UNL A   1      39.159  30.689  31.934  1.00  0.00    -0.354 N 
ATOM     30  C   UNL A   1      40.612  28.133  28.764  1.00  0.00     0.074 A 
ATOM     31  C   UNL A   1      39.770  28.242  27.591  1.00  0.00     0.031 C 
ATOM     32  C   UNL A   1      37.785  32.165  32.896  1.00  0.00     0.029 A 
ATOM     33  C   UNL A   1      38.993  31.379  33.114  1.00  0.00     0.049 A 
ATOM     34  H   UNL A   1      39.940  30.119  31.748  1.00  0.00     0.167 HD
ATOM     35  C   UNL A   1      41.749  27.394  28.833  1.00  0.00     0.034 A 
ATOM     36  C   UNL A   1      39.699  31.344  34.263  1.00  0.00     0.034 A 
ATOM     37  C   UNL A   1      42.586  27.316  30.008  1.00  0.00     0.049 A 
ATOM     38  C   UNL A   1      40.897  30.434  34.351  1.00  0.00     0.074 A 
ATOM     39  C   UNL A   1      43.760  26.602  30.182  1.00  0.00     0.029 A 
ATOM     40  N   UNL A   1      42.341  27.968  31.210  1.00  0.00    -0.354 N 
ATOM     41  N   UNL A   1      41.415  29.656  33.427  1.00  0.00    -0.248 NA
ATOM     42  C   UNL A   1      41.601  30.389  35.638  1.00  0.00     0.031 C 
ATOM     43  C   UNL A   1      44.177  26.754  31.508  1.00  0.00     0.029 A 
ATOM     44  C   UNL A   1      43.319  27.640  32.139  1.00  0.00     0.049 A 
ATOM     45  H   UNL A   1      41.584  28.575  31.378  1.00  0.00     0.167 HD
ATOM     46  C   UNL A   1      42.522  29.053  34.017  1.00  0.00     0.074 A 
ATOM     47  C   UNL A   1      42.607  29.571  35.366  1.00  0.00     0.031 C 
ATOM     48  C   UNL A   1      43.391  28.153  33.489  1.00  0.00     0.034 A 
BRANCH  35  49
ATOM     49  C   UNL A   1      42.112  26.556  27.629  1.00  0.00     0.023 A 
ATOM     50  C   UNL A   1      41.749  25.203  27.518  1.00  0.00     0.031 A 
ATOM     51  C   UNL A   1      42.860  27.122  26.579  1.00  0.00     0.131 A 
ATOM     52  C   UNL A   1      42.196  24.446  26.423  1.00  0.00     0.055 A 
ATOM     53  C   UNL A   1      43.226  26.386  25.451  1.00  0.00     0.041 A 
ATOM     54  F   UNL A   1      43.258  28.403  26.637  1.00  0.00    -0.206 F 
ATOM     55  C   UNL A   1      42.908  25.034  25.376  1.00  0.00     0.022 A 
BRANCH  52  56
ATOM     56  S   UNL A   1      41.967  22.647  26.462  1.00  0.00     0.124 S 
ATOM     57  O   UNL A   1      42.668  22.287  27.693  1.00  0.00    -0.237 OA
ATOM     58  O   UNL A   1      40.516  22.513  26.491  1.00  0.00    -0.237 OA
ATOM     59  O   UNL A   1      42.612  22.191  25.233  1.00  0.00    -0.744 OA
ENDBRANCH  52  56
ENDBRANCH  35  49
BRANCH  36  60
ATOM     60  C   UNL A   1      39.252  32.132  35.451  1.00  0.00     0.023 A 
ATOM     61  C   UNL A   1      39.650  33.465  35.634  1.00  0.00     0.031 A 
ATOM     62  C   UNL A   1      38.463  31.539  36.456  1.00  0.00     0.131 A 
ATOM     63  C   UNL A   1      39.299  34.144  36.812  1.00  0.00     0.055 A 
ATOM     64  C   UNL A   1      38.060  32.240  37.592  1.00  0.00     0.041 A 
ATOM     65  F   UNL A   1      38.062  30.262  36.341  1.00  0.00    -0.206 F 
ATOM     66  C   UNL A   1      38.491  33.548  37.782  1.00  0.00     0.022 A 
BRANCH  63  67
ATOM     67  S   UNL A   1      40.005  35.788  37.109  1.00  0.00     0.124 S 
ATOM     68  O   UNL A   1      39.652  36.489  35.880  1.00  0.00    -0.237 OA
ATOM     69  O   UNL A   1      39.298  36.210  38.314  1.00  0.00    -0.237 OA
ATOM     70  O   UNL A   1      41.430  35.519  37.288  1.00  0.00    -0.744 OA
ENDBRANCH  63  67
ENDBRANCH  36  60
BRANCH  48  71
ATOM     71  C   UNL A   1      44.540  27.711  34.363  1.00  0.00     0.023 A 
ATOM     72  C   UNL A   1      44.404  26.676  35.304  1.00  0.00     0.031 A 
ATOM     73  C   UNL A   1      45.790  28.350  34.262  1.00  0.00     0.131 A 
ATOM     74  C   UNL A   1      45.478  26.351  36.148  1.00  0.00     0.055 A 
ATOM     75  C   UNL A   1      46.876  27.974  35.054  1.00  0.00     0.041 A 
ATOM     76  F   UNL A   1      45.978  29.351  33.386  1.00  0.00    -0.206 F 
ATOM     77  C   UNL A   1      46.719  26.979  36.014  1.00  0.00     0.022 A 
BRANCH  74  78
ATOM     78  S   UNL A   1      45.202  25.168  37.495  1.00  0.00     0.124 S 
ATOM     79  O   UNL A   1      45.959  24.007  37.037  1.00  0.00    -0.237 OA
ATOM     80  O   UNL A   1      45.752  25.873  38.648  1.00  0.00    -0.237 OA
ATOM     81  O   UNL A   1      43.750  24.996  37.509  1.00  0.00    -0.744 OA
ENDBRANCH  74  78
ENDBRANCH  48  71
ENDBRANCH  22  23
ENDBRANCH  15  17
ENDBRANCH  14  15
ENDBRANCH   1  14
TORSDOF 15
ENDMDL
