MODEL 1
REMARK VINA RESULT:     -12.4      0.000      0.000
REMARK SMILES O=C(OCCOC(=O)c1ccc(-c2c3nc(c(-c4cc(S(=O)(=O)[O-])ccc4F)c4ccc([nH]4)c(-c4cc(S(=O)(=O)[O-])ccc4F)c4nc(c(-c5cc(S(=O)(=O)[O-])ccc5F)c5ccc2[nH]5)C=C4)C=C3)cc1)C1=Cc2c(cc(Cl)c(Cl)c2Cl)O[C@H]1C(F)(F)F
REMARK SMILES IDX 5 1 4 2 3 3 2 4 1 5 72 6 73 7 84 8 74 9 83 10 75 11 81 12
REMARK SMILES IDX 76 13 79 14 82 15 77 16 80 17 78 18 85 19 86 20 87 21 88 22
REMARK SMILES IDX 6 23 7 24 8 25 9 26 10 27 71 28 11 29 70 30 12 31 13 32
REMARK SMILES IDX 14 33 64 34 15 35 69 36 63 37 65 38 16 39 68 40 62 41 61 42
REMARK SMILES IDX 17 44 49 45 29 46 48 47 30 48 33 49 47 50 66 51 31 52 32 53
REMARK SMILES IDX 46 55 67 56 34 57 18 58 19 59 27 60 20 61 26 62 28 63 25 64
REMARK SMILES IDX 21 65 22 66 23 67 24 68 50 69 51 70 59 71 52 72 58 73 60 74
REMARK SMILES IDX 57 75 53 76 54 77 55 78 56 79 35 80 36 81 44 82 37 83 43 84
REMARK SMILES IDX 45 85 42 86 38 87 39 88 40 89 41 90
REMARK H PARENT 65 43 33 54
REMARK Flexibility Score: inf
ROOT
ATOM      1  C   UNL A   1      31.796  30.617  26.275  1.00  0.00     0.275 C 
ENDROOT
BRANCH   1   2
ATOM      2  C   UNL A   1      32.046  29.447  25.312  1.00  0.00     0.275 C 
BRANCH   2   3
ATOM      3  O   UNL A   1      32.589  28.260  25.929  1.00  0.00    -0.459 OA
BRANCH   3   4
ATOM      4  C   UNL A   1      31.949  27.240  26.534  1.00  0.00     0.338 C 
ATOM      5  O   UNL A   1      31.573  27.381  27.697  1.00  0.00    -0.246 OA
BRANCH   4   6
ATOM      6  C   UNL A   1      31.661  25.948  25.859  1.00  0.00     0.087 C 
ATOM      7  C   UNL A   1      31.992  24.728  26.323  1.00  0.00     0.029 C 
ATOM      8  C   UNL A   1      31.408  26.117  24.365  1.00  0.00     0.316 C 
ATOM      9  C   UNL A   1      33.105  24.149  25.528  1.00  0.00     0.038 A 
ATOM     10  O   UNL A   1      32.133  25.145  23.545  1.00  0.00    -0.475 OA
ATOM     11  C   UNL A   1      33.156  24.478  24.170  1.00  0.00     0.131 A 
ATOM     12  C   UNL A   1      34.129  23.364  26.093  1.00  0.00     0.072 A 
ATOM     13  C   UNL A   1      34.242  24.098  23.393  1.00  0.00     0.069 A 
ATOM     14  C   UNL A   1      35.264  23.041  25.333  1.00  0.00     0.079 A 
ATOM     15  Cl  UNL A   1      33.968  22.768  27.716  1.00  0.00    -0.082 Cl
ATOM     16  C   UNL A   1      35.315  23.422  23.984  1.00  0.00     0.064 A 
ATOM     17  Cl  UNL A   1      36.609  22.218  26.065  1.00  0.00    -0.081 Cl
ATOM     18  Cl  UNL A   1      36.684  23.084  22.982  1.00  0.00    -0.083 Cl
BRANCH   8  19
ATOM     19  C   UNL A   1      29.902  26.065  24.063  1.00  0.00     0.430 C 
ATOM     20  F   UNL A   1      29.155  26.087  25.188  1.00  0.00    -0.167 F 
ATOM     21  F   UNL A   1      29.516  27.110  23.297  1.00  0.00    -0.167 F 
ATOM     22  F   UNL A   1      29.581  24.930  23.391  1.00  0.00    -0.167 F 
ENDBRANCH   8  19
ENDBRANCH   4   6
ENDBRANCH   3   4
ENDBRANCH   2   3
ENDBRANCH   1   2
BRANCH   1  23
ATOM     23  O   UNL A   1      32.694  30.606  27.385  1.00  0.00    -0.458 OA
BRANCH  23  24
ATOM     24  C   UNL A   1      33.337  31.789  27.537  1.00  0.00     0.338 C 
ATOM     25  O   UNL A   1      32.811  32.887  27.622  1.00  0.00    -0.246 OA
BRANCH  24  26
ATOM     26  C   UNL A   1      34.766  31.530  27.789  1.00  0.00     0.060 A 
ATOM     27  C   UNL A   1      35.148  30.192  27.896  1.00  0.00     0.016 A 
ATOM     28  C   UNL A   1      35.707  32.557  27.933  1.00  0.00     0.016 A 
ATOM     29  C   UNL A   1      36.447  29.880  28.262  1.00  0.00     0.010 A 
ATOM     30  C   UNL A   1      37.023  32.239  28.271  1.00  0.00     0.010 A 
ATOM     31  C   UNL A   1      37.376  30.901  28.506  1.00  0.00    -0.014 A 
BRANCH  31  32
ATOM     32  C   UNL A   1      38.630  30.530  29.199  1.00  0.00     0.031 A 
ATOM     33  C   UNL A   1      38.843  31.016  30.608  1.00  0.00     0.074 A 
ATOM     34  C   UNL A   1      39.466  29.639  28.638  1.00  0.00     0.049 A 
ATOM     35  N   UNL A   1      39.734  30.645  31.488  1.00  0.00    -0.248 NA
ATOM     36  C   UNL A   1      37.920  32.056  31.093  1.00  0.00     0.031 C 
ATOM     37  C   UNL A   1      39.333  29.100  27.283  1.00  0.00     0.029 A 
ATOM     38  N   UNL A   1      40.564  29.000  29.148  1.00  0.00    -0.354 N 
ATOM     39  C   UNL A   1      39.455  31.374  32.639  1.00  0.00     0.074 A 
ATOM     40  C   UNL A   1      38.371  32.274  32.319  1.00  0.00     0.031 C 
ATOM     41  C   UNL A   1      40.300  28.188  27.080  1.00  0.00     0.029 A 
ATOM     42  C   UNL A   1      41.126  28.092  28.281  1.00  0.00     0.049 A 
ATOM     43  H   UNL A   1      40.919  29.174  30.050  1.00  0.00     0.167 HD
ATOM     44  C   UNL A   1      40.025  31.274  33.865  1.00  0.00     0.034 A 
ATOM     45  C   UNL A   1      42.183  27.273  28.448  1.00  0.00     0.034 A 
ATOM     46  C   UNL A   1      41.126  30.390  34.153  1.00  0.00     0.049 A 
ATOM     47  C   UNL A   1      42.855  27.239  29.800  1.00  0.00     0.074 A 
ATOM     48  C   UNL A   1      41.806  30.217  35.344  1.00  0.00     0.029 A 
ATOM     49  N   UNL A   1      41.715  29.535  33.229  1.00  0.00    -0.354 N 
ATOM     50  N   UNL A   1      42.554  27.906  30.893  1.00  0.00    -0.248 NA
ATOM     51  C   UNL A   1      43.988  26.320  29.950  1.00  0.00     0.031 C 
ATOM     52  C   UNL A   1      42.851  29.312  35.122  1.00  0.00     0.029 A 
ATOM     53  C   UNL A   1      42.770  28.855  33.816  1.00  0.00     0.049 A 
ATOM     54  H   UNL A   1      41.425  29.428  32.295  1.00  0.00     0.167 HD
ATOM     55  C   UNL A   1      43.446  27.463  31.866  1.00  0.00     0.074 A 
ATOM     56  C   UNL A   1      44.266  26.447  31.237  1.00  0.00     0.031 C 
ATOM     57  C   UNL A   1      43.585  27.858  33.160  1.00  0.00     0.034 A 
BRANCH  44  58
ATOM     58  C   UNL A   1      39.480  32.167  34.955  1.00  0.00     0.023 A 
ATOM     59  C   UNL A   1      39.989  33.463  35.166  1.00  0.00     0.031 A 
ATOM     60  C   UNL A   1      38.476  31.707  35.823  1.00  0.00     0.131 A 
ATOM     61  C   UNL A   1      39.545  34.222  36.260  1.00  0.00     0.055 A 
ATOM     62  C   UNL A   1      37.980  32.499  36.860  1.00  0.00     0.041 A 
ATOM     63  F   UNL A   1      37.973  30.469  35.691  1.00  0.00    -0.206 F 
ATOM     64  C   UNL A   1      38.525  33.758  37.093  1.00  0.00     0.022 A 
BRANCH  61  65
ATOM     65  S   UNL A   1      40.423  35.756  36.667  1.00  0.00     0.124 S 
ATOM     66  O   UNL A   1      40.201  35.849  38.108  1.00  0.00    -0.237 OA
ATOM     67  O   UNL A   1      41.788  35.461  36.248  1.00  0.00    -0.237 OA
ATOM     68  O   UNL A   1      39.731  36.768  35.871  1.00  0.00    -0.744 OA
ENDBRANCH  61  65
ENDBRANCH  44  58
BRANCH  45  69
ATOM     69  C   UNL A   1      42.688  26.441  27.314  1.00  0.00     0.023 A 
ATOM     70  C   UNL A   1      42.285  25.108  27.136  1.00  0.00     0.031 A 
ATOM     71  C   UNL A   1      43.655  26.957  26.432  1.00  0.00     0.131 A 
ATOM     72  C   UNL A   1      42.894  24.319  26.145  1.00  0.00     0.055 A 
ATOM     73  C   UNL A   1      44.209  26.188  25.408  1.00  0.00     0.041 A 
ATOM     74  F   UNL A   1      44.082  28.225  26.556  1.00  0.00    -0.206 F 
ATOM     75  C   UNL A   1      43.842  24.854  25.272  1.00  0.00     0.022 A 
BRANCH  72  76
ATOM     76  S   UNL A   1      42.519  22.544  26.092  1.00  0.00     0.124 S 
ATOM     77  O   UNL A   1      43.134  22.073  27.328  1.00  0.00    -0.237 OA
ATOM     78  O   UNL A   1      41.060  22.544  26.060  1.00  0.00    -0.237 OA
ATOM     79  O   UNL A   1      43.168  22.096  24.861  1.00  0.00    -0.744 OA
ENDBRANCH  72  76
ENDBRANCH  45  69
BRANCH  57  80
ATOM     80  C   UNL A   1      44.651  27.160  33.971  1.00  0.00     0.023 A 
ATOM     81  C   UNL A   1      44.350  26.047  34.776  1.00  0.00     0.031 A 
ATOM     82  C   UNL A   1      45.974  27.634  33.969  1.00  0.00     0.131 A 
ATOM     83  C   UNL A   1      45.334  25.505  35.615  1.00  0.00     0.055 A 
ATOM     84  C   UNL A   1      46.970  27.037  34.743  1.00  0.00     0.041 A 
ATOM     85  F   UNL A   1      46.322  28.692  33.221  1.00  0.00    -0.206 F 
ATOM     86  C   UNL A   1      46.647  25.980  35.589  1.00  0.00     0.022 A 
BRANCH  83  87
ATOM     87  S   UNL A   1      44.835  24.270  36.846  1.00  0.00     0.124 S 
ATOM     88  O   UNL A   1      44.949  23.026  36.089  1.00  0.00    -0.237 OA
ATOM     89  O   UNL A   1      45.822  24.465  37.902  1.00  0.00    -0.237 OA
ATOM     90  O   UNL A   1      43.471  24.664  37.192  1.00  0.00    -0.744 OA
ENDBRANCH  83  87
ENDBRANCH  57  80
ENDBRANCH  31  32
ENDBRANCH  24  26
ENDBRANCH  23  24
ENDBRANCH   1  23
TORSDOF 15
ENDMDL
MODEL 2
REMARK VINA RESULT:     -12.3      4.666      9.964
REMARK SMILES O=C(OCCOC(=O)c1ccc(-c2c3nc(c(-c4cc(S(=O)(=O)[O-])ccc4F)c4ccc([nH]4)c(-c4cc(S(=O)(=O)[O-])ccc4F)c4nc(c(-c5cc(S(=O)(=O)[O-])ccc5F)c5ccc2[nH]5)C=C4)C=C3)cc1)C1=Cc2c(cc(Cl)c(Cl)c2Cl)O[C@H]1C(F)(F)F
REMARK SMILES IDX 5 1 4 2 3 3 2 4 1 5 72 6 73 7 84 8 74 9 83 10 75 11 81 12
REMARK SMILES IDX 76 13 79 14 82 15 77 16 80 17 78 18 85 19 86 20 87 21 88 22
REMARK SMILES IDX 6 23 7 24 8 25 9 26 10 27 71 28 11 29 70 30 12 31 13 32
REMARK SMILES IDX 14 33 64 34 15 35 69 36 63 37 65 38 16 39 68 40 62 41 61 42
REMARK SMILES IDX 17 44 49 45 29 46 48 47 30 48 33 49 47 50 66 51 31 52 32 53
REMARK SMILES IDX 46 55 67 56 34 57 18 58 19 59 27 60 20 61 26 62 28 63 25 64
REMARK SMILES IDX 21 65 22 66 23 67 24 68 50 69 51 70 59 71 52 72 58 73 60 74
REMARK SMILES IDX 57 75 53 76 54 77 55 78 56 79 35 80 36 81 44 82 37 83 43 84
REMARK SMILES IDX 45 85 42 86 38 87 39 88 40 89 41 90
REMARK H PARENT 65 43 33 54
REMARK Flexibility Score: inf
ROOT
ATOM      1  C   UNL A   1      37.766  20.322  24.963  1.00  0.00     0.275 C 
ENDROOT
BRANCH   1   2
ATOM      2  C   UNL A   1      36.286  20.726  25.006  1.00  0.00     0.275 C 
BRANCH   2   3
ATOM      3  O   UNL A   1      36.037  22.137  24.826  1.00  0.00    -0.459 OA
BRANCH   3   4
ATOM      4  C   UNL A   1      35.528  22.788  23.761  1.00  0.00     0.338 C 
ATOM      5  O   UNL A   1      36.284  23.112  22.847  1.00  0.00    -0.246 OA
BRANCH   4   6
ATOM      6  C   UNL A   1      34.087  23.126  23.629  1.00  0.00     0.087 C 
ATOM      7  C   UNL A   1      33.586  24.186  22.967  1.00  0.00     0.029 C 
ATOM      8  C   UNL A   1      33.236  22.472  24.713  1.00  0.00     0.316 C 
ATOM      9  C   UNL A   1      33.067  25.201  23.919  1.00  0.00     0.038 A 
ATOM     10  O   UNL A   1      32.285  23.395  25.332  1.00  0.00    -0.475 OA
ATOM     11  C   UNL A   1      32.516  24.729  25.115  1.00  0.00     0.131 A 
ATOM     12  C   UNL A   1      33.177  26.588  23.702  1.00  0.00     0.072 A 
ATOM     13  C   UNL A   1      32.144  25.616  26.116  1.00  0.00     0.069 A 
ATOM     14  C   UNL A   1      32.874  27.485  24.738  1.00  0.00     0.079 A 
ATOM     15  Cl  UNL A   1      33.654  27.186  22.143  1.00  0.00    -0.082 Cl
ATOM     16  C   UNL A   1      32.365  26.987  25.947  1.00  0.00     0.064 A 
ATOM     17  Cl  UNL A   1      33.163  29.188  24.541  1.00  0.00    -0.081 Cl
ATOM     18  Cl  UNL A   1      31.986  28.020  27.282  1.00  0.00    -0.083 Cl
BRANCH   8  19
ATOM     19  C   UNL A   1      32.509  21.238  24.155  1.00  0.00     0.430 C 
ATOM     20  F   UNL A   1      33.367  20.263  23.786  1.00  0.00    -0.167 F 
ATOM     21  F   UNL A   1      31.662  20.711  25.068  1.00  0.00    -0.167 F 
ATOM     22  F   UNL A   1      31.774  21.561  23.060  1.00  0.00    -0.167 F 
ENDBRANCH   8  19
ENDBRANCH   4   6
ENDBRANCH   3   4
ENDBRANCH   2   3
ENDBRANCH   1   2
BRANCH   1  23
ATOM     23  O   UNL A   1      38.635  21.417  25.253  1.00  0.00    -0.458 OA
BRANCH  23  24
ATOM     24  C   UNL A   1      39.630  21.071  26.105  1.00  0.00     0.338 C 
ATOM     25  O   UNL A   1      40.211  19.998  26.134  1.00  0.00    -0.246 OA
BRANCH  24  26
ATOM     26  C   UNL A   1      40.049  22.263  26.863  1.00  0.00     0.060 A 
ATOM     27  C   UNL A   1      39.471  23.476  26.488  1.00  0.00     0.016 A 
ATOM     28  C   UNL A   1      40.990  22.207  27.900  1.00  0.00     0.016 A 
ATOM     29  C   UNL A   1      39.916  24.653  27.068  1.00  0.00     0.010 A 
ATOM     30  C   UNL A   1      41.413  23.392  28.506  1.00  0.00     0.010 A 
ATOM     31  C   UNL A   1      40.927  24.623  28.039  1.00  0.00    -0.014 A 
BRANCH  31  32
ATOM     32  C   UNL A   1      41.582  25.906  28.380  1.00  0.00     0.031 A 
ATOM     33  C   UNL A   1      42.957  26.178  27.831  1.00  0.00     0.074 A 
ATOM     34  C   UNL A   1      40.886  26.863  29.019  1.00  0.00     0.049 A 
ATOM     35  N   UNL A   1      43.631  27.298  27.799  1.00  0.00    -0.248 NA
ATOM     36  C   UNL A   1      43.666  25.037  27.229  1.00  0.00     0.031 C 
ATOM     37  C   UNL A   1      39.542  26.696  29.573  1.00  0.00     0.029 A 
ATOM     38  N   UNL A   1      41.194  28.173  29.271  1.00  0.00    -0.354 N 
ATOM     39  C   UNL A   1      44.820  27.004  27.141  1.00  0.00     0.074 A 
ATOM     40  C   UNL A   1      44.816  25.585  26.871  1.00  0.00     0.031 C 
ATOM     41  C   UNL A   1      39.129  27.871  30.077  1.00  0.00     0.029 A 
ATOM     42  C   UNL A   1      40.183  28.866  29.896  1.00  0.00     0.049 A 
ATOM     43  H   UNL A   1      42.056  28.581  29.028  1.00  0.00     0.167 HD
ATOM     44  C   UNL A   1      45.809  27.848  26.760  1.00  0.00     0.034 A 
ATOM     45  C   UNL A   1      40.120  30.159  30.268  1.00  0.00     0.034 A 
ATOM     46  C   UNL A   1      45.805  29.257  27.067  1.00  0.00     0.049 A 
ATOM     47  C   UNL A   1      41.272  31.065  29.904  1.00  0.00     0.074 A 
ATOM     48  C   UNL A   1      46.759  30.210  26.761  1.00  0.00     0.029 A 
ATOM     49  N   UNL A   1      44.796  29.910  27.764  1.00  0.00    -0.354 N 
ATOM     50  N   UNL A   1      42.374  30.782  29.245  1.00  0.00    -0.248 NA
ATOM     51  C   UNL A   1      41.158  32.470  30.308  1.00  0.00     0.031 C 
ATOM     52  C   UNL A   1      46.361  31.424  27.336  1.00  0.00     0.029 A 
ATOM     53  C   UNL A   1      45.118  31.249  27.925  1.00  0.00     0.049 A 
ATOM     54  H   UNL A   1      43.972  29.485  28.095  1.00  0.00     0.167 HD
ATOM     55  C   UNL A   1      43.069  31.983  29.132  1.00  0.00     0.074 A 
ATOM     56  C   UNL A   1      42.242  32.995  29.758  1.00  0.00     0.031 C 
ATOM     57  C   UNL A   1      44.282  32.234  28.570  1.00  0.00     0.034 A 
BRANCH  44  58
ATOM     58  C   UNL A   1      46.974  27.253  26.006  1.00  0.00     0.023 A 
ATOM     59  C   UNL A   1      48.025  26.596  26.674  1.00  0.00     0.031 A 
ATOM     60  C   UNL A   1      47.064  27.381  24.609  1.00  0.00     0.131 A 
ATOM     61  C   UNL A   1      49.149  26.159  25.958  1.00  0.00     0.055 A 
ATOM     62  C   UNL A   1      48.147  26.871  23.891  1.00  0.00     0.041 A 
ATOM     63  F   UNL A   1      46.108  28.023  23.919  1.00  0.00    -0.206 F 
ATOM     64  C   UNL A   1      49.205  26.268  24.566  1.00  0.00     0.022 A 
BRANCH  61  65
ATOM     65  S   UNL A   1      50.599  25.583  26.882  1.00  0.00     0.124 S 
ATOM     66  O   UNL A   1      50.045  24.453  27.625  1.00  0.00    -0.237 OA
ATOM     67  O   UNL A   1      51.541  25.250  25.820  1.00  0.00    -0.237 OA
ATOM     68  O   UNL A   1      50.964  26.737  27.701  1.00  0.00    -0.744 OA
ENDBRANCH  61  65
ENDBRANCH  44  58
BRANCH  45  69
ATOM     69  C   UNL A   1      38.950  30.673  31.042  1.00  0.00     0.023 A 
ATOM     70  C   UNL A   1      37.811  31.194  30.407  1.00  0.00     0.031 A 
ATOM     71  C   UNL A   1      38.995  30.719  32.448  1.00  0.00     0.131 A 
ATOM     72  C   UNL A   1      36.798  31.798  31.170  1.00  0.00     0.055 A 
ATOM     73  C   UNL A   1      37.956  31.262  33.205  1.00  0.00     0.041 A 
ATOM     74  F   UNL A   1      40.059  30.239  33.111  1.00  0.00    -0.206 F 
ATOM     75  C   UNL A   1      36.856  31.823  32.565  1.00  0.00     0.022 A 
BRANCH  72  76
ATOM     76  S   UNL A   1      35.456  32.665  30.308  1.00  0.00     0.124 S 
ATOM     77  O   UNL A   1      35.261  31.820  29.135  1.00  0.00    -0.237 OA
ATOM     78  O   UNL A   1      34.390  32.638  31.303  1.00  0.00    -0.237 OA
ATOM     79  O   UNL A   1      36.023  33.985  30.039  1.00  0.00    -0.744 OA
ENDBRANCH  72  76
ENDBRANCH  45  69
BRANCH  57  80
ATOM     80  C   UNL A   1      44.756  33.668  28.594  1.00  0.00     0.023 A 
ATOM     81  C   UNL A   1      45.523  34.171  29.660  1.00  0.00     0.031 A 
ATOM     82  C   UNL A   1      44.406  34.553  27.558  1.00  0.00     0.131 A 
ATOM     83  C   UNL A   1      45.834  35.538  29.713  1.00  0.00     0.055 A 
ATOM     84  C   UNL A   1      44.791  35.893  27.575  1.00  0.00     0.041 A 
ATOM     85  F   UNL A   1      43.676  34.130  26.514  1.00  0.00    -0.206 F 
ATOM     86  C   UNL A   1      45.491  36.398  28.668  1.00  0.00     0.022 A 
BRANCH  83  87
ATOM     87  S   UNL A   1      46.564  36.199  31.236  1.00  0.00     0.124 S 
ATOM     88  O   UNL A   1      46.189  35.183  32.215  1.00  0.00    -0.237 OA
ATOM     89  O   UNL A   1      47.981  36.267  30.899  1.00  0.00    -0.237 OA
ATOM     90  O   UNL A   1      45.901  37.492  31.399  1.00  0.00    -0.744 OA
ENDBRANCH  83  87
ENDBRANCH  57  80
ENDBRANCH  31  32
ENDBRANCH  24  26
ENDBRANCH  23  24
ENDBRANCH   1  23
TORSDOF 15
ENDMDL
MODEL 3
REMARK VINA RESULT:     -12.2      1.387      1.763
REMARK SMILES O=C(OCCOC(=O)c1ccc(-c2c3nc(c(-c4cc(S(=O)(=O)[O-])ccc4F)c4ccc([nH]4)c(-c4cc(S(=O)(=O)[O-])ccc4F)c4nc(c(-c5cc(S(=O)(=O)[O-])ccc5F)c5ccc2[nH]5)C=C4)C=C3)cc1)C1=Cc2c(cc(Cl)c(Cl)c2Cl)O[C@H]1C(F)(F)F
REMARK SMILES IDX 5 1 4 2 3 3 2 4 1 5 72 6 73 7 84 8 74 9 83 10 75 11 81 12
REMARK SMILES IDX 76 13 79 14 82 15 77 16 80 17 78 18 85 19 86 20 87 21 88 22
REMARK SMILES IDX 6 23 7 24 8 25 9 26 10 27 71 28 11 29 70 30 12 31 13 32
REMARK SMILES IDX 14 33 64 34 15 35 69 36 63 37 65 38 16 39 68 40 62 41 61 42
REMARK SMILES IDX 17 44 49 45 29 46 48 47 30 48 33 49 47 50 66 51 31 52 32 53
REMARK SMILES IDX 46 55 67 56 34 57 18 58 19 59 27 60 20 61 26 62 28 63 25 64
REMARK SMILES IDX 21 65 22 66 23 67 24 68 50 69 51 70 59 71 52 72 58 73 60 74
REMARK SMILES IDX 57 75 53 76 54 77 55 78 56 79 35 80 36 81 44 82 37 83 43 84
REMARK SMILES IDX 45 85 42 86 38 87 39 88 40 89 41 90
REMARK H PARENT 65 43 33 54
REMARK Flexibility Score: inf
ROOT
ATOM      1  C   UNL A   1      32.089  30.805  26.485  1.00  0.00     0.275 C 
ENDROOT
BRANCH   1   2
ATOM      2  C   UNL A   1      31.746  29.605  25.591  1.00  0.00     0.275 C 
BRANCH   2   3
ATOM      3  O   UNL A   1      32.412  28.375  25.947  1.00  0.00    -0.459 OA
BRANCH   3   4
ATOM      4  C   UNL A   1      31.924  27.287  26.576  1.00  0.00     0.338 C 
ATOM      5  O   UNL A   1      31.691  27.354  27.782  1.00  0.00    -0.246 OA
BRANCH   4   6
ATOM      6  C   UNL A   1      31.640  26.006  25.880  1.00  0.00     0.087 C 
ATOM      7  C   UNL A   1      31.952  24.778  26.336  1.00  0.00     0.029 C 
ATOM      8  C   UNL A   1      31.418  26.195  24.383  1.00  0.00     0.316 C 
ATOM      9  C   UNL A   1      33.076  24.199  25.556  1.00  0.00     0.038 A 
ATOM     10  O   UNL A   1      32.151  25.227  23.567  1.00  0.00    -0.475 OA
ATOM     11  C   UNL A   1      33.156  24.544  24.203  1.00  0.00     0.131 A 
ATOM     12  C   UNL A   1      34.081  23.398  26.131  1.00  0.00     0.072 A 
ATOM     13  C   UNL A   1      34.255  24.164  23.444  1.00  0.00     0.069 A 
ATOM     14  C   UNL A   1      35.229  23.076  25.390  1.00  0.00     0.079 A 
ATOM     15  Cl  UNL A   1      33.884  22.785  27.744  1.00  0.00    -0.082 Cl
ATOM     16  C   UNL A   1      35.310  23.472  24.047  1.00  0.00     0.064 A 
ATOM     17  Cl  UNL A   1      36.552  22.233  26.139  1.00  0.00    -0.081 Cl
ATOM     18  Cl  UNL A   1      36.696  23.135  23.068  1.00  0.00    -0.083 Cl
BRANCH   8  19
ATOM     19  C   UNL A   1      29.918  26.158  24.051  1.00  0.00     0.430 C 
ATOM     20  F   UNL A   1      29.535  27.214  23.301  1.00  0.00    -0.167 F 
ATOM     21  F   UNL A   1      29.591  25.036  23.371  1.00  0.00    -0.167 F 
ATOM     22  F   UNL A   1      29.170  26.177  25.184  1.00  0.00    -0.167 F 
ENDBRANCH   8  19
ENDBRANCH   4   6
ENDBRANCH   3   4
ENDBRANCH   2   3
ENDBRANCH   1   2
BRANCH   1  23
ATOM     23  O   UNL A   1      33.151  30.517  27.395  1.00  0.00    -0.458 OA
BRANCH  23  24
ATOM     24  C   UNL A   1      33.797  31.636  27.802  1.00  0.00     0.338 C 
ATOM     25  O   UNL A   1      33.275  32.692  28.119  1.00  0.00    -0.246 OA
BRANCH  24  26
ATOM     26  C   UNL A   1      35.223  31.322  28.000  1.00  0.00     0.060 A 
ATOM     27  C   UNL A   1      35.558  29.970  28.088  1.00  0.00     0.016 A 
ATOM     28  C   UNL A   1      36.207  32.313  28.114  1.00  0.00     0.016 A 
ATOM     29  C   UNL A   1      36.857  29.607  28.406  1.00  0.00     0.010 A 
ATOM     30  C   UNL A   1      37.522  31.943  28.401  1.00  0.00     0.010 A 
ATOM     31  C   UNL A   1      37.832  30.592  28.619  1.00  0.00    -0.014 A 
BRANCH  31  32
ATOM     32  C   UNL A   1      39.096  30.170  29.264  1.00  0.00     0.031 A 
ATOM     33  C   UNL A   1      39.400  30.680  30.648  1.00  0.00     0.074 A 
ATOM     34  C   UNL A   1      39.856  29.221  28.690  1.00  0.00     0.049 A 
ATOM     35  N   UNL A   1      40.311  30.282  31.497  1.00  0.00    -0.248 NA
ATOM     36  C   UNL A   1      38.558  31.781  31.146  1.00  0.00     0.031 C 
ATOM     37  C   UNL A   1      39.631  28.656  27.359  1.00  0.00     0.029 A 
ATOM     38  N   UNL A   1      40.941  28.536  29.168  1.00  0.00    -0.354 N 
ATOM     39  C   UNL A   1      40.125  31.054  32.639  1.00  0.00     0.074 A 
ATOM     40  C   UNL A   1      39.077  32.004  32.343  1.00  0.00     0.031 C 
ATOM     41  C   UNL A   1      40.537  27.688  27.138  1.00  0.00     0.029 A 
ATOM     42  C   UNL A   1      41.412  27.577  28.302  1.00  0.00     0.049 A 
ATOM     43  H   UNL A   1      41.347  28.713  30.047  1.00  0.00     0.167 HD
ATOM     44  C   UNL A   1      40.746  30.955  33.840  1.00  0.00     0.034 A 
ATOM     45  C   UNL A   1      42.430  26.706  28.442  1.00  0.00     0.034 A 
ATOM     46  C   UNL A   1      41.810  30.019  34.102  1.00  0.00     0.049 A 
ATOM     47  C   UNL A   1      43.162  26.669  29.763  1.00  0.00     0.074 A 
ATOM     48  C   UNL A   1      42.536  29.840  35.265  1.00  0.00     0.029 A 
ATOM     49  N   UNL A   1      42.309  29.110  33.176  1.00  0.00    -0.354 N 
ATOM     50  N   UNL A   1      42.949  27.379  30.850  1.00  0.00    -0.248 NA
ATOM     51  C   UNL A   1      44.250  25.695  29.886  1.00  0.00     0.031 C 
ATOM     52  C   UNL A   1      43.519  28.874  35.020  1.00  0.00     0.029 A 
ATOM     53  C   UNL A   1      43.353  28.388  33.732  1.00  0.00     0.049 A 
ATOM     54  H   UNL A   1      41.970  28.995  32.259  1.00  0.00     0.167 HD
ATOM     55  C   UNL A   1      43.861  26.913  31.793  1.00  0.00     0.074 A 
ATOM     56  C   UNL A   1      44.595  25.838  31.156  1.00  0.00     0.031 C 
ATOM     57  C   UNL A   1      44.082  27.333  33.068  1.00  0.00     0.034 A 
BRANCH  44  58
ATOM     58  C   UNL A   1      40.302  31.903  34.928  1.00  0.00     0.023 A 
ATOM     59  C   UNL A   1      39.424  31.490  35.950  1.00  0.00     0.031 A 
ATOM     60  C   UNL A   1      40.718  33.245  34.923  1.00  0.00     0.131 A 
ATOM     61  C   UNL A   1      38.937  32.424  36.877  1.00  0.00     0.055 A 
ATOM     62  C   UNL A   1      40.294  34.150  35.897  1.00  0.00     0.041 A 
ATOM     63  F   UNL A   1      41.530  33.705  33.958  1.00  0.00    -0.206 F 
ATOM     64  C   UNL A   1      39.387  33.746  36.873  1.00  0.00     0.022 A 
BRANCH  61  65
ATOM     65  S   UNL A   1      37.597  31.924  37.991  1.00  0.00     0.124 S 
ATOM     66  O   UNL A   1      38.213  32.123  39.301  1.00  0.00    -0.237 OA
ATOM     67  O   UNL A   1      36.529  32.852  37.639  1.00  0.00    -0.237 OA
ATOM     68  O   UNL A   1      37.355  30.529  37.632  1.00  0.00    -0.744 OA
ENDBRANCH  61  65
ENDBRANCH  44  58
BRANCH  45  69
ATOM     69  C   UNL A   1      42.837  25.820  27.311  1.00  0.00     0.023 A 
ATOM     70  C   UNL A   1      42.469  24.466  27.261  1.00  0.00     0.031 A 
ATOM     71  C   UNL A   1      43.676  26.309  26.293  1.00  0.00     0.131 A 
ATOM     72  C   UNL A   1      42.993  23.634  26.256  1.00  0.00     0.055 A 
ATOM     73  C   UNL A   1      44.142  25.494  25.260  1.00  0.00     0.041 A 
ATOM     74  F   UNL A   1      44.064  27.595  26.290  1.00  0.00    -0.206 F 
ATOM     75  C   UNL A   1      43.814  24.142  25.248  1.00  0.00     0.022 A 
BRANCH  72  76
ATOM     76  S   UNL A   1      42.684  21.848  26.354  1.00  0.00     0.124 S 
ATOM     77  O   UNL A   1      41.505  21.702  25.510  1.00  0.00    -0.237 OA
ATOM     78  O   UNL A   1      43.927  21.298  25.823  1.00  0.00    -0.237 OA
ATOM     79  O   UNL A   1      42.464  21.620  27.781  1.00  0.00    -0.744 OA
ENDBRANCH  72  76
ENDBRANCH  45  69
BRANCH  57  80
ATOM     80  C   UNL A   1      45.145  26.597  33.849  1.00  0.00     0.023 A 
ATOM     81  C   UNL A   1      44.874  25.376  34.490  1.00  0.00     0.031 A 
ATOM     82  C   UNL A   1      46.435  27.142  33.985  1.00  0.00     0.131 A 
ATOM     83  C   UNL A   1      45.845  24.788  35.314  1.00  0.00     0.055 A 
ATOM     84  C   UNL A   1      47.424  26.508  34.737  1.00  0.00     0.041 A 
ATOM     85  F   UNL A   1      46.753  28.305  33.396  1.00  0.00    -0.206 F 
ATOM     86  C   UNL A   1      47.125  25.335  35.425  1.00  0.00     0.022 A 
BRANCH  83  87
ATOM     87  S   UNL A   1      45.361  23.380  36.350  1.00  0.00     0.124 S 
ATOM     88  O   UNL A   1      45.072  24.030  37.625  1.00  0.00    -0.237 OA
ATOM     89  O   UNL A   1      44.210  22.846  35.632  1.00  0.00    -0.237 OA
ATOM     90  O   UNL A   1      46.548  22.527  36.343  1.00  0.00    -0.744 OA
ENDBRANCH  83  87
ENDBRANCH  57  80
ENDBRANCH  31  32
ENDBRANCH  24  26
ENDBRANCH  23  24
ENDBRANCH   1  23
TORSDOF 15
ENDMDL
