MODEL 1
REMARK VINA RESULT:     -11.7      0.000      0.000
REMARK SMILES Cc1cc(C[N@@H+]2C[C@H](C)[C@H](C(=O)OCCOC(=O)c3ccc(-c4c5nc(c(-c6cc(S(=O)(=O)[O-])ccc6F)c6ccc([nH]6)c(-c6cc(S(=O)(=O)[O-])ccc6F)c6nc(c(-c7cc(S(=O)(=O)[O-])ccc7F)c7ccc4[nH]7)C=C6)C=C5)cc3)C2)ccc1Br
REMARK SMILES IDX 15 1 14 2 13 3 11 4 12 5 10 6 6 7 7 8 82 9 8 11 9 12 5 13
REMARK SMILES IDX 4 14 1 15 2 16 3 17 85 18 84 19 86 20 83 21 16 22 17 23
REMARK SMILES IDX 18 24 19 25 20 26 81 27 21 28 80 29 22 30 23 31 24 32 74 33
REMARK SMILES IDX 25 34 79 35 73 36 75 37 26 38 78 39 72 40 71 41 27 43 59 44
REMARK SMILES IDX 39 45 58 46 40 47 43 48 57 49 76 50 41 51 42 52 56 54 77 55
REMARK SMILES IDX 44 56 28 57 29 58 37 59 30 60 36 61 38 62 35 63 31 64 32 65
REMARK SMILES IDX 33 66 34 67 60 68 61 69 69 70 62 71 68 72 70 73 67 74 63 75
REMARK SMILES IDX 64 76 65 77 66 78 45 79 46 80 54 81 47 82 53 83 55 84 52 85
REMARK SMILES IDX 48 86 49 87 50 88 51 89
REMARK H PARENT 6 10 75 42 43 53
REMARK Flexibility Score: inf
ROOT
ATOM      1  C   UNL A   1      36.210  20.599  25.202  1.00  0.00     0.275 C 
ENDROOT
BRANCH   1   2
ATOM      2  C   UNL A   1      34.836  21.215  25.465  1.00  0.00     0.274 C 
BRANCH   2   3
ATOM      3  O   UNL A   1      34.034  21.178  24.270  1.00  0.00    -0.462 OA
BRANCH   3   4
ATOM      4  C   UNL A   1      32.693  21.084  24.437  1.00  0.00     0.315 C 
ATOM      5  O   UNL A   1      32.138  20.193  25.071  1.00  0.00    -0.252 OA
BRANCH   4   6
ATOM      6  C   UNL A   1      31.917  22.166  23.718  1.00  0.00     0.162 C 
ATOM      7  N   UNL A   1      32.040  24.086  22.347  1.00  0.00    -0.330 N 
ATOM      8  C   UNL A   1      31.012  24.320  23.364  1.00  0.00     0.266 C 
ATOM      9  C   UNL A   1      32.763  22.851  22.660  1.00  0.00     0.278 C 
ATOM     10  H   UNL A   1      31.561  23.938  21.458  1.00  0.00     0.348 HD
ATOM     11  C   UNL A   1      31.282  23.324  24.498  1.00  0.00     0.061 C 
ATOM     12  C   UNL A   1      32.129  23.971  25.593  1.00  0.00     0.015 C 
BRANCH   7  13
ATOM     13  C   UNL A   1      32.844  25.240  21.950  1.00  0.00     0.299 C 
BRANCH  13  14
ATOM     14  C   UNL A   1      32.690  26.483  22.805  1.00  0.00     0.007 A 
ATOM     15  C   UNL A   1      34.037  27.751  26.136  1.00  0.00     0.045 C 
ATOM     16  C   UNL A   1      33.239  27.698  24.864  1.00  0.00    -0.036 A 
ATOM     17  C   UNL A   1      33.468  26.645  23.964  1.00  0.00     0.014 A 
ATOM     18  C   UNL A   1      32.224  28.619  24.567  1.00  0.00     0.020 A 
ATOM     19  C   UNL A   1      31.485  28.506  23.386  1.00  0.00     0.016 A 
ATOM     20  Br  UNL A   1      31.775  30.036  25.751  1.00  0.00    -0.051 Br
ATOM     21  C   UNL A   1      31.721  27.448  22.508  1.00  0.00     0.011 A 
ENDBRANCH  13  14
ENDBRANCH   7  13
ENDBRANCH   4   6
ENDBRANCH   3   4
ENDBRANCH   2   3
ENDBRANCH   1   2
BRANCH   1  22
ATOM     22  O   UNL A   1      37.226  21.617  25.229  1.00  0.00    -0.458 OA
BRANCH  22  23
ATOM     23  C   UNL A   1      38.426  21.239  25.728  1.00  0.00     0.338 C 
ATOM     24  O   UNL A   1      38.933  20.133  25.696  1.00  0.00    -0.246 OA
BRANCH  23  25
ATOM     25  C   UNL A   1      39.097  22.415  26.295  1.00  0.00     0.060 A 
ATOM     26  C   UNL A   1      38.578  23.684  26.031  1.00  0.00     0.016 A 
ATOM     27  C   UNL A   1      40.290  22.264  27.000  1.00  0.00     0.016 A 
ATOM     28  C   UNL A   1      39.259  24.819  26.460  1.00  0.00     0.010 A 
ATOM     29  C   UNL A   1      40.963  23.402  27.447  1.00  0.00     0.010 A 
ATOM     30  C   UNL A   1      40.461  24.687  27.165  1.00  0.00    -0.014 A 
BRANCH  30  31
ATOM     31  C   UNL A   1      41.242  25.887  27.547  1.00  0.00     0.031 A 
ATOM     32  C   UNL A   1      40.605  26.929  28.420  1.00  0.00     0.074 A 
ATOM     33  C   UNL A   1      42.506  26.037  27.113  1.00  0.00     0.049 A 
ATOM     34  N   UNL A   1      41.035  28.121  28.740  1.00  0.00    -0.248 NA
ATOM     35  C   UNL A   1      39.302  26.579  29.003  1.00  0.00     0.031 C 
ATOM     36  C   UNL A   1      43.249  25.057  26.321  1.00  0.00     0.029 A 
ATOM     37  N   UNL A   1      43.385  27.078  27.270  1.00  0.00    -0.354 N 
ATOM     38  C   UNL A   1      40.046  28.676  29.544  1.00  0.00     0.074 A 
ATOM     39  C   UNL A   1      38.985  27.695  29.640  1.00  0.00     0.031 C 
ATOM     40  C   UNL A   1      44.472  25.545  26.058  1.00  0.00     0.029 A 
ATOM     41  C   UNL A   1      44.575  26.895  26.606  1.00  0.00     0.049 A 
ATOM     42  H   UNL A   1      43.184  27.879  27.806  1.00  0.00     0.167 HD
ATOM     43  C   UNL A   1      40.030  29.893  30.144  1.00  0.00     0.034 A 
ATOM     44  C   UNL A   1      45.610  27.738  26.425  1.00  0.00     0.034 A 
ATOM     45  C   UNL A   1      41.099  30.856  30.027  1.00  0.00     0.049 A 
ATOM     46  C   UNL A   1      45.530  29.122  27.018  1.00  0.00     0.074 A 
ATOM     47  C   UNL A   1      41.187  32.125  30.572  1.00  0.00     0.029 A 
ATOM     48  N   UNL A   1      42.272  30.652  29.308  1.00  0.00    -0.354 N 
ATOM     49  N   UNL A   1      44.568  29.661  27.730  1.00  0.00    -0.248 NA
ATOM     50  C   UNL A   1      46.672  30.013  26.774  1.00  0.00     0.031 C 
ATOM     51  C   UNL A   1      42.384  32.708  30.138  1.00  0.00     0.029 A 
ATOM     52  C   UNL A   1      43.076  31.779  29.376  1.00  0.00     0.049 A 
ATOM     53  H   UNL A   1      42.499  29.828  28.821  1.00  0.00     0.167 HD
ATOM     54  C   UNL A   1      45.001  30.946  28.043  1.00  0.00     0.074 A 
ATOM     55  C   UNL A   1      46.313  31.098  27.446  1.00  0.00     0.031 C 
ATOM     56  C   UNL A   1      44.377  31.912  28.764  1.00  0.00     0.034 A 
BRANCH  43  57
ATOM     57  C   UNL A   1      38.786  30.260  30.917  1.00  0.00     0.023 A 
ATOM     58  C   UNL A   1      37.725  30.966  30.323  1.00  0.00     0.031 A 
ATOM     59  C   UNL A   1      38.689  29.954  32.286  1.00  0.00     0.131 A 
ATOM     60  C   UNL A   1      36.652  31.410  31.112  1.00  0.00     0.055 A 
ATOM     61  C   UNL A   1      37.581  30.331  33.048  1.00  0.00     0.041 A 
ATOM     62  F   UNL A   1      39.681  29.303  32.914  1.00  0.00    -0.206 F 
ATOM     63  C   UNL A   1      36.562  31.079  32.465  1.00  0.00     0.022 A 
BRANCH  60  64
ATOM     64  S   UNL A   1      35.457  32.562  30.379  1.00  0.00     0.124 S 
ATOM     65  O   UNL A   1      36.264  33.773  30.232  1.00  0.00    -0.237 OA
ATOM     66  O   UNL A   1      35.087  31.888  29.141  1.00  0.00    -0.237 OA
ATOM     67  O   UNL A   1      34.401  32.647  31.385  1.00  0.00    -0.744 OA
ENDBRANCH  60  64
ENDBRANCH  43  57
BRANCH  44  68
ATOM     68  C   UNL A   1      46.783  27.326  25.604  1.00  0.00     0.023 A 
ATOM     69  C   UNL A   1      46.941  27.784  24.288  1.00  0.00     0.031 A 
ATOM     70  C   UNL A   1      47.747  26.439  26.116  1.00  0.00     0.131 A 
ATOM     71  C   UNL A   1      48.022  27.328  23.515  1.00  0.00     0.055 A 
ATOM     72  C   UNL A   1      48.844  26.025  25.360  1.00  0.00     0.041 A 
ATOM     73  F   UNL A   1      47.640  25.969  27.370  1.00  0.00    -0.206 F 
ATOM     74  C   UNL A   1      48.980  26.463  24.047  1.00  0.00     0.022 A 
BRANCH  71  75
ATOM     75  S   UNL A   1      48.120  27.832  21.776  1.00  0.00     0.124 S 
ATOM     76  O   UNL A   1      48.282  26.548  21.103  1.00  0.00    -0.237 OA
ATOM     77  O   UNL A   1      46.838  28.502  21.582  1.00  0.00    -0.237 OA
ATOM     78  O   UNL A   1      49.289  28.708  21.741  1.00  0.00    -0.744 OA
ENDBRANCH  71  75
ENDBRANCH  44  68
BRANCH  56  79
ATOM     79  C   UNL A   1      45.140  33.192  28.988  1.00  0.00     0.023 A 
ATOM     80  C   UNL A   1      45.169  34.213  28.024  1.00  0.00     0.031 A 
ATOM     81  C   UNL A   1      45.857  33.382  30.182  1.00  0.00     0.131 A 
ATOM     82  C   UNL A   1      45.940  35.364  28.252  1.00  0.00     0.055 A 
ATOM     83  C   UNL A   1      46.582  34.548  30.424  1.00  0.00     0.041 A 
ATOM     84  F   UNL A   1      45.861  32.434  31.134  1.00  0.00    -0.206 F 
ATOM     85  C   UNL A   1      46.636  35.543  29.452  1.00  0.00     0.022 A 
BRANCH  82  86
ATOM     86  S   UNL A   1      46.078  36.600  26.931  1.00  0.00     0.124 S 
ATOM     87  O   UNL A   1      46.226  35.762  25.746  1.00  0.00    -0.237 OA
ATOM     88  O   UNL A   1      44.816  37.324  27.047  1.00  0.00    -0.237 OA
ATOM     89  O   UNL A   1      47.267  37.366  27.301  1.00  0.00    -0.744 OA
ENDBRANCH  82  86
ENDBRANCH  56  79
ENDBRANCH  30  31
ENDBRANCH  23  25
ENDBRANCH  22  23
ENDBRANCH   1  22
TORSDOF 16
ENDMDL
MODEL 2
REMARK VINA RESULT:     -11.7      5.250     10.182
REMARK SMILES Cc1cc(C[N@@H+]2C[C@H](C)[C@H](C(=O)OCCOC(=O)c3ccc(-c4c5nc(c(-c6cc(S(=O)(=O)[O-])ccc6F)c6ccc([nH]6)c(-c6cc(S(=O)(=O)[O-])ccc6F)c6nc(c(-c7cc(S(=O)(=O)[O-])ccc7F)c7ccc4[nH]7)C=C6)C=C5)cc3)C2)ccc1Br
REMARK SMILES IDX 15 1 14 2 13 3 11 4 12 5 10 6 6 7 7 8 82 9 8 11 9 12 5 13
REMARK SMILES IDX 4 14 1 15 2 16 3 17 85 18 84 19 86 20 83 21 16 22 17 23
REMARK SMILES IDX 18 24 19 25 20 26 81 27 21 28 80 29 22 30 23 31 24 32 74 33
REMARK SMILES IDX 25 34 79 35 73 36 75 37 26 38 78 39 72 40 71 41 27 43 59 44
REMARK SMILES IDX 39 45 58 46 40 47 43 48 57 49 76 50 41 51 42 52 56 54 77 55
REMARK SMILES IDX 44 56 28 57 29 58 37 59 30 60 36 61 38 62 35 63 31 64 32 65
REMARK SMILES IDX 33 66 34 67 60 68 61 69 69 70 62 71 68 72 70 73 67 74 63 75
REMARK SMILES IDX 64 76 65 77 66 78 45 79 46 80 54 81 47 82 53 83 55 84 52 85
REMARK SMILES IDX 48 86 49 87 50 88 51 89
REMARK H PARENT 6 10 75 42 43 53
REMARK Flexibility Score: inf
ROOT
ATOM      1  C   UNL A   1      31.719  29.632  25.978  1.00  0.00     0.275 C 
ENDROOT
BRANCH   1   2
ATOM      2  C   UNL A   1      31.018  29.707  24.621  1.00  0.00     0.274 C 
BRANCH   2   3
ATOM      3  O   UNL A   1      30.534  28.408  24.236  1.00  0.00    -0.462 OA
BRANCH   3   4
ATOM      4  C   UNL A   1      30.693  28.057  22.938  1.00  0.00     0.315 C 
ATOM      5  O   UNL A   1      30.125  28.607  21.999  1.00  0.00    -0.252 OA
BRANCH   4   6
ATOM      6  C   UNL A   1      31.612  26.871  22.740  1.00  0.00     0.162 C 
ATOM      7  N   UNL A   1      32.936  25.219  23.790  1.00  0.00    -0.330 N 
ATOM      8  C   UNL A   1      33.668  25.712  22.621  1.00  0.00     0.266 C 
ATOM      9  C   UNL A   1      31.754  26.056  24.013  1.00  0.00     0.278 C 
ATOM     10  H   UNL A   1      32.602  24.281  23.567  1.00  0.00     0.348 HD
ATOM     11  C   UNL A   1      33.055  27.071  22.260  1.00  0.00     0.061 C 
ATOM     12  C   UNL A   1      33.849  28.208  22.899  1.00  0.00     0.015 C 
BRANCH   7  13
ATOM     13  C   UNL A   1      33.732  24.874  24.965  1.00  0.00     0.299 C 
BRANCH  13  14
ATOM     14  C   UNL A   1      34.684  23.705  24.802  1.00  0.00     0.007 A 
ATOM     15  C   UNL A   1      34.440  19.903  24.784  1.00  0.00     0.045 C 
ATOM     16  C   UNL A   1      35.043  21.279  24.750  1.00  0.00    -0.036 A 
ATOM     17  C   UNL A   1      34.187  22.393  24.736  1.00  0.00     0.014 A 
ATOM     18  C   UNL A   1      36.426  21.502  24.800  1.00  0.00     0.020 A 
ATOM     19  C   UNL A   1      36.936  22.804  24.802  1.00  0.00     0.016 A 
ATOM     20  Br  UNL A   1      37.672  20.072  24.903  1.00  0.00    -0.051 Br
ATOM     21  C   UNL A   1      36.071  23.898  24.797  1.00  0.00     0.011 A 
ENDBRANCH  13  14
ENDBRANCH   7  13
ENDBRANCH   4   6
ENDBRANCH   3   4
ENDBRANCH   2   3
ENDBRANCH   1   2
BRANCH   1  22
ATOM     22  O   UNL A   1      32.993  30.297  25.917  1.00  0.00    -0.458 OA
BRANCH  22  23
ATOM     23  C   UNL A   1      33.231  31.206  26.891  1.00  0.00     0.338 C 
ATOM     24  O   UNL A   1      32.492  32.091  27.283  1.00  0.00    -0.246 OA
BRANCH  23  25
ATOM     25  C   UNL A   1      34.546  30.934  27.485  1.00  0.00     0.060 A 
ATOM     26  C   UNL A   1      34.865  29.627  27.856  1.00  0.00     0.016 A 
ATOM     27  C   UNL A   1      35.416  31.987  27.762  1.00  0.00     0.016 A 
ATOM     28  C   UNL A   1      36.057  29.363  28.524  1.00  0.00     0.010 A 
ATOM     29  C   UNL A   1      36.620  31.720  28.415  1.00  0.00     0.010 A 
ATOM     30  C   UNL A   1      36.940  30.408  28.815  1.00  0.00    -0.014 A 
BRANCH  30  31
ATOM     31  C   UNL A   1      38.168  30.154  29.605  1.00  0.00     0.031 A 
ATOM     32  C   UNL A   1      39.227  29.251  29.044  1.00  0.00     0.074 A 
ATOM     33  C   UNL A   1      38.326  30.728  30.811  1.00  0.00     0.049 A 
ATOM     34  N   UNL A   1      40.293  28.762  29.621  1.00  0.00    -0.248 NA
ATOM     35  C   UNL A   1      39.053  28.838  27.644  1.00  0.00     0.031 C 
ATOM     36  C   UNL A   1      37.397  31.679  31.422  1.00  0.00     0.029 A 
ATOM     37  N   UNL A   1      39.323  30.587  31.742  1.00  0.00    -0.354 N 
ATOM     38  C   UNL A   1      40.908  27.963  28.664  1.00  0.00     0.074 A 
ATOM     39  C   UNL A   1      40.079  28.018  27.477  1.00  0.00     0.031 C 
ATOM     40  C   UNL A   1      37.867  32.032  32.630  1.00  0.00     0.029 A 
ATOM     41  C   UNL A   1      39.092  31.287  32.903  1.00  0.00     0.049 A 
ATOM     42  H   UNL A   1      40.126  30.037  31.594  1.00  0.00     0.167 HD
ATOM     43  C   UNL A   1      42.058  27.251  28.770  1.00  0.00     0.034 A 
ATOM     44  C   UNL A   1      39.769  31.290  34.067  1.00  0.00     0.034 A 
ATOM     45  C   UNL A   1      42.863  27.209  29.967  1.00  0.00     0.049 A 
ATOM     46  C   UNL A   1      40.991  30.416  34.198  1.00  0.00     0.074 A 
ATOM     47  C   UNL A   1      44.036  26.511  30.200  1.00  0.00     0.029 A 
ATOM     48  N   UNL A   1      42.574  27.897  31.140  1.00  0.00    -0.354 N 
ATOM     49  N   UNL A   1      41.536  29.620  33.308  1.00  0.00    -0.248 NA
ATOM     50  C   UNL A   1      41.683  30.436  35.494  1.00  0.00     0.031 C 
ATOM     51  C   UNL A   1      44.423  26.732  31.527  1.00  0.00     0.029 A 
ATOM     52  C   UNL A   1      43.531  27.620  32.105  1.00  0.00     0.049 A 
ATOM     53  H   UNL A   1      41.802  28.494  31.268  1.00  0.00     0.167 HD
ATOM     54  C   UNL A   1      42.651  29.064  33.927  1.00  0.00     0.074 A 
ATOM     55  C   UNL A   1      42.703  29.621  35.265  1.00  0.00     0.031 C 
ATOM     56  C   UNL A   1      43.556  28.180  33.436  1.00  0.00     0.034 A 
BRANCH  43  57
ATOM     57  C   UNL A   1      42.461  26.416  27.578  1.00  0.00     0.023 A 
ATOM     58  C   UNL A   1      41.984  25.106  27.396  1.00  0.00     0.031 A 
ATOM     59  C   UNL A   1      43.385  26.917  26.644  1.00  0.00     0.131 A 
ATOM     60  C   UNL A   1      42.494  24.316  26.353  1.00  0.00     0.055 A 
ATOM     61  C   UNL A   1      43.827  26.152  25.563  1.00  0.00     0.041 A 
ATOM     62  F   UNL A   1      43.893  28.152  26.779  1.00  0.00    -0.206 F 
ATOM     63  C   UNL A   1      43.395  24.836  25.423  1.00  0.00     0.022 A 
BRANCH  60  64
ATOM     64  S   UNL A   1      42.082  22.549  26.325  1.00  0.00     0.124 S 
ATOM     65  O   UNL A   1      40.622  22.585  26.252  1.00  0.00    -0.237 OA
ATOM     66  O   UNL A   1      42.770  22.083  25.127  1.00  0.00    -0.237 OA
ATOM     67  O   UNL A   1      42.620  22.050  27.589  1.00  0.00    -0.744 OA
ENDBRANCH  60  64
ENDBRANCH  43  57
BRANCH  44  68
ATOM     68  C   UNL A   1      39.282  32.098  35.220  1.00  0.00     0.023 A 
ATOM     69  C   UNL A   1      39.728  33.413  35.421  1.00  0.00     0.031 A 
ATOM     70  C   UNL A   1      38.384  31.553  36.156  1.00  0.00     0.131 A 
ATOM     71  C   UNL A   1      39.301  34.129  36.551  1.00  0.00     0.055 A 
ATOM     72  C   UNL A   1      37.927  32.285  37.252  1.00  0.00     0.041 A 
ATOM     73  F   UNL A   1      37.929  30.299  36.009  1.00  0.00    -0.206 F 
ATOM     74  C   UNL A   1      38.395  33.579  37.460  1.00  0.00     0.022 A 
BRANCH  71  75
ATOM     75  S   UNL A   1      40.004  35.773  36.854  1.00  0.00     0.124 S 
ATOM     76  O   UNL A   1      39.638  36.483  35.633  1.00  0.00    -0.237 OA
ATOM     77  O   UNL A   1      39.306  36.182  38.068  1.00  0.00    -0.237 OA
ATOM     78  O   UNL A   1      41.432  35.508  37.018  1.00  0.00    -0.744 OA
ENDBRANCH  71  75
ENDBRANCH  44  68
BRANCH  56  79
ATOM     79  C   UNL A   1      44.705  27.812  34.339  1.00  0.00     0.023 A 
ATOM     80  C   UNL A   1      44.645  26.701  35.197  1.00  0.00     0.031 A 
ATOM     81  C   UNL A   1      45.872  28.596  34.345  1.00  0.00     0.131 A 
ATOM     82  C   UNL A   1      45.718  26.431  36.061  1.00  0.00     0.055 A 
ATOM     83  C   UNL A   1      46.954  28.295  35.171  1.00  0.00     0.041 A 
ATOM     84  F   UNL A   1      45.977  29.669  33.543  1.00  0.00    -0.206 F 
ATOM     85  C   UNL A   1      46.877  27.213  36.044  1.00  0.00     0.022 A 
BRANCH  82  86
ATOM     86  S   UNL A   1      45.554  25.080  37.261  1.00  0.00     0.124 S 
ATOM     87  O   UNL A   1      44.184  25.255  37.730  1.00  0.00    -0.237 OA
ATOM     88  O   UNL A   1      45.801  23.899  36.439  1.00  0.00    -0.237 OA
ATOM     89  O   UNL A   1      46.590  25.372  38.251  1.00  0.00    -0.744 OA
ENDBRANCH  82  86
ENDBRANCH  56  79
ENDBRANCH  30  31
ENDBRANCH  23  25
ENDBRANCH  22  23
ENDBRANCH   1  22
TORSDOF 16
ENDMDL
MODEL 3
REMARK VINA RESULT:     -11.5      5.353     10.383
REMARK SMILES Cc1cc(C[N@@H+]2C[C@H](C)[C@H](C(=O)OCCOC(=O)c3ccc(-c4c5nc(c(-c6cc(S(=O)(=O)[O-])ccc6F)c6ccc([nH]6)c(-c6cc(S(=O)(=O)[O-])ccc6F)c6nc(c(-c7cc(S(=O)(=O)[O-])ccc7F)c7ccc4[nH]7)C=C6)C=C5)cc3)C2)ccc1Br
REMARK SMILES IDX 15 1 14 2 13 3 11 4 12 5 10 6 6 7 7 8 82 9 8 11 9 12 5 13
REMARK SMILES IDX 4 14 1 15 2 16 3 17 85 18 84 19 86 20 83 21 16 22 17 23
REMARK SMILES IDX 18 24 19 25 20 26 81 27 21 28 80 29 22 30 23 31 24 32 74 33
REMARK SMILES IDX 25 34 79 35 73 36 75 37 26 38 78 39 72 40 71 41 27 43 59 44
REMARK SMILES IDX 39 45 58 46 40 47 43 48 57 49 76 50 41 51 42 52 56 54 77 55
REMARK SMILES IDX 44 56 28 57 29 58 37 59 30 60 36 61 38 62 35 63 31 64 32 65
REMARK SMILES IDX 33 66 34 67 60 68 61 69 69 70 62 71 68 72 70 73 67 74 63 75
REMARK SMILES IDX 64 76 65 77 66 78 45 79 46 80 54 81 47 82 53 83 55 84 52 85
REMARK SMILES IDX 48 86 49 87 50 88 51 89
REMARK H PARENT 6 10 75 42 43 53
REMARK Flexibility Score: inf
ROOT
ATOM      1  C   UNL A   1      31.786  30.079  25.746  1.00  0.00     0.275 C 
ENDROOT
BRANCH   1   2
ATOM      2  C   UNL A   1      31.683  29.270  24.452  1.00  0.00     0.274 C 
BRANCH   2   3
ATOM      3  O   UNL A   1      30.327  28.837  24.240  1.00  0.00    -0.462 OA
BRANCH   3   4
ATOM      4  C   UNL A   1      30.082  28.132  23.110  1.00  0.00     0.315 C 
ATOM      5  O   UNL A   1      29.941  28.633  22.000  1.00  0.00    -0.252 OA
BRANCH   4   6
ATOM      6  C   UNL A   1      29.943  26.643  23.346  1.00  0.00     0.162 C 
ATOM      7  N   UNL A   1      30.050  24.888  24.924  1.00  0.00    -0.330 N 
ATOM      8  C   UNL A   1      30.669  24.420  23.682  1.00  0.00     0.266 C 
ATOM      9  C   UNL A   1      29.775  26.323  24.820  1.00  0.00     0.278 C 
ATOM     10  H   UNL A   1      29.150  24.415  25.013  1.00  0.00     0.348 HD
ATOM     11  C   UNL A   1      31.032  25.671  22.873  1.00  0.00     0.061 C 
ATOM     12  C   UNL A   1      32.482  26.077  23.127  1.00  0.00     0.015 C 
BRANCH   7  13
ATOM     13  C   UNL A   1      30.647  24.419  26.173  1.00  0.00     0.299 C 
BRANCH  13  14
ATOM     14  C   UNL A   1      31.878  23.545  26.033  1.00  0.00     0.007 A 
ATOM     15  C   UNL A   1      35.637  24.069  25.707  1.00  0.00     0.045 C 
ATOM     16  C   UNL A   1      34.311  23.368  25.768  1.00  0.00    -0.036 A 
ATOM     17  C   UNL A   1      33.160  24.120  26.056  1.00  0.00     0.014 A 
ATOM     18  C   UNL A   1      34.160  22.004  25.482  1.00  0.00     0.020 A 
ATOM     19  C   UNL A   1      32.897  21.405  25.517  1.00  0.00     0.016 A 
ATOM     20  Br  UNL A   1      35.636  20.909  25.000  1.00  0.00    -0.051 Br
ATOM     21  C   UNL A   1      31.764  22.170  25.797  1.00  0.00     0.011 A 
ENDBRANCH  13  14
ENDBRANCH   7  13
ENDBRANCH   4   6
ENDBRANCH   3   4
ENDBRANCH   2   3
ENDBRANCH   1   2
BRANCH   1  22
ATOM     22  O   UNL A   1      33.165  30.343  26.060  1.00  0.00    -0.458 OA
BRANCH  22  23
ATOM     23  C   UNL A   1      33.383  31.235  27.054  1.00  0.00     0.338 C 
ATOM     24  O   UNL A   1      32.639  32.118  27.440  1.00  0.00    -0.246 OA
BRANCH  23  25
ATOM     25  C   UNL A   1      34.681  30.948  27.676  1.00  0.00     0.060 A 
ATOM     26  C   UNL A   1      34.987  29.631  28.024  1.00  0.00     0.016 A 
ATOM     27  C   UNL A   1      35.544  31.992  28.001  1.00  0.00     0.016 A 
ATOM     28  C   UNL A   1      36.161  29.349  28.718  1.00  0.00     0.010 A 
ATOM     29  C   UNL A   1      36.730  31.707  28.680  1.00  0.00     0.010 A 
ATOM     30  C   UNL A   1      37.037  30.385  29.057  1.00  0.00    -0.014 A 
BRANCH  30  31
ATOM     31  C   UNL A   1      38.243  30.111  29.874  1.00  0.00     0.031 A 
ATOM     32  C   UNL A   1      39.298  29.187  29.338  1.00  0.00     0.074 A 
ATOM     33  C   UNL A   1      38.385  30.684  31.083  1.00  0.00     0.049 A 
ATOM     34  N   UNL A   1      40.341  28.680  29.938  1.00  0.00    -0.248 NA
ATOM     35  C   UNL A   1      39.146  28.775  27.935  1.00  0.00     0.031 C 
ATOM     36  C   UNL A   1      37.460  31.652  31.673  1.00  0.00     0.029 A 
ATOM     37  N   UNL A   1      39.359  30.525  32.036  1.00  0.00    -0.354 N 
ATOM     38  C   UNL A   1      40.963  27.868  28.996  1.00  0.00     0.074 A 
ATOM     39  C   UNL A   1      40.160  27.936  27.791  1.00  0.00     0.031 C 
ATOM     40  C   UNL A   1      37.910  31.999  32.890  1.00  0.00     0.029 A 
ATOM     41  C   UNL A   1      39.115  31.231  33.191  1.00  0.00     0.049 A 
ATOM     42  H   UNL A   1      40.155  29.961  31.906  1.00  0.00     0.167 HD
ATOM     43  C   UNL A   1      42.097  27.136  29.127  1.00  0.00     0.034 A 
ATOM     44  C   UNL A   1      39.768  31.224  34.369  1.00  0.00     0.034 A 
ATOM     45  C   UNL A   1      42.875  27.081  30.342  1.00  0.00     0.049 A 
ATOM     46  C   UNL A   1      40.970  30.329  34.527  1.00  0.00     0.074 A 
ATOM     47  C   UNL A   1      44.029  26.362  30.601  1.00  0.00     0.029 A 
ATOM     48  N   UNL A   1      42.573  27.776  31.508  1.00  0.00    -0.354 N 
ATOM     49  N   UNL A   1      41.520  29.521  33.650  1.00  0.00    -0.248 NA
ATOM     50  C   UNL A   1      41.634  30.338  35.838  1.00  0.00     0.031 C 
ATOM     51  C   UNL A   1      44.392  26.578  31.936  1.00  0.00     0.029 A 
ATOM     52  C   UNL A   1      43.503  27.484  32.493  1.00  0.00     0.049 A 
ATOM     53  H   UNL A   1      41.809  28.387  31.618  1.00  0.00     0.167 HD
ATOM     54  C   UNL A   1      42.611  28.946  34.294  1.00  0.00     0.074 A 
ATOM     55  C   UNL A   1      42.644  29.504  35.632  1.00  0.00     0.031 C 
ATOM     56  C   UNL A   1      43.510  28.045  33.824  1.00  0.00     0.034 A 
BRANCH  43  57
ATOM     57  C   UNL A   1      42.510  26.292  27.946  1.00  0.00     0.023 A 
ATOM     58  C   UNL A   1      41.969  25.014  27.722  1.00  0.00     0.031 A 
ATOM     59  C   UNL A   1      43.507  26.748  27.066  1.00  0.00     0.131 A 
ATOM     60  C   UNL A   1      42.483  24.207  26.695  1.00  0.00     0.055 A 
ATOM     61  C   UNL A   1      43.959  25.970  25.997  1.00  0.00     0.041 A 
ATOM     62  F   UNL A   1      44.078  27.950  27.243  1.00  0.00    -0.206 F 
ATOM     63  C   UNL A   1      43.459  24.684  25.818  1.00  0.00     0.022 A 
BRANCH  60  64
ATOM     64  S   UNL A   1      41.972  22.467  26.622  1.00  0.00     0.124 S 
ATOM     65  O   UNL A   1      40.525  22.575  26.807  1.00  0.00    -0.237 OA
ATOM     66  O   UNL A   1      42.418  22.062  25.295  1.00  0.00    -0.237 OA
ATOM     67  O   UNL A   1      42.688  21.852  27.737  1.00  0.00    -0.744 OA
ENDBRANCH  60  64
ENDBRANCH  43  57
BRANCH  44  68
ATOM     68  C   UNL A   1      39.270  32.043  35.510  1.00  0.00     0.023 A 
ATOM     69  C   UNL A   1      38.562  31.455  36.568  1.00  0.00     0.031 A 
ATOM     70  C   UNL A   1      39.469  33.435  35.540  1.00  0.00     0.131 A 
ATOM     71  C   UNL A   1      38.049  32.260  37.598  1.00  0.00     0.055 A 
ATOM     72  C   UNL A   1      38.997  34.225  36.589  1.00  0.00     0.041 A 
ATOM     73  F   UNL A   1      40.138  34.048  34.550  1.00  0.00    -0.206 F 
ATOM     74  C   UNL A   1      38.273  33.638  37.621  1.00  0.00     0.022 A 
BRANCH  71  75
ATOM     75  S   UNL A   1      37.023  31.486  38.877  1.00  0.00     0.124 S 
ATOM     76  O   UNL A   1      37.886  31.579  40.048  1.00  0.00    -0.237 OA
ATOM     77  O   UNL A   1      35.843  32.344  38.879  1.00  0.00    -0.237 OA
ATOM     78  O   UNL A   1      36.806  30.134  38.366  1.00  0.00    -0.744 OA
ENDBRANCH  71  75
ENDBRANCH  44  68
BRANCH  56  79
ATOM     79  C   UNL A   1      44.633  27.658  34.752  1.00  0.00     0.023 A 
ATOM     80  C   UNL A   1      44.539  26.541  35.600  1.00  0.00     0.031 A 
ATOM     81  C   UNL A   1      45.807  28.429  34.793  1.00  0.00     0.131 A 
ATOM     82  C   UNL A   1      45.587  26.253  36.488  1.00  0.00     0.055 A 
ATOM     83  C   UNL A   1      46.865  28.109  35.643  1.00  0.00     0.041 A 
ATOM     84  F   UNL A   1      45.943  29.507  34.002  1.00  0.00    -0.206 F 
ATOM     85  C   UNL A   1      46.755  27.022  36.505  1.00  0.00     0.022 A 
BRANCH  82  86
ATOM     86  S   UNL A   1      45.379  24.895  37.672  1.00  0.00     0.124 S 
ATOM     87  O   UNL A   1      45.765  23.735  36.876  1.00  0.00    -0.237 OA
ATOM     88  O   UNL A   1      46.299  25.268  38.742  1.00  0.00    -0.237 OA
ATOM     89  O   UNL A   1      43.961  24.960  38.024  1.00  0.00    -0.744 OA
ENDBRANCH  82  86
ENDBRANCH  56  79
ENDBRANCH  30  31
ENDBRANCH  23  25
ENDBRANCH  22  23
ENDBRANCH   1  22
TORSDOF 16
ENDMDL
