MODEL 1
REMARK VINA RESULT:     -12.5      0.000      0.000
REMARK SMILES CCOc1ccccc1N1CCN(c2ncc(N)cc2C(=O)OCCOC(=O)c2ccc(-c3c4nc(c(-c5cc(S(=O)(=O)[O-])ccc5F)c5ccc([nH]5)c(-c5cc(S(=O)(=O)[O-])ccc5F)c5nc(c(-c6cc(S(=O)(=O)[O-])ccc6F)c6ccc3[nH]6)C=C5)C=C4)cc2)CC1
REMARK SMILES IDX 24 1 23 2 21 3 22 4 20 5 14 6 15 7 16 8 19 9 17 10 13 11
REMARK SMILES IDX 10 12 11 13 93 14 12 15 92 16 9 17 4 18 5 19 6 20 8 21 7 22
REMARK SMILES IDX 3 23 2 24 1 25 18 26 25 29 26 30 27 31 28 32 29 33 30 34
REMARK SMILES IDX 91 35 31 36 90 37 32 38 33 39 34 40 84 41 35 42 89 43 83 44
REMARK SMILES IDX 85 45 36 46 88 47 82 48 81 49 37 51 69 52 49 53 68 54 50 55
REMARK SMILES IDX 53 56 67 57 86 58 51 59 52 60 66 62 87 63 54 64 38 65 39 66
REMARK SMILES IDX 47 67 40 68 46 69 48 70 45 71 41 72 42 73 43 74 44 75 70 76
REMARK SMILES IDX 71 77 79 78 72 79 78 80 80 81 77 82 73 83 74 84 75 85 76 86
REMARK SMILES IDX 55 87 56 88 64 89 57 90 63 91 65 92 62 93 58 94 59 95 60 96
REMARK SMILES IDX 61 97
REMARK H PARENT 18 27 18 28 85 50 53 61
REMARK Flexibility Score: inf
ROOT
ATOM      1  C   UNL A   1      32.192  28.362  25.549  1.00  0.00     0.275 C 
ENDROOT
BRANCH   1   2
ATOM      2  O   UNL A   1      32.202  28.922  24.216  1.00  0.00    -0.458 OA
BRANCH   2   3
ATOM      3  C   UNL A   1      31.620  28.160  23.252  1.00  0.00     0.342 C 
ATOM      4  O   UNL A   1      32.214  27.580  22.358  1.00  0.00    -0.246 OA
BRANCH   3   5
ATOM      5  C   UNL A   1      30.150  28.235  23.370  1.00  0.00     0.104 A 
ATOM      6  C   UNL A   1      29.316  27.150  23.691  1.00  0.00     0.143 A 
ATOM      7  N   UNL A   1      27.973  27.287  23.622  1.00  0.00    -0.236 NA
ATOM      8  C   UNL A   1      27.460  28.481  23.233  1.00  0.00     0.139 A 
ATOM      9  C   UNL A   1      29.584  29.474  23.028  1.00  0.00     0.046 A 
ATOM     10  C   UNL A   1      28.208  29.623  22.976  1.00  0.00     0.051 A 
BRANCH   6  11
ATOM     11  N   UNL A   1      29.757  25.895  24.054  1.00  0.00    -0.352 N 
ATOM     12  N   UNL A   1      32.272  23.135  24.604  1.00  0.00    -0.365 N 
ATOM     13  C   UNL A   1      31.610  23.603  23.042  1.00  0.00     0.138 C 
ATOM     14  C   UNL A   1      31.756  24.041  26.148  1.00  0.00     0.138 C 
ATOM     15  C   UNL A   1      30.278  24.857  22.805  1.00  0.00     0.139 C 
ATOM     16  C   UNL A   1      30.178  25.579  25.850  1.00  0.00     0.139 C 
BRANCH  12  17
ATOM     17  C   UNL A   1      32.970  21.908  24.681  1.00  0.00     0.079 A 
ATOM     18  C   UNL A   1      34.372  21.735  24.857  1.00  0.00     0.142 A 
ATOM     19  C   UNL A   1      34.933  20.446  25.003  1.00  0.00     0.048 A 
ATOM     20  C   UNL A   1      34.143  19.305  25.009  1.00  0.00     0.004 A 
ATOM     21  C   UNL A   1      32.222  20.706  24.640  1.00  0.00     0.030 A 
ATOM     22  C   UNL A   1      32.782  19.435  24.821  1.00  0.00     0.002 A 
BRANCH  18  23
ATOM     23  O   UNL A   1      35.235  22.809  24.830  1.00  0.00    -0.492 OA
BRANCH  23  24
ATOM     24  C   UNL A   1      36.574  22.515  25.269  1.00  0.00     0.226 C 
ATOM     25  C   UNL A   1      37.244  23.808  25.691  1.00  0.00     0.049 C 
ENDBRANCH  23  24
ENDBRANCH  18  23
ENDBRANCH  12  17
ENDBRANCH   6  11
BRANCH  10  26
ATOM     26  N   UNL A   1      27.645  30.806  22.524  1.00  0.00    -0.397 N 
ATOM     27  H   UNL A   1      27.654  31.606  23.097  1.00  0.00     0.156 HD
ATOM     28  H   UNL A   1      27.235  30.847  21.629  1.00  0.00     0.156 HD
ENDBRANCH  10  26
ENDBRANCH   3   5
ENDBRANCH   2   3
ENDBRANCH   1   2
BRANCH   1  29
ATOM     29  C   UNL A   1      31.921  29.468  26.563  1.00  0.00     0.275 C 
BRANCH  29  30
ATOM     30  O   UNL A   1      32.466  30.687  26.037  1.00  0.00    -0.458 OA
BRANCH  30  31
ATOM     31  C   UNL A   1      32.557  31.688  26.933  1.00  0.00     0.338 C 
ATOM     32  O   UNL A   1      31.712  32.520  27.215  1.00  0.00    -0.246 OA
BRANCH  31  33
ATOM     33  C   UNL A   1      33.831  31.604  27.648  1.00  0.00     0.060 A 
ATOM     34  C   UNL A   1      34.845  32.995  27.939  1.00  0.00     0.016 A 
ATOM     35  C   UNL A   1      34.532  30.061  27.903  1.00  0.00     0.016 A 
ATOM     36  C   UNL A   1      36.724  32.707  28.466  1.00  0.00     0.010 A 
ATOM     37  C   UNL A   1      36.169  29.819  28.431  1.00  0.00     0.010 A 
ATOM     38  C   UNL A   1      37.337  31.082  28.764  1.00  0.00    -0.014 A 
BRANCH  38  39
ATOM     39  C   UNL A   1      38.601  30.803  29.628  1.00  0.00     0.031 A 
ATOM     40  C   UNL A   1      39.617  29.724  29.229  1.00  0.00     0.074 A 
ATOM     41  C   UNL A   1      38.768  31.296  30.890  1.00  0.00     0.049 A 
ATOM     42  N   UNL A   1      40.467  29.051  29.980  1.00  0.00    -0.248 NA
ATOM     43  C   UNL A   1      39.614  29.281  27.832  1.00  0.00     0.031 C 
ATOM     44  C   UNL A   1      37.936  32.276  31.567  1.00  0.00     0.029 A 
ATOM     45  N   UNL A   1      39.688  30.979  31.886  1.00  0.00    -0.354 N 
ATOM     46  C   UNL A   1      41.027  28.069  29.163  1.00  0.00     0.074 A 
ATOM     47  C   UNL A   1      40.323  28.162  27.899  1.00  0.00     0.031 C 
ATOM     48  C   UNL A   1      38.333  32.480  32.821  1.00  0.00     0.029 A 
ATOM     49  C   UNL A   1      39.430  31.592  33.102  1.00  0.00     0.049 A 
ATOM     50  H   UNL A   1      40.452  30.376  31.739  1.00  0.00     0.167 HD
ATOM     51  C   UNL A   1      42.066  27.217  29.395  1.00  0.00     0.034 A 
ATOM     52  C   UNL A   1      39.936  31.475  34.345  1.00  0.00     0.034 A 
ATOM     53  C   UNL A   1      42.871  27.212  30.598  1.00  0.00     0.049 A 
ATOM     54  C   UNL A   1      41.075  30.554  34.595  1.00  0.00     0.074 A 
ATOM     55  C   UNL A   1      44.060  26.535  30.834  1.00  0.00     0.029 A 
ATOM     56  N   UNL A   1      42.592  27.915  31.760  1.00  0.00    -0.354 N 
ATOM     57  N   UNL A   1      41.622  29.696  33.775  1.00  0.00    -0.248 NA
ATOM     58  C   UNL A   1      41.690  30.614  35.926  1.00  0.00     0.031 C 
ATOM     59  C   UNL A   1      44.463  26.778  32.151  1.00  0.00     0.029 A 
ATOM     60  C   UNL A   1      43.566  27.664  32.719  1.00  0.00     0.049 A 
ATOM     61  H   UNL A   1      41.815  28.508  31.887  1.00  0.00     0.167 HD
ATOM     62  C   UNL A   1      42.691  29.155  34.473  1.00  0.00     0.074 A 
ATOM     63  C   UNL A   1      42.701  29.771  35.783  1.00  0.00     0.031 C 
ATOM     64  C   UNL A   1      43.593  28.246  34.037  1.00  0.00     0.034 A 
BRANCH  51  65
ATOM     65  C   UNL A   1      42.454  26.243  28.293  1.00  0.00     0.023 A 
ATOM     66  C   UNL A   1      41.748  25.045  28.089  1.00  0.00     0.031 A 
ATOM     67  C   UNL A   1      43.527  26.517  27.423  1.00  0.00     0.131 A 
ATOM     68  C   UNL A   1      42.192  24.117  27.135  1.00  0.00     0.055 A 
ATOM     69  C   UNL A   1      43.894  25.638  26.398  1.00  0.00     0.041 A 
ATOM     70  F   UNL A   1      44.243  27.645  27.550  1.00  0.00    -0.206 F 
ATOM     71  C   UNL A   1      43.240  24.416  26.266  1.00  0.00     0.022 A 
BRANCH  68  72
ATOM     72  S   UNL A   1      41.483  22.448  27.178  1.00  0.00     0.124 S 
ATOM     73  O   UNL A   1      40.113  22.726  27.606  1.00  0.00    -0.237 OA
ATOM     74  O   UNL A   1      41.642  22.002  25.799  1.00  0.00    -0.237 OA
ATOM     75  O   UNL A   1      42.306  21.751  28.163  1.00  0.00    -0.744 OA
ENDBRANCH  68  72
ENDBRANCH  51  65
BRANCH  52  76
ATOM     76  C   UNL A   1      39.358  32.273  35.467  1.00  0.00     0.023 A 
ATOM     77  C   UNL A   1      39.788  33.583  35.718  1.00  0.00     0.031 A 
ATOM     78  C   UNL A   1      38.370  31.726  36.304  1.00  0.00     0.131 A 
ATOM     79  C   UNL A   1      39.255  34.295  36.804  1.00  0.00     0.055 A 
ATOM     80  C   UNL A   1      37.795  32.461  37.342  1.00  0.00     0.041 A 
ATOM     81  F   UNL A   1      37.951  30.466  36.118  1.00  0.00    -0.206 F 
ATOM     82  C   UNL A   1      38.246  33.751  37.603  1.00  0.00     0.022 A 
BRANCH  79  83
ATOM     83  S   UNL A   1      39.972  35.909  37.215  1.00  0.00     0.124 S 
ATOM     84  O   UNL A   1      41.367  35.560  37.458  1.00  0.00    -0.237 OA
ATOM     85  O   UNL A   1      39.703  36.679  36.005  1.00  0.00    -0.237 OA
ATOM     86  O   UNL A   1      39.218  36.324  38.397  1.00  0.00    -0.744 OA
ENDBRANCH  79  83
ENDBRANCH  52  76
BRANCH  64  87
ATOM     87  C   UNL A   1      44.719  27.912  34.975  1.00  0.00     0.023 A 
ATOM     88  C   UNL A   1      44.555  26.996  36.028  1.00  0.00     0.031 A 
ATOM     89  C   UNL A   1      45.958  28.564  34.849  1.00  0.00     0.131 A 
ATOM     90  C   UNL A   1      45.593  26.801  36.950  1.00  0.00     0.055 A 
ATOM     91  C   UNL A   1      47.009  28.316  35.730  1.00  0.00     0.041 A 
ATOM     92  F   UNL A   1      46.160  29.463  33.872  1.00  0.00    -0.206 F 
ATOM     93  C   UNL A   1      46.827  27.439  36.796  1.00  0.00     0.022 A 
BRANCH  90  94
ATOM     94  S   UNL A   1      45.276  25.773  38.409  1.00  0.00     0.124 S 
ATOM     95  O   UNL A   1      44.528  24.658  37.835  1.00  0.00    -0.237 OA
ATOM     96  O   UNL A   1      46.623  25.463  38.874  1.00  0.00    -0.237 OA
ATOM     97  O   UNL A   1      44.504  26.652  39.286  1.00  0.00    -0.744 OA
ENDBRANCH  90  94
ENDBRANCH  64  87
ENDBRANCH  38  39
ENDBRANCH  31  33
ENDBRANCH  30  31
ENDBRANCH  29  30
ENDBRANCH   1  29
TORSDOF 19
ENDMDL
MODEL 2
REMARK VINA RESULT:     -12.5      5.169     10.410
REMARK SMILES CCOc1ccccc1N1CCN(c2ncc(N)cc2C(=O)OCCOC(=O)c2ccc(-c3c4nc(c(-c5cc(S(=O)(=O)[O-])ccc5F)c5ccc([nH]5)c(-c5cc(S(=O)(=O)[O-])ccc5F)c5nc(c(-c6cc(S(=O)(=O)[O-])ccc6F)c6ccc3[nH]6)C=C5)C=C4)cc2)CC1
REMARK SMILES IDX 24 1 23 2 21 3 22 4 20 5 14 6 15 7 16 8 19 9 17 10 13 11
REMARK SMILES IDX 10 12 11 13 93 14 12 15 92 16 9 17 4 18 5 19 6 20 8 21 7 22
REMARK SMILES IDX 3 23 2 24 1 25 18 26 25 29 26 30 27 31 28 32 29 33 30 34
REMARK SMILES IDX 91 35 31 36 90 37 32 38 33 39 34 40 84 41 35 42 89 43 83 44
REMARK SMILES IDX 85 45 36 46 88 47 82 48 81 49 37 51 69 52 49 53 68 54 50 55
REMARK SMILES IDX 53 56 67 57 86 58 51 59 52 60 66 62 87 63 54 64 38 65 39 66
REMARK SMILES IDX 47 67 40 68 46 69 48 70 45 71 41 72 42 73 43 74 44 75 70 76
REMARK SMILES IDX 71 77 79 78 72 79 78 80 80 81 77 82 73 83 74 84 75 85 76 86
REMARK SMILES IDX 55 87 56 88 64 89 57 90 63 91 65 92 62 93 58 94 59 95 60 96
REMARK SMILES IDX 61 97
REMARK H PARENT 18 27 18 28 85 50 53 61
REMARK Flexibility Score: inf
ROOT
ATOM      1  C   UNL A   1      36.033  21.605  24.778  1.00  0.00     0.275 C 
ENDROOT
BRANCH   1   2
ATOM      2  O   UNL A   1      35.338  20.855  25.801  1.00  0.00    -0.458 OA
BRANCH   2   3
ATOM      3  C   UNL A   1      33.988  21.014  25.833  1.00  0.00     0.342 C 
ATOM      4  O   UNL A   1      33.354  21.467  26.772  1.00  0.00    -0.246 OA
BRANCH   3   5
ATOM      5  C   UNL A   1      33.385  20.444  24.612  1.00  0.00     0.104 A 
ATOM      6  C   UNL A   1      32.653  21.178  23.663  1.00  0.00     0.143 A 
ATOM      7  N   UNL A   1      32.011  20.536  22.660  1.00  0.00    -0.236 NA
ATOM      8  C   UNL A   1      32.086  19.184  22.602  1.00  0.00     0.139 A 
ATOM      9  C   UNL A   1      33.488  19.049  24.487  1.00  0.00     0.046 A 
ATOM     10  C   UNL A   1      32.848  18.390  23.451  1.00  0.00     0.051 A 
BRANCH   6  11
ATOM     11  N   UNL A   1      32.495  22.548  23.674  1.00  0.00    -0.352 N 
ATOM     12  N   UNL A   1      32.738  26.048  25.065  1.00  0.00    -0.365 N 
ATOM     13  C   UNL A   1      31.542  24.850  25.546  1.00  0.00     0.138 C 
ATOM     14  C   UNL A   1      34.029  25.622  23.792  1.00  0.00     0.138 C 
ATOM     15  C   UNL A   1      31.346  23.193  24.758  1.00  0.00     0.139 C 
ATOM     16  C   UNL A   1      33.813  23.609  22.874  1.00  0.00     0.139 C 
BRANCH  12  17
ATOM     17  C   UNL A   1      32.519  27.389  25.456  1.00  0.00     0.079 A 
ATOM     18  C   UNL A   1      31.684  28.340  24.804  1.00  0.00     0.142 A 
ATOM     19  C   UNL A   1      31.486  29.630  25.350  1.00  0.00     0.048 A 
ATOM     20  C   UNL A   1      32.073  30.009  26.550  1.00  0.00     0.004 A 
ATOM     21  C   UNL A   1      33.133  27.851  26.646  1.00  0.00     0.030 A 
ATOM     22  C   UNL A   1      32.904  29.117  27.198  1.00  0.00     0.002 A 
BRANCH  18  23
ATOM     23  O   UNL A   1      31.090  28.062  23.593  1.00  0.00    -0.492 OA
BRANCH  23  24
ATOM     24  C   UNL A   1      29.889  28.808  23.326  1.00  0.00     0.226 C 
ATOM     25  C   UNL A   1      30.081  29.599  22.047  1.00  0.00     0.049 C 
ENDBRANCH  23  24
ENDBRANCH  18  23
ENDBRANCH  12  17
ENDBRANCH   6  11
BRANCH  10  26
ATOM     26  N   UNL A   1      32.847  17.005  23.390  1.00  0.00    -0.397 N 
ATOM     27  H   UNL A   1      33.189  16.547  22.589  1.00  0.00     0.156 HD
ATOM     28  H   UNL A   1      32.504  16.479  24.149  1.00  0.00     0.156 HD
ENDBRANCH  10  26
ENDBRANCH   3   5
ENDBRANCH   2   3
ENDBRANCH   1   2
BRANCH   1  29
ATOM     29  C   UNL A   1      37.469  21.107  24.671  1.00  0.00     0.275 C 
BRANCH  29  30
ATOM     30  O   UNL A   1      38.014  21.052  25.997  1.00  0.00    -0.458 OA
BRANCH  30  31
ATOM     31  C   UNL A   1      39.342  20.834  26.044  1.00  0.00     0.338 C 
ATOM     32  O   UNL A   1      39.958  19.867  25.630  1.00  0.00    -0.246 OA
BRANCH  31  33
ATOM     33  C   UNL A   1      40.021  22.005  26.599  1.00  0.00     0.060 A 
ATOM     34  C   UNL A   1      41.308  21.884  27.772  1.00  0.00     0.016 A 
ATOM     35  C   UNL A   1      39.314  23.550  26.375  1.00  0.00     0.016 A 
ATOM     36  C   UNL A   1      41.813  23.491  28.798  1.00  0.00     0.010 A 
ATOM     37  C   UNL A   1      39.809  24.974  27.237  1.00  0.00     0.010 A 
ATOM     38  C   UNL A   1      41.069  25.051  28.452  1.00  0.00    -0.014 A 
BRANCH  38  39
ATOM     39  C   UNL A   1      41.730  26.405  28.844  1.00  0.00     0.031 A 
ATOM     40  C   UNL A   1      40.890  27.583  29.358  1.00  0.00     0.074 A 
ATOM     41  C   UNL A   1      43.019  26.726  28.533  1.00  0.00     0.049 A 
ATOM     42  N   UNL A   1      41.149  28.875  29.330  1.00  0.00    -0.248 NA
ATOM     43  C   UNL A   1      39.555  27.278  29.882  1.00  0.00     0.031 C 
ATOM     44  C   UNL A   1      44.032  25.847  27.974  1.00  0.00     0.029 A 
ATOM     45  N   UNL A   1      43.702  27.938  28.583  1.00  0.00    -0.354 N 
ATOM     46  C   UNL A   1      39.988  29.521  29.756  1.00  0.00     0.074 A 
ATOM     47  C   UNL A   1      38.992  28.479  29.911  1.00  0.00     0.031 C 
ATOM     48  C   UNL A   1      45.165  26.498  27.717  1.00  0.00     0.029 A 
ATOM     49  C   UNL A   1      44.971  27.890  28.025  1.00  0.00     0.049 A 
ATOM     50  H   UNL A   1      43.320  28.754  28.978  1.00  0.00     0.167 HD
ATOM     51  C   UNL A   1      39.772  30.833  30.060  1.00  0.00     0.034 A 
ATOM     52  C   UNL A   1      45.905  28.811  27.723  1.00  0.00     0.034 A 
ATOM     53  C   UNL A   1      40.793  31.858  30.049  1.00  0.00     0.049 A 
ATOM     54  C   UNL A   1      45.673  30.239  28.065  1.00  0.00     0.074 A 
ATOM     55  C   UNL A   1      40.714  33.156  30.537  1.00  0.00     0.029 A 
ATOM     56  N   UNL A   1      42.075  31.715  29.542  1.00  0.00    -0.354 N 
ATOM     57  N   UNL A   1      44.587  30.796  28.533  1.00  0.00    -0.248 NA
ATOM     58  C   UNL A   1      46.803  31.155  27.872  1.00  0.00     0.031 C 
ATOM     59  C   UNL A   1      41.920  33.812  30.271  1.00  0.00     0.029 A 
ATOM     60  C   UNL A   1      42.781  32.906  29.679  1.00  0.00     0.049 A 
ATOM     61  H   UNL A   1      42.435  30.890  29.143  1.00  0.00     0.167 HD
ATOM     62  C   UNL A   1      44.925  32.123  28.753  1.00  0.00     0.074 A 
ATOM     63  C   UNL A   1      46.306  32.285  28.350  1.00  0.00     0.031 C 
ATOM     64  C   UNL A   1      44.149  33.103  29.272  1.00  0.00     0.034 A 
BRANCH  51  65
ATOM     65  C   UNL A   1      38.376  31.244  30.505  1.00  0.00     0.023 A 
ATOM     66  C   UNL A   1      37.411  31.684  29.583  1.00  0.00     0.031 A 
ATOM     67  C   UNL A   1      37.995  31.181  31.859  1.00  0.00     0.131 A 
ATOM     68  C   UNL A   1      36.169  32.157  30.031  1.00  0.00     0.055 A 
ATOM     69  C   UNL A   1      36.714  31.548  32.286  1.00  0.00     0.041 A 
ATOM     70  F   UNL A   1      38.860  30.763  32.797  1.00  0.00    -0.206 F 
ATOM     71  C   UNL A   1      35.799  32.062  31.372  1.00  0.00     0.022 A 
BRANCH  68  72
ATOM     72  S   UNL A   1      35.124  33.055  28.852  1.00  0.00     0.124 S 
ATOM     73  O   UNL A   1      33.946  32.190  28.792  1.00  0.00    -0.237 OA
ATOM     74  O   UNL A   1      34.936  34.341  29.512  1.00  0.00    -0.237 OA
ATOM     75  O   UNL A   1      35.928  33.085  27.633  1.00  0.00    -0.744 OA
ENDBRANCH  68  72
ENDBRANCH  51  65
BRANCH  52  76
ATOM     76  C   UNL A   1      47.173  28.399  27.052  1.00  0.00     0.023 A 
ATOM     77  C   UNL A   1      47.233  28.229  25.661  1.00  0.00     0.031 A 
ATOM     78  C   UNL A   1      48.341  28.166  27.800  1.00  0.00     0.131 A 
ATOM     79  C   UNL A   1      48.428  27.802  25.063  1.00  0.00     0.055 A 
ATOM     80  C   UNL A   1      49.545  27.807  27.193  1.00  0.00     0.041 A 
ATOM     81  F   UNL A   1      48.320  28.289  29.135  1.00  0.00    -0.206 F 
ATOM     82  C   UNL A   1      49.590  27.612  25.816  1.00  0.00     0.022 A 
BRANCH  79  83
ATOM     83  S   UNL A   1      48.416  27.406  23.293  1.00  0.00     0.124 S 
ATOM     84  O   UNL A   1      47.246  28.146  22.832  1.00  0.00    -0.237 OA
ATOM     85  O   UNL A   1      49.711  27.916  22.858  1.00  0.00    -0.237 OA
ATOM     86  O   UNL A   1      48.281  25.951  23.272  1.00  0.00    -0.744 OA
ENDBRANCH  79  83
ENDBRANCH  52  76
BRANCH  64  87
ATOM     87  C   UNL A   1      44.809  34.435  29.498  1.00  0.00     0.023 A 
ATOM     88  C   UNL A   1      44.687  35.486  28.573  1.00  0.00     0.031 A 
ATOM     89  C   UNL A   1      45.619  34.636  30.629  1.00  0.00     0.131 A 
ATOM     90  C   UNL A   1      45.412  36.669  28.765  1.00  0.00     0.055 A 
ATOM     91  C   UNL A   1      46.286  35.840  30.847  1.00  0.00     0.041 A 
ATOM     92  F   UNL A   1      45.785  33.656  31.533  1.00  0.00    -0.206 F 
ATOM     93  C   UNL A   1      46.195  36.862  29.907  1.00  0.00     0.022 A 
BRANCH  90  94
ATOM     94  S   UNL A   1      45.394  37.920  27.452  1.00  0.00     0.124 S 
ATOM     95  O   UNL A   1      46.433  37.427  26.553  1.00  0.00    -0.237 OA
ATOM     96  O   UNL A   1      44.026  37.831  26.953  1.00  0.00    -0.237 OA
ATOM     97  O   UNL A   1      45.718  39.159  28.156  1.00  0.00    -0.744 OA
ENDBRANCH  90  94
ENDBRANCH  64  87
ENDBRANCH  38  39
ENDBRANCH  31  33
ENDBRANCH  30  31
ENDBRANCH  29  30
ENDBRANCH   1  29
TORSDOF 19
ENDMDL
MODEL 3
REMARK VINA RESULT:     -12.4      1.684      7.517
REMARK SMILES CCOc1ccccc1N1CCN(c2ncc(N)cc2C(=O)OCCOC(=O)c2ccc(-c3c4nc(c(-c5cc(S(=O)(=O)[O-])ccc5F)c5ccc([nH]5)c(-c5cc(S(=O)(=O)[O-])ccc5F)c5nc(c(-c6cc(S(=O)(=O)[O-])ccc6F)c6ccc3[nH]6)C=C5)C=C4)cc2)CC1
REMARK SMILES IDX 24 1 23 2 21 3 22 4 20 5 14 6 15 7 16 8 19 9 17 10 13 11
REMARK SMILES IDX 10 12 11 13 93 14 12 15 92 16 9 17 4 18 5 19 6 20 8 21 7 22
REMARK SMILES IDX 3 23 2 24 1 25 18 26 25 29 26 30 27 31 28 32 29 33 30 34
REMARK SMILES IDX 91 35 31 36 90 37 32 38 33 39 34 40 84 41 35 42 89 43 83 44
REMARK SMILES IDX 85 45 36 46 88 47 82 48 81 49 37 51 69 52 49 53 68 54 50 55
REMARK SMILES IDX 53 56 67 57 86 58 51 59 52 60 66 62 87 63 54 64 38 65 39 66
REMARK SMILES IDX 47 67 40 68 46 69 48 70 45 71 41 72 42 73 43 74 44 75 70 76
REMARK SMILES IDX 71 77 79 78 72 79 78 80 80 81 77 82 73 83 74 84 75 85 76 86
REMARK SMILES IDX 55 87 56 88 64 89 57 90 63 91 65 92 62 93 58 94 59 95 60 96
REMARK SMILES IDX 61 97
REMARK H PARENT 18 27 18 28 85 50 53 61
REMARK Flexibility Score: inf
ROOT
ATOM      1  C   UNL A   1      31.731  29.405  26.065  1.00  0.00     0.275 C 
ENDROOT
BRANCH   1   2
ATOM      2  O   UNL A   1      32.240  29.662  24.737  1.00  0.00    -0.458 OA
BRANCH   2   3
ATOM      3  C   UNL A   1      31.924  28.734  23.795  1.00  0.00     0.342 C 
ATOM      4  O   UNL A   1      32.727  28.133  23.100  1.00  0.00    -0.246 OA
BRANCH   3   5
ATOM      5  C   UNL A   1      30.458  28.645  23.647  1.00  0.00     0.104 A 
ATOM      6  C   UNL A   1      29.718  27.452  23.709  1.00  0.00     0.143 A 
ATOM      7  N   UNL A   1      28.399  27.459  23.407  1.00  0.00    -0.236 NA
ATOM      8  C   UNL A   1      27.822  28.630  23.041  1.00  0.00     0.139 A 
ATOM      9  C   UNL A   1      29.815  29.850  23.320  1.00  0.00     0.046 A 
ATOM     10  C   UNL A   1      28.461  29.863  23.029  1.00  0.00     0.051 A 
BRANCH   6  11
ATOM     11  N   UNL A   1      30.236  26.216  24.033  1.00  0.00    -0.352 N 
ATOM     12  N   UNL A   1      32.930  23.637  24.609  1.00  0.00    -0.365 N 
ATOM     13  C   UNL A   1      32.339  24.147  23.031  1.00  0.00     0.138 C 
ATOM     14  C   UNL A   1      32.236  24.401  26.159  1.00  0.00     0.138 C 
ATOM     15  C   UNL A   1      30.925  25.302  22.768  1.00  0.00     0.139 C 
ATOM     16  C   UNL A   1      30.559  25.824  25.834  1.00  0.00     0.139 C 
BRANCH  12  17
ATOM     17  C   UNL A   1      33.721  22.467  24.667  1.00  0.00     0.079 A 
ATOM     18  C   UNL A   1      35.123  22.398  24.904  1.00  0.00     0.142 A 
ATOM     19  C   UNL A   1      35.781  21.151  25.022  1.00  0.00     0.048 A 
ATOM     20  C   UNL A   1      35.086  19.952  24.939  1.00  0.00     0.004 A 
ATOM     21  C   UNL A   1      33.076  21.212  24.537  1.00  0.00     0.030 A 
ATOM     22  C   UNL A   1      33.729  19.983  24.690  1.00  0.00     0.002 A 
BRANCH  18  23
ATOM     23  O   UNL A   1      35.896  23.536  24.967  1.00  0.00    -0.492 OA
BRANCH  23  24
ATOM     24  C   UNL A   1      37.308  23.297  25.111  1.00  0.00     0.226 C 
ATOM     25  C   UNL A   1      37.825  24.118  26.277  1.00  0.00     0.049 C 
ENDBRANCH  23  24
ENDBRANCH  18  23
ENDBRANCH  12  17
ENDBRANCH   6  11
BRANCH  10  26
ATOM     26  N   UNL A   1      27.846  31.026  22.590  1.00  0.00    -0.397 N 
ATOM     27  H   UNL A   1      28.093  31.893  22.986  1.00  0.00     0.156 HD
ATOM     28  H   UNL A   1      27.163  30.985  21.882  1.00  0.00     0.156 HD
ENDBRANCH  10  26
ENDBRANCH   3   5
ENDBRANCH   2   3
ENDBRANCH   1   2
BRANCH   1  29
ATOM     29  C   UNL A   1      31.586  30.722  26.818  1.00  0.00     0.275 C 
BRANCH  29  30
ATOM     30  O   UNL A   1      32.639  31.594  26.382  1.00  0.00    -0.458 OA
BRANCH  30  31
ATOM     31  C   UNL A   1      33.077  32.451  27.324  1.00  0.00     0.338 C 
ATOM     32  O   UNL A   1      32.567  33.501  27.677  1.00  0.00    -0.246 OA
BRANCH  31  33
ATOM     33  C   UNL A   1      34.260  31.903  27.987  1.00  0.00     0.060 A 
ATOM     34  C   UNL A   1      35.690  32.852  28.308  1.00  0.00     0.016 A 
ATOM     35  C   UNL A   1      34.402  30.202  28.144  1.00  0.00     0.016 A 
ATOM     36  C   UNL A   1      37.370  31.919  28.753  1.00  0.00     0.010 A 
ATOM     37  C   UNL A   1      35.869  29.393  28.601  1.00  0.00     0.010 A 
ATOM     38  C   UNL A   1      37.402  30.168  28.951  1.00  0.00    -0.014 A 
BRANCH  38  39
ATOM     39  C   UNL A   1      38.512  29.431  29.756  1.00  0.00     0.031 A 
ATOM     40  C   UNL A   1      38.970  29.937  31.130  1.00  0.00     0.074 A 
ATOM     41  C   UNL A   1      39.313  28.467  29.214  1.00  0.00     0.049 A 
ATOM     42  N   UNL A   1      40.117  29.754  31.754  1.00  0.00    -0.248 NA
ATOM     43  C   UNL A   1      38.063  30.836  31.852  1.00  0.00     0.031 C 
ATOM     44  C   UNL A   1      39.174  27.839  27.912  1.00  0.00     0.029 A 
ATOM     45  N   UNL A   1      40.483  27.876  29.683  1.00  0.00    -0.354 N 
ATOM     46  C   UNL A   1      40.088  30.571  32.885  1.00  0.00     0.074 A 
ATOM     47  C   UNL A   1      38.862  31.339  32.783  1.00  0.00     0.031 C 
ATOM     48  C   UNL A   1      40.171  26.993  27.661  1.00  0.00     0.029 A 
ATOM     49  C   UNL A   1      41.098  27.043  28.761  1.00  0.00     0.049 A 
ATOM     50  H   UNL A   1      40.841  28.033  30.586  1.00  0.00     0.167 HD
ATOM     51  C   UNL A   1      40.944  30.640  33.944  1.00  0.00     0.034 A 
ATOM     52  C   UNL A   1      42.279  26.398  28.711  1.00  0.00     0.034 A 
ATOM     53  C   UNL A   1      42.093  29.780  34.129  1.00  0.00     0.049 A 
ATOM     54  C   UNL A   1      43.208  26.465  29.869  1.00  0.00     0.074 A 
ATOM     55  C   UNL A   1      42.888  29.638  35.258  1.00  0.00     0.029 A 
ATOM     56  N   UNL A   1      42.609  28.908  33.183  1.00  0.00    -0.354 N 
ATOM     57  N   UNL A   1      43.107  27.193  30.950  1.00  0.00    -0.248 NA
ATOM     58  C   UNL A   1      44.389  25.595  29.819  1.00  0.00     0.031 C 
ATOM     59  C   UNL A   1      43.916  28.733  34.975  1.00  0.00     0.029 A 
ATOM     60  C   UNL A   1      43.725  28.253  33.693  1.00  0.00     0.049 A 
ATOM     61  H   UNL A   1      42.239  28.771  32.280  1.00  0.00     0.167 HD
ATOM     62  C   UNL A   1      44.183  26.822  31.741  1.00  0.00     0.074 A 
ATOM     63  C   UNL A   1      44.927  25.819  31.007  1.00  0.00     0.031 C 
ATOM     64  C   UNL A   1      44.496  27.265  32.980  1.00  0.00     0.034 A 
BRANCH  51  65
ATOM     65  C   UNL A   1      40.643  31.647  35.044  1.00  0.00     0.023 A 
ATOM     66  C   UNL A   1      39.671  31.394  36.026  1.00  0.00     0.031 A 
ATOM     67  C   UNL A   1      41.344  32.866  35.128  1.00  0.00     0.131 A 
ATOM     68  C   UNL A   1      39.340  32.382  36.965  1.00  0.00     0.055 A 
ATOM     69  C   UNL A   1      41.088  33.801  36.136  1.00  0.00     0.041 A 
ATOM     70  F   UNL A   1      42.294  33.175  34.230  1.00  0.00    -0.206 F 
ATOM     71  C   UNL A   1      40.062  33.572  37.049  1.00  0.00     0.022 A 
BRANCH  68  72
ATOM     72  S   UNL A   1      37.836  32.150  37.951  1.00  0.00     0.124 S 
ATOM     73  O   UNL A   1      38.333  32.410  39.301  1.00  0.00    -0.237 OA
ATOM     74  O   UNL A   1      36.937  33.156  37.399  1.00  0.00    -0.237 OA
ATOM     75  O   UNL A   1      37.463  30.762  37.688  1.00  0.00    -0.744 OA
ENDBRANCH  68  72
ENDBRANCH  51  65
BRANCH  52  76
ATOM     76  C   UNL A   1      42.653  25.613  27.497  1.00  0.00     0.023 A 
ATOM     77  C   UNL A   1      42.240  24.282  27.341  1.00  0.00     0.031 A 
ATOM     78  C   UNL A   1      43.435  26.189  26.480  1.00  0.00     0.131 A 
ATOM     79  C   UNL A   1      42.640  23.557  26.209  1.00  0.00     0.055 A 
ATOM     80  C   UNL A   1      43.774  25.484  25.323  1.00  0.00     0.041 A 
ATOM     81  F   UNL A   1      43.876  27.449  26.602  1.00  0.00    -0.206 F 
ATOM     82  C   UNL A   1      43.384  24.155  25.189  1.00  0.00     0.022 A 
BRANCH  79  83
ATOM     83  S   UNL A   1      42.253  21.787  26.134  1.00  0.00     0.124 S 
ATOM     84  O   UNL A   1      43.148  21.333  25.075  1.00  0.00    -0.237 OA
ATOM     85  O   UNL A   1      42.580  21.346  27.485  1.00  0.00    -0.237 OA
ATOM     86  O   UNL A   1      40.830  21.765  25.799  1.00  0.00    -0.744 OA
ENDBRANCH  79  83
ENDBRANCH  52  76
BRANCH  64  87
ATOM     87  C   UNL A   1      45.670  26.609  33.654  1.00  0.00     0.023 A 
ATOM     88  C   UNL A   1      45.510  25.494  34.494  1.00  0.00     0.031 A 
ATOM     89  C   UNL A   1      46.960  27.145  33.498  1.00  0.00     0.131 A 
ATOM     90  C   UNL A   1      46.613  24.986  35.194  1.00  0.00     0.055 A 
ATOM     91  C   UNL A   1      48.065  26.594  34.146  1.00  0.00     0.041 A 
ATOM     92  F   UNL A   1      47.163  28.222  32.723  1.00  0.00    -0.206 F 
ATOM     93  C   UNL A   1      47.893  25.516  35.009  1.00  0.00     0.022 A 
BRANCH  90  94
ATOM     94  S   UNL A   1      46.335  23.684  36.423  1.00  0.00     0.124 S 
ATOM     95  O   UNL A   1      45.148  23.018  35.893  1.00  0.00    -0.237 OA
ATOM     96  O   UNL A   1      47.576  22.919  36.358  1.00  0.00    -0.237 OA
ATOM     97  O   UNL A   1      46.128  24.425  37.666  1.00  0.00    -0.744 OA
ENDBRANCH  90  94
ENDBRANCH  64  87
ENDBRANCH  38  39
ENDBRANCH  31  33
ENDBRANCH  30  31
ENDBRANCH  29  30
ENDBRANCH   1  29
TORSDOF 19
ENDMDL
