MODEL 1
REMARK VINA RESULT:     -11.4      0.000      0.000
REMARK SMILES O=C(Cc1ccccc1C(=O)OCCOC(=O)c1ccc(-c2c3nc(c(-c4cc(S(=O)(=O)[O-])ccc4F)c4ccc([nH]4)c(-c4cc(S(=O)(=O)[O-])ccc4F)c4nc(c(-c5cc(S(=O)(=O)[O-])ccc5F)c5ccc2[nH]5)C=C4)C=C3)cc1)Nc1ccc(S(=O)(=O)N2CCCC2)cc1
REMARK SMILES IDX 13 1 12 2 10 3 11 4 9 5 4 6 5 7 6 8 8 9 7 10 3 11 2 12 1 13
REMARK SMILES IDX 81 14 82 16 83 17 95 18 84 19 94 20 85 21 86 22 87 23 88 24
REMARK SMILES IDX 89 25 90 26 93 27 91 28 92 29 14 30 15 31 16 32 17 33 18 34
REMARK SMILES IDX 19 35 80 36 20 37 79 38 21 39 22 40 23 41 73 42 24 43 78 44
REMARK SMILES IDX 72 45 74 46 25 47 77 48 71 49 70 50 26 52 58 53 38 54 57 55
REMARK SMILES IDX 39 56 42 57 56 58 75 59 40 60 41 61 55 63 76 64 43 65 27 66
REMARK SMILES IDX 28 67 36 68 29 69 35 70 37 71 34 72 30 73 31 74 32 75 33 76
REMARK SMILES IDX 59 77 60 78 68 79 61 80 67 81 69 82 66 83 62 84 63 85 64 86
REMARK SMILES IDX 65 87 44 88 45 89 53 90 46 91 52 92 54 93 51 94 47 95 48 96
REMARK SMILES IDX 49 97 50 98
REMARK H PARENT 81 15 74 51 42 62
REMARK Flexibility Score: inf
ROOT
ATOM      1  C   UNL A   1      31.703  28.764  25.778  1.00  0.00     0.275 C 
ENDROOT
BRANCH   1   2
ATOM      2  O   UNL A   1      32.350  27.490  25.960  1.00  0.00    -0.458 OA
BRANCH   2   3
ATOM      3  C   UNL A   1      32.127  26.535  25.022  1.00  0.00     0.338 C 
ATOM      4  O   UNL A   1      31.923  26.714  23.835  1.00  0.00    -0.246 OA
BRANCH   3   5
ATOM      5  C   UNL A   1      32.249  25.187  25.648  1.00  0.00     0.063 A 
ATOM      6  C   UNL A   1      33.423  24.411  25.575  1.00  0.00    -0.024 A 
ATOM      7  C   UNL A   1      33.380  23.083  26.043  1.00  0.00     0.005 A 
ATOM      8  C   UNL A   1      32.235  22.579  26.661  1.00  0.00     0.000 A 
ATOM      9  C   UNL A   1      31.118  24.687  26.311  1.00  0.00     0.016 A 
ATOM     10  C   UNL A   1      31.110  23.385  26.812  1.00  0.00     0.001 A 
BRANCH   6  11
ATOM     11  C   UNL A   1      34.690  24.982  24.982  1.00  0.00     0.136 C 
BRANCH  11  12
ATOM     12  C   UNL A   1      35.883  24.062  24.889  1.00  0.00     0.228 C 
ATOM     13  O   UNL A   1      36.098  23.450  23.842  1.00  0.00    -0.274 OA
ATOM     14  N   UNL A   1      36.699  24.036  26.016  1.00  0.00    -0.326 N 
ATOM     15  H   UNL A   1      36.417  24.546  26.809  1.00  0.00     0.169 HD
BRANCH  14  16
ATOM     16  C   UNL A   1      37.904  23.318  26.076  1.00  0.00     0.041 A 
ATOM     17  C   UNL A   1      39.054  23.945  26.566  1.00  0.00     0.027 A 
ATOM     18  C   UNL A   1      37.956  21.976  25.709  1.00  0.00     0.027 A 
ATOM     19  C   UNL A   1      40.191  23.177  26.852  1.00  0.00     0.024 A 
ATOM     20  C   UNL A   1      39.099  21.227  25.946  1.00  0.00     0.024 A 
ATOM     21  C   UNL A   1      40.192  21.805  26.581  1.00  0.00     0.082 A 
BRANCH  21  22
ATOM     22  S   UNL A   1      41.520  20.798  27.212  1.00  0.00     0.243 S 
ATOM     23  O   UNL A   1      42.296  21.629  28.097  1.00  0.00    -0.207 OA
ATOM     24  O   UNL A   1      40.909  19.565  27.665  1.00  0.00    -0.207 OA
BRANCH  22  25
ATOM     25  N   UNL A   1      42.483  20.398  25.885  1.00  0.00    -0.198 NA
ATOM     26  C   UNL A   1      42.802  19.004  25.568  1.00  0.00     0.102 C 
ATOM     27  C   UNL A   1      43.533  21.311  25.416  1.00  0.00     0.102 C 
ATOM     28  C   UNL A   1      44.280  18.982  25.215  1.00  0.00     0.018 C 
ATOM     29  C   UNL A   1      44.698  20.426  24.985  1.00  0.00     0.018 C 
ENDBRANCH  22  25
ENDBRANCH  21  22
ENDBRANCH  14  16
ENDBRANCH  11  12
ENDBRANCH   6  11
ENDBRANCH   3   5
ENDBRANCH   2   3
ENDBRANCH   1   2
BRANCH   1  30
ATOM     30  C   UNL A   1      32.750  29.876  25.799  1.00  0.00     0.275 C 
BRANCH  30  31
ATOM     31  O   UNL A   1      33.110  30.127  27.167  1.00  0.00    -0.458 OA
BRANCH  31  32
ATOM     32  C   UNL A   1      33.762  31.290  27.397  1.00  0.00     0.338 C 
ATOM     33  O   UNL A   1      33.343  32.424  27.254  1.00  0.00    -0.246 OA
BRANCH  32  34
ATOM     34  C   UNL A   1      35.073  30.969  27.978  1.00  0.00     0.060 A 
ATOM     35  C   UNL A   1      35.284  29.667  28.426  1.00  0.00     0.016 A 
ATOM     36  C   UNL A   1      36.041  31.950  28.176  1.00  0.00     0.016 A 
ATOM     37  C   UNL A   1      36.444  29.344  29.121  1.00  0.00     0.010 A 
ATOM     38  C   UNL A   1      37.238  31.607  28.821  1.00  0.00     0.010 A 
ATOM     39  C   UNL A   1      37.440  30.308  29.329  1.00  0.00    -0.014 A 
BRANCH  39  40
ATOM     40  C   UNL A   1      38.633  29.966  30.157  1.00  0.00     0.031 A 
ATOM     41  C   UNL A   1      38.704  30.414  31.595  1.00  0.00     0.074 A 
ATOM     42  C   UNL A   1      39.624  29.204  29.649  1.00  0.00     0.049 A 
ATOM     43  N   UNL A   1      39.689  30.311  32.451  1.00  0.00    -0.248 NA
ATOM     44  C   UNL A   1      37.510  31.082  32.134  1.00  0.00     0.031 C 
ATOM     45  C   UNL A   1      39.664  28.666  28.288  1.00  0.00     0.029 A 
ATOM     46  N   UNL A   1      40.778  28.729  30.225  1.00  0.00    -0.354 N 
ATOM     47  C   UNL A   1      39.256  30.949  33.610  1.00  0.00     0.074 A 
ATOM     48  C   UNL A   1      37.925  31.449  33.337  1.00  0.00     0.031 C 
ATOM     49  C   UNL A   1      40.754  27.895  28.151  1.00  0.00     0.029 A 
ATOM     50  C   UNL A   1      41.536  27.949  29.382  1.00  0.00     0.049 A 
ATOM     51  H   UNL A   1      41.037  28.929  31.153  1.00  0.00     0.167 HD
ATOM     52  C   UNL A   1      39.908  31.101  34.792  1.00  0.00     0.034 A 
ATOM     53  C   UNL A   1      42.737  27.365  29.566  1.00  0.00     0.034 A 
ATOM     54  C   UNL A   1      41.216  30.554  35.067  1.00  0.00     0.049 A 
ATOM     55  C   UNL A   1      43.443  27.555  30.884  1.00  0.00     0.074 A 
ATOM     56  C   UNL A   1      41.964  30.646  36.229  1.00  0.00     0.029 A 
ATOM     57  N   UNL A   1      41.968  29.800  34.175  1.00  0.00    -0.354 N 
ATOM     58  N   UNL A   1      43.051  28.221  31.945  1.00  0.00    -0.248 NA
ATOM     59  C   UNL A   1      44.759  26.919  31.022  1.00  0.00     0.031 C 
ATOM     60  C   UNL A   1      43.186  29.995  36.021  1.00  0.00     0.029 A 
ATOM     61  C   UNL A   1      43.175  29.436  34.754  1.00  0.00     0.049 A 
ATOM     62  H   UNL A   1      41.685  29.560  33.263  1.00  0.00     0.167 HD
ATOM     63  C   UNL A   1      44.074  28.081  32.878  1.00  0.00     0.074 A 
ATOM     64  C   UNL A   1      45.078  27.233  32.268  1.00  0.00     0.031 C 
ATOM     65  C   UNL A   1      44.182  28.615  34.123  1.00  0.00     0.034 A 
BRANCH  52  66
ATOM     66  C   UNL A   1      39.235  31.947  35.850  1.00  0.00     0.023 A 
ATOM     67  C   UNL A   1      38.580  31.382  36.958  1.00  0.00     0.031 A 
ATOM     68  C   UNL A   1      39.215  33.348  35.719  1.00  0.00     0.131 A 
ATOM     69  C   UNL A   1      37.870  32.206  37.846  1.00  0.00     0.055 A 
ATOM     70  C   UNL A   1      38.577  34.168  36.652  1.00  0.00     0.041 A 
ATOM     71  F   UNL A   1      39.805  33.945  34.671  1.00  0.00    -0.206 F 
ATOM     72  C   UNL A   1      37.885  33.596  37.715  1.00  0.00     0.022 A 
BRANCH  69  73
ATOM     73  S   UNL A   1      36.804  31.426  39.089  1.00  0.00     0.124 S 
ATOM     74  O   UNL A   1      35.677  32.354  39.137  1.00  0.00    -0.237 OA
ATOM     75  O   UNL A   1      36.532  30.121  38.497  1.00  0.00    -0.237 OA
ATOM     76  O   UNL A   1      37.637  31.405  40.291  1.00  0.00    -0.744 OA
ENDBRANCH  69  73
ENDBRANCH  52  66
BRANCH  53  77
ATOM     77  C   UNL A   1      43.384  26.596  28.463  1.00  0.00     0.023 A 
ATOM     78  C   UNL A   1      44.381  27.172  27.659  1.00  0.00     0.031 A 
ATOM     79  C   UNL A   1      42.978  25.282  28.168  1.00  0.00     0.131 A 
ATOM     80  C   UNL A   1      44.911  26.450  26.578  1.00  0.00     0.055 A 
ATOM     81  C   UNL A   1      43.549  24.548  27.126  1.00  0.00     0.041 A 
ATOM     82  F   UNL A   1      42.026  24.684  28.903  1.00  0.00    -0.206 F 
ATOM     83  C   UNL A   1      44.513  25.136  26.316  1.00  0.00     0.022 A 
BRANCH  80  84
ATOM     84  S   UNL A   1      46.079  27.280  25.464  1.00  0.00     0.124 S 
ATOM     85  O   UNL A   1      46.373  26.225  24.501  1.00  0.00    -0.237 OA
ATOM     86  O   UNL A   1      45.281  28.397  24.968  1.00  0.00    -0.237 OA
ATOM     87  O   UNL A   1      47.185  27.650  26.344  1.00  0.00    -0.744 OA
ENDBRANCH  80  84
ENDBRANCH  53  77
BRANCH  65  88
ATOM     88  C   UNL A   1      45.431  28.268  34.897  1.00  0.00     0.023 A 
ATOM     89  C   UNL A   1      45.485  27.140  35.737  1.00  0.00     0.031 A 
ATOM     90  C   UNL A   1      46.558  29.106  34.844  1.00  0.00     0.131 A 
ATOM     91  C   UNL A   1      46.609  26.924  36.548  1.00  0.00     0.055 A 
ATOM     92  C   UNL A   1      47.700  28.849  35.605  1.00  0.00     0.041 A 
ATOM     93  F   UNL A   1      46.562  30.197  34.061  1.00  0.00    -0.206 F 
ATOM     94  C   UNL A   1      47.722  27.765  36.477  1.00  0.00     0.022 A 
BRANCH  91  95
ATOM     95  S   UNL A   1      46.542  25.606  37.793  1.00  0.00     0.124 S 
ATOM     96  O   UNL A   1      47.295  24.537  37.145  1.00  0.00    -0.237 OA
ATOM     97  O   UNL A   1      47.185  26.232  38.943  1.00  0.00    -0.237 OA
ATOM     98  O   UNL A   1      45.110  25.351  37.945  1.00  0.00    -0.744 OA
ENDBRANCH  91  95
ENDBRANCH  65  88
ENDBRANCH  39  40
ENDBRANCH  32  34
ENDBRANCH  31  32
ENDBRANCH  30  31
ENDBRANCH   1  30
TORSDOF 19
ENDMDL
MODEL 2
REMARK VINA RESULT:     -11.2      5.019      9.174
REMARK SMILES O=C(Cc1ccccc1C(=O)OCCOC(=O)c1ccc(-c2c3nc(c(-c4cc(S(=O)(=O)[O-])ccc4F)c4ccc([nH]4)c(-c4cc(S(=O)(=O)[O-])ccc4F)c4nc(c(-c5cc(S(=O)(=O)[O-])ccc5F)c5ccc2[nH]5)C=C4)C=C3)cc1)Nc1ccc(S(=O)(=O)N2CCCC2)cc1
REMARK SMILES IDX 13 1 12 2 10 3 11 4 9 5 4 6 5 7 6 8 8 9 7 10 3 11 2 12 1 13
REMARK SMILES IDX 81 14 82 16 83 17 95 18 84 19 94 20 85 21 86 22 87 23 88 24
REMARK SMILES IDX 89 25 90 26 93 27 91 28 92 29 14 30 15 31 16 32 17 33 18 34
REMARK SMILES IDX 19 35 80 36 20 37 79 38 21 39 22 40 23 41 73 42 24 43 78 44
REMARK SMILES IDX 72 45 74 46 25 47 77 48 71 49 70 50 26 52 58 53 38 54 57 55
REMARK SMILES IDX 39 56 42 57 56 58 75 59 40 60 41 61 55 63 76 64 43 65 27 66
REMARK SMILES IDX 28 67 36 68 29 69 35 70 37 71 34 72 30 73 31 74 32 75 33 76
REMARK SMILES IDX 59 77 60 78 68 79 61 80 67 81 69 82 66 83 62 84 63 85 64 86
REMARK SMILES IDX 65 87 44 88 45 89 53 90 46 91 52 92 54 93 51 94 47 95 48 96
REMARK SMILES IDX 49 97 50 98
REMARK H PARENT 81 15 74 51 42 62
REMARK Flexibility Score: inf
ROOT
ATOM      1  C   UNL A   1      43.254  19.758  25.655  1.00  0.00     0.275 C 
ENDROOT
BRANCH   1   2
ATOM      2  O   UNL A   1      42.018  20.496  25.718  1.00  0.00    -0.458 OA
BRANCH   2   3
ATOM      3  C   UNL A   1      41.329  20.465  26.886  1.00  0.00     0.338 C 
ATOM      4  O   UNL A   1      41.203  19.510  27.632  1.00  0.00    -0.246 OA
BRANCH   3   5
ATOM      5  C   UNL A   1      40.795  21.824  27.184  1.00  0.00     0.063 A 
ATOM      6  C   UNL A   1      39.636  22.344  26.572  1.00  0.00    -0.024 A 
ATOM      7  C   UNL A   1      39.313  23.698  26.785  1.00  0.00     0.005 A 
ATOM      8  C   UNL A   1      40.061  24.482  27.665  1.00  0.00     0.000 A 
ATOM      9  C   UNL A   1      41.513  22.606  28.101  1.00  0.00     0.016 A 
ATOM     10  C   UNL A   1      41.149  23.932  28.337  1.00  0.00     0.001 A 
BRANCH   6  11
ATOM     11  C   UNL A   1      38.776  21.474  25.684  1.00  0.00     0.136 C 
BRANCH  11  12
ATOM     12  C   UNL A   1      37.350  21.914  25.461  1.00  0.00     0.228 C 
ATOM     13  O   UNL A   1      36.456  21.465  26.180  1.00  0.00    -0.274 OA
ATOM     14  N   UNL A   1      37.175  22.872  24.468  1.00  0.00    -0.326 N 
ATOM     15  H   UNL A   1      37.958  23.143  23.936  1.00  0.00     0.169 HD
BRANCH  14  16
ATOM     16  C   UNL A   1      35.938  23.474  24.188  1.00  0.00     0.041 A 
ATOM     17  C   UNL A   1      35.450  24.472  25.035  1.00  0.00     0.027 A 
ATOM     18  C   UNL A   1      35.218  23.129  23.046  1.00  0.00     0.027 A 
ATOM     19  C   UNL A   1      34.345  25.238  24.639  1.00  0.00     0.024 A 
ATOM     20  C   UNL A   1      34.095  23.854  22.679  1.00  0.00     0.024 A 
ATOM     21  C   UNL A   1      33.697  24.952  23.433  1.00  0.00     0.082 A 
BRANCH  21  22
ATOM     22  S   UNL A   1      32.490  26.103  22.804  1.00  0.00     0.243 S 
ATOM     23  O   UNL A   1      33.121  27.398  22.766  1.00  0.00    -0.207 OA
ATOM     24  O   UNL A   1      31.933  25.492  21.615  1.00  0.00    -0.207 OA
BRANCH  22  25
ATOM     25  N   UNL A   1      31.247  26.156  23.945  1.00  0.00    -0.198 NA
ATOM     26  C   UNL A   1      31.158  27.244  24.922  1.00  0.00     0.102 C 
ATOM     27  C   UNL A   1      30.645  24.919  24.459  1.00  0.00     0.102 C 
ATOM     28  C   UNL A   1      30.820  26.587  26.252  1.00  0.00     0.018 C 
ATOM     29  C   UNL A   1      30.367  25.170  25.937  1.00  0.00     0.018 C 
ENDBRANCH  22  25
ENDBRANCH  21  22
ENDBRANCH  14  16
ENDBRANCH  11  12
ENDBRANCH   6  11
ENDBRANCH   3   5
ENDBRANCH   2   3
ENDBRANCH   1   2
BRANCH   1  30
ATOM     30  C   UNL A   1      44.375  20.679  25.178  1.00  0.00     0.275 C 
BRANCH  30  31
ATOM     31  O   UNL A   1      44.194  21.963  25.797  1.00  0.00    -0.458 OA
BRANCH  31  32
ATOM     32  C   UNL A   1      43.948  22.991  24.952  1.00  0.00     0.338 C 
ATOM     33  O   UNL A   1      43.759  22.943  23.750  1.00  0.00    -0.246 OA
BRANCH  32  34
ATOM     34  C   UNL A   1      43.827  24.218  25.752  1.00  0.00     0.060 A 
ATOM     35  C   UNL A   1      43.146  25.295  25.191  1.00  0.00     0.016 A 
ATOM     36  C   UNL A   1      44.458  24.346  26.987  1.00  0.00     0.016 A 
ATOM     37  C   UNL A   1      43.132  26.528  25.835  1.00  0.00     0.010 A 
ATOM     38  C   UNL A   1      44.389  25.571  27.665  1.00  0.00     0.010 A 
ATOM     39  C   UNL A   1      43.752  26.685  27.082  1.00  0.00    -0.014 A 
BRANCH  39  40
ATOM     40  C   UNL A   1      43.806  28.037  27.711  1.00  0.00     0.031 A 
ATOM     41  C   UNL A   1      42.571  28.618  28.354  1.00  0.00     0.074 A 
ATOM     42  C   UNL A   1      44.967  28.721  27.767  1.00  0.00     0.049 A 
ATOM     43  N   UNL A   1      42.379  29.810  28.861  1.00  0.00    -0.248 NA
ATOM     44  C   UNL A   1      41.391  27.744  28.417  1.00  0.00     0.031 C 
ATOM     45  C   UNL A   1      46.247  28.259  27.225  1.00  0.00     0.029 A 
ATOM     46  N   UNL A   1      45.268  29.939  28.327  1.00  0.00    -0.354 N 
ATOM     47  C   UNL A   1      41.044  29.847  29.253  1.00  0.00     0.074 A 
ATOM     48  C   UNL A   1      40.472  28.563  28.907  1.00  0.00     0.031 C 
ATOM     49  C   UNL A   1      47.201  29.155  27.523  1.00  0.00     0.029 A 
ATOM     50  C   UNL A   1      46.592  30.294  28.204  1.00  0.00     0.049 A 
ATOM     51  H   UNL A   1      44.598  30.505  28.773  1.00  0.00     0.167 HD
ATOM     52  C   UNL A   1      40.360  30.859  29.846  1.00  0.00     0.034 A 
ATOM     53  C   UNL A   1      47.239  31.419  28.568  1.00  0.00     0.034 A 
ATOM     54  C   UNL A   1      40.955  32.118  30.231  1.00  0.00     0.049 A 
ATOM     55  C   UNL A   1      46.456  32.530  29.220  1.00  0.00     0.074 A 
ATOM     56  C   UNL A   1      40.355  33.207  30.841  1.00  0.00     0.029 A 
ATOM     57  N   UNL A   1      42.292  32.453  30.056  1.00  0.00    -0.354 N 
ATOM     58  N   UNL A   1      45.179  32.577  29.519  1.00  0.00    -0.248 NA
ATOM     59  C   UNL A   1      47.204  33.742  29.574  1.00  0.00     0.031 C 
ATOM     60  C   UNL A   1      41.314  34.217  30.986  1.00  0.00     0.029 A 
ATOM     61  C   UNL A   1      42.530  33.735  30.531  1.00  0.00     0.049 A 
ATOM     62  H   UNL A   1      42.972  31.866  29.653  1.00  0.00     0.167 HD
ATOM     63  C   UNL A   1      44.973  33.825  30.099  1.00  0.00     0.074 A 
ATOM     64  C   UNL A   1      46.265  34.479  30.145  1.00  0.00     0.031 C 
ATOM     65  C   UNL A   1      43.819  34.387  30.543  1.00  0.00     0.034 A 
BRANCH  52  66
ATOM     66  C   UNL A   1      38.875  30.662  30.056  1.00  0.00     0.023 A 
ATOM     67  C   UNL A   1      37.917  31.163  29.157  1.00  0.00     0.031 A 
ATOM     68  C   UNL A   1      38.412  29.994  31.204  1.00  0.00     0.131 A 
ATOM     69  C   UNL A   1      36.550  31.056  29.460  1.00  0.00     0.055 A 
ATOM     70  C   UNL A   1      37.050  29.818  31.458  1.00  0.00     0.041 A 
ATOM     71  F   UNL A   1      39.278  29.511  32.110  1.00  0.00    -0.206 F 
ATOM     72  C   UNL A   1      36.109  30.366  30.591  1.00  0.00     0.022 A 
BRANCH  69  73
ATOM     73  S   UNL A   1      35.361  31.962  28.432  1.00  0.00     0.124 S 
ATOM     74  O   UNL A   1      34.397  32.419  29.429  1.00  0.00    -0.237 OA
ATOM     75  O   UNL A   1      36.192  32.996  27.825  1.00  0.00    -0.237 OA
ATOM     76  O   UNL A   1      34.859  30.943  27.511  1.00  0.00    -0.744 OA
ENDBRANCH  69  73
ENDBRANCH  52  66
BRANCH  53  77
ATOM     77  C   UNL A   1      48.694  31.585  28.277  1.00  0.00     0.023 A 
ATOM     78  C   UNL A   1      49.136  32.372  27.201  1.00  0.00     0.031 A 
ATOM     79  C   UNL A   1      49.663  30.920  29.049  1.00  0.00     0.131 A 
ATOM     80  C   UNL A   1      50.506  32.442  26.904  1.00  0.00     0.055 A 
ATOM     81  C   UNL A   1      51.028  31.038  28.783  1.00  0.00     0.041 A 
ATOM     82  F   UNL A   1      49.294  30.153  30.087  1.00  0.00    -0.206 F 
ATOM     83  C   UNL A   1      51.457  31.794  27.698  1.00  0.00     0.022 A 
BRANCH  80  84
ATOM     84  S   UNL A   1      51.031  33.334  25.413  1.00  0.00     0.124 S 
ATOM     85  O   UNL A   1      51.377  32.237  24.516  1.00  0.00    -0.237 OA
ATOM     86  O   UNL A   1      49.827  34.086  25.072  1.00  0.00    -0.237 OA
ATOM     87  O   UNL A   1      52.155  34.142  25.877  1.00  0.00    -0.744 OA
ENDBRANCH  80  84
ENDBRANCH  53  77
BRANCH  65  88
ATOM     88  C   UNL A   1      43.928  35.774  31.131  1.00  0.00     0.023 A 
ATOM     89  C   UNL A   1      43.960  35.981  32.522  1.00  0.00     0.031 A 
ATOM     90  C   UNL A   1      43.941  36.904  30.294  1.00  0.00     0.131 A 
ATOM     91  C   UNL A   1      43.922  37.286  33.037  1.00  0.00     0.055 A 
ATOM     92  C   UNL A   1      43.969  38.199  30.812  1.00  0.00     0.041 A 
ATOM     93  F   UNL A   1      43.911  36.765  28.959  1.00  0.00    -0.206 F 
ATOM     94  C   UNL A   1      43.940  38.396  32.190  1.00  0.00     0.022 A 
BRANCH  91  95
ATOM     95  S   UNL A   1      43.714  37.509  34.825  1.00  0.00     0.124 S 
ATOM     96  O   UNL A   1      42.351  37.031  35.035  1.00  0.00    -0.237 OA
ATOM     97  O   UNL A   1      44.774  36.668  35.369  1.00  0.00    -0.237 OA
ATOM     98  O   UNL A   1      43.902  38.946  35.016  1.00  0.00    -0.744 OA
ENDBRANCH  91  95
ENDBRANCH  65  88
ENDBRANCH  39  40
ENDBRANCH  32  34
ENDBRANCH  31  32
ENDBRANCH  30  31
ENDBRANCH   1  30
TORSDOF 19
ENDMDL
MODEL 3
REMARK VINA RESULT:     -11.2      1.571      1.949
REMARK SMILES O=C(Cc1ccccc1C(=O)OCCOC(=O)c1ccc(-c2c3nc(c(-c4cc(S(=O)(=O)[O-])ccc4F)c4ccc([nH]4)c(-c4cc(S(=O)(=O)[O-])ccc4F)c4nc(c(-c5cc(S(=O)(=O)[O-])ccc5F)c5ccc2[nH]5)C=C4)C=C3)cc1)Nc1ccc(S(=O)(=O)N2CCCC2)cc1
REMARK SMILES IDX 13 1 12 2 10 3 11 4 9 5 4 6 5 7 6 8 8 9 7 10 3 11 2 12 1 13
REMARK SMILES IDX 81 14 82 16 83 17 95 18 84 19 94 20 85 21 86 22 87 23 88 24
REMARK SMILES IDX 89 25 90 26 93 27 91 28 92 29 14 30 15 31 16 32 17 33 18 34
REMARK SMILES IDX 19 35 80 36 20 37 79 38 21 39 22 40 23 41 73 42 24 43 78 44
REMARK SMILES IDX 72 45 74 46 25 47 77 48 71 49 70 50 26 52 58 53 38 54 57 55
REMARK SMILES IDX 39 56 42 57 56 58 75 59 40 60 41 61 55 63 76 64 43 65 27 66
REMARK SMILES IDX 28 67 36 68 29 69 35 70 37 71 34 72 30 73 31 74 32 75 33 76
REMARK SMILES IDX 59 77 60 78 68 79 61 80 67 81 69 82 66 83 62 84 63 85 64 86
REMARK SMILES IDX 65 87 44 88 45 89 53 90 46 91 52 92 54 93 51 94 47 95 48 96
REMARK SMILES IDX 49 97 50 98
REMARK H PARENT 81 15 74 51 42 62
REMARK Flexibility Score: inf
ROOT
ATOM      1  C   UNL A   1      32.705  29.381  25.023  1.00  0.00     0.275 C 
ENDROOT
BRANCH   1   2
ATOM      2  O   UNL A   1      32.422  27.980  25.206  1.00  0.00    -0.458 OA
BRANCH   2   3
ATOM      3  C   UNL A   1      33.477  27.130  25.258  1.00  0.00     0.338 C 
ATOM      4  O   UNL A   1      34.398  27.160  26.055  1.00  0.00    -0.246 OA
BRANCH   3   5
ATOM      5  C   UNL A   1      33.312  26.070  24.223  1.00  0.00     0.063 A 
ATOM      6  C   UNL A   1      33.405  24.694  24.514  1.00  0.00    -0.024 A 
ATOM      7  C   UNL A   1      33.411  23.780  23.442  1.00  0.00     0.005 A 
ATOM      8  C   UNL A   1      33.224  24.216  22.129  1.00  0.00     0.000 A 
ATOM      9  C   UNL A   1      33.079  26.494  22.906  1.00  0.00     0.016 A 
ATOM     10  C   UNL A   1      33.039  25.570  21.862  1.00  0.00     0.001 A 
BRANCH   6  11
ATOM     11  C   UNL A   1      33.524  24.212  25.941  1.00  0.00     0.136 C 
BRANCH  11  12
ATOM     12  C   UNL A   1      34.828  23.569  26.345  1.00  0.00     0.228 C 
ATOM     13  O   UNL A   1      34.837  22.729  27.246  1.00  0.00    -0.274 OA
ATOM     14  N   UNL A   1      35.934  23.950  25.593  1.00  0.00    -0.326 N 
ATOM     15  H   UNL A   1      35.817  24.651  24.912  1.00  0.00     0.169 HD
BRANCH  14  16
ATOM     16  C   UNL A   1      37.208  23.384  25.756  1.00  0.00     0.041 A 
ATOM     17  C   UNL A   1      38.181  24.076  26.483  1.00  0.00     0.027 A 
ATOM     18  C   UNL A   1      37.497  22.118  25.253  1.00  0.00     0.027 A 
ATOM     19  C   UNL A   1      39.364  23.422  26.853  1.00  0.00     0.024 A 
ATOM     20  C   UNL A   1      38.690  21.490  25.577  1.00  0.00     0.024 A 
ATOM     21  C   UNL A   1      39.594  22.108  26.432  1.00  0.00     0.082 A 
BRANCH  21  22
ATOM     22  S   UNL A   1      40.951  21.196  27.143  1.00  0.00     0.243 S 
ATOM     23  O   UNL A   1      41.598  22.070  28.088  1.00  0.00    -0.207 OA
ATOM     24  O   UNL A   1      40.409  19.913  27.539  1.00  0.00    -0.207 OA
BRANCH  22  25
ATOM     25  N   UNL A   1      42.030  20.894  25.880  1.00  0.00    -0.198 NA
ATOM     26  C   UNL A   1      42.619  19.567  25.683  1.00  0.00     0.102 C 
ATOM     27  C   UNL A   1      42.911  21.955  25.375  1.00  0.00     0.102 C 
ATOM     28  C   UNL A   1      44.090  19.802  25.378  1.00  0.00     0.018 C 
ATOM     29  C   UNL A   1      44.239  21.279  25.050  1.00  0.00     0.018 C 
ENDBRANCH  22  25
ENDBRANCH  21  22
ENDBRANCH  14  16
ENDBRANCH  11  12
ENDBRANCH   6  11
ENDBRANCH   3   5
ENDBRANCH   2   3
ENDBRANCH   1   2
BRANCH   1  30
ATOM     30  C   UNL A   1      32.266  30.157  26.263  1.00  0.00     0.275 C 
BRANCH  30  31
ATOM     31  O   UNL A   1      33.336  30.112  27.221  1.00  0.00    -0.458 OA
BRANCH  31  32
ATOM     32  C   UNL A   1      34.008  31.273  27.403  1.00  0.00     0.338 C 
ATOM     33  O   UNL A   1      33.611  32.407  27.205  1.00  0.00    -0.246 OA
BRANCH  32  34
ATOM     34  C   UNL A   1      35.309  30.954  28.007  1.00  0.00     0.060 A 
ATOM     35  C   UNL A   1      35.501  29.664  28.494  1.00  0.00     0.016 A 
ATOM     36  C   UNL A   1      36.285  31.930  28.188  1.00  0.00     0.016 A 
ATOM     37  C   UNL A   1      36.650  29.348  29.211  1.00  0.00     0.010 A 
ATOM     38  C   UNL A   1      37.471  31.594  28.856  1.00  0.00     0.010 A 
ATOM     39  C   UNL A   1      37.653  30.307  29.403  1.00  0.00    -0.014 A 
BRANCH  39  40
ATOM     40  C   UNL A   1      38.834  29.977  30.254  1.00  0.00     0.031 A 
ATOM     41  C   UNL A   1      38.894  30.465  31.679  1.00  0.00     0.074 A 
ATOM     42  C   UNL A   1      39.822  29.190  29.779  1.00  0.00     0.049 A 
ATOM     43  N   UNL A   1      39.869  30.376  32.549  1.00  0.00    -0.248 NA
ATOM     44  C   UNL A   1      37.702  31.162  32.185  1.00  0.00     0.031 C 
ATOM     45  C   UNL A   1      39.871  28.612  28.435  1.00  0.00     0.029 A 
ATOM     46  N   UNL A   1      40.964  28.719  30.381  1.00  0.00    -0.354 N 
ATOM     47  C   UNL A   1      39.430  31.052  33.684  1.00  0.00     0.074 A 
ATOM     48  C   UNL A   1      38.107  31.558  33.382  1.00  0.00     0.031 C 
ATOM     49  C   UNL A   1      40.954  27.827  28.331  1.00  0.00     0.029 A 
ATOM     50  C   UNL A   1      41.722  27.907  29.570  1.00  0.00     0.049 A 
ATOM     51  H   UNL A   1      41.215  28.943  31.306  1.00  0.00     0.167 HD
ATOM     52  C   UNL A   1      40.070  31.232  34.868  1.00  0.00     0.034 A 
ATOM     53  C   UNL A   1      42.915  27.316  29.783  1.00  0.00     0.034 A 
ATOM     54  C   UNL A   1      41.370  30.678  35.173  1.00  0.00     0.049 A 
ATOM     55  C   UNL A   1      43.609  27.536  31.103  1.00  0.00     0.074 A 
ATOM     56  C   UNL A   1      42.106  30.796  36.340  1.00  0.00     0.029 A 
ATOM     57  N   UNL A   1      42.123  29.891  34.312  1.00  0.00    -0.354 N 
ATOM     58  N   UNL A   1      43.212  28.236  32.141  1.00  0.00    -0.248 NA
ATOM     59  C   UNL A   1      44.916  26.891  31.275  1.00  0.00     0.031 C 
ATOM     60  C   UNL A   1      43.323  30.126  36.165  1.00  0.00     0.029 A 
ATOM     61  C   UNL A   1      43.320  29.530  34.915  1.00  0.00     0.049 A 
ATOM     62  H   UNL A   1      41.847  29.627  33.404  1.00  0.00     0.167 HD
ATOM     63  C   UNL A   1      44.224  28.113  33.089  1.00  0.00     0.074 A 
ATOM     64  C   UNL A   1      45.225  27.237  32.514  1.00  0.00     0.031 C 
ATOM     65  C   UNL A   1      44.324  28.681  34.319  1.00  0.00     0.034 A 
BRANCH  52  66
ATOM     66  C   UNL A   1      39.396  32.115  35.894  1.00  0.00     0.023 A 
ATOM     67  C   UNL A   1      39.751  33.463  36.073  1.00  0.00     0.031 A 
ATOM     68  C   UNL A   1      38.406  31.579  36.737  1.00  0.00     0.131 A 
ATOM     69  C   UNL A   1      39.178  34.205  37.119  1.00  0.00     0.055 A 
ATOM     70  C   UNL A   1      37.780  32.346  37.722  1.00  0.00     0.041 A 
ATOM     71  F   UNL A   1      38.039  30.292  36.628  1.00  0.00    -0.206 F 
ATOM     72  C   UNL A   1      38.178  33.663  37.929  1.00  0.00     0.022 A 
BRANCH  69  73
ATOM     73  S   UNL A   1      39.866  35.839  37.502  1.00  0.00     0.124 S 
ATOM     74  O   UNL A   1      39.037  36.252  38.630  1.00  0.00    -0.237 OA
ATOM     75  O   UNL A   1      41.258  35.531  37.810  1.00  0.00    -0.237 OA
ATOM     76  O   UNL A   1      39.653  36.597  36.270  1.00  0.00    -0.744 OA
ENDBRANCH  69  73
ENDBRANCH  52  66
BRANCH  53  77
ATOM     77  C   UNL A   1      43.565  26.508  28.710  1.00  0.00     0.023 A 
ATOM     78  C   UNL A   1      44.376  27.111  27.735  1.00  0.00     0.031 A 
ATOM     79  C   UNL A   1      43.345  25.122  28.620  1.00  0.00     0.131 A 
ATOM     80  C   UNL A   1      44.906  26.335  26.691  1.00  0.00     0.055 A 
ATOM     81  C   UNL A   1      43.921  24.347  27.612  1.00  0.00     0.041 A 
ATOM     82  F   UNL A   1      42.576  24.496  29.525  1.00  0.00    -0.206 F 
ATOM     83  C   UNL A   1      44.697  24.955  26.632  1.00  0.00     0.022 A 
BRANCH  80  84
ATOM     84  S   UNL A   1      45.815  27.170  25.360  1.00  0.00     0.124 S 
ATOM     85  O   UNL A   1      46.455  26.046  24.686  1.00  0.00    -0.237 OA
ATOM     86  O   UNL A   1      44.739  27.829  24.626  1.00  0.00    -0.237 OA
ATOM     87  O   UNL A   1      46.718  28.068  26.075  1.00  0.00    -0.744 OA
ENDBRANCH  80  84
ENDBRANCH  53  77
BRANCH  65  88
ATOM     88  C   UNL A   1      45.561  28.344  35.117  1.00  0.00     0.023 A 
ATOM     89  C   UNL A   1      45.583  27.258  36.012  1.00  0.00     0.031 A 
ATOM     90  C   UNL A   1      46.709  29.150  35.027  1.00  0.00     0.131 A 
ATOM     91  C   UNL A   1      46.698  27.056  36.839  1.00  0.00     0.055 A 
ATOM     92  C   UNL A   1      47.840  28.904  35.807  1.00  0.00     0.041 A 
ATOM     93  F   UNL A   1      46.742  30.200  34.191  1.00  0.00    -0.206 F 
ATOM     94  C   UNL A   1      47.832  27.865  36.733  1.00  0.00     0.022 A 
BRANCH  91  95
ATOM     95  S   UNL A   1      46.593  25.805  38.148  1.00  0.00     0.124 S 
ATOM     96  O   UNL A   1      47.028  26.555  39.322  1.00  0.00    -0.237 OA
ATOM     97  O   UNL A   1      45.182  25.437  38.114  1.00  0.00    -0.237 OA
ATOM     98  O   UNL A   1      47.517  24.763  37.702  1.00  0.00    -0.744 OA
ENDBRANCH  91  95
ENDBRANCH  65  88
ENDBRANCH  39  40
ENDBRANCH  32  34
ENDBRANCH  31  32
ENDBRANCH  30  31
ENDBRANCH   1  30
TORSDOF 19
ENDMDL
