MODEL 1
REMARK VINA RESULT:     -10.6      0.000      0.000
REMARK SMILES CC(C)C[C@H](NC(=O)CNC(=O)[C@@H]([NH3+])C(C)C)C(=O)OCCOC(=O)c1ccc(-c2c3nc(c(-c4cc(S(=O)(=O)[O-])ccc4F)c4ccc([nH]4)c(-c4cc(S(=O)(=O)[O-])ccc4F)c4nc(c(-c5cc(S(=O)(=O)[O-])ccc5F)c5ccc2[nH]5)C=C4)C=C3)cc1
REMARK SMILES IDX 21 1 20 2 18 3 19 4 5 5 4 6 2 7 1 8 3 9 6 10 7 11 8 13 9 14
REMARK SMILES IDX 10 15 11 16 12 18 13 19 14 20 15 24 16 25 17 26 22 27 23 28
REMARK SMILES IDX 24 29 25 30 26 31 27 32 88 33 28 34 87 35 29 36 30 37 31 38
REMARK SMILES IDX 81 39 32 40 86 41 80 42 82 43 33 44 85 45 79 46 78 47 34 49
REMARK SMILES IDX 66 50 46 51 65 52 47 53 50 54 64 55 83 56 48 57 49 58 63 60
REMARK SMILES IDX 84 61 51 62 35 63 36 64 44 65 37 66 43 67 45 68 42 69 38 70
REMARK SMILES IDX 39 71 40 72 41 73 67 74 68 75 76 76 69 77 75 78 77 79 74 80
REMARK SMILES IDX 70 81 71 82 72 83 73 84 52 85 53 86 61 87 54 88 60 89 62 90
REMARK SMILES IDX 59 91 55 92 56 93 57 94 58 95
REMARK H PARENT 6 12 10 17 14 21 14 22 14 23 82 48 50 59
REMARK Flexibility Score: inf
ROOT
ATOM      1  C   UNL A   1      36.099  20.534  25.019  1.00  0.00     0.274 C 
ENDROOT
BRANCH   1   2
ATOM      2  O   UNL A   1      35.340  21.319  25.961  1.00  0.00    -0.461 OA
BRANCH   2   3
ATOM      3  C   UNL A   1      33.995  21.159  25.839  1.00  0.00     0.328 C 
ATOM      4  O   UNL A   1      33.460  20.107  25.497  1.00  0.00    -0.250 OA
BRANCH   3   5
ATOM      5  C   UNL A   1      33.205  22.460  25.985  1.00  0.00     0.192 C 
BRANCH   5   6
ATOM      6  C   UNL A   1      34.129  23.631  26.353  1.00  0.00     0.040 C 
BRANCH   6   7
ATOM      7  C   UNL A   1      34.618  24.558  25.214  1.00  0.00    -0.015 C 
ATOM      8  C   UNL A   1      34.084  24.279  23.808  1.00  0.00     0.007 C 
ATOM      9  C   UNL A   1      34.254  26.004  25.568  1.00  0.00     0.007 C 
ENDBRANCH   6   7
ENDBRANCH   5   6
BRANCH   5  10
ATOM     10  N   UNL A   1      32.060  22.400  26.891  1.00  0.00    -0.341 N 
ATOM     11  C   UNL A   1      30.927  23.172  26.869  1.00  0.00     0.240 C 
ATOM     12  H   UNL A   1      32.108  21.722  27.603  1.00  0.00     0.164 HD
ATOM     13  O   UNL A   1      30.046  22.920  27.697  1.00  0.00    -0.273 OA
BRANCH  11  14
ATOM     14  C   UNL A   1      30.702  24.258  25.785  1.00  0.00     0.216 C 
BRANCH  14  15
ATOM     15  N   UNL A   1      30.831  25.613  26.298  1.00  0.00    -0.342 N 
ATOM     16  C   UNL A   1      30.878  26.827  25.690  1.00  0.00     0.278 C 
ATOM     17  H   UNL A   1      30.900  25.660  27.279  1.00  0.00     0.164 HD
ATOM     18  O   UNL A   1      31.126  27.785  26.436  1.00  0.00    -0.268 OA
BRANCH  16  19
ATOM     19  C   UNL A   1      30.597  27.075  24.179  1.00  0.00     0.273 C 
BRANCH  19  20
ATOM     20  N   UNL A   1      29.197  26.801  23.811  1.00  0.00    -0.347 N 
ATOM     21  H   UNL A   1      28.618  27.608  24.048  1.00  0.00     0.345 HD
ATOM     22  H   UNL A   1      28.864  25.983  24.321  1.00  0.00     0.345 HD
ATOM     23  H   UNL A   1      29.136  26.624  22.809  1.00  0.00     0.345 HD
ENDBRANCH  19  20
BRANCH  19  24
ATOM     24  C   UNL A   1      31.077  28.475  23.745  1.00  0.00     0.051 C 
ATOM     25  C   UNL A   1      32.491  28.377  23.156  1.00  0.00     0.014 C 
ATOM     26  C   UNL A   1      30.161  29.104  22.687  1.00  0.00     0.014 C 
ENDBRANCH  19  24
ENDBRANCH  16  19
ENDBRANCH  14  15
ENDBRANCH  11  14
ENDBRANCH   5  10
ENDBRANCH   3   5
ENDBRANCH   2   3
ENDBRANCH   1   2
BRANCH   1  27
ATOM     27  C   UNL A   1      37.593  20.882  24.989  1.00  0.00     0.275 C 
BRANCH  27  28
ATOM     28  O   UNL A   1      37.937  22.006  25.820  1.00  0.00    -0.458 OA
BRANCH  28  29
ATOM     29  C   UNL A   1      39.200  21.977  26.315  1.00  0.00     0.338 C 
ATOM     30  O   UNL A   1      39.997  21.057  26.182  1.00  0.00    -0.246 OA
BRANCH  29  31
ATOM     31  C   UNL A   1      39.573  23.278  26.914  1.00  0.00     0.060 A 
ATOM     32  C   UNL A   1      38.885  24.410  26.466  1.00  0.00     0.016 A 
ATOM     33  C   UNL A   1      40.599  23.415  27.853  1.00  0.00     0.016 A 
ATOM     34  C   UNL A   1      39.213  25.676  26.952  1.00  0.00     0.010 A 
ATOM     35  C   UNL A   1      40.937  24.692  28.334  1.00  0.00     0.010 A 
ATOM     36  C   UNL A   1      40.247  25.830  27.883  1.00  0.00    -0.014 A 
BRANCH  36  37
ATOM     37  C   UNL A   1      40.679  27.202  28.256  1.00  0.00     0.031 A 
ATOM     38  C   UNL A   1      42.107  27.599  28.012  1.00  0.00     0.074 A 
ATOM     39  C   UNL A   1      39.804  28.102  28.743  1.00  0.00     0.049 A 
ATOM     40  N   UNL A   1      42.703  28.742  28.236  1.00  0.00    -0.248 NA
ATOM     41  C   UNL A   1      42.976  26.564  27.434  1.00  0.00     0.031 C 
ATOM     42  C   UNL A   1      38.381  27.856  28.965  1.00  0.00     0.029 A 
ATOM     43  N   UNL A   1      39.982  29.410  29.123  1.00  0.00    -0.354 N 
ATOM     44  C   UNL A   1      44.020  28.567  27.825  1.00  0.00     0.074 A 
ATOM     45  C   UNL A   1      44.137  27.198  27.367  1.00  0.00     0.031 C 
ATOM     46  C   UNL A   1      37.811  28.984  29.427  1.00  0.00     0.029 A 
ATOM     47  C   UNL A   1      38.836  30.017  29.582  1.00  0.00     0.049 A 
ATOM     48  H   UNL A   1      40.850  29.871  29.072  1.00  0.00     0.167 HD
ATOM     49  C   UNL A   1      45.038  29.464  27.829  1.00  0.00     0.034 A 
ATOM     50  C   UNL A   1      38.642  31.254  30.088  1.00  0.00     0.034 A 
ATOM     51  C   UNL A   1      44.919  30.814  28.327  1.00  0.00     0.049 A 
ATOM     52  C   UNL A   1      39.823  32.195  30.198  1.00  0.00     0.074 A 
ATOM     53  C   UNL A   1      45.893  31.797  28.393  1.00  0.00     0.029 A 
ATOM     54  N   UNL A   1      43.765  31.367  28.868  1.00  0.00    -0.354 N 
ATOM     55  N   UNL A   1      41.065  32.019  29.807  1.00  0.00    -0.248 NA
ATOM     56  C   UNL A   1      39.572  33.503  30.819  1.00  0.00     0.031 C 
ATOM     57  C   UNL A   1      45.353  32.907  29.052  1.00  0.00     0.029 A 
ATOM     58  C   UNL A   1      44.014  32.660  29.307  1.00  0.00     0.049 A 
ATOM     59  H   UNL A   1      42.896  30.908  28.929  1.00  0.00     0.167 HD
ATOM     60  C   UNL A   1      41.729  33.210  30.101  1.00  0.00     0.074 A 
ATOM     61  C   UNL A   1      40.748  34.097  30.687  1.00  0.00     0.031 C 
ATOM     62  C   UNL A   1      43.032  33.541  29.899  1.00  0.00     0.034 A 
BRANCH  49  63
ATOM     63  C   UNL A   1      46.384  28.974  27.353  1.00  0.00     0.023 A 
ATOM     64  C   UNL A   1      46.647  28.729  25.994  1.00  0.00     0.031 A 
ATOM     65  C   UNL A   1      47.404  28.692  28.280  1.00  0.00     0.131 A 
ATOM     66  C   UNL A   1      47.860  28.136  25.611  1.00  0.00     0.055 A 
ATOM     67  C   UNL A   1      48.642  28.186  27.883  1.00  0.00     0.041 A 
ATOM     68  F   UNL A   1      47.204  28.878  29.595  1.00  0.00    -0.206 F 
ATOM     69  C   UNL A   1      48.870  27.887  26.543  1.00  0.00     0.022 A 
BRANCH  66  70
ATOM     70  S   UNL A   1      48.027  27.528  23.911  1.00  0.00     0.124 S 
ATOM     71  O   UNL A   1      49.458  27.706  23.673  1.00  0.00    -0.237 OA
ATOM     72  O   UNL A   1      47.564  26.150  24.022  1.00  0.00    -0.237 OA
ATOM     73  O   UNL A   1      47.160  28.418  23.141  1.00  0.00    -0.744 OA
ENDBRANCH  66  70
ENDBRANCH  49  63
BRANCH  50  74
ATOM     74  C   UNL A   1      37.297  31.681  30.583  1.00  0.00     0.023 A 
ATOM     75  C   UNL A   1      36.392  32.352  29.744  1.00  0.00     0.031 A 
ATOM     76  C   UNL A   1      36.933  31.504  31.930  1.00  0.00     0.131 A 
ATOM     77  C   UNL A   1      35.196  32.869  30.271  1.00  0.00     0.055 A 
ATOM     78  C   UNL A   1      35.715  31.964  32.434  1.00  0.00     0.041 A 
ATOM     79  F   UNL A   1      37.762  30.881  32.783  1.00  0.00    -0.206 F 
ATOM     80  C   UNL A   1      34.844  32.665  31.607  1.00  0.00     0.022 A 
BRANCH  77  81
ATOM     81  S   UNL A   1      34.154  33.911  29.211  1.00  0.00     0.124 S 
ATOM     82  O   UNL A   1      33.580  32.926  28.303  1.00  0.00    -0.237 OA
ATOM     83  O   UNL A   1      33.237  34.504  30.179  1.00  0.00    -0.237 OA
ATOM     84  O   UNL A   1      35.106  34.840  28.607  1.00  0.00    -0.744 OA
ENDBRANCH  77  81
ENDBRANCH  50  74
BRANCH  62  85
ATOM     85  C   UNL A   1      43.457  34.948  30.260  1.00  0.00     0.023 A 
ATOM     86  C   UNL A   1      43.822  35.309  31.569  1.00  0.00     0.031 A 
ATOM     87  C   UNL A   1      43.482  35.951  29.272  1.00  0.00     0.131 A 
ATOM     88  C   UNL A   1      44.133  36.645  31.868  1.00  0.00     0.055 A 
ATOM     89  C   UNL A   1      43.862  37.262  29.560  1.00  0.00     0.041 A 
ATOM     90  F   UNL A   1      43.138  35.671  28.005  1.00  0.00    -0.206 F 
ATOM     91  C   UNL A   1      44.175  37.620  30.867  1.00  0.00     0.022 A 
BRANCH  88  92
ATOM     92  S   UNL A   1      44.371  37.120  33.604  1.00  0.00     0.124 S 
ATOM     93  O   UNL A   1      44.932  38.461  33.476  1.00  0.00    -0.237 OA
ATOM     94  O   UNL A   1      43.016  37.044  34.137  1.00  0.00    -0.237 OA
ATOM     95  O   UNL A   1      45.295  36.108  34.113  1.00  0.00    -0.744 OA
ENDBRANCH  88  92
ENDBRANCH  62  85
ENDBRANCH  36  37
ENDBRANCH  29  31
ENDBRANCH  28  29
ENDBRANCH  27  28
ENDBRANCH   1  27
TORSDOF 22
ENDMDL
MODEL 2
REMARK VINA RESULT:     -10.4      5.057     10.179
REMARK SMILES CC(C)C[C@H](NC(=O)CNC(=O)[C@@H]([NH3+])C(C)C)C(=O)OCCOC(=O)c1ccc(-c2c3nc(c(-c4cc(S(=O)(=O)[O-])ccc4F)c4ccc([nH]4)c(-c4cc(S(=O)(=O)[O-])ccc4F)c4nc(c(-c5cc(S(=O)(=O)[O-])ccc5F)c5ccc2[nH]5)C=C4)C=C3)cc1
REMARK SMILES IDX 21 1 20 2 18 3 19 4 5 5 4 6 2 7 1 8 3 9 6 10 7 11 8 13 9 14
REMARK SMILES IDX 10 15 11 16 12 18 13 19 14 20 15 24 16 25 17 26 22 27 23 28
REMARK SMILES IDX 24 29 25 30 26 31 27 32 88 33 28 34 87 35 29 36 30 37 31 38
REMARK SMILES IDX 81 39 32 40 86 41 80 42 82 43 33 44 85 45 79 46 78 47 34 49
REMARK SMILES IDX 66 50 46 51 65 52 47 53 50 54 64 55 83 56 48 57 49 58 63 60
REMARK SMILES IDX 84 61 51 62 35 63 36 64 44 65 37 66 43 67 45 68 42 69 38 70
REMARK SMILES IDX 39 71 40 72 41 73 67 74 68 75 76 76 69 77 75 78 77 79 74 80
REMARK SMILES IDX 70 81 71 82 72 83 73 84 52 85 53 86 61 87 54 88 60 89 62 90
REMARK SMILES IDX 59 91 55 92 56 93 57 94 58 95
REMARK H PARENT 6 12 10 17 14 21 14 22 14 23 82 48 50 59
REMARK Flexibility Score: inf
ROOT
ATOM      1  C   UNL A   1      31.938  32.176  26.704  1.00  0.00     0.274 C 
ENDROOT
BRANCH   1   2
ATOM      2  O   UNL A   1      31.850  30.762  26.967  1.00  0.00    -0.461 OA
BRANCH   2   3
ATOM      3  C   UNL A   1      33.005  30.090  26.713  1.00  0.00     0.328 C 
ATOM      4  O   UNL A   1      34.111  30.466  27.092  1.00  0.00    -0.250 OA
BRANCH   3   5
ATOM      5  C   UNL A   1      32.834  28.915  25.750  1.00  0.00     0.192 C 
BRANCH   5   6
ATOM      6  C   UNL A   1      32.912  27.573  26.493  1.00  0.00     0.040 C 
BRANCH   6   7
ATOM      7  C   UNL A   1      32.957  26.276  25.648  1.00  0.00    -0.015 C 
ATOM      8  C   UNL A   1      34.302  25.557  25.541  1.00  0.00     0.007 C 
ATOM      9  C   UNL A   1      31.944  25.280  26.224  1.00  0.00     0.007 C 
ENDBRANCH   6   7
ENDBRANCH   5   6
BRANCH   5  10
ATOM     10  N   UNL A   1      33.727  28.919  24.592  1.00  0.00    -0.341 N 
ATOM     11  C   UNL A   1      33.441  28.534  23.307  1.00  0.00     0.240 C 
ATOM     12  H   UNL A   1      34.644  29.236  24.755  1.00  0.00     0.164 HD
ATOM     13  O   UNL A   1      34.328  28.669  22.458  1.00  0.00    -0.273 OA
BRANCH  11  14
ATOM     14  C   UNL A   1      32.029  28.041  22.899  1.00  0.00     0.216 C 
BRANCH  14  15
ATOM     15  N   UNL A   1      31.363  28.930  21.960  1.00  0.00    -0.342 N 
ATOM     16  C   UNL A   1      30.237  29.686  22.047  1.00  0.00     0.278 C 
ATOM     17  H   UNL A   1      31.817  28.998  21.089  1.00  0.00     0.164 HD
ATOM     18  O   UNL A   1      29.883  30.235  20.994  1.00  0.00    -0.268 OA
BRANCH  16  19
ATOM     19  C   UNL A   1      29.430  29.929  23.357  1.00  0.00     0.273 C 
BRANCH  19  20
ATOM     20  N   UNL A   1      30.055  30.941  24.226  1.00  0.00    -0.347 N 
ATOM     21  H   UNL A   1      30.203  30.547  25.156  1.00  0.00     0.345 HD
ATOM     22  H   UNL A   1      29.445  31.755  24.296  1.00  0.00     0.345 HD
ATOM     23  H   UNL A   1      30.952  31.222  23.831  1.00  0.00     0.345 HD
ENDBRANCH  19  20
BRANCH  19  24
ATOM     24  C   UNL A   1      27.947  30.223  23.050  1.00  0.00     0.051 C 
ATOM     25  C   UNL A   1      27.096  28.990  23.389  1.00  0.00     0.014 C 
ATOM     26  C   UNL A   1      27.410  31.411  23.859  1.00  0.00     0.014 C 
ENDBRANCH  19  24
ENDBRANCH  16  19
ENDBRANCH  14  15
ENDBRANCH  11  14
ENDBRANCH   5  10
ENDBRANCH   3   5
ENDBRANCH   2   3
ENDBRANCH   1   2
BRANCH   1  27
ATOM     27  C   UNL A   1      32.941  32.909  27.604  1.00  0.00     0.275 C 
BRANCH  27  28
ATOM     28  O   UNL A   1      32.504  34.223  27.999  1.00  0.00    -0.458 OA
BRANCH  28  29
ATOM     29  C   UNL A   1      33.210  34.771  29.019  1.00  0.00     0.338 C 
ATOM     30  O   UNL A   1      32.858  35.729  29.696  1.00  0.00    -0.246 OA
BRANCH  29  31
ATOM     31  C   UNL A   1      34.411  33.967  29.336  1.00  0.00     0.060 A 
ATOM     32  C   UNL A   1      34.239  32.866  30.182  1.00  0.00     0.016 A 
ATOM     33  C   UNL A   1      35.689  34.292  28.871  1.00  0.00     0.016 A 
ATOM     34  C   UNL A   1      35.333  32.088  30.562  1.00  0.00     0.010 A 
ATOM     35  C   UNL A   1      36.791  33.514  29.263  1.00  0.00     0.010 A 
ATOM     36  C   UNL A   1      36.619  32.409  30.114  1.00  0.00    -0.014 A 
BRANCH  36  37
ATOM     37  C   UNL A   1      37.780  31.662  30.665  1.00  0.00     0.031 A 
ATOM     38  C   UNL A   1      38.207  31.935  32.079  1.00  0.00     0.074 A 
ATOM     39  C   UNL A   1      38.402  30.710  29.945  1.00  0.00     0.049 A 
ATOM     40  N   UNL A   1      39.173  31.393  32.777  1.00  0.00    -0.248 NA
ATOM     41  C   UNL A   1      37.437  32.957  32.801  1.00  0.00     0.031 C 
ATOM     42  C   UNL A   1      38.041  30.311  28.588  1.00  0.00     0.029 A 
ATOM     43  N   UNL A   1      39.462  29.895  30.264  1.00  0.00    -0.354 N 
ATOM     44  C   UNL A   1      39.126  32.006  34.024  1.00  0.00     0.074 A 
ATOM     45  C   UNL A   1      38.057  32.981  33.971  1.00  0.00     0.031 C 
ATOM     46  C   UNL A   1      38.855  29.314  28.196  1.00  0.00     0.029 A 
ATOM     47  C   UNL A   1      39.828  29.037  29.253  1.00  0.00     0.049 A 
ATOM     48  H   UNL A   1      39.917  29.923  31.136  1.00  0.00     0.167 HD
ATOM     49  C   UNL A   1      39.905  31.779  35.111  1.00  0.00     0.034 A 
ATOM     50  C   UNL A   1      40.842  28.149  29.183  1.00  0.00     0.034 A 
ATOM     51  C   UNL A   1      40.995  30.833  35.138  1.00  0.00     0.049 A 
ATOM     52  C   UNL A   1      41.774  28.002  30.367  1.00  0.00     0.074 A 
ATOM     53  C   UNL A   1      41.856  30.539  36.182  1.00  0.00     0.029 A 
ATOM     54  N   UNL A   1      41.394  30.044  34.066  1.00  0.00    -0.354 N 
ATOM     55  N   UNL A   1      41.723  28.589  31.541  1.00  0.00    -0.248 NA
ATOM     56  C   UNL A   1      42.902  27.073  30.212  1.00  0.00     0.031 C 
ATOM     57  C   UNL A   1      42.824  29.644  35.715  1.00  0.00     0.029 A 
ATOM     58  C   UNL A   1      42.512  29.297  34.410  1.00  0.00     0.049 A 
ATOM     59  H   UNL A   1      40.947  30.018  33.189  1.00  0.00     0.167 HD
ATOM     60  C   UNL A   1      42.788  28.067  32.275  1.00  0.00     0.074 A 
ATOM     61  C   UNL A   1      43.453  27.111  31.415  1.00  0.00     0.031 C 
ATOM     62  C   UNL A   1      43.177  28.349  33.546  1.00  0.00     0.034 A 
BRANCH  49  63
ATOM     63  C   UNL A   1      39.646  32.633  36.329  1.00  0.00     0.023 A 
ATOM     64  C   UNL A   1      38.824  32.194  37.382  1.00  0.00     0.031 A 
ATOM     65  C   UNL A   1      40.182  33.930  36.412  1.00  0.00     0.131 A 
ATOM     66  C   UNL A   1      38.491  33.074  38.423  1.00  0.00     0.055 A 
ATOM     67  C   UNL A   1      39.921  34.768  37.496  1.00  0.00     0.041 A 
ATOM     68  F   UNL A   1      40.952  34.416  35.425  1.00  0.00    -0.206 F 
ATOM     69  C   UNL A   1      39.055  34.349  38.502  1.00  0.00     0.022 A 
BRANCH  66  70
ATOM     70  S   UNL A   1      37.172  32.595  39.573  1.00  0.00     0.124 S 
ATOM     71  O   UNL A   1      37.575  31.237  39.934  1.00  0.00    -0.237 OA
ATOM     72  O   UNL A   1      37.291  33.598  40.625  1.00  0.00    -0.237 OA
ATOM     73  O   UNL A   1      35.961  32.682  38.761  1.00  0.00    -0.744 OA
ENDBRANCH  66  70
ENDBRANCH  49  63
BRANCH  50  74
ATOM     74  C   UNL A   1      41.082  27.352  27.939  1.00  0.00     0.023 A 
ATOM     75  C   UNL A   1      40.763  25.986  27.877  1.00  0.00     0.031 A 
ATOM     76  C   UNL A   1      41.721  27.927  26.825  1.00  0.00     0.131 A 
ATOM     77  C   UNL A   1      41.130  25.229  26.751  1.00  0.00     0.055 A 
ATOM     78  C   UNL A   1      42.027  27.184  25.683  1.00  0.00     0.041 A 
ATOM     79  F   UNL A   1      42.062  29.225  26.831  1.00  0.00    -0.206 F 
ATOM     80  C   UNL A   1      41.746  25.823  25.647  1.00  0.00     0.022 A 
BRANCH  77  81
ATOM     81  S   UNL A   1      40.892  23.429  26.794  1.00  0.00     0.124 S 
ATOM     82  O   UNL A   1      41.226  23.121  28.180  1.00  0.00    -0.237 OA
ATOM     83  O   UNL A   1      39.486  23.302  26.427  1.00  0.00    -0.237 OA
ATOM     84  O   UNL A   1      41.842  22.938  25.798  1.00  0.00    -0.744 OA
ENDBRANCH  77  81
ENDBRANCH  50  74
BRANCH  62  85
ATOM     85  C   UNL A   1      44.345  27.565  34.106  1.00  0.00     0.023 A 
ATOM     86  C   UNL A   1      44.174  26.341  34.778  1.00  0.00     0.031 A 
ATOM     87  C   UNL A   1      45.655  28.063  33.976  1.00  0.00     0.131 A 
ATOM     88  C   UNL A   1      45.282  25.692  35.347  1.00  0.00     0.055 A 
ATOM     89  C   UNL A   1      46.760  27.377  34.480  1.00  0.00     0.041 A 
ATOM     90  F   UNL A   1      45.883  29.229  33.351  1.00  0.00    -0.206 F 
ATOM     91  C   UNL A   1      46.576  26.192  35.184  1.00  0.00     0.022 A 
BRANCH  88  92
ATOM     92  S   UNL A   1      44.998  24.242  36.402  1.00  0.00     0.124 S 
ATOM     93  O   UNL A   1      44.538  24.857  37.643  1.00  0.00    -0.237 OA
ATOM     94  O   UNL A   1      43.995  23.499  35.648  1.00  0.00    -0.237 OA
ATOM     95  O   UNL A   1      46.313  23.607  36.474  1.00  0.00    -0.744 OA
ENDBRANCH  88  92
ENDBRANCH  62  85
ENDBRANCH  36  37
ENDBRANCH  29  31
ENDBRANCH  28  29
ENDBRANCH  27  28
ENDBRANCH   1  27
TORSDOF 22
ENDMDL
MODEL 3
REMARK VINA RESULT:     -10.4      2.069      7.886
REMARK SMILES CC(C)C[C@H](NC(=O)CNC(=O)[C@@H]([NH3+])C(C)C)C(=O)OCCOC(=O)c1ccc(-c2c3nc(c(-c4cc(S(=O)(=O)[O-])ccc4F)c4ccc([nH]4)c(-c4cc(S(=O)(=O)[O-])ccc4F)c4nc(c(-c5cc(S(=O)(=O)[O-])ccc5F)c5ccc2[nH]5)C=C4)C=C3)cc1
REMARK SMILES IDX 21 1 20 2 18 3 19 4 5 5 4 6 2 7 1 8 3 9 6 10 7 11 8 13 9 14
REMARK SMILES IDX 10 15 11 16 12 18 13 19 14 20 15 24 16 25 17 26 22 27 23 28
REMARK SMILES IDX 24 29 25 30 26 31 27 32 88 33 28 34 87 35 29 36 30 37 31 38
REMARK SMILES IDX 81 39 32 40 86 41 80 42 82 43 33 44 85 45 79 46 78 47 34 49
REMARK SMILES IDX 66 50 46 51 65 52 47 53 50 54 64 55 83 56 48 57 49 58 63 60
REMARK SMILES IDX 84 61 51 62 35 63 36 64 44 65 37 66 43 67 45 68 42 69 38 70
REMARK SMILES IDX 39 71 40 72 41 73 67 74 68 75 76 76 69 77 75 78 77 79 74 80
REMARK SMILES IDX 70 81 71 82 72 83 73 84 52 85 53 86 61 87 54 88 60 89 62 90
REMARK SMILES IDX 59 91 55 92 56 93 57 94 58 95
REMARK H PARENT 6 12 10 17 14 21 14 22 14 23 82 48 50 59
REMARK Flexibility Score: inf
ROOT
ATOM      1  C   UNL A   1      35.417  22.737  23.959  1.00  0.00     0.274 C 
ENDROOT
BRANCH   1   2
ATOM      2  O   UNL A   1      34.034  23.098  24.145  1.00  0.00    -0.461 OA
BRANCH   2   3
ATOM      3  C   UNL A   1      33.715  24.311  23.618  1.00  0.00     0.328 C 
ATOM      4  O   UNL A   1      34.128  24.714  22.533  1.00  0.00    -0.250 OA
BRANCH   3   5
ATOM      5  C   UNL A   1      32.941  25.214  24.579  1.00  0.00     0.192 C 
BRANCH   5   6
ATOM      6  C   UNL A   1      33.893  26.112  25.383  1.00  0.00     0.040 C 
BRANCH   6   7
ATOM      7  C   UNL A   1      33.611  27.634  25.406  1.00  0.00    -0.015 C 
ATOM      8  C   UNL A   1      34.374  28.471  26.434  1.00  0.00     0.007 C 
ATOM      9  C   UNL A   1      33.918  28.210  24.020  1.00  0.00     0.007 C 
ENDBRANCH   6   7
ENDBRANCH   5   6
BRANCH   5  10
ATOM     10  N   UNL A   1      32.003  24.528  25.465  1.00  0.00    -0.341 N 
ATOM     11  C   UNL A   1      30.780  24.969  25.902  1.00  0.00     0.240 C 
ATOM     12  H   UNL A   1      32.284  23.641  25.788  1.00  0.00     0.164 HD
ATOM     13  O   UNL A   1      30.114  24.205  26.607  1.00  0.00    -0.273 OA
BRANCH  11  14
ATOM     14  C   UNL A   1      30.197  26.333  25.449  1.00  0.00     0.216 C 
BRANCH  14  15
ATOM     15  N   UNL A   1      30.404  26.602  24.035  1.00  0.00    -0.342 N 
ATOM     16  C   UNL A   1      30.129  27.678  23.252  1.00  0.00     0.278 C 
ATOM     17  H   UNL A   1      30.825  25.857  23.548  1.00  0.00     0.164 HD
ATOM     18  O   UNL A   1      30.326  27.516  22.039  1.00  0.00    -0.268 OA
BRANCH  16  19
ATOM     19  C   UNL A   1      29.649  29.061  23.781  1.00  0.00     0.273 C 
BRANCH  19  20
ATOM     20  N   UNL A   1      30.758  30.014  23.961  1.00  0.00    -0.347 N 
ATOM     21  H   UNL A   1      31.641  29.556  23.734  1.00  0.00     0.345 HD
ATOM     22  H   UNL A   1      30.780  30.333  24.929  1.00  0.00     0.345 HD
ATOM     23  H   UNL A   1      30.623  30.814  23.343  1.00  0.00     0.345 HD
ENDBRANCH  19  20
BRANCH  19  24
ATOM     24  C   UNL A   1      28.501  29.620  22.915  1.00  0.00     0.051 C 
ATOM     25  C   UNL A   1      27.246  28.755  23.100  1.00  0.00     0.014 C 
ATOM     26  C   UNL A   1      28.143  31.066  23.286  1.00  0.00     0.014 C 
ENDBRANCH  19  24
ENDBRANCH  16  19
ENDBRANCH  14  15
ENDBRANCH  11  14
ENDBRANCH   5  10
ENDBRANCH   3   5
ENDBRANCH   2   3
ENDBRANCH   1   2
BRANCH   1  27
ATOM     27  C   UNL A   1      35.806  21.415  24.632  1.00  0.00     0.275 C 
BRANCH  27  28
ATOM     28  O   UNL A   1      36.594  21.588  25.824  1.00  0.00    -0.458 OA
BRANCH  28  29
ATOM     29  C   UNL A   1      37.920  21.349  25.665  1.00  0.00     0.338 C 
ATOM     30  O   UNL A   1      38.406  20.403  25.058  1.00  0.00    -0.246 OA
BRANCH  29  31
ATOM     31  C   UNL A   1      38.736  22.470  26.184  1.00  0.00     0.060 A 
ATOM     32  C   UNL A   1      38.163  23.745  26.156  1.00  0.00     0.016 A 
ATOM     33  C   UNL A   1      40.046  22.308  26.642  1.00  0.00     0.016 A 
ATOM     34  C   UNL A   1      38.887  24.857  26.585  1.00  0.00     0.010 A 
ATOM     35  C   UNL A   1      40.780  23.429  27.064  1.00  0.00     0.010 A 
ATOM     36  C   UNL A   1      40.204  24.711  27.035  1.00  0.00    -0.014 A 
BRANCH  36  37
ATOM     37  C   UNL A   1      41.003  25.930  27.330  1.00  0.00     0.031 A 
ATOM     38  C   UNL A   1      40.409  26.982  28.222  1.00  0.00     0.074 A 
ATOM     39  C   UNL A   1      42.260  26.069  26.869  1.00  0.00     0.049 A 
ATOM     40  N   UNL A   1      40.924  28.112  28.634  1.00  0.00    -0.248 NA
ATOM     41  C   UNL A   1      39.049  26.719  28.715  1.00  0.00     0.031 C 
ATOM     42  C   UNL A   1      42.969  25.091  26.048  1.00  0.00     0.029 A 
ATOM     43  N   UNL A   1      43.170  27.085  27.040  1.00  0.00    -0.354 N 
ATOM     44  C   UNL A   1      39.952  28.698  29.439  1.00  0.00     0.074 A 
ATOM     45  C   UNL A   1      38.809  27.809  29.428  1.00  0.00     0.031 C 
ATOM     46  C   UNL A   1      44.210  25.546  25.802  1.00  0.00     0.029 A 
ATOM     47  C   UNL A   1      44.370  26.871  26.402  1.00  0.00     0.049 A 
ATOM     48  H   UNL A   1      42.980  27.892  27.570  1.00  0.00     0.167 HD
ATOM     49  C   UNL A   1      40.008  29.868  30.122  1.00  0.00     0.034 A 
ATOM     50  C   UNL A   1      45.459  27.661  26.298  1.00  0.00     0.034 A 
ATOM     51  C   UNL A   1      41.138  30.766  30.091  1.00  0.00     0.049 A 
ATOM     52  C   UNL A   1      45.448  29.019  26.968  1.00  0.00     0.074 A 
ATOM     53  C   UNL A   1      41.289  31.984  30.732  1.00  0.00     0.029 A 
ATOM     54  N   UNL A   1      42.303  30.558  29.362  1.00  0.00    -0.354 N 
ATOM     55  N   UNL A   1      44.524  29.564  27.725  1.00  0.00    -0.248 NA
ATOM     56  C   UNL A   1      46.631  29.867  26.765  1.00  0.00     0.031 C 
ATOM     57  C   UNL A   1      42.501  32.550  30.321  1.00  0.00     0.029 A 
ATOM     58  C   UNL A   1      43.156  31.644  29.504  1.00  0.00     0.049 A 
ATOM     59  H   UNL A   1      42.494  29.757  28.823  1.00  0.00     0.167 HD
ATOM     60  C   UNL A   1      45.034  30.801  28.119  1.00  0.00     0.074 A 
ATOM     61  C   UNL A   1      46.350  30.913  27.528  1.00  0.00     0.031 C 
ATOM     62  C   UNL A   1      44.467  31.754  28.905  1.00  0.00     0.034 A 
BRANCH  49  63
ATOM     63  C   UNL A   1      38.772  30.272  30.890  1.00  0.00     0.023 A 
ATOM     64  C   UNL A   1      37.705  30.951  30.276  1.00  0.00     0.031 A 
ATOM     65  C   UNL A   1      38.686  30.026  32.272  1.00  0.00     0.131 A 
ATOM     66  C   UNL A   1      36.645  31.438  31.056  1.00  0.00     0.055 A 
ATOM     67  C   UNL A   1      37.585  30.433  33.026  1.00  0.00     0.041 A 
ATOM     68  F   UNL A   1      39.685  29.406  32.921  1.00  0.00    -0.206 F 
ATOM     69  C   UNL A   1      36.563  31.160  32.422  1.00  0.00     0.022 A 
BRANCH  66  70
ATOM     70  S   UNL A   1      35.469  32.590  30.294  1.00  0.00     0.124 S 
ATOM     71  O   UNL A   1      35.177  31.920  29.028  1.00  0.00    -0.237 OA
ATOM     72  O   UNL A   1      34.383  32.620  31.266  1.00  0.00    -0.237 OA
ATOM     73  O   UNL A   1      36.234  33.829  30.172  1.00  0.00    -0.744 OA
ENDBRANCH  66  70
ENDBRANCH  49  63
BRANCH  50  74
ATOM     74  C   UNL A   1      46.645  27.234  25.493  1.00  0.00     0.023 A 
ATOM     75  C   UNL A   1      46.901  27.787  24.226  1.00  0.00     0.031 A 
ATOM     76  C   UNL A   1      47.488  26.201  25.939  1.00  0.00     0.131 A 
ATOM     77  C   UNL A   1      47.936  27.267  23.430  1.00  0.00     0.055 A 
ATOM     78  C   UNL A   1      48.555  25.731  25.170  1.00  0.00     0.041 A 
ATOM     79  F   UNL A   1      47.284  25.625  27.135  1.00  0.00    -0.206 F 
ATOM     80  C   UNL A   1      48.774  26.253  23.900  1.00  0.00     0.022 A 
BRANCH  77  81
ATOM     81  S   UNL A   1      48.104  27.858  21.722  1.00  0.00     0.124 S 
ATOM     82  O   UNL A   1      46.814  28.504  21.506  1.00  0.00    -0.237 OA
ATOM     83  O   UNL A   1      49.259  28.744  21.821  1.00  0.00    -0.237 OA
ATOM     84  O   UNL A   1      48.325  26.632  20.959  1.00  0.00    -0.744 OA
ENDBRANCH  77  81
ENDBRANCH  50  74
BRANCH  62  85
ATOM     85  C   UNL A   1      45.298  32.980  29.220  1.00  0.00     0.023 A 
ATOM     86  C   UNL A   1      46.154  33.039  30.335  1.00  0.00     0.031 A 
ATOM     87  C   UNL A   1      45.218  34.116  28.393  1.00  0.00     0.131 A 
ATOM     88  C   UNL A   1      46.844  34.227  30.627  1.00  0.00     0.055 A 
ATOM     89  C   UNL A   1      45.962  35.269  28.648  1.00  0.00     0.041 A 
ATOM     90  F   UNL A   1      44.415  34.124  27.318  1.00  0.00    -0.206 F 
ATOM     91  C   UNL A   1      46.770  35.336  29.779  1.00  0.00     0.022 A 
BRANCH  88  92
ATOM     92  S   UNL A   1      47.754  34.347  32.193  1.00  0.00     0.124 S 
ATOM     93  O   UNL A   1      48.802  35.306  31.861  1.00  0.00    -0.237 OA
ATOM     94  O   UNL A   1      46.727  34.819  33.115  1.00  0.00    -0.237 OA
ATOM     95  O   UNL A   1      48.215  32.980  32.428  1.00  0.00    -0.744 OA
ENDBRANCH  88  92
ENDBRANCH  62  85
ENDBRANCH  36  37
ENDBRANCH  29  31
ENDBRANCH  28  29
ENDBRANCH  27  28
ENDBRANCH   1  27
TORSDOF 22
ENDMDL
