MODEL 1
REMARK VINA RESULT:     -11.1      0.000      0.000
REMARK SMILES CC(C)C[C@H](CNC(=O)NC[C@H]1CCC(=O)N1)C(=O)OCCOC(=O)c1ccc(-c2c3nc(c(-c4cc(S(=O)(=O)[O-])ccc4F)c4ccc([nH]4)c(-c4cc(S(=O)(=O)[O-])ccc4F)c4nc(c(-c5cc(S(=O)(=O)[O-])ccc5F)c5ccc2[nH]5)C=C4)C=C3)cc1
REMARK SMILES IDX 21 1 20 2 18 3 19 4 5 5 4 6 2 7 1 8 3 9 6 10 7 11 8 12 9 14
REMARK SMILES IDX 10 15 11 17 12 18 13 19 17 20 14 21 15 22 16 24 22 25 23 26
REMARK SMILES IDX 24 27 25 28 26 29 27 30 88 31 28 32 87 33 29 34 30 35 31 36
REMARK SMILES IDX 81 37 32 38 86 39 80 40 82 41 33 42 85 43 79 44 78 45 34 47
REMARK SMILES IDX 66 48 46 49 65 50 47 51 50 52 64 53 83 54 48 55 49 56 63 58
REMARK SMILES IDX 84 59 51 60 35 61 36 62 44 63 37 64 43 65 45 66 42 67 38 68
REMARK SMILES IDX 39 69 40 70 41 71 67 72 68 73 76 74 69 75 75 76 77 77 74 78
REMARK SMILES IDX 70 79 71 80 72 81 73 82 52 83 53 84 61 85 54 86 60 87 62 88
REMARK SMILES IDX 59 89 55 90 56 91 57 92 58 93
REMARK H PARENT 7 13 10 16 17 23 82 46 50 57
REMARK Flexibility Score: inf
ROOT
ATOM      1  C   UNL A   1      35.238  20.940  25.304  1.00  0.00     0.274 C 
ENDROOT
BRANCH   1   2
ATOM      2  O   UNL A   1      35.159  22.322  24.897  1.00  0.00    -0.462 OA
BRANCH   2   3
ATOM      3  C   UNL A   1      34.535  23.143  25.780  1.00  0.00     0.310 C 
ATOM      4  O   UNL A   1      34.700  23.087  26.994  1.00  0.00    -0.252 OA
BRANCH   3   5
ATOM      5  C   UNL A   1      33.534  24.097  25.146  1.00  0.00     0.119 C 
BRANCH   5   6
ATOM      6  C   UNL A   1      34.162  24.722  23.883  1.00  0.00     0.020 C 
BRANCH   6   7
ATOM      7  C   UNL A   1      33.567  24.206  22.548  1.00  0.00    -0.017 C 
ATOM      8  C   UNL A   1      32.513  23.110  22.746  1.00  0.00     0.007 C 
ATOM      9  C   UNL A   1      32.961  25.364  21.755  1.00  0.00     0.007 C 
ENDBRANCH   6   7
ENDBRANCH   5   6
BRANCH   5  10
ATOM     10  C   UNL A   1      32.949  25.151  26.105  1.00  0.00     0.133 C 
BRANCH  10  11
ATOM     11  N   UNL A   1      31.746  24.651  26.769  1.00  0.00    -0.337 N 
ATOM     12  C   UNL A   1      30.506  24.319  26.406  1.00  0.00     0.314 C 
ATOM     13  H   UNL A   1      31.890  24.525  27.735  1.00  0.00     0.165 HD
ATOM     14  O   UNL A   1      29.837  23.667  27.208  1.00  0.00    -0.249 OA
ATOM     15  N   UNL A   1      29.942  24.637  25.242  1.00  0.00    -0.336 N 
ATOM     16  H   UNL A   1      29.111  24.142  25.060  1.00  0.00     0.165 HD
BRANCH  15  17
ATOM     17  C   UNL A   1      30.301  25.560  24.192  1.00  0.00     0.142 C 
BRANCH  17  18
ATOM     18  C   UNL A   1      29.928  27.012  24.534  1.00  0.00     0.101 C 
ATOM     19  C   UNL A   1      31.162  27.902  24.692  1.00  0.00     0.036 C 
ATOM     20  N   UNL A   1      29.237  27.652  23.442  1.00  0.00    -0.352 N 
ATOM     21  C   UNL A   1      31.449  28.383  23.270  1.00  0.00     0.102 C 
ATOM     22  C   UNL A   1      30.071  28.422  22.657  1.00  0.00     0.220 C 
ATOM     23  H   UNL A   1      28.271  27.551  23.274  1.00  0.00     0.163 HD
ATOM     24  O   UNL A   1      29.745  28.987  21.634  1.00  0.00    -0.275 OA
ENDBRANCH  17  18
ENDBRANCH  15  17
ENDBRANCH  10  11
ENDBRANCH   5  10
ENDBRANCH   3   5
ENDBRANCH   2   3
ENDBRANCH   1   2
BRANCH   1  25
ATOM     25  C   UNL A   1      36.602  20.310  24.996  1.00  0.00     0.275 C 
BRANCH  25  26
ATOM     26  O   UNL A   1      37.647  21.300  25.020  1.00  0.00    -0.458 OA
BRANCH  26  27
ATOM     27  C   UNL A   1      38.766  20.968  25.706  1.00  0.00     0.338 C 
ATOM     28  O   UNL A   1      39.244  19.852  25.827  1.00  0.00    -0.246 OA
BRANCH  27  29
ATOM     29  C   UNL A   1      39.384  22.177  26.277  1.00  0.00     0.060 A 
ATOM     30  C   UNL A   1      38.773  23.412  26.064  1.00  0.00     0.016 A 
ATOM     31  C   UNL A   1      40.629  22.113  26.901  1.00  0.00     0.016 A 
ATOM     32  C   UNL A   1      39.400  24.591  26.460  1.00  0.00     0.010 A 
ATOM     33  C   UNL A   1      41.253  23.297  27.320  1.00  0.00     0.010 A 
ATOM     34  C   UNL A   1      40.652  24.547  27.084  1.00  0.00    -0.014 A 
BRANCH  34  35
ATOM     35  C   UNL A   1      41.345  25.820  27.415  1.00  0.00     0.031 A 
ATOM     36  C   UNL A   1      40.647  26.859  28.252  1.00  0.00     0.074 A 
ATOM     37  C   UNL A   1      42.618  26.015  27.017  1.00  0.00     0.049 A 
ATOM     38  N   UNL A   1      41.052  28.054  28.598  1.00  0.00    -0.248 NA
ATOM     39  C   UNL A   1      39.314  26.504  28.760  1.00  0.00     0.031 C 
ATOM     40  C   UNL A   1      43.414  25.057  26.247  1.00  0.00     0.029 A 
ATOM     41  N   UNL A   1      43.468  27.075  27.211  1.00  0.00    -0.354 N 
ATOM     42  C   UNL A   1      40.020  28.601  29.356  1.00  0.00     0.074 A 
ATOM     43  C   UNL A   1      38.959  27.616  29.387  1.00  0.00     0.031 C 
ATOM     44  C   UNL A   1      44.638  25.569  26.043  1.00  0.00     0.029 A 
ATOM     45  C   UNL A   1      44.698  26.911  26.613  1.00  0.00     0.049 A 
ATOM     46  H   UNL A   1      43.222  27.876  27.727  1.00  0.00     0.167 HD
ATOM     47  C   UNL A   1      39.969  29.808  29.975  1.00  0.00     0.034 A 
ATOM     48  C   UNL A   1      45.742  27.758  26.510  1.00  0.00     0.034 A 
ATOM     49  C   UNL A   1      41.040  30.777  29.933  1.00  0.00     0.049 A 
ATOM     50  C   UNL A   1      45.638  29.117  27.156  1.00  0.00     0.074 A 
ATOM     51  C   UNL A   1      41.087  32.041  30.499  1.00  0.00     0.029 A 
ATOM     52  N   UNL A   1      42.259  30.591  29.289  1.00  0.00    -0.354 N 
ATOM     53  N   UNL A   1      44.639  29.637  27.832  1.00  0.00    -0.248 NA
ATOM     54  C   UNL A   1      46.806  29.998  27.032  1.00  0.00     0.031 C 
ATOM     55  C   UNL A   1      42.304  32.637  30.149  1.00  0.00     0.029 A 
ATOM     56  C   UNL A   1      43.053  31.722  29.427  1.00  0.00     0.049 A 
ATOM     57  H   UNL A   1      42.520  29.775  28.804  1.00  0.00     0.167 HD
ATOM     58  C   UNL A   1      45.066  30.902  28.224  1.00  0.00     0.074 A 
ATOM     59  C   UNL A   1      46.424  31.048  27.741  1.00  0.00     0.031 C 
ATOM     60  C   UNL A   1      44.397  31.861  28.917  1.00  0.00     0.034 A 
BRANCH  47  61
ATOM     61  C   UNL A   1      38.690  30.163  30.700  1.00  0.00     0.023 A 
ATOM     62  C   UNL A   1      37.650  30.872  30.071  1.00  0.00     0.031 A 
ATOM     63  C   UNL A   1      38.521  29.810  32.051  1.00  0.00     0.131 A 
ATOM     64  C   UNL A   1      36.521  31.260  30.809  1.00  0.00     0.055 A 
ATOM     65  C   UNL A   1      37.361  30.133  32.758  1.00  0.00     0.041 A 
ATOM     66  F   UNL A   1      39.486  29.152  32.711  1.00  0.00    -0.206 F 
ATOM     67  C   UNL A   1      36.359  30.875  32.142  1.00  0.00     0.022 A 
BRANCH  64  68
ATOM     68  S   UNL A   1      35.320  32.384  30.042  1.00  0.00     0.124 S 
ATOM     69  O   UNL A   1      34.860  31.593  28.905  1.00  0.00    -0.237 OA
ATOM     70  O   UNL A   1      34.352  32.590  31.113  1.00  0.00    -0.237 OA
ATOM     71  O   UNL A   1      36.121  33.557  29.694  1.00  0.00    -0.744 OA
ENDBRANCH  64  68
ENDBRANCH  47  61
BRANCH  48  72
ATOM     72  C   UNL A   1      46.948  27.377  25.718  1.00  0.00     0.023 A 
ATOM     73  C   UNL A   1      47.106  27.778  24.382  1.00  0.00     0.031 A 
ATOM     74  C   UNL A   1      47.942  26.553  26.279  1.00  0.00     0.131 A 
ATOM     75  C   UNL A   1      48.207  27.320  23.640  1.00  0.00     0.055 A 
ATOM     76  C   UNL A   1      49.064  26.148  25.556  1.00  0.00     0.041 A 
ATOM     77  F   UNL A   1      47.840  26.136  27.552  1.00  0.00    -0.206 F 
ATOM     78  C   UNL A   1      49.193  26.520  24.222  1.00  0.00     0.022 A 
BRANCH  75  79
ATOM     79  S   UNL A   1      48.285  27.708  21.870  1.00  0.00     0.124 S 
ATOM     80  O   UNL A   1      49.443  28.593  21.809  1.00  0.00    -0.237 OA
ATOM     81  O   UNL A   1      48.458  26.385  21.278  1.00  0.00    -0.237 OA
ATOM     82  O   UNL A   1      46.997  28.343  21.602  1.00  0.00    -0.744 OA
ENDBRANCH  75  79
ENDBRANCH  48  72
BRANCH  60  83
ATOM     83  C   UNL A   1      45.153  33.136  29.205  1.00  0.00     0.023 A 
ATOM     84  C   UNL A   1      45.056  34.257  28.361  1.00  0.00     0.031 A 
ATOM     85  C   UNL A   1      46.021  33.214  30.308  1.00  0.00     0.131 A 
ATOM     86  C   UNL A   1      45.873  35.376  28.586  1.00  0.00     0.055 A 
ATOM     87  C   UNL A   1      46.781  34.356  30.566  1.00  0.00     0.041 A 
ATOM     88  F   UNL A   1      46.157  32.175  31.147  1.00  0.00    -0.206 F 
ATOM     89  C   UNL A   1      46.724  35.438  29.692  1.00  0.00     0.022 A 
BRANCH  86  90
ATOM     90  S   UNL A   1      45.901  36.695  27.342  1.00  0.00     0.124 S 
ATOM     91  O   UNL A   1      46.433  37.820  28.104  1.00  0.00    -0.237 OA
ATOM     92  O   UNL A   1      46.785  36.142  26.321  1.00  0.00    -0.237 OA
ATOM     93  O   UNL A   1      44.500  36.822  26.945  1.00  0.00    -0.744 OA
ENDBRANCH  86  90
ENDBRANCH  60  83
ENDBRANCH  34  35
ENDBRANCH  27  29
ENDBRANCH  26  27
ENDBRANCH  25  26
ENDBRANCH   1  25
TORSDOF 20
ENDMDL
MODEL 2
REMARK VINA RESULT:     -10.9      5.215      9.945
REMARK SMILES CC(C)C[C@H](CNC(=O)NC[C@H]1CCC(=O)N1)C(=O)OCCOC(=O)c1ccc(-c2c3nc(c(-c4cc(S(=O)(=O)[O-])ccc4F)c4ccc([nH]4)c(-c4cc(S(=O)(=O)[O-])ccc4F)c4nc(c(-c5cc(S(=O)(=O)[O-])ccc5F)c5ccc2[nH]5)C=C4)C=C3)cc1
REMARK SMILES IDX 21 1 20 2 18 3 19 4 5 5 4 6 2 7 1 8 3 9 6 10 7 11 8 12 9 14
REMARK SMILES IDX 10 15 11 17 12 18 13 19 17 20 14 21 15 22 16 24 22 25 23 26
REMARK SMILES IDX 24 27 25 28 26 29 27 30 88 31 28 32 87 33 29 34 30 35 31 36
REMARK SMILES IDX 81 37 32 38 86 39 80 40 82 41 33 42 85 43 79 44 78 45 34 47
REMARK SMILES IDX 66 48 46 49 65 50 47 51 50 52 64 53 83 54 48 55 49 56 63 58
REMARK SMILES IDX 84 59 51 60 35 61 36 62 44 63 37 64 43 65 45 66 42 67 38 68
REMARK SMILES IDX 39 69 40 70 41 71 67 72 68 73 76 74 69 75 75 76 77 77 74 78
REMARK SMILES IDX 70 79 71 80 72 81 73 82 52 83 53 84 61 85 54 86 60 87 62 88
REMARK SMILES IDX 59 89 55 90 56 91 57 92 58 93
REMARK H PARENT 7 13 10 16 17 23 82 46 50 57
REMARK Flexibility Score: inf
ROOT
ATOM      1  C   UNL A   1      31.564  28.364  26.441  1.00  0.00     0.274 C 
ENDROOT
BRANCH   1   2
ATOM      2  O   UNL A   1      32.725  27.537  26.668  1.00  0.00    -0.462 OA
BRANCH   2   3
ATOM      3  C   UNL A   1      33.078  26.748  25.621  1.00  0.00     0.310 C 
ATOM      4  O   UNL A   1      34.187  26.770  25.097  1.00  0.00    -0.252 OA
BRANCH   3   5
ATOM      5  C   UNL A   1      31.951  25.880  25.084  1.00  0.00     0.119 C 
BRANCH   5   6
ATOM      6  C   UNL A   1      32.432  24.416  25.011  1.00  0.00     0.020 C 
BRANCH   6   7
ATOM      7  C   UNL A   1      31.816  23.483  26.086  1.00  0.00    -0.017 C 
ATOM      8  C   UNL A   1      30.402  23.904  26.504  1.00  0.00     0.007 C 
ATOM      9  C   UNL A   1      31.797  22.039  25.587  1.00  0.00     0.007 C 
ENDBRANCH   6   7
ENDBRANCH   5   6
BRANCH   5  10
ATOM     10  C   UNL A   1      31.330  26.370  23.762  1.00  0.00     0.133 C 
BRANCH  10  11
ATOM     11  N   UNL A   1      32.247  27.253  23.044  1.00  0.00    -0.337 N 
ATOM     12  C   UNL A   1      32.352  28.564  22.817  1.00  0.00     0.314 C 
ATOM     13  H   UNL A   1      32.977  26.749  22.618  1.00  0.00     0.165 HD
ATOM     14  O   UNL A   1      33.428  28.979  22.387  1.00  0.00    -0.249 OA
ATOM     15  N   UNL A   1      31.382  29.453  23.026  1.00  0.00    -0.336 N 
ATOM     16  H   UNL A   1      31.694  30.386  23.004  1.00  0.00     0.165 HD
BRANCH  15  17
ATOM     17  C   UNL A   1      29.967  29.327  23.278  1.00  0.00     0.142 C 
BRANCH  17  18
ATOM     18  C   UNL A   1      29.115  30.038  22.213  1.00  0.00     0.101 C 
ATOM     19  C   UNL A   1      27.658  30.195  22.652  1.00  0.00     0.036 C 
ATOM     20  N   UNL A   1      29.523  31.410  22.038  1.00  0.00    -0.352 N 
ATOM     21  C   UNL A   1      27.653  31.508  23.434  1.00  0.00     0.102 C 
ATOM     22  C   UNL A   1      28.742  32.297  22.750  1.00  0.00     0.220 C 
ATOM     23  H   UNL A   1      30.280  31.684  21.470  1.00  0.00     0.163 HD
ATOM     24  O   UNL A   1      28.939  33.492  22.834  1.00  0.00    -0.275 OA
ENDBRANCH  17  18
ENDBRANCH  15  17
ENDBRANCH  10  11
ENDBRANCH   5  10
ENDBRANCH   3   5
ENDBRANCH   2   3
ENDBRANCH   1   2
BRANCH   1  25
ATOM     25  C   UNL A   1      31.768  29.810  26.905  1.00  0.00     0.275 C 
BRANCH  25  26
ATOM     26  O   UNL A   1      33.023  30.335  26.432  1.00  0.00    -0.458 OA
BRANCH  26  27
ATOM     27  C   UNL A   1      33.534  31.376  27.131  1.00  0.00     0.338 C 
ATOM     28  O   UNL A   1      33.000  32.455  27.326  1.00  0.00    -0.246 OA
BRANCH  27  29
ATOM     29  C   UNL A   1      34.851  31.014  27.683  1.00  0.00     0.060 A 
ATOM     30  C   UNL A   1      35.096  29.685  28.027  1.00  0.00     0.016 A 
ATOM     31  C   UNL A   1      35.789  31.999  27.988  1.00  0.00     0.016 A 
ATOM     32  C   UNL A   1      36.270  29.330  28.687  1.00  0.00     0.010 A 
ATOM     33  C   UNL A   1      36.982  31.640  28.633  1.00  0.00     0.010 A 
ATOM     34  C   UNL A   1      37.222  30.305  29.005  1.00  0.00    -0.014 A 
BRANCH  34  35
ATOM     35  C   UNL A   1      38.425  29.919  29.790  1.00  0.00     0.031 A 
ATOM     36  C   UNL A   1      39.404  28.926  29.223  1.00  0.00     0.074 A 
ATOM     37  C   UNL A   1      38.668  30.504  30.980  1.00  0.00     0.049 A 
ATOM     38  N   UNL A   1      40.477  28.413  29.769  1.00  0.00    -0.248 NA
ATOM     39  C   UNL A   1      39.134  28.445  27.859  1.00  0.00     0.031 C 
ATOM     40  C   UNL A   1      37.817  31.518  31.605  1.00  0.00     0.029 A 
ATOM     41  N   UNL A   1      39.700  30.340  31.869  1.00  0.00    -0.354 N 
ATOM     42  C   UNL A   1      41.006  27.540  28.824  1.00  0.00     0.074 A 
ATOM     43  C   UNL A   1      40.113  27.569  27.683  1.00  0.00     0.031 C 
ATOM     44  C   UNL A   1      38.367  31.892  32.771  1.00  0.00     0.029 A 
ATOM     45  C   UNL A   1      39.574  31.106  33.006  1.00  0.00     0.049 A 
ATOM     46  H   UNL A   1      40.457  29.731  31.709  1.00  0.00     0.167 HD
ATOM     47  C   UNL A   1      42.136  26.791  28.898  1.00  0.00     0.034 A 
ATOM     48  C   UNL A   1      40.329  31.146  34.123  1.00  0.00     0.034 A 
ATOM     49  C   UNL A   1      43.014  26.776  30.046  1.00  0.00     0.049 A 
ATOM     50  C   UNL A   1      41.547  30.260  34.206  1.00  0.00     0.074 A 
ATOM     51  C   UNL A   1      44.169  26.036  30.242  1.00  0.00     0.029 A 
ATOM     52  N   UNL A   1      42.838  27.539  31.194  1.00  0.00    -0.354 N 
ATOM     53  N   UNL A   1      42.010  29.406  33.322  1.00  0.00    -0.248 NA
ATOM     54  C   UNL A   1      42.346  30.351  35.434  1.00  0.00     0.031 C 
ATOM     55  C   UNL A   1      44.655  26.308  31.526  1.00  0.00     0.029 A 
ATOM     56  C   UNL A   1      43.849  27.273  32.108  1.00  0.00     0.049 A 
ATOM     57  H   UNL A   1      42.101  28.175  31.339  1.00  0.00     0.167 HD
ATOM     58  C   UNL A   1      43.164  28.869  33.884  1.00  0.00     0.074 A 
ATOM     59  C   UNL A   1      43.344  29.523  35.164  1.00  0.00     0.031 C 
ATOM     60  C   UNL A   1      44.000  27.917  33.393  1.00  0.00     0.034 A 
BRANCH  47  61
ATOM     61  C   UNL A   1      42.447  25.886  27.727  1.00  0.00     0.023 A 
ATOM     62  C   UNL A   1      41.897  24.596  27.615  1.00  0.00     0.031 A 
ATOM     63  C   UNL A   1      43.332  26.312  26.719  1.00  0.00     0.131 A 
ATOM     64  C   UNL A   1      42.287  23.758  26.559  1.00  0.00     0.055 A 
ATOM     65  C   UNL A   1      43.657  25.501  25.631  1.00  0.00     0.041 A 
ATOM     66  F   UNL A   1      43.906  27.524  26.782  1.00  0.00    -0.206 F 
ATOM     67  C   UNL A   1      43.145  24.210  25.553  1.00  0.00     0.022 A 
BRANCH  64  68
ATOM     68  S   UNL A   1      41.760  22.021  26.581  1.00  0.00     0.124 S 
ATOM     69  O   UNL A   1      42.411  21.501  25.382  1.00  0.00    -0.237 OA
ATOM     70  O   UNL A   1      42.288  21.547  27.854  1.00  0.00    -0.237 OA
ATOM     71  O   UNL A   1      40.302  22.103  26.503  1.00  0.00    -0.744 OA
ENDBRANCH  64  68
ENDBRANCH  47  61
BRANCH  48  72
ATOM     72  C   UNL A   1      39.927  32.005  35.275  1.00  0.00     0.023 A 
ATOM     73  C   UNL A   1      39.077  31.528  36.286  1.00  0.00     0.031 A 
ATOM     74  C   UNL A   1      40.350  33.345  35.350  1.00  0.00     0.131 A 
ATOM     75  C   UNL A   1      38.643  32.395  37.301  1.00  0.00     0.055 A 
ATOM     76  C   UNL A   1      39.964  34.186  36.394  1.00  0.00     0.041 A 
ATOM     77  F   UNL A   1      41.160  33.856  34.408  1.00  0.00    -0.206 F 
ATOM     78  C   UNL A   1      39.092  33.715  37.371  1.00  0.00     0.022 A 
BRANCH  75  79
ATOM     79  S   UNL A   1      37.405  31.798  38.486  1.00  0.00     0.124 S 
ATOM     80  O   UNL A   1      38.101  31.967  39.756  1.00  0.00    -0.237 OA
ATOM     81  O   UNL A   1      36.289  32.705  38.240  1.00  0.00    -0.237 OA
ATOM     82  O   UNL A   1      37.181  30.413  38.075  1.00  0.00    -0.744 OA
ENDBRANCH  75  79
ENDBRANCH  48  72
BRANCH  60  83
ATOM     83  C   UNL A   1      45.193  27.559  34.247  1.00  0.00     0.023 A 
ATOM     84  C   UNL A   1      45.074  26.705  35.357  1.00  0.00     0.031 A 
ATOM     85  C   UNL A   1      46.453  28.122  33.978  1.00  0.00     0.131 A 
ATOM     86  C   UNL A   1      46.174  26.500  36.204  1.00  0.00     0.055 A 
ATOM     87  C   UNL A   1      47.561  27.860  34.785  1.00  0.00     0.041 A 
ATOM     88  F   UNL A   1      46.626  28.947  32.933  1.00  0.00    -0.206 F 
ATOM     89  C   UNL A   1      47.421  27.061  35.917  1.00  0.00     0.022 A 
BRANCH  86  90
ATOM     90  S   UNL A   1      45.920  25.596  37.756  1.00  0.00     0.124 S 
ATOM     91  O   UNL A   1      47.014  26.095  38.582  1.00  0.00    -0.237 OA
ATOM     92  O   UNL A   1      44.580  26.020  38.148  1.00  0.00    -0.237 OA
ATOM     93  O   UNL A   1      46.034  24.194  37.358  1.00  0.00    -0.744 OA
ENDBRANCH  86  90
ENDBRANCH  60  83
ENDBRANCH  34  35
ENDBRANCH  27  29
ENDBRANCH  26  27
ENDBRANCH  25  26
ENDBRANCH   1  25
TORSDOF 20
ENDMDL
MODEL 3
REMARK VINA RESULT:     -10.8      5.174      7.903
REMARK SMILES CC(C)C[C@H](CNC(=O)NC[C@H]1CCC(=O)N1)C(=O)OCCOC(=O)c1ccc(-c2c3nc(c(-c4cc(S(=O)(=O)[O-])ccc4F)c4ccc([nH]4)c(-c4cc(S(=O)(=O)[O-])ccc4F)c4nc(c(-c5cc(S(=O)(=O)[O-])ccc5F)c5ccc2[nH]5)C=C4)C=C3)cc1
REMARK SMILES IDX 21 1 20 2 18 3 19 4 5 5 4 6 2 7 1 8 3 9 6 10 7 11 8 12 9 14
REMARK SMILES IDX 10 15 11 17 12 18 13 19 17 20 14 21 15 22 16 24 22 25 23 26
REMARK SMILES IDX 24 27 25 28 26 29 27 30 88 31 28 32 87 33 29 34 30 35 31 36
REMARK SMILES IDX 81 37 32 38 86 39 80 40 82 41 33 42 85 43 79 44 78 45 34 47
REMARK SMILES IDX 66 48 46 49 65 50 47 51 50 52 64 53 83 54 48 55 49 56 63 58
REMARK SMILES IDX 84 59 51 60 35 61 36 62 44 63 37 64 43 65 45 66 42 67 38 68
REMARK SMILES IDX 39 69 40 70 41 71 67 72 68 73 76 74 69 75 75 76 77 77 74 78
REMARK SMILES IDX 70 79 71 80 72 81 73 82 52 83 53 84 61 85 54 86 60 87 62 88
REMARK SMILES IDX 59 89 55 90 56 91 57 92 58 93
REMARK H PARENT 7 13 10 16 17 23 82 46 50 57
REMARK Flexibility Score: inf
ROOT
ATOM      1  C   UNL A   1      31.848  29.887  26.893  1.00  0.00     0.274 C 
ENDROOT
BRANCH   1   2
ATOM      2  O   UNL A   1      31.701  28.666  26.138  1.00  0.00    -0.462 OA
BRANCH   2   3
ATOM      3  C   UNL A   1      31.373  27.574  26.876  1.00  0.00     0.310 C 
ATOM      4  O   UNL A   1      31.540  27.498  28.089  1.00  0.00    -0.252 OA
BRANCH   3   5
ATOM      5  C   UNL A   1      30.852  26.401  26.059  1.00  0.00     0.119 C 
BRANCH   5   6
ATOM      6  C   UNL A   1      31.986  25.372  25.873  1.00  0.00     0.020 C 
BRANCH   6   7
ATOM      7  C   UNL A   1      31.835  24.089  26.730  1.00  0.00    -0.017 C 
ATOM      8  C   UNL A   1      30.687  23.188  26.261  1.00  0.00     0.007 C 
ATOM      9  C   UNL A   1      33.141  23.297  26.733  1.00  0.00     0.007 C 
ENDBRANCH   6   7
ENDBRANCH   5   6
BRANCH   5  10
ATOM     10  C   UNL A   1      30.174  26.788  24.730  1.00  0.00     0.133 C 
BRANCH  10  11
ATOM     11  N   UNL A   1      31.158  26.935  23.659  1.00  0.00    -0.337 N 
ATOM     12  C   UNL A   1      31.760  27.945  23.028  1.00  0.00     0.314 C 
ATOM     13  H   UNL A   1      31.454  26.061  23.316  1.00  0.00     0.165 HD
ATOM     14  O   UNL A   1      32.753  27.677  22.351  1.00  0.00    -0.249 OA
ATOM     15  N   UNL A   1      31.369  29.217  23.080  1.00  0.00    -0.336 N 
ATOM     16  H   UNL A   1      32.039  29.848  22.731  1.00  0.00     0.165 HD
BRANCH  15  17
ATOM     17  C   UNL A   1      30.164  29.859  23.546  1.00  0.00     0.142 C 
BRANCH  17  18
ATOM     18  C   UNL A   1      29.276  30.350  22.390  1.00  0.00     0.101 C 
ATOM     19  C   UNL A   1      27.789  30.300  22.745  1.00  0.00     0.036 C 
ATOM     20  N   UNL A   1      29.473  31.755  22.131  1.00  0.00    -0.352 N 
ATOM     21  C   UNL A   1      27.530  31.645  23.423  1.00  0.00     0.102 C 
ATOM     22  C   UNL A   1      28.521  32.551  22.734  1.00  0.00     0.220 C 
ATOM     23  H   UNL A   1      30.210  32.109  21.581  1.00  0.00     0.163 HD
ATOM     24  O   UNL A   1      28.522  33.765  22.736  1.00  0.00    -0.275 OA
ENDBRANCH  17  18
ENDBRANCH  15  17
ENDBRANCH  10  11
ENDBRANCH   5  10
ENDBRANCH   3   5
ENDBRANCH   2   3
ENDBRANCH   1   2
BRANCH   1  25
ATOM     25  C   UNL A   1      33.214  30.550  26.683  1.00  0.00     0.275 C 
BRANCH  25  26
ATOM     26  O   UNL A   1      33.939  30.650  27.923  1.00  0.00    -0.458 OA
BRANCH  26  27
ATOM     27  C   UNL A   1      34.915  31.587  27.969  1.00  0.00     0.338 C 
ATOM     28  O   UNL A   1      34.849  32.730  27.549  1.00  0.00    -0.246 OA
BRANCH  27  29
ATOM     29  C   UNL A   1      36.101  31.045  28.655  1.00  0.00     0.060 A 
ATOM     30  C   UNL A   1      37.323  31.702  28.512  1.00  0.00     0.016 A 
ATOM     31  C   UNL A   1      36.039  29.823  29.322  1.00  0.00     0.016 A 
ATOM     32  C   UNL A   1      38.492  31.142  29.022  1.00  0.00     0.010 A 
ATOM     33  C   UNL A   1      37.212  29.267  29.855  1.00  0.00     0.010 A 
ATOM     34  C   UNL A   1      38.450  29.914  29.691  1.00  0.00    -0.014 A 
BRANCH  34  35
ATOM     35  C   UNL A   1      39.721  29.290  30.146  1.00  0.00     0.031 A 
ATOM     36  C   UNL A   1      40.398  29.790  31.395  1.00  0.00     0.074 A 
ATOM     37  C   UNL A   1      40.232  28.239  29.474  1.00  0.00     0.049 A 
ATOM     38  N   UNL A   1      41.537  29.424  31.925  1.00  0.00    -0.248 NA
ATOM     39  C   UNL A   1      39.696  30.844  32.142  1.00  0.00     0.031 C 
ATOM     40  C   UNL A   1      39.637  27.635  28.281  1.00  0.00     0.029 A 
ATOM     41  N   UNL A   1      41.359  27.489  29.701  1.00  0.00    -0.354 N 
ATOM     42  C   UNL A   1      41.698  30.211  33.062  1.00  0.00     0.074 A 
ATOM     43  C   UNL A   1      40.553  31.096  33.121  1.00  0.00     0.031 C 
ATOM     44  C   UNL A   1      40.398  26.602  27.887  1.00  0.00     0.029 A 
ATOM     45  C   UNL A   1      41.564  26.505  28.760  1.00  0.00     0.049 A 
ATOM     46  H   UNL A   1      41.963  27.640  30.463  1.00  0.00     0.167 HD
ATOM     47  C   UNL A   1      42.703  30.189  33.974  1.00  0.00     0.034 A 
ATOM     48  C   UNL A   1      42.590  25.645  28.601  1.00  0.00     0.034 A 
ATOM     49  C   UNL A   1      43.837  29.297  33.896  1.00  0.00     0.049 A 
ATOM     50  C   UNL A   1      43.725  25.680  29.593  1.00  0.00     0.074 A 
ATOM     51  C   UNL A   1      44.927  29.206  34.748  1.00  0.00     0.029 A 
ATOM     52  N   UNL A   1      44.030  28.336  32.910  1.00  0.00    -0.354 N 
ATOM     53  N   UNL A   1      43.885  26.460  30.639  1.00  0.00    -0.248 NA
ATOM     54  C   UNL A   1      44.810  24.713  29.389  1.00  0.00     0.031 C 
ATOM     55  C   UNL A   1      45.800  28.235  34.244  1.00  0.00     0.029 A 
ATOM     56  C   UNL A   1      45.226  27.664  33.120  1.00  0.00     0.049 A 
ATOM     57  H   UNL A   1      43.407  28.159  32.168  1.00  0.00     0.167 HD
ATOM     58  C   UNL A   1      45.085  26.066  31.223  1.00  0.00     0.074 A 
ATOM     59  C   UNL A   1      45.585  24.957  30.435  1.00  0.00     0.031 C 
ATOM     60  C   UNL A   1      45.723  26.576  32.309  1.00  0.00     0.034 A 
BRANCH  47  61
ATOM     61  C   UNL A   1      42.643  31.199  35.097  1.00  0.00     0.023 A 
ATOM     62  C   UNL A   1      43.045  32.536  34.920  1.00  0.00     0.031 A 
ATOM     63  C   UNL A   1      42.202  30.811  36.376  1.00  0.00     0.131 A 
ATOM     64  C   UNL A   1      43.060  33.414  36.014  1.00  0.00     0.055 A 
ATOM     65  C   UNL A   1      42.147  31.710  37.442  1.00  0.00     0.041 A 
ATOM     66  F   UNL A   1      41.825  29.544  36.613  1.00  0.00    -0.206 F 
ATOM     67  C   UNL A   1      42.591  33.017  37.269  1.00  0.00     0.022 A 
BRANCH  64  68
ATOM     68  S   UNL A   1      43.819  35.050  35.812  1.00  0.00     0.124 S 
ATOM     69  O   UNL A   1      44.476  34.911  34.516  1.00  0.00    -0.237 OA
ATOM     70  O   UNL A   1      42.665  35.941  35.853  1.00  0.00    -0.237 OA
ATOM     71  O   UNL A   1      44.725  35.153  36.955  1.00  0.00    -0.744 OA
ENDBRANCH  64  68
ENDBRANCH  47  61
BRANCH  48  72
ATOM     72  C   UNL A   1      42.627  24.722  27.428  1.00  0.00     0.023 A 
ATOM     73  C   UNL A   1      42.048  23.443  27.482  1.00  0.00     0.031 A 
ATOM     74  C   UNL A   1      43.294  25.092  26.246  1.00  0.00     0.131 A 
ATOM     75  C   UNL A   1      42.186  22.568  26.393  1.00  0.00     0.055 A 
ATOM     76  C   UNL A   1      43.377  24.240  25.145  1.00  0.00     0.041 A 
ATOM     77  F   UNL A   1      43.869  26.302  26.141  1.00  0.00    -0.206 F 
ATOM     78  C   UNL A   1      42.834  22.962  25.221  1.00  0.00     0.022 A 
BRANCH  75  79
ATOM     79  S   UNL A   1      41.586  20.864  26.565  1.00  0.00     0.124 S 
ATOM     80  O   UNL A   1      40.140  21.052  26.530  1.00  0.00    -0.237 OA
ATOM     81  O   UNL A   1      42.177  20.216  25.399  1.00  0.00    -0.237 OA
ATOM     82  O   UNL A   1      42.130  20.439  27.853  1.00  0.00    -0.744 OA
ENDBRANCH  75  79
ENDBRANCH  48  72
BRANCH  60  83
ATOM     83  C   UNL A   1      47.017  25.906  32.708  1.00  0.00     0.023 A 
ATOM     84  C   UNL A   1      47.045  24.858  33.645  1.00  0.00     0.031 A 
ATOM     85  C   UNL A   1      48.241  26.358  32.185  1.00  0.00     0.131 A 
ATOM     86  C   UNL A   1      48.275  24.349  34.090  1.00  0.00     0.055 A 
ATOM     87  C   UNL A   1      49.458  25.802  32.581  1.00  0.00     0.041 A 
ATOM     88  F   UNL A   1      48.275  27.358  31.290  1.00  0.00    -0.206 F 
ATOM     89  C   UNL A   1      49.482  24.805  33.553  1.00  0.00     0.022 A 
BRANCH  86  90
ATOM     90  S   UNL A   1      48.282  23.176  35.473  1.00  0.00     0.124 S 
ATOM     91  O   UNL A   1      48.645  21.928  34.811  1.00  0.00    -0.237 OA
ATOM     92  O   UNL A   1      49.292  23.745  36.359  1.00  0.00    -0.237 OA
ATOM     93  O   UNL A   1      46.911  23.235  35.978  1.00  0.00    -0.744 OA
ENDBRANCH  86  90
ENDBRANCH  60  83
ENDBRANCH  34  35
ENDBRANCH  27  29
ENDBRANCH  26  27
ENDBRANCH  25  26
ENDBRANCH   1  25
TORSDOF 20
ENDMDL
