MODEL 1
REMARK VINA RESULT:     -11.5      0.000      0.000
REMARK SMILES O=C(Cc1ccc(Br)cc1)Nc1ccc(CC(=O)OCCOC(=O)c2ccc(-c3c4nc(c(-c5cc(S(=O)(=O)[O-])ccc5F)c5ccc([nH]5)c(-c5cc(S(=O)(=O)[O-])ccc5F)c5nc(c(-c6cc(S(=O)(=O)[O-])ccc6F)c6ccc3[nH]6)C=C5)C=C4)cc2)cc1
REMARK SMILES IDX 20 1 19 2 17 3 18 4 16 5 15 6 12 7 13 8 89 9 14 10 88 11
REMARK SMILES IDX 11 12 1 13 2 14 3 16 4 17 5 18 10 19 6 20 9 21 7 22 8 23
REMARK SMILES IDX 21 24 22 25 23 26 24 27 25 28 26 29 87 30 27 31 86 32 28 33
REMARK SMILES IDX 29 34 30 35 80 36 31 37 85 38 79 39 81 40 32 41 84 42 78 43
REMARK SMILES IDX 77 44 33 46 65 47 45 48 64 49 46 50 49 51 63 52 82 53 47 54
REMARK SMILES IDX 48 55 62 57 83 58 50 59 34 60 35 61 43 62 36 63 42 64 44 65
REMARK SMILES IDX 41 66 37 67 38 68 39 69 40 70 66 71 67 72 75 73 68 74 74 75
REMARK SMILES IDX 76 76 73 77 69 78 70 79 71 80 72 81 51 82 52 83 60 84 53 85
REMARK SMILES IDX 59 86 61 87 58 88 54 89 55 90 56 91 57 92
REMARK H PARENT 11 15 81 45 49 56
REMARK Flexibility Score: inf
ROOT
ATOM      1  C   UNL A   1      31.044  31.219  25.668  1.00  0.00     0.274 C 
ENDROOT
BRANCH   1   2
ATOM      2  O   UNL A   1      32.057  30.203  25.811  1.00  0.00    -0.462 OA
BRANCH   2   3
ATOM      3  C   UNL A   1      32.209  29.379  24.740  1.00  0.00     0.310 C 
ATOM      4  O   UNL A   1      33.275  29.178  24.167  1.00  0.00    -0.252 OA
BRANCH   3   5
ATOM      5  C   UNL A   1      30.917  28.783  24.238  1.00  0.00     0.158 C 
BRANCH   5   6
ATOM      6  C   UNL A   1      30.881  27.306  23.919  1.00  0.00    -0.037 A 
ATOM      7  C   UNL A   1      31.074  24.540  23.343  1.00  0.00     0.041 A 
ATOM      8  C   UNL A   1      30.629  24.980  24.593  1.00  0.00     0.026 A 
ATOM      9  C   UNL A   1      31.402  25.492  22.378  1.00  0.00     0.026 A 
ATOM     10  C   UNL A   1      30.537  26.348  24.881  1.00  0.00     0.006 A 
ATOM     11  C   UNL A   1      31.309  26.859  22.664  1.00  0.00     0.006 A 
BRANCH   7  12
ATOM     12  N   UNL A   1      31.123  23.148  23.118  1.00  0.00    -0.326 N 
ATOM     13  O   UNL A   1      33.408  22.759  22.919  1.00  0.00    -0.274 OA
ATOM     14  C   UNL A   1      32.240  22.387  22.825  1.00  0.00     0.228 C 
ATOM     15  H   UNL A   1      30.267  22.667  23.176  1.00  0.00     0.169 HD
BRANCH  14  16
ATOM     16  C   UNL A   1      31.927  21.038  22.196  1.00  0.00     0.135 C 
BRANCH  16  17
ATOM     17  C   UNL A   1      32.303  19.809  22.985  1.00  0.00    -0.039 A 
ATOM     18  C   UNL A   1      32.525  19.896  24.367  1.00  0.00     0.005 A 
ATOM     19  C   UNL A   1      32.490  18.574  22.343  1.00  0.00     0.005 A 
ATOM     20  C   UNL A   1      32.954  18.779  25.088  1.00  0.00     0.016 A 
ATOM     21  C   UNL A   1      32.900  17.453  23.067  1.00  0.00     0.016 A 
ATOM     22  C   UNL A   1      33.143  17.563  24.434  1.00  0.00     0.017 A 
ATOM     23  Br  UNL A   1      33.765  16.063  25.401  1.00  0.00    -0.051 Br
ENDBRANCH  16  17
ENDBRANCH  14  16
ENDBRANCH   7  12
ENDBRANCH   5   6
ENDBRANCH   3   5
ENDBRANCH   2   3
ENDBRANCH   1   2
BRANCH   1  24
ATOM     24  C   UNL A   1      31.401  32.464  26.475  1.00  0.00     0.275 C 
BRANCH  24  25
ATOM     25  O   UNL A   1      32.361  32.131  27.492  1.00  0.00    -0.458 OA
BRANCH  25  26
ATOM     26  C   UNL A   1      33.376  33.009  27.649  1.00  0.00     0.338 C 
ATOM     27  O   UNL A   1      33.363  34.208  27.430  1.00  0.00    -0.246 OA
BRANCH  26  28
ATOM     28  C   UNL A   1      34.564  32.298  28.145  1.00  0.00     0.060 A 
ATOM     29  C   UNL A   1      34.475  30.949  28.492  1.00  0.00     0.016 A 
ATOM     30  C   UNL A   1      35.739  33.015  28.376  1.00  0.00     0.016 A 
ATOM     31  C   UNL A   1      35.549  30.323  29.122  1.00  0.00     0.010 A 
ATOM     32  C   UNL A   1      36.834  32.370  28.955  1.00  0.00     0.010 A 
ATOM     33  C   UNL A   1      36.738  31.028  29.361  1.00  0.00    -0.014 A 
BRANCH  33  34
ATOM     34  C   UNL A   1      37.865  30.377  30.079  1.00  0.00     0.031 A 
ATOM     35  C   UNL A   1      38.096  30.671  31.537  1.00  0.00     0.074 A 
ATOM     36  C   UNL A   1      38.679  29.527  29.424  1.00  0.00     0.049 A 
ATOM     37  N   UNL A   1      39.078  30.294  32.315  1.00  0.00    -0.248 NA
ATOM     38  C   UNL A   1      37.090  31.512  32.202  1.00  0.00     0.031 C 
ATOM     39  C   UNL A   1      38.542  29.142  28.018  1.00  0.00     0.029 A 
ATOM     40  N   UNL A   1      39.785  28.839  29.854  1.00  0.00    -0.354 N 
ATOM     41  C   UNL A   1      38.824  30.871  33.556  1.00  0.00     0.074 A 
ATOM     42  C   UNL A   1      37.608  31.646  33.414  1.00  0.00     0.031 C 
ATOM     43  C   UNL A   1      39.523  28.281  27.704  1.00  0.00     0.029 A 
ATOM     44  C   UNL A   1      40.385  28.094  28.867  1.00  0.00     0.049 A 
ATOM     45  H   UNL A   1      40.117  28.874  30.779  1.00  0.00     0.167 HD
ATOM     46  C   UNL A   1      39.536  30.759  34.706  1.00  0.00     0.034 A 
ATOM     47  C   UNL A   1      41.520  27.367  28.886  1.00  0.00     0.034 A 
ATOM     48  C   UNL A   1      40.742  29.975  34.833  1.00  0.00     0.049 A 
ATOM     49  C   UNL A   1      42.316  27.291  30.162  1.00  0.00     0.074 A 
ATOM     50  C   UNL A   1      41.536  29.787  35.952  1.00  0.00     0.029 A 
ATOM     51  N   UNL A   1      41.331  29.250  33.805  1.00  0.00    -0.354 N 
ATOM     52  N   UNL A   1      42.077  27.861  31.322  1.00  0.00    -0.248 NA
ATOM     53  C   UNL A   1      43.533  26.470  30.132  1.00  0.00     0.031 C 
ATOM     54  C   UNL A   1      42.631  28.993  35.587  1.00  0.00     0.029 A 
ATOM     55  C   UNL A   1      42.488  28.632  34.257  1.00  0.00     0.049 A 
ATOM     56  H   UNL A   1      40.978  29.184  32.888  1.00  0.00     0.167 HD
ATOM     57  C   UNL A   1      43.109  27.454  32.162  1.00  0.00     0.074 A 
ATOM     58  C   UNL A   1      43.957  26.574  31.383  1.00  0.00     0.031 C 
ATOM     59  C   UNL A   1      43.336  27.775  33.461  1.00  0.00     0.034 A 
BRANCH  46  60
ATOM     60  C   UNL A   1      39.050  31.550  35.896  1.00  0.00     0.023 A 
ATOM     61  C   UNL A   1      38.324  30.951  36.940  1.00  0.00     0.031 A 
ATOM     62  C   UNL A   1      39.283  32.936  35.967  1.00  0.00     0.131 A 
ATOM     63  C   UNL A   1      37.795  31.745  37.970  1.00  0.00     0.055 A 
ATOM     64  C   UNL A   1      38.818  33.707  37.034  1.00  0.00     0.041 A 
ATOM     65  F   UNL A   1      39.952  33.567  34.988  1.00  0.00    -0.206 F 
ATOM     66  C   UNL A   1      38.057  33.115  38.036  1.00  0.00     0.022 A 
BRANCH  63  67
ATOM     67  S   UNL A   1      36.641  30.984  39.145  1.00  0.00     0.124 S 
ATOM     68  O   UNL A   1      36.370  29.699  38.504  1.00  0.00    -0.237 OA
ATOM     69  O   UNL A   1      37.429  30.933  40.372  1.00  0.00    -0.237 OA
ATOM     70  O   UNL A   1      35.513  31.913  39.165  1.00  0.00    -0.744 OA
ENDBRANCH  63  67
ENDBRANCH  46  60
BRANCH  47  71
ATOM     71  C   UNL A   1      42.000  26.690  27.650  1.00  0.00     0.023 A 
ATOM     72  C   UNL A   1      41.850  25.306  27.476  1.00  0.00     0.031 A 
ATOM     73  C   UNL A   1      42.651  27.419  26.639  1.00  0.00     0.131 A 
ATOM     74  C   UNL A   1      42.378  24.687  26.333  1.00  0.00     0.055 A 
ATOM     75  C   UNL A   1      43.134  26.805  25.483  1.00  0.00     0.041 A 
ATOM     76  F   UNL A   1      42.816  28.746  26.758  1.00  0.00    -0.206 F 
ATOM     77  C   UNL A   1      43.009  25.428  25.330  1.00  0.00     0.022 A 
BRANCH  74  78
ATOM     78  S   UNL A   1      42.291  22.879  26.207  1.00  0.00     0.124 S 
ATOM     79  O   UNL A   1      43.038  22.461  27.388  1.00  0.00    -0.237 OA
ATOM     80  O   UNL A   1      40.852  22.642  26.241  1.00  0.00    -0.237 OA
ATOM     81  O   UNL A   1      42.937  22.596  24.927  1.00  0.00    -0.744 OA
ENDBRANCH  74  78
ENDBRANCH  47  71
BRANCH  59  82
ATOM     82  C   UNL A   1      44.535  27.138  34.115  1.00  0.00     0.023 A 
ATOM     83  C   UNL A   1      44.463  25.864  34.706  1.00  0.00     0.031 A 
ATOM     84  C   UNL A   1      45.755  27.831  34.184  1.00  0.00     0.131 A 
ATOM     85  C   UNL A   1      45.571  25.348  35.394  1.00  0.00     0.055 A 
ATOM     86  C   UNL A   1      46.872  27.290  34.822  1.00  0.00     0.041 A 
ATOM     87  F   UNL A   1      45.879  29.052  33.638  1.00  0.00    -0.206 F 
ATOM     88  C   UNL A   1      46.779  26.048  35.445  1.00  0.00     0.022 A 
BRANCH  85  89
ATOM     89  S   UNL A   1      45.384  23.793  36.307  1.00  0.00     0.124 S 
ATOM     90  O   UNL A   1      44.327  23.123  35.556  1.00  0.00    -0.237 OA
ATOM     91  O   UNL A   1      46.715  23.204  36.197  1.00  0.00    -0.237 OA
ATOM     92  O   UNL A   1      45.009  24.227  37.652  1.00  0.00    -0.744 OA
ENDBRANCH  85  89
ENDBRANCH  59  82
ENDBRANCH  33  34
ENDBRANCH  26  28
ENDBRANCH  25  26
ENDBRANCH  24  25
ENDBRANCH   1  24
TORSDOF 18
ENDMDL
MODEL 2
REMARK VINA RESULT:     -11.3      5.856     12.690
REMARK SMILES O=C(Cc1ccc(Br)cc1)Nc1ccc(CC(=O)OCCOC(=O)c2ccc(-c3c4nc(c(-c5cc(S(=O)(=O)[O-])ccc5F)c5ccc([nH]5)c(-c5cc(S(=O)(=O)[O-])ccc5F)c5nc(c(-c6cc(S(=O)(=O)[O-])ccc6F)c6ccc3[nH]6)C=C5)C=C4)cc2)cc1
REMARK SMILES IDX 20 1 19 2 17 3 18 4 16 5 15 6 12 7 13 8 89 9 14 10 88 11
REMARK SMILES IDX 11 12 1 13 2 14 3 16 4 17 5 18 10 19 6 20 9 21 7 22 8 23
REMARK SMILES IDX 21 24 22 25 23 26 24 27 25 28 26 29 87 30 27 31 86 32 28 33
REMARK SMILES IDX 29 34 30 35 80 36 31 37 85 38 79 39 81 40 32 41 84 42 78 43
REMARK SMILES IDX 77 44 33 46 65 47 45 48 64 49 46 50 49 51 63 52 82 53 47 54
REMARK SMILES IDX 48 55 62 57 83 58 50 59 34 60 35 61 43 62 36 63 42 64 44 65
REMARK SMILES IDX 41 66 37 67 38 68 39 69 40 70 66 71 67 72 75 73 68 74 74 75
REMARK SMILES IDX 76 76 73 77 69 78 70 79 71 80 72 81 51 82 52 83 60 84 53 85
REMARK SMILES IDX 59 86 61 87 58 88 54 89 55 90 56 91 57 92
REMARK H PARENT 11 15 81 45 49 56
REMARK Flexibility Score: inf
ROOT
ATOM      1  C   UNL A   1      42.295  19.144  26.283  1.00  0.00     0.274 C 
ENDROOT
BRANCH   1   2
ATOM      2  O   UNL A   1      42.842  19.364  24.968  1.00  0.00    -0.462 OA
BRANCH   2   3
ATOM      3  C   UNL A   1      44.187  19.556  24.921  1.00  0.00     0.310 C 
ATOM      4  O   UNL A   1      45.018  18.720  25.262  1.00  0.00    -0.252 OA
BRANCH   3   5
ATOM      5  C   UNL A   1      44.593  20.944  24.492  1.00  0.00     0.158 C 
BRANCH   5   6
ATOM      6  C   UNL A   1      44.900  21.969  25.559  1.00  0.00    -0.037 A 
ATOM      7  C   UNL A   1      45.546  23.689  27.713  1.00  0.00     0.041 A 
ATOM      8  C   UNL A   1      46.393  23.582  26.606  1.00  0.00     0.026 A 
ATOM      9  C   UNL A   1      44.365  22.947  27.726  1.00  0.00     0.026 A 
ATOM     10  C   UNL A   1      46.077  22.727  25.542  1.00  0.00     0.006 A 
ATOM     11  C   UNL A   1      44.048  22.095  26.662  1.00  0.00     0.006 A 
BRANCH   7  12
ATOM     12  N   UNL A   1      45.919  24.583  28.739  1.00  0.00    -0.326 N 
ATOM     13  O   UNL A   1      44.182  24.337  30.267  1.00  0.00    -0.274 OA
ATOM     14  C   UNL A   1      45.188  24.919  29.864  1.00  0.00     0.228 C 
ATOM     15  H   UNL A   1      46.799  25.014  28.643  1.00  0.00     0.169 HD
BRANCH  14  16
ATOM     16  C   UNL A   1      45.627  26.214  30.528  1.00  0.00     0.135 C 
BRANCH  16  17
ATOM     17  C   UNL A   1      44.644  26.873  31.465  1.00  0.00    -0.039 A 
ATOM     18  C   UNL A   1      44.952  27.018  32.825  1.00  0.00     0.005 A 
ATOM     19  C   UNL A   1      43.389  27.299  31.004  1.00  0.00     0.005 A 
ATOM     20  C   UNL A   1      44.013  27.551  33.712  1.00  0.00     0.016 A 
ATOM     21  C   UNL A   1      42.457  27.850  31.886  1.00  0.00     0.016 A 
ATOM     22  C   UNL A   1      42.768  27.962  33.239  1.00  0.00     0.017 A 
ATOM     23  Br  UNL A   1      41.482  28.642  34.445  1.00  0.00    -0.051 Br
ENDBRANCH  16  17
ENDBRANCH  14  16
ENDBRANCH   7  12
ENDBRANCH   5   6
ENDBRANCH   3   5
ENDBRANCH   2   3
ENDBRANCH   1   2
BRANCH   1  24
ATOM     24  C   UNL A   1      40.824  19.545  26.338  1.00  0.00     0.275 C 
BRANCH  24  25
ATOM     25  O   UNL A   1      40.683  20.802  27.022  1.00  0.00    -0.458 OA
BRANCH  25  26
ATOM     26  C   UNL A   1      39.698  21.608  26.568  1.00  0.00     0.338 C 
ATOM     27  O   UNL A   1      38.727  21.293  25.903  1.00  0.00    -0.246 OA
BRANCH  26  28
ATOM     28  C   UNL A   1      39.959  22.989  27.000  1.00  0.00     0.060 A 
ATOM     29  C   UNL A   1      39.456  24.059  26.258  1.00  0.00     0.016 A 
ATOM     30  C   UNL A   1      40.809  23.213  28.084  1.00  0.00     0.016 A 
ATOM     31  C   UNL A   1      39.846  25.361  26.567  1.00  0.00     0.010 A 
ATOM     32  C   UNL A   1      41.153  24.523  28.427  1.00  0.00     0.010 A 
ATOM     33  C   UNL A   1      40.699  25.605  27.654  1.00  0.00    -0.014 A 
BRANCH  33  34
ATOM     34  C   UNL A   1      41.157  26.987  27.952  1.00  0.00     0.031 A 
ATOM     35  C   UNL A   1      42.568  27.397  27.626  1.00  0.00     0.074 A 
ATOM     36  C   UNL A   1      40.310  27.870  28.516  1.00  0.00     0.049 A 
ATOM     37  N   UNL A   1      43.193  28.513  27.902  1.00  0.00    -0.248 NA
ATOM     38  C   UNL A   1      43.385  26.412  26.903  1.00  0.00     0.031 C 
ATOM     39  C   UNL A   1      38.912  27.599  28.854  1.00  0.00     0.029 A 
ATOM     40  N   UNL A   1      40.504  29.170  28.908  1.00  0.00    -0.354 N 
ATOM     41  C   UNL A   1      44.485  28.358  27.409  1.00  0.00     0.074 A 
ATOM     42  C   UNL A   1      44.557  27.027  26.843  1.00  0.00     0.031 C 
ATOM     43  C   UNL A   1      38.373  28.702  29.396  1.00  0.00     0.029 A 
ATOM     44  C   UNL A   1      39.397  29.737  29.492  1.00  0.00     0.049 A 
ATOM     45  H   UNL A   1      41.353  29.650  28.782  1.00  0.00     0.167 HD
ATOM     46  C   UNL A   1      45.512  29.245  27.423  1.00  0.00     0.034 A 
ATOM     47  C   UNL A   1      39.233  30.945  30.068  1.00  0.00     0.034 A 
ATOM     48  C   UNL A   1      45.422  30.573  27.984  1.00  0.00     0.049 A 
ATOM     49  C   UNL A   1      40.399  31.898  30.110  1.00  0.00     0.074 A 
ATOM     50  C   UNL A   1      46.396  31.554  28.044  1.00  0.00     0.029 A 
ATOM     51  N   UNL A   1      44.289  31.106  28.586  1.00  0.00    -0.354 N 
ATOM     52  N   UNL A   1      41.622  31.729  29.661  1.00  0.00    -0.248 NA
ATOM     53  C   UNL A   1      40.159  33.205  30.732  1.00  0.00     0.031 C 
ATOM     54  C   UNL A   1      45.870  32.658  28.728  1.00  0.00     0.029 A 
ATOM     55  C   UNL A   1      44.547  32.392  29.039  1.00  0.00     0.049 A 
ATOM     56  H   UNL A   1      43.427  30.639  28.678  1.00  0.00     0.167 HD
ATOM     57  C   UNL A   1      42.292  32.917  29.936  1.00  0.00     0.074 A 
ATOM     58  C   UNL A   1      41.332  33.799  30.568  1.00  0.00     0.031 C 
ATOM     59  C   UNL A   1      43.584  33.251  29.688  1.00  0.00     0.034 A 
BRANCH  46  60
ATOM     60  C   UNL A   1      46.833  28.779  26.861  1.00  0.00     0.023 A 
ATOM     61  C   UNL A   1      47.019  28.561  25.485  1.00  0.00     0.031 A 
ATOM     62  C   UNL A   1      47.913  28.509  27.722  1.00  0.00     0.131 A 
ATOM     63  C   UNL A   1      48.228  28.020  25.019  1.00  0.00     0.055 A 
ATOM     64  C   UNL A   1      49.138  28.043  27.242  1.00  0.00     0.041 A 
ATOM     65  F   UNL A   1      47.787  28.678  29.048  1.00  0.00    -0.206 F 
ATOM     66  C   UNL A   1      49.296  27.782  25.886  1.00  0.00     0.022 A 
BRANCH  63  67
ATOM     67  S   UNL A   1      48.333  27.500  23.284  1.00  0.00     0.124 S 
ATOM     68  O   UNL A   1      49.683  27.933  22.927  1.00  0.00    -0.237 OA
ATOM     69  O   UNL A   1      48.127  26.059  23.374  1.00  0.00    -0.237 OA
ATOM     70  O   UNL A   1      47.257  28.246  22.637  1.00  0.00    -0.744 OA
ENDBRANCH  63  67
ENDBRANCH  46  60
BRANCH  47  71
ATOM     71  C   UNL A   1      37.933  31.308  30.695  1.00  0.00     0.023 A 
ATOM     72  C   UNL A   1      36.963  32.033  29.987  1.00  0.00     0.031 A 
ATOM     73  C   UNL A   1      37.659  30.962  32.031  1.00  0.00     0.131 A 
ATOM     74  C   UNL A   1      35.778  32.424  30.629  1.00  0.00     0.055 A 
ATOM     75  C   UNL A   1      36.459  31.313  32.650  1.00  0.00     0.041 A 
ATOM     76  F   UNL A   1      38.553  30.266  32.750  1.00  0.00    -0.206 F 
ATOM     77  C   UNL A   1      35.514  32.059  31.952  1.00  0.00     0.022 A 
BRANCH  74  78
ATOM     78  S   UNL A   1      34.610  33.480  29.728  1.00  0.00     0.124 S 
ATOM     79  O   UNL A   1      35.506  34.437  29.089  1.00  0.00    -0.237 OA
ATOM     80  O   UNL A   1      33.957  32.523  28.842  1.00  0.00    -0.237 OA
ATOM     81  O   UNL A   1      33.762  34.027  30.785  1.00  0.00    -0.744 OA
ENDBRANCH  74  78
ENDBRANCH  47  71
BRANCH  59  82
ATOM     82  C   UNL A   1      44.008  34.644  30.077  1.00  0.00     0.023 A 
ATOM     83  C   UNL A   1      43.903  35.724  29.183  1.00  0.00     0.031 A 
ATOM     84  C   UNL A   1      44.562  34.886  31.346  1.00  0.00     0.131 A 
ATOM     85  C   UNL A   1      44.402  36.984  29.546  1.00  0.00     0.055 A 
ATOM     86  C   UNL A   1      45.008  36.154  31.722  1.00  0.00     0.041 A 
ATOM     87  F   UNL A   1      44.688  33.890  32.238  1.00  0.00    -0.206 F 
ATOM     88  C   UNL A   1      44.943  37.208  30.815  1.00  0.00     0.022 A 
BRANCH  85  89
ATOM     89  S   UNL A   1      44.428  38.303  28.303  1.00  0.00     0.124 S 
ATOM     90  O   UNL A   1      44.929  37.603  27.124  1.00  0.00    -0.237 OA
ATOM     91  O   UNL A   1      43.028  38.713  28.253  1.00  0.00    -0.237 OA
ATOM     92  O   UNL A   1      45.343  39.293  28.870  1.00  0.00    -0.744 OA
ENDBRANCH  85  89
ENDBRANCH  59  82
ENDBRANCH  33  34
ENDBRANCH  26  28
ENDBRANCH  25  26
ENDBRANCH  24  25
ENDBRANCH   1  24
TORSDOF 18
ENDMDL
MODEL 3
REMARK VINA RESULT:     -11.3      4.897      7.858
REMARK SMILES O=C(Cc1ccc(Br)cc1)Nc1ccc(CC(=O)OCCOC(=O)c2ccc(-c3c4nc(c(-c5cc(S(=O)(=O)[O-])ccc5F)c5ccc([nH]5)c(-c5cc(S(=O)(=O)[O-])ccc5F)c5nc(c(-c6cc(S(=O)(=O)[O-])ccc6F)c6ccc3[nH]6)C=C5)C=C4)cc2)cc1
REMARK SMILES IDX 20 1 19 2 17 3 18 4 16 5 15 6 12 7 13 8 89 9 14 10 88 11
REMARK SMILES IDX 11 12 1 13 2 14 3 16 4 17 5 18 10 19 6 20 9 21 7 22 8 23
REMARK SMILES IDX 21 24 22 25 23 26 24 27 25 28 26 29 87 30 27 31 86 32 28 33
REMARK SMILES IDX 29 34 30 35 80 36 31 37 85 38 79 39 81 40 32 41 84 42 78 43
REMARK SMILES IDX 77 44 33 46 65 47 45 48 64 49 46 50 49 51 63 52 82 53 47 54
REMARK SMILES IDX 48 55 62 57 83 58 50 59 34 60 35 61 43 62 36 63 42 64 44 65
REMARK SMILES IDX 41 66 37 67 38 68 39 69 40 70 66 71 67 72 75 73 68 74 74 75
REMARK SMILES IDX 76 76 73 77 69 78 70 79 71 80 72 81 51 82 52 83 60 84 53 85
REMARK SMILES IDX 59 86 61 87 58 88 54 89 55 90 56 91 57 92
REMARK H PARENT 11 15 81 45 49 56
REMARK Flexibility Score: inf
ROOT
ATOM      1  C   UNL A   1      34.024  34.791  29.531  1.00  0.00     0.274 C 
ENDROOT
BRANCH   1   2
ATOM      2  O   UNL A   1      33.598  34.223  30.785  1.00  0.00    -0.462 OA
BRANCH   2   3
ATOM      3  C   UNL A   1      34.547  33.520  31.458  1.00  0.00     0.310 C 
ATOM      4  O   UNL A   1      34.798  32.334  31.266  1.00  0.00    -0.252 OA
BRANCH   3   5
ATOM      5  C   UNL A   1      35.229  34.305  32.551  1.00  0.00     0.158 C 
BRANCH   5   6
ATOM      6  C   UNL A   1      36.733  34.453  32.503  1.00  0.00    -0.037 A 
ATOM      7  C   UNL A   1      39.564  34.474  32.464  1.00  0.00     0.041 A 
ATOM      8  C   UNL A   1      38.832  34.543  31.274  1.00  0.00     0.026 A 
ATOM      9  C   UNL A   1      38.870  34.415  33.672  1.00  0.00     0.026 A 
ATOM     10  C   UNL A   1      37.432  34.528  31.292  1.00  0.00     0.006 A 
ATOM     11  C   UNL A   1      37.471  34.402  33.690  1.00  0.00     0.006 A 
BRANCH   7  12
ATOM     12  N   UNL A   1      40.971  34.512  32.371  1.00  0.00    -0.326 N 
ATOM     13  O   UNL A   1      41.349  33.671  30.235  1.00  0.00    -0.274 OA
ATOM     14  C   UNL A   1      41.755  34.027  31.340  1.00  0.00     0.228 C 
ATOM     15  H   UNL A   1      41.447  34.931  33.124  1.00  0.00     0.169 HD
BRANCH  14  16
ATOM     16  C   UNL A   1      43.210  33.798  31.718  1.00  0.00     0.135 C 
BRANCH  16  17
ATOM     17  C   UNL A   1      43.928  32.664  31.029  1.00  0.00    -0.039 A 
ATOM     18  C   UNL A   1      44.062  32.657  29.633  1.00  0.00     0.005 A 
ATOM     19  C   UNL A   1      44.423  31.577  31.765  1.00  0.00     0.005 A 
ATOM     20  C   UNL A   1      44.653  31.570  28.984  1.00  0.00     0.016 A 
ATOM     21  C   UNL A   1      45.031  30.499  31.118  1.00  0.00     0.016 A 
ATOM     22  C   UNL A   1      45.132  30.494  29.729  1.00  0.00     0.017 A 
ATOM     23  Br  UNL A   1      45.890  29.005  28.848  1.00  0.00    -0.051 Br
ENDBRANCH  16  17
ENDBRANCH  14  16
ENDBRANCH   7  12
ENDBRANCH   5   6
ENDBRANCH   3   5
ENDBRANCH   2   3
ENDBRANCH   1   2
BRANCH   1  24
ATOM     24  C   UNL A   1      33.381  34.064  28.354  1.00  0.00     0.275 C 
BRANCH  24  25
ATOM     25  O   UNL A   1      34.373  33.297  27.650  1.00  0.00    -0.458 OA
BRANCH  25  26
ATOM     26  C   UNL A   1      34.182  31.959  27.642  1.00  0.00     0.338 C 
ATOM     27  O   UNL A   1      33.168  31.355  27.341  1.00  0.00    -0.246 OA
BRANCH  26  28
ATOM     28  C   UNL A   1      35.419  31.288  28.066  1.00  0.00     0.060 A 
ATOM     29  C   UNL A   1      35.380  29.961  28.499  1.00  0.00     0.016 A 
ATOM     30  C   UNL A   1      36.602  32.024  28.142  1.00  0.00     0.016 A 
ATOM     31  C   UNL A   1      36.515  29.381  29.061  1.00  0.00     0.010 A 
ATOM     32  C   UNL A   1      37.754  31.422  28.653  1.00  0.00     0.010 A 
ATOM     33  C   UNL A   1      37.713  30.106  29.145  1.00  0.00    -0.014 A 
BRANCH  33  34
ATOM     34  C   UNL A   1      38.910  29.507  29.791  1.00  0.00     0.031 A 
ATOM     35  C   UNL A   1      39.332  29.967  31.161  1.00  0.00     0.074 A 
ATOM     36  C   UNL A   1      39.616  28.556  29.150  1.00  0.00     0.049 A 
ATOM     37  N   UNL A   1      40.399  29.652  31.850  1.00  0.00    -0.248 NA
ATOM     38  C   UNL A   1      38.437  30.917  31.837  1.00  0.00     0.031 C 
ATOM     39  C   UNL A   1      39.290  28.009  27.832  1.00  0.00     0.029 A 
ATOM     40  N   UNL A   1      40.753  27.885  29.520  1.00  0.00    -0.354 N 
ATOM     41  C   UNL A   1      40.318  30.382  33.032  1.00  0.00     0.074 A 
ATOM     42  C   UNL A   1      39.110  31.177  32.948  1.00  0.00     0.031 C 
ATOM     43  C   UNL A   1      40.205  27.082  27.507  1.00  0.00     0.029 A 
ATOM     44  C   UNL A   1      41.206  27.006  28.565  1.00  0.00     0.049 A 
ATOM     45  H   UNL A   1      41.202  28.021  30.385  1.00  0.00     0.167 HD
ATOM     46  C   UNL A   1      41.170  30.385  34.088  1.00  0.00     0.034 A 
ATOM     47  C   UNL A   1      42.319  26.247  28.533  1.00  0.00     0.034 A 
ATOM     48  C   UNL A   1      42.367  29.580  34.160  1.00  0.00     0.049 A 
ATOM     49  C   UNL A   1      43.272  26.297  29.698  1.00  0.00     0.074 A 
ATOM     50  C   UNL A   1      43.294  29.499  35.185  1.00  0.00     0.029 A 
ATOM     51  N   UNL A   1      42.804  28.715  33.164  1.00  0.00    -0.354 N 
ATOM     52  N   UNL A   1      43.196  27.011  30.798  1.00  0.00    -0.248 NA
ATOM     53  C   UNL A   1      44.458  25.436  29.618  1.00  0.00     0.031 C 
ATOM     54  C   UNL A   1      44.317  28.629  34.787  1.00  0.00     0.029 A 
ATOM     55  C   UNL A   1      43.997  28.115  33.541  1.00  0.00     0.049 A 
ATOM     56  H   UNL A   1      42.334  28.551  32.314  1.00  0.00     0.167 HD
ATOM     57  C   UNL A   1      44.319  26.672  31.547  1.00  0.00     0.074 A 
ATOM     58  C   UNL A   1      45.042  25.675  30.783  1.00  0.00     0.031 C 
ATOM     59  C   UNL A   1      44.717  27.139  32.757  1.00  0.00     0.034 A 
BRANCH  46  60
ATOM     60  C   UNL A   1      40.858  31.331  35.222  1.00  0.00     0.023 A 
ATOM     61  C   UNL A   1      39.731  31.158  36.044  1.00  0.00     0.031 A 
ATOM     62  C   UNL A   1      41.681  32.448  35.459  1.00  0.00     0.131 A 
ATOM     63  C   UNL A   1      39.417  32.124  37.014  1.00  0.00     0.055 A 
ATOM     64  C   UNL A   1      41.404  33.363  36.476  1.00  0.00     0.041 A 
ATOM     65  F   UNL A   1      42.759  32.676  34.693  1.00  0.00    -0.206 F 
ATOM     66  C   UNL A   1      40.259  33.213  37.250  1.00  0.00     0.022 A 
BRANCH  63  67
ATOM     67  S   UNL A   1      37.818  32.012  37.864  1.00  0.00     0.124 S 
ATOM     68  O   UNL A   1      38.183  32.387  39.229  1.00  0.00    -0.237 OA
ATOM     69  O   UNL A   1      37.004  32.976  37.133  1.00  0.00    -0.237 OA
ATOM     70  O   UNL A   1      37.437  30.612  37.692  1.00  0.00    -0.744 OA
ENDBRANCH  63  67
ENDBRANCH  46  60
BRANCH  47  71
ATOM     71  C   UNL A   1      42.622  25.409  27.340  1.00  0.00     0.023 A 
ATOM     72  C   UNL A   1      42.237  24.062  27.283  1.00  0.00     0.031 A 
ATOM     73  C   UNL A   1      43.337  25.941  26.252  1.00  0.00     0.131 A 
ATOM     74  C   UNL A   1      42.602  23.279  26.177  1.00  0.00     0.055 A 
ATOM     75  C   UNL A   1      43.657  25.171  25.134  1.00  0.00     0.041 A 
ATOM     76  F   UNL A   1      43.726  27.226  26.257  1.00  0.00    -0.206 F 
ATOM     77  C   UNL A   1      43.299  23.826  25.097  1.00  0.00     0.022 A 
BRANCH  74  78
ATOM     78  S   UNL A   1      42.210  21.507  26.200  1.00  0.00     0.124 S 
ATOM     79  O   UNL A   1      42.327  21.195  27.620  1.00  0.00    -0.237 OA
ATOM     80  O   UNL A   1      40.860  21.489  25.649  1.00  0.00    -0.237 OA
ATOM     81  O   UNL A   1      43.239  20.921  25.344  1.00  0.00    -0.744 OA
ENDBRANCH  74  78
ENDBRANCH  47  71
BRANCH  59  82
ATOM     82  C   UNL A   1      45.978  26.543  33.330  1.00  0.00     0.023 A 
ATOM     83  C   UNL A   1      45.938  25.543  34.318  1.00  0.00     0.031 A 
ATOM     84  C   UNL A   1      47.235  27.010  32.911  1.00  0.00     0.131 A 
ATOM     85  C   UNL A   1      47.131  25.086  34.898  1.00  0.00     0.055 A 
ATOM     86  C   UNL A   1      48.421  26.514  33.453  1.00  0.00     0.041 A 
ATOM     87  F   UNL A   1      47.331  27.966  31.972  1.00  0.00    -0.206 F 
ATOM     88  C   UNL A   1      48.372  25.556  34.464  1.00  0.00     0.022 A 
BRANCH  85  89
ATOM     89  S   UNL A   1      47.034  23.940  36.301  1.00  0.00     0.124 S 
ATOM     90  O   UNL A   1      45.740  23.302  36.085  1.00  0.00    -0.237 OA
ATOM     91  O   UNL A   1      48.205  23.093  36.093  1.00  0.00    -0.237 OA
ATOM     92  O   UNL A   1      47.105  24.819  37.467  1.00  0.00    -0.744 OA
ENDBRANCH  85  89
ENDBRANCH  59  82
ENDBRANCH  33  34
ENDBRANCH  26  28
ENDBRANCH  25  26
ENDBRANCH  24  25
ENDBRANCH   1  24
TORSDOF 18
ENDMDL
