MODEL 1
REMARK VINA RESULT:     -14.1      0.000      0.000
REMARK SMILES Cc1ccc(-c2nc(C)cc(N3CCCC[C@H]3C(=O)OCCOC(=O)c3ccc(-c4c5nc(c(-c6cc(S(=O)(=O)[O-])ccc6F)c6ccc([nH]6)c(-c6cc(S(=O)(=O)[O-])ccc6F)c6nc(c(-c7cc(S(=O)(=O)[O-])ccc7F)c7ccc4[nH]7)C=C6)C=C5)cc3)n2)cc1
REMARK SMILES IDX 22 1 21 2 20 3 18 4 19 5 17 6 12 7 13 8 14 9 16 10 15 11
REMARK SMILES IDX 11 12 6 13 7 14 89 15 8 16 9 17 10 18 5 19 1 20 2 21 3 22
REMARK SMILES IDX 91 23 4 24 90 25 23 26 24 27 25 28 26 29 27 30 88 31 28 32
REMARK SMILES IDX 87 33 29 34 30 35 31 36 81 37 32 38 86 39 80 40 82 41 33 42
REMARK SMILES IDX 85 43 79 44 78 45 34 47 66 48 46 49 65 50 47 51 50 52 64 53
REMARK SMILES IDX 83 54 48 55 49 56 63 58 84 59 51 60 35 61 36 62 44 63 37 64
REMARK SMILES IDX 43 65 45 66 42 67 38 68 39 69 40 70 41 71 67 72 68 73 76 74
REMARK SMILES IDX 69 75 75 76 77 77 74 78 70 79 71 80 72 81 73 82 52 83 53 84
REMARK SMILES IDX 61 85 54 86 60 87 62 88 59 89 55 90 56 91 57 92 58 93
REMARK H PARENT 82 46 50 57
REMARK Flexibility Score: inf
ROOT
ATOM      1  C   UNL A   1      39.891  21.225  26.449  1.00  0.00     0.275 C 
ENDROOT
BRANCH   1   2
ATOM      2  C   UNL A   1      38.790  21.008  25.400  1.00  0.00     0.274 C 
BRANCH   2   3
ATOM      3  O   UNL A   1      37.667  21.843  25.740  1.00  0.00    -0.461 OA
BRANCH   3   4
ATOM      4  C   UNL A   1      36.587  21.889  24.756  1.00  0.00     0.328 C 
ATOM      5  O   UNL A   1      37.144  22.389  23.740  1.00  0.00    -0.250 OA
BRANCH   4   6
ATOM      6  C   UNL A   1      34.531  21.173  25.108  1.00  0.00     0.193 C 
ATOM      7  N   UNL A   1      33.033  21.862  24.481  1.00  0.00    -0.343 N 
ATOM      8  C   UNL A   1      32.510  21.294  23.216  1.00  0.00     0.119 C 
ATOM      9  C   UNL A   1      32.288  19.792  23.205  1.00  0.00     0.022 C 
ATOM     10  C   UNL A   1      33.816  19.555  25.206  1.00  0.00     0.037 C 
ATOM     11  C   UNL A   1      33.317  18.937  23.905  1.00  0.00     0.005 C 
BRANCH   7  12
ATOM     12  C   UNL A   1      32.110  22.756  25.083  1.00  0.00     0.133 A 
ATOM     13  C   UNL A   1      31.833  24.800  26.178  1.00  0.00     0.161 A 
ATOM     14  N   UNL A   1      30.797  24.411  26.923  1.00  0.00    -0.233 NA
ATOM     15  N   UNL A   1      32.495  24.042  25.271  1.00  0.00    -0.211 NA
ATOM     16  C   UNL A   1      30.346  23.185  26.679  1.00  0.00     0.043 A 
ATOM     17  C   UNL A   1      29.200  22.768  27.548  1.00  0.00     0.067 C 
ATOM     18  C   UNL A   1      30.936  22.359  25.724  1.00  0.00     0.070 A 
BRANCH  13  19
ATOM     19  C   UNL A   1      32.229  26.191  26.381  1.00  0.00     0.019 A 
ATOM     20  C   UNL A   1      33.445  30.257  27.193  1.00  0.00     0.044 C 
ATOM     21  C   UNL A   1      33.029  28.842  26.932  1.00  0.00    -0.051 A 
ATOM     22  C   UNL A   1      33.930  27.942  26.354  1.00  0.00     0.004 A 
ATOM     23  C   UNL A   1      31.739  28.406  27.249  1.00  0.00     0.004 A 
ATOM     24  C   UNL A   1      33.536  26.627  26.091  1.00  0.00     0.012 A 
ATOM     25  C   UNL A   1      31.342  27.098  26.970  1.00  0.00     0.012 A 
ENDBRANCH  13  19
ENDBRANCH   7  12
ENDBRANCH   4   6
ENDBRANCH   3   4
ENDBRANCH   2   3
ENDBRANCH   1   2
BRANCH   1  26
ATOM     26  O   UNL A   1      41.046  22.001  26.028  1.00  0.00    -0.458 OA
BRANCH  26  27
ATOM     27  C   UNL A   1      41.519  23.048  26.750  1.00  0.00     0.338 C 
ATOM     28  O   UNL A   1      42.482  23.028  27.497  1.00  0.00    -0.246 OA
BRANCH  27  29
ATOM     29  C   UNL A   1      40.641  24.228  26.669  1.00  0.00     0.060 A 
ATOM     30  C   UNL A   1      41.303  25.669  25.807  1.00  0.00     0.016 A 
ATOM     31  C   UNL A   1      39.512  24.446  28.030  1.00  0.00     0.016 A 
ATOM     32  C   UNL A   1      40.923  27.340  26.426  1.00  0.00     0.010 A 
ATOM     33  C   UNL A   1      39.162  26.107  28.650  1.00  0.00     0.010 A 
ATOM     34  C   UNL A   1      39.930  27.530  27.894  1.00  0.00    -0.014 A 
BRANCH  34  35
ATOM     35  C   UNL A   1      40.167  28.582  28.863  1.00  0.00     0.031 A 
ATOM     36  C   UNL A   1      39.195  29.678  28.854  1.00  0.00     0.074 A 
ATOM     37  C   UNL A   1      41.062  28.329  29.854  1.00  0.00     0.049 A 
ATOM     38  N   UNL A   1      39.380  30.779  29.471  1.00  0.00    -0.248 NA
ATOM     39  C   UNL A   1      37.952  29.689  28.074  1.00  0.00     0.031 C 
ATOM     40  C   UNL A   1      41.185  28.896  31.195  1.00  0.00     0.029 A 
ATOM     41  N   UNL A   1      42.180  27.514  29.783  1.00  0.00    -0.354 N 
ATOM     42  C   UNL A   1      38.164  31.415  29.528  1.00  0.00     0.074 A 
ATOM     43  C   UNL A   1      37.371  30.815  28.499  1.00  0.00     0.031 C 
ATOM     44  C   UNL A   1      42.406  28.611  31.697  1.00  0.00     0.029 A 
ATOM     45  C   UNL A   1      43.169  27.926  30.670  1.00  0.00     0.049 A 
ATOM     46  H   UNL A   1      42.264  26.740  29.181  1.00  0.00     0.167 HD
ATOM     47  C   UNL A   1      37.953  32.242  30.584  1.00  0.00     0.034 A 
ATOM     48  C   UNL A   1      44.359  28.350  30.154  1.00  0.00     0.034 A 
ATOM     49  C   UNL A   1      39.214  32.422  31.311  1.00  0.00     0.049 A 
ATOM     50  C   UNL A   1      44.379  29.875  30.106  1.00  0.00     0.074 A 
ATOM     51  C   UNL A   1      39.721  31.907  32.489  1.00  0.00     0.029 A 
ATOM     52  N   UNL A   1      40.306  32.897  30.595  1.00  0.00    -0.354 N 
ATOM     53  N   UNL A   1      43.325  30.625  30.304  1.00  0.00    -0.248 NA
ATOM     54  C   UNL A   1      45.589  30.667  29.932  1.00  0.00     0.031 C 
ATOM     55  C   UNL A   1      41.150  31.976  32.405  1.00  0.00     0.029 A 
ATOM     56  C   UNL A   1      41.500  32.570  31.201  1.00  0.00     0.049 A 
ATOM     57  H   UNL A   1      40.235  33.408  29.756  1.00  0.00     0.167 HD
ATOM     58  C   UNL A   1      43.673  31.945  30.338  1.00  0.00     0.074 A 
ATOM     59  C   UNL A   1      45.112  31.912  30.111  1.00  0.00     0.031 C 
ATOM     60  C   UNL A   1      42.759  32.949  30.558  1.00  0.00     0.034 A 
BRANCH  47  61
ATOM     61  C   UNL A   1      36.622  32.726  31.090  1.00  0.00     0.023 A 
ATOM     62  C   UNL A   1      35.845  33.496  30.206  1.00  0.00     0.031 A 
ATOM     63  C   UNL A   1      36.095  32.583  32.392  1.00  0.00     0.131 A 
ATOM     64  C   UNL A   1      34.632  34.079  30.607  1.00  0.00     0.055 A 
ATOM     65  C   UNL A   1      34.862  33.129  32.781  1.00  0.00     0.041 A 
ATOM     66  F   UNL A   1      36.752  31.957  33.375  1.00  0.00    -0.206 F 
ATOM     67  C   UNL A   1      34.124  33.887  31.888  1.00  0.00     0.022 A 
BRANCH  64  68
ATOM     68  S   UNL A   1      33.755  35.131  29.426  1.00  0.00     0.124 S 
ATOM     69  O   UNL A   1      34.811  35.471  28.478  1.00  0.00    -0.237 OA
ATOM     70  O   UNL A   1      32.709  34.239  28.940  1.00  0.00    -0.237 OA
ATOM     71  O   UNL A   1      33.284  36.243  30.250  1.00  0.00    -0.744 OA
ENDBRANCH  64  68
ENDBRANCH  47  61
BRANCH  48  72
ATOM     72  C   UNL A   1      44.873  27.388  29.123  1.00  0.00     0.023 A 
ATOM     73  C   UNL A   1      45.016  27.882  27.797  1.00  0.00     0.031 A 
ATOM     74  C   UNL A   1      45.625  26.269  29.472  1.00  0.00     0.131 A 
ATOM     75  C   UNL A   1      46.035  27.404  26.955  1.00  0.00     0.055 A 
ATOM     76  C   UNL A   1      46.582  25.752  28.592  1.00  0.00     0.041 A 
ATOM     77  F   UNL A   1      45.606  25.775  30.718  1.00  0.00    -0.206 F 
ATOM     78  C   UNL A   1      46.831  26.338  27.353  1.00  0.00     0.022 A 
BRANCH  75  79
ATOM     79  S   UNL A   1      46.511  28.379  25.488  1.00  0.00     0.124 S 
ATOM     80  O   UNL A   1      46.186  27.459  24.402  1.00  0.00    -0.237 OA
ATOM     81  O   UNL A   1      45.658  29.562  25.585  1.00  0.00    -0.237 OA
ATOM     82  O   UNL A   1      47.937  28.621  25.689  1.00  0.00    -0.744 OA
ENDBRANCH  75  79
ENDBRANCH  48  72
BRANCH  60  83
ATOM     83  C   UNL A   1      42.999  34.416  30.239  1.00  0.00     0.023 A 
ATOM     84  C   UNL A   1      42.730  34.956  28.981  1.00  0.00     0.031 A 
ATOM     85  C   UNL A   1      43.452  35.355  31.202  1.00  0.00     0.131 A 
ATOM     86  C   UNL A   1      43.059  36.280  28.662  1.00  0.00     0.055 A 
ATOM     87  C   UNL A   1      43.646  36.712  30.924  1.00  0.00     0.041 A 
ATOM     88  F   UNL A   1      43.723  35.022  32.470  1.00  0.00    -0.206 F 
ATOM     89  C   UNL A   1      43.491  37.176  29.630  1.00  0.00     0.022 A 
BRANCH  86  90
ATOM     90  S   UNL A   1      43.022  36.735  26.916  1.00  0.00     0.124 S 
ATOM     91  O   UNL A   1      42.675  35.463  26.287  1.00  0.00    -0.237 OA
ATOM     92  O   UNL A   1      41.983  37.759  26.881  1.00  0.00    -0.237 OA
ATOM     93  O   UNL A   1      44.379  37.209  26.657  1.00  0.00    -0.744 OA
ENDBRANCH  86  90
ENDBRANCH  60  83
ENDBRANCH  34  35
ENDBRANCH  27  29
ENDBRANCH  26  27
ENDBRANCH   1  26
TORSDOF 16
ENDMDL
MODEL 2
REMARK VINA RESULT:     -13.9      2.046      2.382
REMARK SMILES Cc1ccc(-c2nc(C)cc(N3CCCC[C@H]3C(=O)OCCOC(=O)c3ccc(-c4c5nc(c(-c6cc(S(=O)(=O)[O-])ccc6F)c6ccc([nH]6)c(-c6cc(S(=O)(=O)[O-])ccc6F)c6nc(c(-c7cc(S(=O)(=O)[O-])ccc7F)c7ccc4[nH]7)C=C6)C=C5)cc3)n2)cc1
REMARK SMILES IDX 22 1 21 2 20 3 18 4 19 5 17 6 12 7 13 8 14 9 16 10 15 11
REMARK SMILES IDX 11 12 6 13 7 14 89 15 8 16 9 17 10 18 5 19 1 20 2 21 3 22
REMARK SMILES IDX 91 23 4 24 90 25 23 26 24 27 25 28 26 29 27 30 88 31 28 32
REMARK SMILES IDX 87 33 29 34 30 35 31 36 81 37 32 38 86 39 80 40 82 41 33 42
REMARK SMILES IDX 85 43 79 44 78 45 34 47 66 48 46 49 65 50 47 51 50 52 64 53
REMARK SMILES IDX 83 54 48 55 49 56 63 58 84 59 51 60 35 61 36 62 44 63 37 64
REMARK SMILES IDX 43 65 45 66 42 67 38 68 39 69 40 70 41 71 67 72 68 73 76 74
REMARK SMILES IDX 69 75 75 76 77 77 74 78 70 79 71 80 72 81 73 82 52 83 53 84
REMARK SMILES IDX 61 85 54 86 60 87 62 88 59 89 55 90 56 91 57 92 58 93
REMARK H PARENT 82 46 50 57
REMARK Flexibility Score: inf
ROOT
ATOM      1  C   UNL A   1      39.780  22.093  26.545  1.00  0.00     0.275 C 
ENDROOT
BRANCH   1   2
ATOM      2  C   UNL A   1      38.513  22.598  25.838  1.00  0.00     0.274 C 
BRANCH   2   3
ATOM      3  O   UNL A   1      37.595  21.497  25.710  1.00  0.00    -0.461 OA
BRANCH   3   4
ATOM      4  C   UNL A   1      36.517  21.677  24.738  1.00  0.00     0.328 C 
ATOM      5  O   UNL A   1      37.095  22.238  23.767  1.00  0.00    -0.250 OA
BRANCH   4   6
ATOM      6  C   UNL A   1      34.431  21.024  25.037  1.00  0.00     0.193 C 
ATOM      7  N   UNL A   1      32.968  21.797  24.426  1.00  0.00    -0.343 N 
ATOM      8  C   UNL A   1      32.439  21.306  23.132  1.00  0.00     0.119 C 
ATOM      9  C   UNL A   1      32.161  19.816  23.051  1.00  0.00     0.022 C 
ATOM     10  C   UNL A   1      33.655  19.432  25.054  1.00  0.00     0.037 C 
ATOM     11  C   UNL A   1      33.149  18.892  23.722  1.00  0.00     0.005 C 
BRANCH   7  12
ATOM     12  C   UNL A   1      32.072  22.698  25.058  1.00  0.00     0.133 A 
ATOM     13  C   UNL A   1      31.853  24.723  26.201  1.00  0.00     0.161 A 
ATOM     14  N   UNL A   1      30.817  24.340  26.949  1.00  0.00    -0.233 NA
ATOM     15  N   UNL A   1      32.488  23.970  25.270  1.00  0.00    -0.211 NA
ATOM     16  C   UNL A   1      30.336  23.131  26.683  1.00  0.00     0.043 A 
ATOM     17  C   UNL A   1      29.191  22.720  27.556  1.00  0.00     0.067 C 
ATOM     18  C   UNL A   1      30.897  22.313  25.703  1.00  0.00     0.070 A 
BRANCH  13  19
ATOM     19  C   UNL A   1      32.283  26.100  26.430  1.00  0.00     0.019 A 
ATOM     20  C   UNL A   1      33.508  30.218  26.893  1.00  0.00     0.044 C 
ATOM     21  C   UNL A   1      33.077  28.795  26.712  1.00  0.00    -0.051 A 
ATOM     22  C   UNL A   1      31.796  28.394  27.106  1.00  0.00     0.004 A 
ATOM     23  C   UNL A   1      33.947  27.849  26.159  1.00  0.00     0.004 A 
ATOM     24  C   UNL A   1      31.401  27.062  26.957  1.00  0.00     0.012 A 
ATOM     25  C   UNL A   1      33.557  26.516  26.027  1.00  0.00     0.012 A 
ENDBRANCH  13  19
ENDBRANCH   7  12
ENDBRANCH   4   6
ENDBRANCH   3   4
ENDBRANCH   2   3
ENDBRANCH   1   2
BRANCH   1  26
ATOM     26  O   UNL A   1      40.945  22.961  26.491  1.00  0.00    -0.458 OA
BRANCH  26  27
ATOM     27  C   UNL A   1      41.171  23.930  27.413  1.00  0.00     0.338 C 
ATOM     28  O   UNL A   1      41.927  23.852  28.366  1.00  0.00    -0.246 OA
BRANCH  27  29
ATOM     29  C   UNL A   1      40.272  25.086  27.245  1.00  0.00     0.060 A 
ATOM     30  C   UNL A   1      40.833  26.391  26.132  1.00  0.00     0.016 A 
ATOM     31  C   UNL A   1      39.265  25.493  28.657  1.00  0.00     0.016 A 
ATOM     32  C   UNL A   1      40.486  28.132  26.539  1.00  0.00     0.010 A 
ATOM     33  C   UNL A   1      38.947  27.225  29.065  1.00  0.00     0.010 A 
ATOM     34  C   UNL A   1      39.624  28.527  28.048  1.00  0.00    -0.014 A 
BRANCH  34  35
ATOM     35  C   UNL A   1      39.931  29.707  28.834  1.00  0.00     0.031 A 
ATOM     36  C   UNL A   1      38.879  30.726  28.877  1.00  0.00     0.074 A 
ATOM     37  C   UNL A   1      41.001  29.641  29.668  1.00  0.00     0.049 A 
ATOM     38  N   UNL A   1      39.070  31.906  29.322  1.00  0.00    -0.248 NA
ATOM     39  C   UNL A   1      37.525  30.556  28.339  1.00  0.00     0.031 C 
ATOM     40  C   UNL A   1      41.303  30.381  30.892  1.00  0.00     0.029 A 
ATOM     41  N   UNL A   1      42.158  28.900  29.489  1.00  0.00    -0.354 N 
ATOM     42  C   UNL A   1      37.831  32.462  29.526  1.00  0.00     0.074 A 
ATOM     43  C   UNL A   1      36.929  31.685  28.732  1.00  0.00     0.031 C 
ATOM     44  C   UNL A   1      42.612  30.243  31.193  1.00  0.00     0.029 A 
ATOM     45  C   UNL A   1      43.244  29.486  30.129  1.00  0.00     0.049 A 
ATOM     46  H   UNL A   1      42.205  28.063  28.972  1.00  0.00     0.167 HD
ATOM     47  C   UNL A   1      37.733  33.400  30.502  1.00  0.00     0.034 A 
ATOM     48  C   UNL A   1      44.287  29.919  29.361  1.00  0.00     0.034 A 
ATOM     49  C   UNL A   1      39.079  33.754  30.963  1.00  0.00     0.049 A 
ATOM     50  C   UNL A   1      44.164  31.423  29.139  1.00  0.00     0.074 A 
ATOM     51  C   UNL A   1      39.824  33.427  32.081  1.00  0.00     0.029 A 
ATOM     52  N   UNL A   1      39.986  34.206  30.013  1.00  0.00    -0.354 N 
ATOM     53  N   UNL A   1      43.097  32.121  29.438  1.00  0.00    -0.248 NA
ATOM     54  C   UNL A   1      45.252  32.265  28.660  1.00  0.00     0.031 C 
ATOM     55  C   UNL A   1      41.205  33.580  31.732  1.00  0.00     0.029 A 
ATOM     56  C   UNL A   1      41.291  34.039  30.426  1.00  0.00     0.049 A 
ATOM     57  H   UNL A   1      39.727  34.601  29.148  1.00  0.00     0.167 HD
ATOM     58  C   UNL A   1      43.329  33.455  29.259  1.00  0.00     0.074 A 
ATOM     59  C   UNL A   1      44.705  33.489  28.781  1.00  0.00     0.031 C 
ATOM     60  C   UNL A   1      42.382  34.416  29.527  1.00  0.00     0.034 A 
BRANCH  47  61
ATOM     61  C   UNL A   1      36.471  33.856  31.182  1.00  0.00     0.023 A 
ATOM     62  C   UNL A   1      35.466  34.403  30.365  1.00  0.00     0.031 A 
ATOM     63  C   UNL A   1      36.209  33.891  32.570  1.00  0.00     0.131 A 
ATOM     64  C   UNL A   1      34.290  34.947  30.906  1.00  0.00     0.055 A 
ATOM     65  C   UNL A   1      35.015  34.395  33.108  1.00  0.00     0.041 A 
ATOM     66  F   UNL A   1      37.098  33.492  33.486  1.00  0.00    -0.206 F 
ATOM     67  C   UNL A   1      34.048  34.932  32.276  1.00  0.00     0.022 A 
BRANCH  64  68
ATOM     68  S   UNL A   1      33.102  35.713  29.777  1.00  0.00     0.124 S 
ATOM     69  O   UNL A   1      33.972  36.499  28.908  1.00  0.00    -0.237 OA
ATOM     70  O   UNL A   1      32.460  34.552  29.175  1.00  0.00    -0.237 OA
ATOM     71  O   UNL A   1      32.249  36.498  30.669  1.00  0.00    -0.744 OA
ENDBRANCH  64  68
ENDBRANCH  47  61
BRANCH  48  72
ATOM     72  C   UNL A   1      44.697  28.870  28.370  1.00  0.00     0.023 A 
ATOM     73  C   UNL A   1      45.355  27.720  28.887  1.00  0.00     0.031 A 
ATOM     74  C   UNL A   1      44.076  28.745  27.131  1.00  0.00     0.131 A 
ATOM     75  C   UNL A   1      45.190  26.461  28.284  1.00  0.00     0.055 A 
ATOM     76  C   UNL A   1      43.986  27.500  26.500  1.00  0.00     0.041 A 
ATOM     77  F   UNL A   1      43.374  29.756  26.596  1.00  0.00    -0.206 F 
ATOM     78  C   UNL A   1      44.495  26.343  27.087  1.00  0.00     0.022 A 
BRANCH  75  79
ATOM     79  S   UNL A   1      45.612  24.957  29.226  1.00  0.00     0.124 S 
ATOM     80  O   UNL A   1      44.500  24.877  30.168  1.00  0.00    -0.237 OA
ATOM     81  O   UNL A   1      45.641  23.918  28.199  1.00  0.00    -0.237 OA
ATOM     82  O   UNL A   1      46.906  25.281  29.822  1.00  0.00    -0.744 OA
ENDBRANCH  75  79
ENDBRANCH  48  72
BRANCH  60  83
ATOM     83  C   UNL A   1      42.434  35.843  29.005  1.00  0.00     0.023 A 
ATOM     84  C   UNL A   1      43.199  36.832  29.624  1.00  0.00     0.031 A 
ATOM     85  C   UNL A   1      41.766  36.263  27.825  1.00  0.00     0.131 A 
ATOM     86  C   UNL A   1      43.153  38.169  29.205  1.00  0.00     0.055 A 
ATOM     87  C   UNL A   1      41.834  37.566  27.323  1.00  0.00     0.041 A 
ATOM     88  F   UNL A   1      41.019  35.438  27.082  1.00  0.00    -0.206 F 
ATOM     89  C   UNL A   1      42.497  38.544  28.041  1.00  0.00     0.022 A 
BRANCH  86  90
ATOM     90  S   UNL A   1      43.870  39.399  30.314  1.00  0.00     0.124 S 
ATOM     91  O   UNL A   1      42.905  40.490  30.209  1.00  0.00    -0.237 OA
ATOM     92  O   UNL A   1      43.887  38.695  31.592  1.00  0.00    -0.237 OA
ATOM     93  O   UNL A   1      45.180  39.666  29.727  1.00  0.00    -0.744 OA
ENDBRANCH  86  90
ENDBRANCH  60  83
ENDBRANCH  34  35
ENDBRANCH  27  29
ENDBRANCH  26  27
ENDBRANCH   1  26
TORSDOF 16
ENDMDL
MODEL 3
REMARK VINA RESULT:     -13.9      4.143     10.352
REMARK SMILES Cc1ccc(-c2nc(C)cc(N3CCCC[C@H]3C(=O)OCCOC(=O)c3ccc(-c4c5nc(c(-c6cc(S(=O)(=O)[O-])ccc6F)c6ccc([nH]6)c(-c6cc(S(=O)(=O)[O-])ccc6F)c6nc(c(-c7cc(S(=O)(=O)[O-])ccc7F)c7ccc4[nH]7)C=C6)C=C5)cc3)n2)cc1
REMARK SMILES IDX 22 1 21 2 20 3 18 4 19 5 17 6 12 7 13 8 14 9 16 10 15 11
REMARK SMILES IDX 11 12 6 13 7 14 89 15 8 16 9 17 10 18 5 19 1 20 2 21 3 22
REMARK SMILES IDX 91 23 4 24 90 25 23 26 24 27 25 28 26 29 27 30 88 31 28 32
REMARK SMILES IDX 87 33 29 34 30 35 31 36 81 37 32 38 86 39 80 40 82 41 33 42
REMARK SMILES IDX 85 43 79 44 78 45 34 47 66 48 46 49 65 50 47 51 50 52 64 53
REMARK SMILES IDX 83 54 48 55 49 56 63 58 84 59 51 60 35 61 36 62 44 63 37 64
REMARK SMILES IDX 43 65 45 66 42 67 38 68 39 69 40 70 41 71 67 72 68 73 76 74
REMARK SMILES IDX 69 75 75 76 77 77 74 78 70 79 71 80 72 81 73 82 52 83 53 84
REMARK SMILES IDX 61 85 54 86 60 87 62 88 59 89 55 90 56 91 57 92 58 93
REMARK H PARENT 82 46 50 57
REMARK Flexibility Score: inf
ROOT
ATOM      1  C   UNL A   1      34.548  31.000  28.349  1.00  0.00     0.275 C 
ENDROOT
BRANCH   1   2
ATOM      2  C   UNL A   1      34.081  30.436  26.999  1.00  0.00     0.274 C 
BRANCH   2   3
ATOM      3  O   UNL A   1      32.643  30.501  26.952  1.00  0.00    -0.461 OA
BRANCH   3   4
ATOM      4  C   UNL A   1      31.962  29.265  26.570  1.00  0.00     0.328 C 
ATOM      5  O   UNL A   1      31.861  28.642  27.663  1.00  0.00    -0.250 OA
BRANCH   4   6
ATOM      6  C   UNL A   1      31.295  28.776  24.525  1.00  0.00     0.193 C 
ATOM      7  N   UNL A   1      30.819  27.197  23.902  1.00  0.00    -0.343 N 
ATOM      8  C   UNL A   1      29.376  26.863  23.945  1.00  0.00     0.119 C 
ATOM      9  C   UNL A   1      28.446  27.851  23.265  1.00  0.00     0.022 C 
ATOM     10  C   UNL A   1      30.255  29.616  23.362  1.00  0.00     0.037 C 
ATOM     11  C   UNL A   1      28.762  29.320  23.426  1.00  0.00     0.005 C 
BRANCH   7  12
ATOM     12  C   UNL A   1      31.564  26.235  23.169  1.00  0.00     0.133 A 
ATOM     13  C   UNL A   1      33.526  24.973  23.076  1.00  0.00     0.161 A 
ATOM     14  N   UNL A   1      33.602  24.947  21.745  1.00  0.00    -0.233 NA
ATOM     15  N   UNL A   1      32.558  25.574  23.810  1.00  0.00    -0.211 NA
ATOM     16  C   UNL A   1      32.582  25.506  21.103  1.00  0.00     0.043 A 
ATOM     17  C   UNL A   1      32.709  25.484  19.611  1.00  0.00     0.067 C 
ATOM     18  C   UNL A   1      31.519  26.098  21.782  1.00  0.00     0.070 A 
BRANCH  13  19
ATOM     19  C   UNL A   1      34.597  24.246  23.753  1.00  0.00     0.019 A 
ATOM     20  C   UNL A   1      37.912  22.227  25.652  1.00  0.00     0.044 C 
ATOM     21  C   UNL A   1      36.777  22.941  24.985  1.00  0.00    -0.051 A 
ATOM     22  C   UNL A   1      36.091  23.955  25.662  1.00  0.00     0.004 A 
ATOM     23  C   UNL A   1      36.382  22.600  23.687  1.00  0.00     0.004 A 
ATOM     24  C   UNL A   1      35.019  24.607  25.047  1.00  0.00     0.012 A 
ATOM     25  C   UNL A   1      35.300  23.240  23.082  1.00  0.00     0.012 A 
ENDBRANCH  13  19
ENDBRANCH   7  12
ENDBRANCH   4   6
ENDBRANCH   3   4
ENDBRANCH   2   3
ENDBRANCH   1   2
BRANCH   1  26
ATOM     26  O   UNL A   1      35.677  31.915  28.315  1.00  0.00    -0.458 OA
BRANCH  26  27
ATOM     27  C   UNL A   1      36.904  31.571  28.783  1.00  0.00     0.338 C 
ATOM     28  O   UNL A   1      37.757  32.340  29.192  1.00  0.00    -0.246 OA
BRANCH  27  29
ATOM     29  C   UNL A   1      37.190  30.137  28.607  1.00  0.00     0.060 A 
ATOM     30  C   UNL A   1      37.195  29.125  30.101  1.00  0.00     0.016 A 
ATOM     31  C   UNL A   1      38.269  29.725  27.250  1.00  0.00     0.016 A 
ATOM     32  C   UNL A   1      38.405  27.774  30.269  1.00  0.00     0.010 A 
ATOM     33  C   UNL A   1      39.481  28.398  27.437  1.00  0.00     0.010 A 
ATOM     34  C   UNL A   1      39.590  27.488  28.969  1.00  0.00    -0.014 A 
BRANCH  34  35
ATOM     35  C   UNL A   1      40.950  27.061  29.236  1.00  0.00     0.031 A 
ATOM     36  C   UNL A   1      41.288  25.711  28.779  1.00  0.00     0.074 A 
ATOM     37  C   UNL A   1      41.843  28.015  29.607  1.00  0.00     0.049 A 
ATOM     38  N   UNL A   1      42.351  25.100  29.133  1.00  0.00    -0.248 NA
ATOM     39  C   UNL A   1      40.421  24.866  27.949  1.00  0.00     0.031 C 
ATOM     40  C   UNL A   1      43.299  28.059  29.480  1.00  0.00     0.029 A 
ATOM     41  N   UNL A   1      41.582  29.176  30.318  1.00  0.00    -0.354 N 
ATOM     42  C   UNL A   1      42.505  24.038  28.276  1.00  0.00     0.074 A 
ATOM     43  C   UNL A   1      41.213  23.818  27.704  1.00  0.00     0.031 C 
ATOM     44  C   UNL A   1      43.795  29.025  30.284  1.00  0.00     0.029 A 
ATOM     45  C   UNL A   1      42.695  29.592  31.042  1.00  0.00     0.049 A 
ATOM     46  H   UNL A   1      40.718  29.646  30.312  1.00  0.00     0.167 HD
ATOM     47  C   UNL A   1      43.775  23.618  28.043  1.00  0.00     0.034 A 
ATOM     48  C   UNL A   1      42.603  29.617  32.404  1.00  0.00     0.034 A 
ATOM     49  C   UNL A   1      44.683  24.296  28.974  1.00  0.00     0.049 A 
ATOM     50  C   UNL A   1      43.243  28.358  32.981  1.00  0.00     0.074 A 
ATOM     51  C   UNL A   1      45.568  25.351  28.851  1.00  0.00     0.029 A 
ATOM     52  N   UNL A   1      44.423  24.167  30.333  1.00  0.00    -0.354 N 
ATOM     53  N   UNL A   1      43.597  27.323  32.261  1.00  0.00    -0.248 NA
ATOM     54  C   UNL A   1      43.620  28.206  34.380  1.00  0.00     0.031 C 
ATOM     55  C   UNL A   1      45.735  25.922  30.154  1.00  0.00     0.029 A 
ATOM     56  C   UNL A   1      44.988  25.190  31.065  1.00  0.00     0.049 A 
ATOM     57  H   UNL A   1      43.899  23.432  30.727  1.00  0.00     0.167 HD
ATOM     58  C   UNL A   1      44.266  26.411  33.025  1.00  0.00     0.074 A 
ATOM     59  C   UNL A   1      44.263  27.024  34.348  1.00  0.00     0.031 C 
ATOM     60  C   UNL A   1      44.774  25.241  32.512  1.00  0.00     0.034 A 
BRANCH  47  61
ATOM     61  C   UNL A   1      44.242  22.779  26.886  1.00  0.00     0.023 A 
ATOM     62  C   UNL A   1      43.614  21.534  26.706  1.00  0.00     0.031 A 
ATOM     63  C   UNL A   1      45.313  23.050  26.006  1.00  0.00     0.131 A 
ATOM     64  C   UNL A   1      44.037  20.630  25.718  1.00  0.00     0.055 A 
ATOM     65  C   UNL A   1      45.709  22.166  24.991  1.00  0.00     0.041 A 
ATOM     66  F   UNL A   1      46.069  24.149  26.102  1.00  0.00    -0.206 F 
ATOM     67  C   UNL A   1      45.074  20.945  24.844  1.00  0.00     0.022 A 
BRANCH  64  68
ATOM     68  S   UNL A   1      43.228  19.015  25.630  1.00  0.00     0.124 S 
ATOM     69  O   UNL A   1      41.891  19.370  25.165  1.00  0.00    -0.237 OA
ATOM     70  O   UNL A   1      44.076  18.299  24.684  1.00  0.00    -0.237 OA
ATOM     71  O   UNL A   1      43.294  18.530  27.008  1.00  0.00    -0.744 OA
ENDBRANCH  64  68
ENDBRANCH  47  61
BRANCH  48  72
ATOM     72  C   UNL A   1      41.339  30.295  32.846  1.00  0.00     0.023 A 
ATOM     73  C   UNL A   1      41.279  31.707  32.688  1.00  0.00     0.031 A 
ATOM     74  C   UNL A   1      40.130  29.611  32.934  1.00  0.00     0.131 A 
ATOM     75  C   UNL A   1      40.061  32.351  32.407  1.00  0.00     0.055 A 
ATOM     76  C   UNL A   1      38.917  30.278  32.731  1.00  0.00     0.041 A 
ATOM     77  F   UNL A   1      40.088  28.273  33.016  1.00  0.00    -0.206 F 
ATOM     78  C   UNL A   1      38.870  31.636  32.419  1.00  0.00     0.022 A 
BRANCH  75  79
ATOM     79  S   UNL A   1      40.083  34.042  31.723  1.00  0.00     0.124 S 
ATOM     80  O   UNL A   1      38.734  34.504  32.033  1.00  0.00    -0.237 OA
ATOM     81  O   UNL A   1      41.157  34.690  32.473  1.00  0.00    -0.237 OA
ATOM     82  O   UNL A   1      40.355  33.831  30.303  1.00  0.00    -0.744 OA
ENDBRANCH  75  79
ENDBRANCH  48  72
BRANCH  60  83
ATOM     83  C   UNL A   1      45.181  24.039  33.349  1.00  0.00     0.023 A 
ATOM     84  C   UNL A   1      46.436  23.943  33.950  1.00  0.00     0.031 A 
ATOM     85  C   UNL A   1      44.304  22.960  33.635  1.00  0.00     0.131 A 
ATOM     86  C   UNL A   1      46.844  22.785  34.625  1.00  0.00     0.055 A 
ATOM     87  C   UNL A   1      44.661  21.867  34.429  1.00  0.00     0.041 A 
ATOM     88  F   UNL A   1      43.048  22.903  33.175  1.00  0.00    -0.206 F 
ATOM     89  C   UNL A   1      45.958  21.752  34.896  1.00  0.00     0.022 A 
BRANCH  86  90
ATOM     90  S   UNL A   1      48.601  22.637  35.011  1.00  0.00     0.124 S 
ATOM     91  O   UNL A   1      48.859  21.238  34.680  1.00  0.00    -0.237 OA
ATOM     92  O   UNL A   1      49.201  23.618  34.111  1.00  0.00    -0.237 OA
ATOM     93  O   UNL A   1      48.668  22.966  36.431  1.00  0.00    -0.744 OA
ENDBRANCH  86  90
ENDBRANCH  60  83
ENDBRANCH  34  35
ENDBRANCH  27  29
ENDBRANCH  26  27
ENDBRANCH   1  26
TORSDOF 16
ENDMDL
