MODEL 1
REMARK VINA RESULT:     -10.1      0.000      0.000
REMARK SMILES CCC[C@@H]([NH2+]Cc1cc(Cl)cs1)C(=O)OCCOC(=O)c1ccc(-c2c3nc(c(-c4cc(S(=O)(=O)[O-])ccc4F)c4ccc([nH]4)c(-c4cc(S(=O)(=O)[O-])ccc4F)c4nc(c(-c5cc(S(=O)(=O)[O-])ccc5F)c5ccc2[nH]5)C=C4)C=C3)cc1
REMARK SMILES IDX 16 1 15 2 13 3 14 4 4 5 3 6 2 7 1 8 5 9 6 12 7 13 8 14 12 15
REMARK SMILES IDX 9 16 11 17 10 18 17 19 18 20 19 21 20 22 21 23 22 24 83 25
REMARK SMILES IDX 23 26 82 27 24 28 25 29 26 30 76 31 27 32 81 33 75 34 77 35
REMARK SMILES IDX 28 36 80 37 74 38 73 39 29 41 61 42 41 43 60 44 42 45 45 46
REMARK SMILES IDX 59 47 78 48 43 49 44 50 58 52 79 53 46 54 30 55 31 56 39 57
REMARK SMILES IDX 32 58 38 59 40 60 37 61 33 62 34 63 35 64 36 65 62 66 63 67
REMARK SMILES IDX 71 68 64 69 70 70 72 71 69 72 65 73 66 74 67 75 68 76 47 77
REMARK SMILES IDX 48 78 56 79 49 80 55 81 57 82 54 83 50 84 51 85 52 86 53 87
REMARK H PARENT 5 10 5 11 77 40 45 51
REMARK Flexibility Score: inf
ROOT
ATOM      1  C   UNL A   1      31.249  29.936  25.375  1.00  0.00     0.274 C 
ENDROOT
BRANCH   1   2
ATOM      2  O   UNL A   1      32.346  29.413  24.601  1.00  0.00    -0.458 OA
BRANCH   2   3
ATOM      3  C   UNL A   1      32.008  28.804  23.432  1.00  0.00     0.364 C 
ATOM      4  O   UNL A   1      32.825  28.275  22.681  1.00  0.00    -0.245 OA
BRANCH   3   5
ATOM      5  C   UNL A   1      30.489  28.813  23.145  1.00  0.00     0.293 C 
BRANCH   5   6
ATOM      6  C   UNL A   1      30.093  29.757  21.988  1.00  0.00     0.077 C 
BRANCH   6   7
ATOM      7  C   UNL A   1      29.161  30.917  22.368  1.00  0.00     0.003 C 
ATOM      8  C   UNL A   1      28.059  30.528  23.343  1.00  0.00     0.004 C 
ENDBRANCH   6   7
ENDBRANCH   5   6
BRANCH   5   9
ATOM      9  N   UNL A   1      29.945  27.452  22.901  1.00  0.00    -0.330 N 
ATOM     10  H   UNL A   1      30.623  26.936  22.340  1.00  0.00     0.347 HD
ATOM     11  H   UNL A   1      29.048  27.583  22.435  1.00  0.00     0.347 HD
BRANCH   9  12
ATOM     12  C   UNL A   1      29.666  26.665  24.111  1.00  0.00     0.309 C 
BRANCH  12  13
ATOM     13  C   UNL A   1      30.543  25.462  24.321  1.00  0.00     0.060 A 
ATOM     14  C   UNL A   1      30.771  24.430  23.429  1.00  0.00     0.041 A 
ATOM     15  S   UNL A   1      31.348  25.180  25.810  1.00  0.00    -0.141 S 
ATOM     16  C   UNL A   1      31.608  23.416  23.969  1.00  0.00     0.052 A 
ATOM     17  C   UNL A   1      32.029  23.716  25.242  1.00  0.00     0.085 A 
ATOM     18  Cl  UNL A   1      32.010  22.000  23.109  1.00  0.00    -0.083 Cl
ENDBRANCH  12  13
ENDBRANCH   9  12
ENDBRANCH   5   9
ENDBRANCH   3   5
ENDBRANCH   2   3
ENDBRANCH   1   2
BRANCH   1  19
ATOM     19  C   UNL A   1      31.721  30.944  26.427  1.00  0.00     0.275 C 
BRANCH  19  20
ATOM     20  O   UNL A   1      33.085  30.715  26.828  1.00  0.00    -0.458 OA
BRANCH  20  21
ATOM     21  C   UNL A   1      33.676  31.758  27.459  1.00  0.00     0.338 C 
ATOM     22  O   UNL A   1      33.190  32.852  27.687  1.00  0.00    -0.246 OA
BRANCH  21  23
ATOM     23  C   UNL A   1      35.007  31.364  27.938  1.00  0.00     0.060 A 
ATOM     24  C   UNL A   1      35.202  30.044  28.351  1.00  0.00     0.016 A 
ATOM     25  C   UNL A   1      36.017  32.312  28.092  1.00  0.00     0.016 A 
ATOM     26  C   UNL A   1      36.403  29.662  28.941  1.00  0.00     0.010 A 
ATOM     27  C   UNL A   1      37.230  31.926  28.670  1.00  0.00     0.010 A 
ATOM     28  C   UNL A   1      37.423  30.604  29.111  1.00  0.00    -0.014 A 
BRANCH  28  29
ATOM     29  C   UNL A   1      38.681  30.228  29.801  1.00  0.00     0.031 A 
ATOM     30  C   UNL A   1      39.598  29.225  29.167  1.00  0.00     0.074 A 
ATOM     31  C   UNL A   1      38.985  30.777  30.991  1.00  0.00     0.049 A 
ATOM     32  N   UNL A   1      40.632  28.610  29.677  1.00  0.00    -0.248 NA
ATOM     33  C   UNL A   1      39.302  28.861  27.773  1.00  0.00     0.031 C 
ATOM     34  C   UNL A   1      38.204  31.814  31.663  1.00  0.00     0.029 A 
ATOM     35  N   UNL A   1      40.023  30.526  31.852  1.00  0.00    -0.354 N 
ATOM     36  C   UNL A   1      41.095  27.759  28.680  1.00  0.00     0.074 A 
ATOM     37  C   UNL A   1      40.219  27.934  27.538  1.00  0.00     0.031 C 
ATOM     38  C   UNL A   1      38.785  32.106  32.839  1.00  0.00     0.029 A 
ATOM     39  C   UNL A   1      39.932  31.225  33.034  1.00  0.00     0.049 A 
ATOM     40  H   UNL A   1      40.760  29.908  31.646  1.00  0.00     0.167 HD
ATOM     41  C   UNL A   1      42.148  26.906  28.723  1.00  0.00     0.034 A 
ATOM     42  C   UNL A   1      40.658  31.125  34.166  1.00  0.00     0.034 A 
ATOM     43  C   UNL A   1      43.005  26.754  29.875  1.00  0.00     0.049 A 
ATOM     44  C   UNL A   1      41.769  30.109  34.225  1.00  0.00     0.074 A 
ATOM     45  C   UNL A   1      44.095  25.917  30.038  1.00  0.00     0.029 A 
ATOM     46  N   UNL A   1      42.862  27.456  31.066  1.00  0.00    -0.354 N 
ATOM     47  N   UNL A   1      42.165  29.266  33.298  1.00  0.00    -0.248 NA
ATOM     48  C   UNL A   1      42.520  30.020  35.483  1.00  0.00     0.031 C 
ATOM     49  C   UNL A   1      44.575  26.070  31.344  1.00  0.00     0.029 A 
ATOM     50  C   UNL A   1      43.828  27.053  31.975  1.00  0.00     0.049 A 
ATOM     51  H   UNL A   1      42.176  28.139  31.239  1.00  0.00     0.167 HD
ATOM     52  C   UNL A   1      43.231  28.565  33.855  1.00  0.00     0.074 A 
ATOM     53  C   UNL A   1      43.416  29.085  35.195  1.00  0.00     0.031 C 
ATOM     54  C   UNL A   1      43.991  27.584  33.307  1.00  0.00     0.034 A 
BRANCH  41  55
ATOM     55  C   UNL A   1      42.378  26.029  27.518  1.00  0.00     0.023 A 
ATOM     56  C   UNL A   1      41.885  24.716  27.448  1.00  0.00     0.031 A 
ATOM     57  C   UNL A   1      43.142  26.506  26.436  1.00  0.00     0.131 A 
ATOM     58  C   UNL A   1      42.216  23.902  26.353  1.00  0.00     0.055 A 
ATOM     59  C   UNL A   1      43.406  25.715  25.317  1.00  0.00     0.041 A 
ATOM     60  F   UNL A   1      43.660  27.744  26.458  1.00  0.00    -0.206 F 
ATOM     61  C   UNL A   1      42.955  24.400  25.277  1.00  0.00     0.022 A 
BRANCH  58  62
ATOM     62  S   UNL A   1      41.786  22.141  26.418  1.00  0.00     0.124 S 
ATOM     63  O   UNL A   1      42.201  21.785  27.773  1.00  0.00    -0.237 OA
ATOM     64  O   UNL A   1      40.348  22.158  26.173  1.00  0.00    -0.237 OA
ATOM     65  O   UNL A   1      42.593  21.551  25.352  1.00  0.00    -0.744 OA
ENDBRANCH  58  62
ENDBRANCH  41  55
BRANCH  42  66
ATOM     66  C   UNL A   1      40.308  31.950  35.356  1.00  0.00     0.023 A 
ATOM     67  C   UNL A   1      39.288  31.559  36.237  1.00  0.00     0.031 A 
ATOM     68  C   UNL A   1      40.973  33.163  35.613  1.00  0.00     0.131 A 
ATOM     69  C   UNL A   1      38.940  32.390  37.313  1.00  0.00     0.055 A 
ATOM     70  C   UNL A   1      40.659  33.960  36.713  1.00  0.00     0.041 A 
ATOM     71  F   UNL A   1      41.955  33.584  34.799  1.00  0.00    -0.206 F 
ATOM     72  C   UNL A   1      39.627  33.579  37.566  1.00  0.00     0.022 A 
BRANCH  69  73
ATOM     73  S   UNL A   1      37.518  31.930  38.342  1.00  0.00     0.124 S 
ATOM     74  O   UNL A   1      37.276  30.555  37.917  1.00  0.00    -0.237 OA
ATOM     75  O   UNL A   1      38.049  32.101  39.690  1.00  0.00    -0.237 OA
ATOM     76  O   UNL A   1      36.490  32.893  37.953  1.00  0.00    -0.744 OA
ENDBRANCH  69  73
ENDBRANCH  42  66
BRANCH  54  77
ATOM     77  C   UNL A   1      45.131  27.060  34.140  1.00  0.00     0.023 A 
ATOM     78  C   UNL A   1      44.973  25.967  35.008  1.00  0.00     0.031 A 
ATOM     79  C   UNL A   1      46.398  27.662  34.049  1.00  0.00     0.131 A 
ATOM     80  C   UNL A   1      46.059  25.530  35.782  1.00  0.00     0.055 A 
ATOM     81  C   UNL A   1      47.486  27.195  34.788  1.00  0.00     0.041 A 
ATOM     82  F   UNL A   1      46.599  28.709  33.233  1.00  0.00    -0.206 F 
ATOM     83  C   UNL A   1      47.317  26.128  35.666  1.00  0.00     0.022 A 
BRANCH  80  84
ATOM     84  S   UNL A   1      45.798  24.195  36.983  1.00  0.00     0.124 S 
ATOM     85  O   UNL A   1      44.679  24.708  37.767  1.00  0.00    -0.237 OA
ATOM     86  O   UNL A   1      45.505  23.054  36.124  1.00  0.00    -0.237 OA
ATOM     87  O   UNL A   1      47.073  24.122  37.695  1.00  0.00    -0.744 OA
ENDBRANCH  80  84
ENDBRANCH  54  77
ENDBRANCH  28  29
ENDBRANCH  21  23
ENDBRANCH  20  21
ENDBRANCH  19  20
ENDBRANCH   1  19
TORSDOF 19
ENDMDL
MODEL 2
REMARK VINA RESULT:     -10.1      5.369     10.477
REMARK SMILES CCC[C@@H]([NH2+]Cc1cc(Cl)cs1)C(=O)OCCOC(=O)c1ccc(-c2c3nc(c(-c4cc(S(=O)(=O)[O-])ccc4F)c4ccc([nH]4)c(-c4cc(S(=O)(=O)[O-])ccc4F)c4nc(c(-c5cc(S(=O)(=O)[O-])ccc5F)c5ccc2[nH]5)C=C4)C=C3)cc1
REMARK SMILES IDX 16 1 15 2 13 3 14 4 4 5 3 6 2 7 1 8 5 9 6 12 7 13 8 14 12 15
REMARK SMILES IDX 9 16 11 17 10 18 17 19 18 20 19 21 20 22 21 23 22 24 83 25
REMARK SMILES IDX 23 26 82 27 24 28 25 29 26 30 76 31 27 32 81 33 75 34 77 35
REMARK SMILES IDX 28 36 80 37 74 38 73 39 29 41 61 42 41 43 60 44 42 45 45 46
REMARK SMILES IDX 59 47 78 48 43 49 44 50 58 52 79 53 46 54 30 55 31 56 39 57
REMARK SMILES IDX 32 58 38 59 40 60 37 61 33 62 34 63 35 64 36 65 62 66 63 67
REMARK SMILES IDX 71 68 64 69 70 70 72 71 69 72 65 73 66 74 67 75 68 76 47 77
REMARK SMILES IDX 48 78 56 79 49 80 55 81 57 82 54 83 50 84 51 85 52 86 53 87
REMARK H PARENT 5 10 5 11 77 40 45 51
REMARK Flexibility Score: inf
ROOT
ATOM      1  C   UNL A   1      35.890  20.616  25.044  1.00  0.00     0.274 C 
ENDROOT
BRANCH   1   2
ATOM      2  O   UNL A   1      35.385  21.766  25.749  1.00  0.00    -0.458 OA
BRANCH   2   3
ATOM      3  C   UNL A   1      34.100  21.675  26.188  1.00  0.00     0.364 C 
ATOM      4  O   UNL A   1      33.795  21.527  27.369  1.00  0.00    -0.245 OA
BRANCH   3   5
ATOM      5  C   UNL A   1      33.050  21.804  25.060  1.00  0.00     0.293 C 
BRANCH   5   6
ATOM      6  C   UNL A   1      32.254  20.502  24.818  1.00  0.00     0.077 C 
BRANCH   6   7
ATOM      7  C   UNL A   1      32.461  19.844  23.445  1.00  0.00     0.003 C 
ATOM      8  C   UNL A   1      32.395  18.324  23.474  1.00  0.00     0.004 C 
ENDBRANCH   6   7
ENDBRANCH   5   6
BRANCH   5   9
ATOM      9  N   UNL A   1      32.117  22.939  25.276  1.00  0.00    -0.330 N 
ATOM     10  H   UNL A   1      31.590  22.758  26.130  1.00  0.00     0.347 HD
ATOM     11  H   UNL A   1      31.533  22.990  24.441  1.00  0.00     0.347 HD
BRANCH   9  12
ATOM     12  C   UNL A   1      32.756  24.256  25.408  1.00  0.00     0.309 C 
BRANCH  12  13
ATOM     13  C   UNL A   1      32.677  25.141  24.195  1.00  0.00     0.060 A 
ATOM     14  C   UNL A   1      33.563  26.140  23.831  1.00  0.00     0.041 A 
ATOM     15  S   UNL A   1      31.358  25.057  23.099  1.00  0.00    -0.141 S 
ATOM     16  C   UNL A   1      33.158  26.826  22.655  1.00  0.00     0.052 A 
ATOM     17  C   UNL A   1      31.998  26.312  22.128  1.00  0.00     0.085 A 
ATOM     18  Cl  UNL A   1      34.033  28.141  22.009  1.00  0.00    -0.083 Cl
ENDBRANCH  12  13
ENDBRANCH   9  12
ENDBRANCH   5   9
ENDBRANCH   3   5
ENDBRANCH   2   3
ENDBRANCH   1   2
BRANCH   1  19
ATOM     19  C   UNL A   1      37.419  20.625  24.955  1.00  0.00     0.275 C 
BRANCH  19  20
ATOM     20  O   UNL A   1      37.999  21.748  25.646  1.00  0.00    -0.458 OA
BRANCH  20  21
ATOM     21  C   UNL A   1      39.196  21.501  26.230  1.00  0.00     0.338 C 
ATOM     22  O   UNL A   1      39.819  20.454  26.218  1.00  0.00    -0.246 OA
BRANCH  21  23
ATOM     23  C   UNL A   1      39.723  22.733  26.831  1.00  0.00     0.060 A 
ATOM     24  C   UNL A   1      39.169  23.955  26.441  1.00  0.00     0.016 A 
ATOM     25  C   UNL A   1      40.829  22.695  27.678  1.00  0.00     0.016 A 
ATOM     26  C   UNL A   1      39.728  25.151  26.878  1.00  0.00     0.010 A 
ATOM     27  C   UNL A   1      41.381  23.896  28.131  1.00  0.00     0.010 A 
ATOM     28  C   UNL A   1      40.844  25.130  27.721  1.00  0.00    -0.014 A 
BRANCH  28  29
ATOM     29  C   UNL A   1      41.492  26.397  28.137  1.00  0.00     0.031 A 
ATOM     30  C   UNL A   1      40.683  27.437  28.853  1.00  0.00     0.074 A 
ATOM     31  C   UNL A   1      42.790  26.611  27.862  1.00  0.00     0.049 A 
ATOM     32  N   UNL A   1      40.986  28.679  29.127  1.00  0.00    -0.248 NA
ATOM     33  C   UNL A   1      39.349  27.023  29.314  1.00  0.00     0.031 C 
ATOM     34  C   UNL A   1      43.689  25.640  27.237  1.00  0.00     0.029 A 
ATOM     35  N   UNL A   1      43.576  27.718  28.057  1.00  0.00    -0.354 N 
ATOM     36  C   UNL A   1      39.870  29.209  29.763  1.00  0.00     0.074 A 
ATOM     37  C   UNL A   1      38.881  28.152  29.825  1.00  0.00     0.031 C 
ATOM     38  C   UNL A   1      44.901  26.198  27.090  1.00  0.00     0.029 A 
ATOM     39  C   UNL A   1      44.845  27.585  27.542  1.00  0.00     0.049 A 
ATOM     40  H   UNL A   1      43.264  28.528  28.520  1.00  0.00     0.167 HD
ATOM     41  C   UNL A   1      39.691  30.466  30.241  1.00  0.00     0.034 A 
ATOM     42  C   UNL A   1      45.829  28.495  27.398  1.00  0.00     0.034 A 
ATOM     43  C   UNL A   1      40.697  31.498  30.166  1.00  0.00     0.049 A 
ATOM     44  C   UNL A   1      45.579  29.908  27.855  1.00  0.00     0.074 A 
ATOM     45  C   UNL A   1      40.626  32.808  30.607  1.00  0.00     0.029 A 
ATOM     46  N   UNL A   1      41.959  31.336  29.607  1.00  0.00    -0.354 N 
ATOM     47  N   UNL A   1      44.500  30.419  28.404  1.00  0.00    -0.248 NA
ATOM     48  C   UNL A   1      46.670  30.871  27.662  1.00  0.00     0.031 C 
ATOM     49  C   UNL A   1      41.821  33.452  30.265  1.00  0.00     0.029 A 
ATOM     50  C   UNL A   1      42.665  32.527  29.671  1.00  0.00     0.049 A 
ATOM     51  H   UNL A   1      42.302  30.498  29.223  1.00  0.00     0.167 HD
ATOM     52  C   UNL A   1      44.794  31.758  28.646  1.00  0.00     0.074 A 
ATOM     53  C   UNL A   1      46.152  31.974  28.185  1.00  0.00     0.031 C 
ATOM     54  C   UNL A   1      44.017  32.719  29.203  1.00  0.00     0.034 A 
BRANCH  41  55
ATOM     55  C   UNL A   1      38.337  30.801  30.815  1.00  0.00     0.023 A 
ATOM     56  C   UNL A   1      37.333  31.410  30.044  1.00  0.00     0.031 A 
ATOM     57  C   UNL A   1      38.064  30.543  32.171  1.00  0.00     0.131 A 
ATOM     58  C   UNL A   1      36.128  31.802  30.650  1.00  0.00     0.055 A 
ATOM     59  C   UNL A   1      36.836  30.868  32.749  1.00  0.00     0.041 A 
ATOM     60  F   UNL A   1      38.995  29.985  32.961  1.00  0.00    -0.206 F 
ATOM     61  C   UNL A   1      35.865  31.514  31.992  1.00  0.00     0.022 A 
BRANCH  58  62
ATOM     62  S   UNL A   1      34.965  32.816  29.696  1.00  0.00     0.124 S 
ATOM     63  O   UNL A   1      34.372  31.823  28.803  1.00  0.00    -0.237 OA
ATOM     64  O   UNL A   1      34.087  33.347  30.734  1.00  0.00    -0.237 OA
ATOM     65  O   UNL A   1      35.823  33.800  29.042  1.00  0.00    -0.744 OA
ENDBRANCH  58  62
ENDBRANCH  41  55
BRANCH  42  66
ATOM     66  C   UNL A   1      47.105  28.120  26.726  1.00  0.00     0.023 A 
ATOM     67  C   UNL A   1      47.209  28.092  25.327  1.00  0.00     0.031 A 
ATOM     68  C   UNL A   1      48.235  27.754  27.479  1.00  0.00     0.131 A 
ATOM     69  C   UNL A   1      48.405  27.673  24.724  1.00  0.00     0.055 A 
ATOM     70  C   UNL A   1      49.439  27.388  26.876  1.00  0.00     0.041 A 
ATOM     71  F   UNL A   1      48.189  27.761  28.821  1.00  0.00    -0.206 F 
ATOM     72  C   UNL A   1      49.525  27.335  25.488  1.00  0.00     0.022 A 
BRANCH  69  73
ATOM     73  S   UNL A   1      48.456  27.502  22.919  1.00  0.00     0.124 S 
ATOM     74  O   UNL A   1      47.239  28.201  22.520  1.00  0.00    -0.237 OA
ATOM     75  O   UNL A   1      49.714  28.163  22.586  1.00  0.00    -0.237 OA
ATOM     76  O   UNL A   1      48.441  26.056  22.712  1.00  0.00    -0.744 OA
ENDBRANCH  69  73
ENDBRANCH  42  66
BRANCH  54  77
ATOM     77  C   UNL A   1      44.644  34.075  29.399  1.00  0.00     0.023 A 
ATOM     78  C   UNL A   1      44.495  35.104  28.455  1.00  0.00     0.031 A 
ATOM     79  C   UNL A   1      45.394  34.336  30.559  1.00  0.00     0.131 A 
ATOM     80  C   UNL A   1      45.119  36.342  28.672  1.00  0.00     0.055 A 
ATOM     81  C   UNL A   1      45.975  35.583  30.791  1.00  0.00     0.041 A 
ATOM     82  F   UNL A   1      45.564  33.384  31.490  1.00  0.00    -0.206 F 
ATOM     83  C   UNL A   1      45.845  36.592  29.840  1.00  0.00     0.022 A 
BRANCH  80  84
ATOM     84  S   UNL A   1      45.011  37.615  27.384  1.00  0.00     0.124 S 
ATOM     85  O   UNL A   1      46.095  37.230  26.487  1.00  0.00    -0.237 OA
ATOM     86  O   UNL A   1      43.659  37.426  26.869  1.00  0.00    -0.237 OA
ATOM     87  O   UNL A   1      45.224  38.862  28.116  1.00  0.00    -0.744 OA
ENDBRANCH  80  84
ENDBRANCH  54  77
ENDBRANCH  28  29
ENDBRANCH  21  23
ENDBRANCH  20  21
ENDBRANCH  19  20
ENDBRANCH   1  19
TORSDOF 19
ENDMDL
MODEL 3
REMARK VINA RESULT:     -10.0      5.333     10.242
REMARK SMILES CCC[C@@H]([NH2+]Cc1cc(Cl)cs1)C(=O)OCCOC(=O)c1ccc(-c2c3nc(c(-c4cc(S(=O)(=O)[O-])ccc4F)c4ccc([nH]4)c(-c4cc(S(=O)(=O)[O-])ccc4F)c4nc(c(-c5cc(S(=O)(=O)[O-])ccc5F)c5ccc2[nH]5)C=C4)C=C3)cc1
REMARK SMILES IDX 16 1 15 2 13 3 14 4 4 5 3 6 2 7 1 8 5 9 6 12 7 13 8 14 12 15
REMARK SMILES IDX 9 16 11 17 10 18 17 19 18 20 19 21 20 22 21 23 22 24 83 25
REMARK SMILES IDX 23 26 82 27 24 28 25 29 26 30 76 31 27 32 81 33 75 34 77 35
REMARK SMILES IDX 28 36 80 37 74 38 73 39 29 41 61 42 41 43 60 44 42 45 45 46
REMARK SMILES IDX 59 47 78 48 43 49 44 50 58 52 79 53 46 54 30 55 31 56 39 57
REMARK SMILES IDX 32 58 38 59 40 60 37 61 33 62 34 63 35 64 36 65 62 66 63 67
REMARK SMILES IDX 71 68 64 69 70 70 72 71 69 72 65 73 66 74 67 75 68 76 47 77
REMARK SMILES IDX 48 78 56 79 49 80 55 81 57 82 54 83 50 84 51 85 52 86 53 87
REMARK H PARENT 5 10 5 11 77 40 45 51
REMARK Flexibility Score: inf
ROOT
ATOM      1  C   UNL A   1      36.178  22.633  23.796  1.00  0.00     0.274 C 
ENDROOT
BRANCH   1   2
ATOM      2  O   UNL A   1      34.782  22.397  24.058  1.00  0.00    -0.458 OA
BRANCH   2   3
ATOM      3  C   UNL A   1      33.915  22.878  23.124  1.00  0.00     0.364 C 
ATOM      4  O   UNL A   1      34.221  23.723  22.286  1.00  0.00    -0.245 OA
BRANCH   3   5
ATOM      5  C   UNL A   1      32.509  22.239  23.197  1.00  0.00     0.293 C 
BRANCH   5   6
ATOM      6  C   UNL A   1      32.171  21.669  24.593  1.00  0.00     0.077 C 
BRANCH   6   7
ATOM      7  C   UNL A   1      32.417  20.164  24.773  1.00  0.00     0.003 C 
ATOM      8  C   UNL A   1      32.418  19.379  23.468  1.00  0.00     0.004 C 
ENDBRANCH   6   7
ENDBRANCH   5   6
BRANCH   5   9
ATOM      9  N   UNL A   1      31.436  23.164  22.751  1.00  0.00    -0.330 N 
ATOM     10  H   UNL A   1      30.695  22.608  22.325  1.00  0.00     0.347 HD
ATOM     11  H   UNL A   1      31.877  23.819  22.105  1.00  0.00     0.347 HD
BRANCH   9  12
ATOM     12  C   UNL A   1      30.836  23.982  23.815  1.00  0.00     0.309 C 
BRANCH  12  13
ATOM     13  C   UNL A   1      31.167  25.448  23.773  1.00  0.00     0.060 A 
ATOM     14  C   UNL A   1      30.516  26.431  23.049  1.00  0.00     0.041 A 
ATOM     15  S   UNL A   1      32.519  26.093  24.612  1.00  0.00    -0.141 S 
ATOM     16  C   UNL A   1      31.126  27.707  23.189  1.00  0.00     0.052 A 
ATOM     17  C   UNL A   1      32.201  27.676  24.044  1.00  0.00     0.085 A 
ATOM     18  Cl  UNL A   1      30.565  29.090  22.364  1.00  0.00    -0.083 Cl
ENDBRANCH  12  13
ENDBRANCH   9  12
ENDBRANCH   5   9
ENDBRANCH   3   5
ENDBRANCH   2   3
ENDBRANCH   1   2
BRANCH   1  19
ATOM     19  C   UNL A   1      37.051  21.458  24.249  1.00  0.00     0.275 C 
BRANCH  19  20
ATOM     20  O   UNL A   1      37.393  21.539  25.646  1.00  0.00    -0.458 OA
BRANCH  20  21
ATOM     21  C   UNL A   1      38.689  21.271  25.932  1.00  0.00     0.338 C 
ATOM     22  O   UNL A   1      39.304  20.251  25.675  1.00  0.00    -0.246 OA
BRANCH  21  23
ATOM     23  C   UNL A   1      39.321  22.449  26.539  1.00  0.00     0.060 A 
ATOM     24  C   UNL A   1      38.904  23.716  26.126  1.00  0.00     0.016 A 
ATOM     25  C   UNL A   1      40.395  22.307  27.417  1.00  0.00     0.016 A 
ATOM     26  C   UNL A   1      39.569  24.855  26.570  1.00  0.00     0.010 A 
ATOM     27  C   UNL A   1      41.054  23.451  27.876  1.00  0.00     0.010 A 
ATOM     28  C   UNL A   1      40.655  24.729  27.443  1.00  0.00    -0.014 A 
BRANCH  28  29
ATOM     29  C   UNL A   1      41.416  25.928  27.869  1.00  0.00     0.031 A 
ATOM     30  C   UNL A   1      40.717  27.011  28.634  1.00  0.00     0.074 A 
ATOM     31  C   UNL A   1      42.719  26.043  27.558  1.00  0.00     0.049 A 
ATOM     32  N   UNL A   1      41.128  28.217  28.927  1.00  0.00    -0.248 NA
ATOM     33  C   UNL A   1      39.368  26.695  29.127  1.00  0.00     0.031 C 
ATOM     34  C   UNL A   1      43.516  25.019  26.882  1.00  0.00     0.029 A 
ATOM     35  N   UNL A   1      43.599  27.077  27.754  1.00  0.00    -0.354 N 
ATOM     36  C   UNL A   1      40.079  28.819  29.611  1.00  0.00     0.074 A 
ATOM     37  C   UNL A   1      39.008  27.844  29.679  1.00  0.00     0.031 C 
ATOM     38  C   UNL A   1      44.766  25.481  26.710  1.00  0.00     0.029 A 
ATOM     39  C   UNL A   1      44.836  26.855  27.196  1.00  0.00     0.049 A 
ATOM     40  H   UNL A   1      43.367  27.898  28.246  1.00  0.00     0.167 HD
ATOM     41  C   UNL A   1      40.017  30.073  30.123  1.00  0.00     0.034 A 
ATOM     42  C   UNL A   1      45.887  27.686  27.043  1.00  0.00     0.034 A 
ATOM     43  C   UNL A   1      41.101  31.022  30.041  1.00  0.00     0.049 A 
ATOM     44  C   UNL A   1      45.767  29.103  27.541  1.00  0.00     0.074 A 
ATOM     45  C   UNL A   1      41.151  32.321  30.515  1.00  0.00     0.029 A 
ATOM     46  N   UNL A   1      42.329  30.773  29.439  1.00  0.00    -0.354 N 
ATOM     47  N   UNL A   1      44.750  29.684  28.135  1.00  0.00    -0.248 NA
ATOM     48  C   UNL A   1      46.927  29.979  27.336  1.00  0.00     0.031 C 
ATOM     49  C   UNL A   1      42.384  32.875  30.151  1.00  0.00     0.029 A 
ATOM     50  C   UNL A   1      43.131  31.901  29.509  1.00  0.00     0.049 A 
ATOM     51  H   UNL A   1      42.590  29.920  29.025  1.00  0.00     0.167 HD
ATOM     52  C   UNL A   1      45.159  30.988  28.399  1.00  0.00     0.074 A 
ATOM     53  C   UNL A   1      46.516  31.106  27.901  1.00  0.00     0.031 C 
ATOM     54  C   UNL A   1      44.480  31.995  29.003  1.00  0.00     0.034 A 
BRANCH  41  55
ATOM     55  C   UNL A   1      38.713  30.502  30.747  1.00  0.00     0.023 A 
ATOM     56  C   UNL A   1      37.735  31.202  30.021  1.00  0.00     0.031 A 
ATOM     57  C   UNL A   1      38.463  30.240  32.107  1.00  0.00     0.131 A 
ATOM     58  C   UNL A   1      36.585  31.674  30.673  1.00  0.00     0.055 A 
ATOM     59  C   UNL A   1      37.284  30.648  32.731  1.00  0.00     0.041 A 
ATOM     60  F   UNL A   1      39.372  29.596  32.857  1.00  0.00    -0.206 F 
ATOM     61  C   UNL A   1      36.343  31.383  32.018  1.00  0.00     0.022 A 
BRANCH  58  62
ATOM     62  S   UNL A   1      35.475  32.794  29.775  1.00  0.00     0.124 S 
ATOM     63  O   UNL A   1      36.418  33.547  28.951  1.00  0.00    -0.237 OA
ATOM     64  O   UNL A   1      34.602  31.868  29.062  1.00  0.00    -0.237 OA
ATOM     65  O   UNL A   1      34.832  33.565  30.837  1.00  0.00    -0.744 OA
ENDBRANCH  58  62
ENDBRANCH  41  55
BRANCH  42  66
ATOM     66  C   UNL A   1      47.108  27.227  26.322  1.00  0.00     0.023 A 
ATOM     67  C   UNL A   1      48.115  26.508  26.984  1.00  0.00     0.031 A 
ATOM     68  C   UNL A   1      47.298  27.532  24.962  1.00  0.00     0.131 A 
ATOM     69  C   UNL A   1      49.282  26.146  26.293  1.00  0.00     0.055 A 
ATOM     70  C   UNL A   1      48.437  27.125  24.266  1.00  0.00     0.041 A 
ATOM     71  F   UNL A   1      46.367  28.220  24.283  1.00  0.00    -0.206 F 
ATOM     72  C   UNL A   1      49.443  26.437  24.936  1.00  0.00     0.022 A 
BRANCH  69  73
ATOM     73  S   UNL A   1      50.627  25.352  27.215  1.00  0.00     0.124 S 
ATOM     74  O   UNL A   1      49.928  24.254  27.873  1.00  0.00    -0.237 OA
ATOM     75  O   UNL A   1      51.549  24.979  26.148  1.00  0.00    -0.237 OA
ATOM     76  O   UNL A   1      51.103  26.410  28.104  1.00  0.00    -0.744 OA
ENDBRANCH  69  73
ENDBRANCH  42  66
BRANCH  54  77
ATOM     77  C   UNL A   1      45.222  33.289  29.211  1.00  0.00     0.023 A 
ATOM     78  C   UNL A   1      45.159  34.338  28.279  1.00  0.00     0.031 A 
ATOM     79  C   UNL A   1      45.993  33.473  30.372  1.00  0.00     0.131 A 
ATOM     80  C   UNL A   1      45.887  35.515  28.506  1.00  0.00     0.055 A 
ATOM     81  C   UNL A   1      46.680  34.664  30.614  1.00  0.00     0.041 A 
ATOM     82  F   UNL A   1      46.083  32.500  31.293  1.00  0.00    -0.206 F 
ATOM     83  C   UNL A   1      46.635  35.690  29.675  1.00  0.00     0.022 A 
BRANCH  80  84
ATOM     84  S   UNL A   1      45.886  36.806  27.231  1.00  0.00     0.124 S 
ATOM     85  O   UNL A   1      46.607  37.887  27.895  1.00  0.00    -0.237 OA
ATOM     86  O   UNL A   1      46.583  36.158  26.127  1.00  0.00    -0.237 OA
ATOM     87  O   UNL A   1      44.464  37.059  27.001  1.00  0.00    -0.744 OA
ENDBRANCH  80  84
ENDBRANCH  54  77
ENDBRANCH  28  29
ENDBRANCH  21  23
ENDBRANCH  20  21
ENDBRANCH  19  20
ENDBRANCH   1  19
TORSDOF 19
ENDMDL
