MODEL 1
REMARK VINA RESULT:     -11.8      0.000      0.000
REMARK SMILES COc1ccc([C@@H](CC(=O)OCCOC(=O)c2ccc(-c3c4nc(c(-c5cc(S(=O)(=O)[O-])ccc5F)c5ccc([nH]5)c(-c5cc(S(=O)(=O)[O-])ccc5F)c5nc(c(-c6cc(S(=O)(=O)[O-])ccc6F)c6ccc3[nH]6)C=C5)C=C4)cc2)N2C(=O)[C@H]3CC=CC[C@H]3C2=O)cc1OC
REMARK SMILES IDX 12 1 11 2 9 3 10 4 8 5 7 6 6 7 3 8 4 9 92 10 5 11 91 12 2 13
REMARK SMILES IDX 1 14 93 15 94 16 80 17 81 18 89 19 82 20 83 21 88 22 90 23
REMARK SMILES IDX 84 24 87 25 85 26 86 27 13 28 14 29 15 30 16 31 17 32 18 33
REMARK SMILES IDX 79 34 19 35 78 36 20 37 21 38 22 39 72 40 23 41 77 42 71 43
REMARK SMILES IDX 73 44 24 45 76 46 70 47 69 48 25 50 57 51 37 52 56 53 38 54
REMARK SMILES IDX 41 55 55 56 74 57 39 58 40 59 54 61 75 62 42 63 26 64 27 65
REMARK SMILES IDX 35 66 28 67 34 68 36 69 33 70 29 71 30 72 31 73 32 74 58 75
REMARK SMILES IDX 59 76 67 77 60 78 66 79 68 80 65 81 61 82 62 83 63 84 64 85
REMARK SMILES IDX 43 86 44 87 52 88 45 89 51 90 53 91 50 92 46 93 47 94 48 95
REMARK SMILES IDX 49 96
REMARK H PARENT 73 49 41 60
REMARK Flexibility Score: inf
ROOT
ATOM      1  C   UNL A   1      36.802  22.347  23.714  1.00  0.00     0.274 C 
ENDROOT
BRANCH   1   2
ATOM      2  O   UNL A   1      35.356  22.399  23.750  1.00  0.00    -0.462 OA
BRANCH   2   3
ATOM      3  C   UNL A   1      34.773  23.406  23.064  1.00  0.00     0.308 C 
ATOM      4  O   UNL A   1      34.117  23.227  22.038  1.00  0.00    -0.252 OA
BRANCH   3   5
ATOM      5  C   UNL A   1      34.996  24.807  23.591  1.00  0.00     0.153 C 
BRANCH   5   6
ATOM      6  C   UNL A   1      34.012  25.560  24.508  1.00  0.00     0.135 C 
BRANCH   6   7
ATOM      7  C   UNL A   1      32.913  24.621  25.006  1.00  0.00    -0.020 A 
ATOM      8  C   UNL A   1      30.887  22.958  26.035  1.00  0.00     0.160 A 
ATOM      9  C   UNL A   1      30.693  23.650  24.835  1.00  0.00     0.051 A 
ATOM     10  C   UNL A   1      32.106  23.079  26.714  1.00  0.00     0.161 A 
ATOM     11  C   UNL A   1      31.687  24.492  24.338  1.00  0.00     0.010 A 
ATOM     12  C   UNL A   1      33.116  23.886  26.185  1.00  0.00     0.056 A 
BRANCH   8  13
ATOM     13  O   UNL A   1      29.930  22.110  26.527  1.00  0.00    -0.493 OA
ATOM     14  C   UNL A   1      29.060  22.733  27.469  1.00  0.00     0.278 C 
ENDBRANCH   8  13
BRANCH  10  15
ATOM     15  O   UNL A   1      32.436  22.443  27.884  1.00  0.00    -0.493 OA
ATOM     16  C   UNL A   1      33.670  21.733  27.831  1.00  0.00     0.278 C 
ENDBRANCH  10  15
ENDBRANCH   6   7
BRANCH   6  17
ATOM     17  N   UNL A   1      33.513  26.900  24.143  1.00  0.00    -0.274 N 
ATOM     18  C   UNL A   1      33.430  27.392  22.873  1.00  0.00     0.234 C 
ATOM     19  C   UNL A   1      33.664  27.964  24.994  1.00  0.00     0.234 C 
ATOM     20  O   UNL A   1      33.804  26.824  21.860  1.00  0.00    -0.274 OA
ATOM     21  C   UNL A   1      32.978  28.839  22.893  1.00  0.00     0.095 C 
ATOM     22  C   UNL A   1      33.166  29.233  24.353  1.00  0.00     0.095 C 
ATOM     23  O   UNL A   1      34.193  27.952  26.100  1.00  0.00    -0.274 OA
ATOM     24  C   UNL A   1      31.567  29.020  22.333  1.00  0.00     0.041 C 
ATOM     25  C   UNL A   1      31.930  29.720  25.110  1.00  0.00     0.041 C 
ATOM     26  C   UNL A   1      30.480  28.795  23.346  1.00  0.00    -0.030 C 
ATOM     27  C   UNL A   1      30.653  29.097  24.636  1.00  0.00    -0.030 C 
ENDBRANCH   6  17
ENDBRANCH   5   6
ENDBRANCH   3   5
ENDBRANCH   2   3
ENDBRANCH   1   2
BRANCH   1  28
ATOM     28  C   UNL A   1      37.364  21.131  24.459  1.00  0.00     0.275 C 
BRANCH  28  29
ATOM     29  O   UNL A   1      37.641  21.424  25.843  1.00  0.00    -0.458 OA
BRANCH  29  30
ATOM     30  C   UNL A   1      38.962  21.393  26.118  1.00  0.00     0.338 C 
ATOM     31  O   UNL A   1      39.726  20.491  25.807  1.00  0.00    -0.246 OA
BRANCH  30  32
ATOM     32  C   UNL A   1      39.447  22.605  26.779  1.00  0.00     0.060 A 
ATOM     33  C   UNL A   1      38.957  23.826  26.324  1.00  0.00     0.016 A 
ATOM     34  C   UNL A   1      40.584  22.554  27.590  1.00  0.00     0.016 A 
ATOM     35  C   UNL A   1      39.663  24.994  26.586  1.00  0.00     0.010 A 
ATOM     36  C   UNL A   1      41.245  23.744  27.922  1.00  0.00     0.010 A 
ATOM     37  C   UNL A   1      40.811  24.969  27.390  1.00  0.00    -0.014 A 
BRANCH  37  38
ATOM     38  C   UNL A   1      41.518  26.245  27.671  1.00  0.00     0.031 A 
ATOM     39  C   UNL A   1      40.880  27.337  28.484  1.00  0.00     0.074 A 
ATOM     40  C   UNL A   1      42.772  26.396  27.207  1.00  0.00     0.049 A 
ATOM     41  N   UNL A   1      41.340  28.530  28.772  1.00  0.00    -0.248 NA
ATOM     42  C   UNL A   1      39.547  27.059  29.033  1.00  0.00     0.031 C 
ATOM     43  C   UNL A   1      43.500  25.395  26.422  1.00  0.00     0.029 A 
ATOM     44  N   UNL A   1      43.659  27.432  27.329  1.00  0.00    -0.354 N 
ATOM     45  C   UNL A   1      40.345  29.158  29.514  1.00  0.00     0.074 A 
ATOM     46  C   UNL A   1      39.244  28.217  29.606  1.00  0.00     0.031 C 
ATOM     47  C   UNL A   1      44.727  25.857  26.151  1.00  0.00     0.029 A 
ATOM     48  C   UNL A   1      44.849  27.210  26.681  1.00  0.00     0.049 A 
ATOM     49  H   UNL A   1      43.462  28.255  27.833  1.00  0.00     0.167 HD
ATOM     50  C   UNL A   1      40.354  30.401  30.065  1.00  0.00     0.034 A 
ATOM     51  C   UNL A   1      45.911  28.013  26.496  1.00  0.00     0.034 A 
ATOM     52  C   UNL A   1      41.471  31.318  29.968  1.00  0.00     0.049 A 
ATOM     53  C   UNL A   1      45.897  29.385  27.100  1.00  0.00     0.074 A 
ATOM     54  C   UNL A   1      41.597  32.589  30.505  1.00  0.00     0.029 A 
ATOM     55  N   UNL A   1      42.657  31.065  29.284  1.00  0.00    -0.354 N 
ATOM     56  N   UNL A   1      44.942  29.976  27.779  1.00  0.00    -0.248 NA
ATOM     57  C   UNL A   1      47.107  30.192  26.921  1.00  0.00     0.031 C 
ATOM     58  C   UNL A   1      42.825  33.126  30.094  1.00  0.00     0.029 A 
ATOM     59  C   UNL A   1      43.503  32.165  29.362  1.00  0.00     0.049 A 
ATOM     60  H   UNL A   1      42.866  30.226  28.812  1.00  0.00     0.167 HD
ATOM     61  C   UNL A   1      45.437  31.231  28.111  1.00  0.00     0.074 A 
ATOM     62  C   UNL A   1      46.786  31.295  27.582  1.00  0.00     0.031 C 
ATOM     63  C   UNL A   1      44.830  32.237  28.792  1.00  0.00     0.034 A 
BRANCH  50  64
ATOM     64  C   UNL A   1      39.092  30.860  30.764  1.00  0.00     0.023 A 
ATOM     65  C   UNL A   1      37.962  31.309  30.055  1.00  0.00     0.031 A 
ATOM     66  C   UNL A   1      39.032  30.886  32.170  1.00  0.00     0.131 A 
ATOM     67  C   UNL A   1      36.861  31.838  30.748  1.00  0.00     0.055 A 
ATOM     68  C   UNL A   1      37.901  31.336  32.855  1.00  0.00     0.041 A 
ATOM     69  F   UNL A   1      40.082  30.490  32.906  1.00  0.00    -0.206 F 
ATOM     70  C   UNL A   1      36.813  31.833  32.143  1.00  0.00     0.022 A 
BRANCH  67  71
ATOM     71  S   UNL A   1      35.566  32.691  29.802  1.00  0.00     0.124 S 
ATOM     72  O   UNL A   1      35.479  31.865  28.599  1.00  0.00    -0.237 OA
ATOM     73  O   UNL A   1      34.424  32.627  30.706  1.00  0.00    -0.237 OA
ATOM     74  O   UNL A   1      36.121  34.026  29.589  1.00  0.00    -0.744 OA
ENDBRANCH  67  71
ENDBRANCH  50  64
BRANCH  51  75
ATOM     75  C   UNL A   1      47.039  27.537  25.654  1.00  0.00     0.023 A 
ATOM     76  C   UNL A   1      47.123  27.860  24.292  1.00  0.00     0.031 A 
ATOM     77  C   UNL A   1      48.081  26.786  26.228  1.00  0.00     0.131 A 
ATOM     78  C   UNL A   1      48.226  27.421  23.544  1.00  0.00     0.055 A 
ATOM     79  C   UNL A   1      49.195  26.389  25.490  1.00  0.00     0.041 A 
ATOM     80  F   UNL A   1      48.049  26.468  27.533  1.00  0.00    -0.206 F 
ATOM     81  C   UNL A   1      49.269  26.703  24.137  1.00  0.00     0.022 A 
BRANCH  78  82
ATOM     82  S   UNL A   1      48.273  27.787  21.770  1.00  0.00     0.124 S 
ATOM     83  O   UNL A   1      49.375  28.739  21.689  1.00  0.00    -0.237 OA
ATOM     84  O   UNL A   1      48.519  26.470  21.192  1.00  0.00    -0.237 OA
ATOM     85  O   UNL A   1      46.948  28.343  21.501  1.00  0.00    -0.744 OA
ENDBRANCH  78  82
ENDBRANCH  51  75
BRANCH  63  86
ATOM     86  C   UNL A   1      45.649  33.487  29.004  1.00  0.00     0.023 A 
ATOM     87  C   UNL A   1      45.606  34.557  28.091  1.00  0.00     0.031 A 
ATOM     88  C   UNL A   1      46.528  33.584  30.096  1.00  0.00     0.131 A 
ATOM     89  C   UNL A   1      46.480  35.644  28.247  1.00  0.00     0.055 A 
ATOM     90  C   UNL A   1      47.354  34.696  30.278  1.00  0.00     0.041 A 
ATOM     91  F   UNL A   1      46.614  32.591  30.995  1.00  0.00    -0.206 F 
ATOM     92  C   UNL A   1      47.345  35.726  29.341  1.00  0.00     0.022 A 
BRANCH  89  93
ATOM     93  S   UNL A   1      46.561  36.893  26.932  1.00  0.00     0.124 S 
ATOM     94  O   UNL A   1      46.820  36.074  25.751  1.00  0.00    -0.237 OA
ATOM     95  O   UNL A   1      45.239  37.507  27.005  1.00  0.00    -0.237 OA
ATOM     96  O   UNL A   1      47.669  37.753  27.343  1.00  0.00    -0.744 OA
ENDBRANCH  89  93
ENDBRANCH  63  86
ENDBRANCH  37  38
ENDBRANCH  30  32
ENDBRANCH  29  30
ENDBRANCH  28  29
ENDBRANCH   1  28
TORSDOF 19
ENDMDL
MODEL 2
REMARK VINA RESULT:     -11.4      1.511      7.456
REMARK SMILES COc1ccc([C@@H](CC(=O)OCCOC(=O)c2ccc(-c3c4nc(c(-c5cc(S(=O)(=O)[O-])ccc5F)c5ccc([nH]5)c(-c5cc(S(=O)(=O)[O-])ccc5F)c5nc(c(-c6cc(S(=O)(=O)[O-])ccc6F)c6ccc3[nH]6)C=C5)C=C4)cc2)N2C(=O)[C@H]3CC=CC[C@H]3C2=O)cc1OC
REMARK SMILES IDX 12 1 11 2 9 3 10 4 8 5 7 6 6 7 3 8 4 9 92 10 5 11 91 12 2 13
REMARK SMILES IDX 1 14 93 15 94 16 80 17 81 18 89 19 82 20 83 21 88 22 90 23
REMARK SMILES IDX 84 24 87 25 85 26 86 27 13 28 14 29 15 30 16 31 17 32 18 33
REMARK SMILES IDX 79 34 19 35 78 36 20 37 21 38 22 39 72 40 23 41 77 42 71 43
REMARK SMILES IDX 73 44 24 45 76 46 70 47 69 48 25 50 57 51 37 52 56 53 38 54
REMARK SMILES IDX 41 55 55 56 74 57 39 58 40 59 54 61 75 62 42 63 26 64 27 65
REMARK SMILES IDX 35 66 28 67 34 68 36 69 33 70 29 71 30 72 31 73 32 74 58 75
REMARK SMILES IDX 59 76 67 77 60 78 66 79 68 80 65 81 61 82 62 83 63 84 64 85
REMARK SMILES IDX 43 86 44 87 52 88 45 89 51 90 53 91 50 92 46 93 47 94 48 95
REMARK SMILES IDX 49 96
REMARK H PARENT 73 49 41 60
REMARK Flexibility Score: inf
ROOT
ATOM      1  C   UNL A   1      36.456  22.311  23.678  1.00  0.00     0.274 C 
ENDROOT
BRANCH   1   2
ATOM      2  O   UNL A   1      35.045  22.217  23.990  1.00  0.00    -0.462 OA
BRANCH   2   3
ATOM      3  C   UNL A   1      34.238  23.130  23.408  1.00  0.00     0.308 C 
ATOM      4  O   UNL A   1      33.264  22.824  22.721  1.00  0.00    -0.252 OA
BRANCH   3   5
ATOM      5  C   UNL A   1      34.608  24.585  23.600  1.00  0.00     0.153 C 
BRANCH   5   6
ATOM      6  C   UNL A   1      33.909  25.539  24.590  1.00  0.00     0.135 C 
BRANCH   6   7
ATOM      7  C   UNL A   1      32.851  24.792  25.401  1.00  0.00    -0.020 A 
ATOM      8  C   UNL A   1      30.953  23.467  27.005  1.00  0.00     0.160 A 
ATOM      9  C   UNL A   1      30.538  24.328  25.985  1.00  0.00     0.051 A 
ATOM     10  C   UNL A   1      32.321  23.248  27.213  1.00  0.00     0.161 A 
ATOM     11  C   UNL A   1      31.479  25.003  25.205  1.00  0.00     0.010 A 
ATOM     12  C   UNL A   1      33.256  23.889  26.397  1.00  0.00     0.056 A 
BRANCH   8  13
ATOM     13  O   UNL A   1      30.044  22.779  27.766  1.00  0.00    -0.493 OA
ATOM     14  C   UNL A   1      28.885  22.387  27.034  1.00  0.00     0.278 C 
ENDBRANCH   8  13
BRANCH  10  15
ATOM     15  O   UNL A   1      32.863  22.417  28.160  1.00  0.00    -0.493 OA
ATOM     16  C   UNL A   1      34.140  21.893  27.811  1.00  0.00     0.278 C 
ENDBRANCH  10  15
ENDBRANCH   6   7
BRANCH   6  17
ATOM     17  N   UNL A   1      33.476  26.884  24.164  1.00  0.00    -0.274 N 
ATOM     18  C   UNL A   1      33.434  27.329  22.876  1.00  0.00     0.234 C 
ATOM     19  C   UNL A   1      33.663  27.973  24.976  1.00  0.00     0.234 C 
ATOM     20  O   UNL A   1      33.797  26.706  21.892  1.00  0.00    -0.274 OA
ATOM     21  C   UNL A   1      33.047  28.794  22.832  1.00  0.00     0.095 C 
ATOM     22  C   UNL A   1      33.231  29.236  24.279  1.00  0.00     0.095 C 
ATOM     23  O   UNL A   1      34.174  27.982  26.090  1.00  0.00    -0.274 OA
ATOM     24  C   UNL A   1      31.654  29.015  22.243  1.00  0.00     0.041 C 
ATOM     25  C   UNL A   1      32.007  29.807  24.996  1.00  0.00     0.041 C 
ATOM     26  C   UNL A   1      30.543  28.879  23.245  1.00  0.00    -0.030 C 
ATOM     27  C   UNL A   1      30.711  29.223  24.526  1.00  0.00    -0.030 C 
ENDBRANCH   6  17
ENDBRANCH   5   6
ENDBRANCH   3   5
ENDBRANCH   2   3
ENDBRANCH   1   2
BRANCH   1  28
ATOM     28  C   UNL A   1      37.298  21.296  24.460  1.00  0.00     0.275 C 
BRANCH  28  29
ATOM     29  O   UNL A   1      37.544  21.724  25.814  1.00  0.00    -0.458 OA
BRANCH  29  30
ATOM     30  C   UNL A   1      38.854  21.682  26.133  1.00  0.00     0.338 C 
ATOM     31  O   UNL A   1      39.619  20.770  25.858  1.00  0.00    -0.246 OA
BRANCH  30  32
ATOM     32  C   UNL A   1      39.330  22.897  26.798  1.00  0.00     0.060 A 
ATOM     33  C   UNL A   1      38.863  24.118  26.317  1.00  0.00     0.016 A 
ATOM     34  C   UNL A   1      40.442  22.844  27.641  1.00  0.00     0.016 A 
ATOM     35  C   UNL A   1      39.571  25.281  26.590  1.00  0.00     0.010 A 
ATOM     36  C   UNL A   1      41.103  24.031  27.983  1.00  0.00     0.010 A 
ATOM     37  C   UNL A   1      40.695  25.255  27.428  1.00  0.00    -0.014 A 
BRANCH  37  38
ATOM     38  C   UNL A   1      41.404  26.527  27.718  1.00  0.00     0.031 A 
ATOM     39  C   UNL A   1      42.785  26.800  27.189  1.00  0.00     0.074 A 
ATOM     40  C   UNL A   1      40.765  27.463  28.446  1.00  0.00     0.049 A 
ATOM     41  N   UNL A   1      43.561  27.834  27.396  1.00  0.00    -0.248 NA
ATOM     42  C   UNL A   1      43.377  25.769  26.326  1.00  0.00     0.031 C 
ATOM     43  C   UNL A   1      39.415  27.317  28.996  1.00  0.00     0.029 A 
ATOM     44  N   UNL A   1      41.153  28.715  28.841  1.00  0.00    -0.354 N 
ATOM     45  C   UNL A   1      44.744  27.573  26.713  1.00  0.00     0.074 A 
ATOM     46  C   UNL A   1      44.588  26.263  26.107  1.00  0.00     0.031 C 
ATOM     47  C   UNL A   1      39.079  28.442  29.639  1.00  0.00     0.029 A 
ATOM     48  C   UNL A   1      40.212  29.359  29.607  1.00  0.00     0.049 A 
ATOM     49  H   UNL A   1      42.020  29.114  28.600  1.00  0.00     0.167 HD
ATOM     50  C   UNL A   1      45.853  28.353  26.604  1.00  0.00     0.034 A 
ATOM     51  C   UNL A   1      40.261  30.540  30.247  1.00  0.00     0.034 A 
ATOM     52  C   UNL A   1      45.979  29.662  27.211  1.00  0.00     0.049 A 
ATOM     53  C   UNL A   1      41.496  31.380  30.126  1.00  0.00     0.074 A 
ATOM     54  C   UNL A   1      47.044  30.546  27.147  1.00  0.00     0.029 A 
ATOM     55  N   UNL A   1      45.010  30.276  27.998  1.00  0.00    -0.354 N 
ATOM     56  N   UNL A   1      42.616  31.113  29.497  1.00  0.00    -0.248 NA
ATOM     57  C   UNL A   1      41.468  32.686  30.792  1.00  0.00     0.031 C 
ATOM     58  C   UNL A   1      46.745  31.660  27.944  1.00  0.00     0.029 A 
ATOM     59  C   UNL A   1      45.464  31.511  28.447  1.00  0.00     0.049 A 
ATOM     60  H   UNL A   1      44.128  29.891  28.207  1.00  0.00     0.167 HD
ATOM     61  C   UNL A   1      43.432  32.221  29.691  1.00  0.00     0.074 A 
ATOM     62  C   UNL A   1      42.660  33.169  30.470  1.00  0.00     0.031 C 
ATOM     63  C   UNL A   1      44.703  32.432  29.263  1.00  0.00     0.034 A 
BRANCH  50  64
ATOM     64  C   UNL A   1      47.035  27.779  25.853  1.00  0.00     0.023 A 
ATOM     65  C   UNL A   1      47.300  28.105  24.510  1.00  0.00     0.031 A 
ATOM     66  C   UNL A   1      47.892  26.856  26.482  1.00  0.00     0.131 A 
ATOM     67  C   UNL A   1      48.337  27.455  23.820  1.00  0.00     0.055 A 
ATOM     68  C   UNL A   1      48.973  26.275  25.814  1.00  0.00     0.041 A 
ATOM     69  F   UNL A   1      47.683  26.487  27.755  1.00  0.00    -0.206 F 
ATOM     70  C   UNL A   1      49.189  26.560  24.469  1.00  0.00     0.022 A 
BRANCH  67  71
ATOM     71  S   UNL A   1      48.449  27.665  22.020  1.00  0.00     0.124 S 
ATOM     72  O   UNL A   1      49.665  28.464  21.885  1.00  0.00    -0.237 OA
ATOM     73  O   UNL A   1      48.532  26.288  21.548  1.00  0.00    -0.237 OA
ATOM     74  O   UNL A   1      47.214  28.369  21.680  1.00  0.00    -0.744 OA
ENDBRANCH  67  71
ENDBRANCH  50  64
BRANCH  51  75
ATOM     75  C   UNL A   1      39.113  30.949  31.099  1.00  0.00     0.023 A 
ATOM     76  C   UNL A   1      38.069  31.733  30.592  1.00  0.00     0.031 A 
ATOM     77  C   UNL A   1      39.032  30.507  32.432  1.00  0.00     0.131 A 
ATOM     78  C   UNL A   1      36.986  32.063  31.422  1.00  0.00     0.055 A 
ATOM     79  C   UNL A   1      37.935  30.803  33.239  1.00  0.00     0.041 A 
ATOM     80  F   UNL A   1      40.004  29.740  32.954  1.00  0.00    -0.206 F 
ATOM     81  C   UNL A   1      36.904  31.590  32.735  1.00  0.00     0.022 A 
BRANCH  78  82
ATOM     82  S   UNL A   1      35.685  33.141  30.765  1.00  0.00     0.124 S 
ATOM     83  O   UNL A   1      35.889  34.361  31.538  1.00  0.00    -0.237 OA
ATOM     84  O   UNL A   1      36.032  33.212  29.350  1.00  0.00    -0.237 OA
ATOM     85  O   UNL A   1      34.454  32.411  31.064  1.00  0.00    -0.744 OA
ENDBRANCH  78  82
ENDBRANCH  51  75
BRANCH  63  86
ATOM     86  C   UNL A   1      45.318  33.760  29.630  1.00  0.00     0.023 A 
ATOM     87  C   UNL A   1      46.059  33.924  30.816  1.00  0.00     0.031 A 
ATOM     88  C   UNL A   1      45.108  34.889  28.820  1.00  0.00     0.131 A 
ATOM     89  C   UNL A   1      46.500  35.202  31.193  1.00  0.00     0.055 A 
ATOM     90  C   UNL A   1      45.601  36.148  29.172  1.00  0.00     0.041 A 
ATOM     91  F   UNL A   1      44.406  34.792  27.681  1.00  0.00    -0.206 F 
ATOM     92  C   UNL A   1      46.286  36.312  30.373  1.00  0.00     0.022 A 
BRANCH  89  93
ATOM     93  S   UNL A   1      47.249  35.416  32.833  1.00  0.00     0.124 S 
ATOM     94  O   UNL A   1      46.557  36.601  33.331  1.00  0.00    -0.237 OA
ATOM     95  O   UNL A   1      46.918  34.158  33.493  1.00  0.00    -0.237 OA
ATOM     96  O   UNL A   1      48.669  35.606  32.538  1.00  0.00    -0.744 OA
ENDBRANCH  89  93
ENDBRANCH  63  86
ENDBRANCH  37  38
ENDBRANCH  30  32
ENDBRANCH  29  30
ENDBRANCH  28  29
ENDBRANCH   1  28
TORSDOF 19
ENDMDL
MODEL 3
REMARK VINA RESULT:     -11.4      1.816      8.071
REMARK SMILES COc1ccc([C@@H](CC(=O)OCCOC(=O)c2ccc(-c3c4nc(c(-c5cc(S(=O)(=O)[O-])ccc5F)c5ccc([nH]5)c(-c5cc(S(=O)(=O)[O-])ccc5F)c5nc(c(-c6cc(S(=O)(=O)[O-])ccc6F)c6ccc3[nH]6)C=C5)C=C4)cc2)N2C(=O)[C@H]3CC=CC[C@H]3C2=O)cc1OC
REMARK SMILES IDX 12 1 11 2 9 3 10 4 8 5 7 6 6 7 3 8 4 9 92 10 5 11 91 12 2 13
REMARK SMILES IDX 1 14 93 15 94 16 80 17 81 18 89 19 82 20 83 21 88 22 90 23
REMARK SMILES IDX 84 24 87 25 85 26 86 27 13 28 14 29 15 30 16 31 17 32 18 33
REMARK SMILES IDX 79 34 19 35 78 36 20 37 21 38 22 39 72 40 23 41 77 42 71 43
REMARK SMILES IDX 73 44 24 45 76 46 70 47 69 48 25 50 57 51 37 52 56 53 38 54
REMARK SMILES IDX 41 55 55 56 74 57 39 58 40 59 54 61 75 62 42 63 26 64 27 65
REMARK SMILES IDX 35 66 28 67 34 68 36 69 33 70 29 71 30 72 31 73 32 74 58 75
REMARK SMILES IDX 59 76 67 77 60 78 66 79 68 80 65 81 61 82 62 83 63 84 64 85
REMARK SMILES IDX 43 86 44 87 52 88 45 89 51 90 53 91 50 92 46 93 47 94 48 95
REMARK SMILES IDX 49 96
REMARK H PARENT 73 49 41 60
REMARK Flexibility Score: inf
ROOT
ATOM      1  C   UNL A   1      36.758  21.042  24.878  1.00  0.00     0.274 C 
ENDROOT
BRANCH   1   2
ATOM      2  O   UNL A   1      36.913  22.462  25.114  1.00  0.00    -0.462 OA
BRANCH   2   3
ATOM      3  C   UNL A   1      35.928  23.067  25.813  1.00  0.00     0.308 C 
ATOM      4  O   UNL A   1      35.289  22.500  26.700  1.00  0.00    -0.252 OA
BRANCH   3   5
ATOM      5  C   UNL A   1      35.597  24.493  25.429  1.00  0.00     0.153 C 
BRANCH   5   6
ATOM      6  C   UNL A   1      34.456  24.896  24.473  1.00  0.00     0.135 C 
BRANCH   6   7
ATOM      7  C   UNL A   1      33.973  26.313  24.779  1.00  0.00    -0.020 A 
ATOM      8  C   UNL A   1      32.963  28.889  25.302  1.00  0.00     0.160 A 
ATOM      9  C   UNL A   1      33.571  28.148  26.321  1.00  0.00     0.051 A 
ATOM     10  C   UNL A   1      32.878  28.352  24.012  1.00  0.00     0.161 A 
ATOM     11  C   UNL A   1      34.050  26.862  26.067  1.00  0.00     0.010 A 
ATOM     12  C   UNL A   1      33.403  27.084  23.753  1.00  0.00     0.056 A 
BRANCH   8  13
ATOM     13  O   UNL A   1      32.507  30.161  25.527  1.00  0.00    -0.493 OA
ATOM     14  C   UNL A   1      32.679  30.588  26.877  1.00  0.00     0.278 C 
ENDBRANCH   8  13
BRANCH  10  15
ATOM     15  O   UNL A   1      32.329  28.976  22.920  1.00  0.00    -0.493 OA
ATOM     16  C   UNL A   1      30.915  28.839  22.822  1.00  0.00     0.278 C 
ENDBRANCH  10  15
ENDBRANCH   6   7
BRANCH   6  17
ATOM     17  N   UNL A   1      33.358  23.957  24.170  1.00  0.00    -0.274 N 
ATOM     18  C   UNL A   1      32.899  23.656  22.922  1.00  0.00     0.234 C 
ATOM     19  C   UNL A   1      32.322  23.779  25.050  1.00  0.00     0.234 C 
ATOM     20  O   UNL A   1      33.287  24.155  21.878  1.00  0.00    -0.274 OA
ATOM     21  C   UNL A   1      31.692  22.743  23.005  1.00  0.00     0.095 C 
ATOM     22  C   UNL A   1      31.286  22.852  24.470  1.00  0.00     0.095 C 
ATOM     23  O   UNL A   1      32.175  24.329  26.136  1.00  0.00    -0.274 OA
ATOM     24  C   UNL A   1      31.989  21.330  22.503  1.00  0.00     0.041 C 
ATOM     25  C   UNL A   1      31.261  21.560  25.286  1.00  0.00     0.041 C 
ATOM     26  C   UNL A   1      32.588  20.430  23.546  1.00  0.00    -0.030 C 
ATOM     27  C   UNL A   1      32.270  20.549  24.838  1.00  0.00    -0.030 C 
ENDBRANCH   6  17
ENDBRANCH   5   6
ENDBRANCH   3   5
ENDBRANCH   2   3
ENDBRANCH   1   2
BRANCH   1  28
ATOM     28  C   UNL A   1      37.969  20.233  25.354  1.00  0.00     0.275 C 
BRANCH  28  29
ATOM     29  O   UNL A   1      39.175  21.022  25.371  1.00  0.00    -0.458 OA
BRANCH  29  30
ATOM     30  C   UNL A   1      39.810  20.960  26.561  1.00  0.00     0.338 C 
ATOM     31  O   UNL A   1      40.173  19.933  27.115  1.00  0.00    -0.246 OA
BRANCH  30  32
ATOM     32  C   UNL A   1      40.111  22.276  27.128  1.00  0.00     0.060 A 
ATOM     33  C   UNL A   1      39.568  23.390  26.493  1.00  0.00     0.016 A 
ATOM     34  C   UNL A   1      41.152  22.420  28.048  1.00  0.00     0.016 A 
ATOM     35  C   UNL A   1      40.135  24.642  26.693  1.00  0.00     0.010 A 
ATOM     36  C   UNL A   1      41.666  23.697  28.310  1.00  0.00     0.010 A 
ATOM     37  C   UNL A   1      41.187  24.813  27.605  1.00  0.00    -0.014 A 
BRANCH  37  38
ATOM     38  C   UNL A   1      41.743  26.174  27.811  1.00  0.00     0.031 A 
ATOM     39  C   UNL A   1      43.074  26.577  27.240  1.00  0.00     0.074 A 
ATOM     40  C   UNL A   1      41.008  27.067  28.501  1.00  0.00     0.049 A 
ATOM     41  N   UNL A   1      43.725  27.706  27.375  1.00  0.00    -0.248 NA
ATOM     42  C   UNL A   1      43.772  25.576  26.422  1.00  0.00     0.031 C 
ATOM     43  C   UNL A   1      39.693  26.794  29.086  1.00  0.00     0.029 A 
ATOM     44  N   UNL A   1      41.250  28.376  28.819  1.00  0.00    -0.354 N 
ATOM     45  C   UNL A   1      44.921  27.548  26.682  1.00  0.00     0.074 A 
ATOM     46  C   UNL A   1      44.912  26.197  26.151  1.00  0.00     0.031 C 
ATOM     47  C   UNL A   1      39.235  27.907  29.674  1.00  0.00     0.029 A 
ATOM     48  C   UNL A   1      40.250  28.948  29.568  1.00  0.00     0.049 A 
ATOM     49  H   UNL A   1      42.060  28.861  28.539  1.00  0.00     0.167 HD
ATOM     50  C   UNL A   1      45.927  28.446  26.508  1.00  0.00     0.034 A 
ATOM     51  C   UNL A   1      40.167  30.160  30.143  1.00  0.00     0.034 A 
ATOM     52  C   UNL A   1      45.905  29.793  27.040  1.00  0.00     0.049 A 
ATOM     53  C   UNL A   1      41.292  31.132  29.951  1.00  0.00     0.074 A 
ATOM     54  C   UNL A   1      46.857  30.791  26.906  1.00  0.00     0.029 A 
ATOM     55  N   UNL A   1      44.881  30.332  27.813  1.00  0.00    -0.354 N 
ATOM     56  N   UNL A   1      42.427  30.963  29.314  1.00  0.00    -0.248 NA
ATOM     57  C   UNL A   1      41.119  32.460  30.545  1.00  0.00     0.031 C 
ATOM     58  C   UNL A   1      46.439  31.906  27.648  1.00  0.00     0.029 A 
ATOM     59  C   UNL A   1      45.192  31.634  28.186  1.00  0.00     0.049 A 
ATOM     60  H   UNL A   1      44.055  29.858  28.061  1.00  0.00     0.167 HD
ATOM     61  C   UNL A   1      43.108  32.169  29.431  1.00  0.00     0.074 A 
ATOM     62  C   UNL A   1      42.240  33.062  30.173  1.00  0.00     0.031 C 
ATOM     63  C   UNL A   1      44.339  32.504  28.965  1.00  0.00     0.034 A 
BRANCH  50  64
ATOM     64  C   UNL A   1      47.158  27.974  25.765  1.00  0.00     0.023 A 
ATOM     65  C   UNL A   1      47.338  28.205  24.388  1.00  0.00     0.031 A 
ATOM     66  C   UNL A   1      48.155  27.243  26.439  1.00  0.00     0.131 A 
ATOM     67  C   UNL A   1      48.438  27.644  23.718  1.00  0.00     0.055 A 
ATOM     68  C   UNL A   1      49.289  26.758  25.783  1.00  0.00     0.041 A 
ATOM     69  F   UNL A   1      48.035  26.971  27.748  1.00  0.00    -0.206 F 
ATOM     70  C   UNL A   1      49.426  26.942  24.411  1.00  0.00     0.022 A 
BRANCH  67  71
ATOM     71  S   UNL A   1      48.470  27.696  21.903  1.00  0.00     0.124 S 
ATOM     72  O   UNL A   1      49.577  28.616  21.648  1.00  0.00    -0.237 OA
ATOM     73  O   UNL A   1      48.703  26.301  21.553  1.00  0.00    -0.237 OA
ATOM     74  O   UNL A   1      47.149  28.216  21.553  1.00  0.00    -0.744 OA
ENDBRANCH  67  71
ENDBRANCH  50  64
BRANCH  51  75
ATOM     75  C   UNL A   1      38.992  30.478  30.995  1.00  0.00     0.023 A 
ATOM     76  C   UNL A   1      37.890  31.180  30.489  1.00  0.00     0.031 A 
ATOM     77  C   UNL A   1      38.944  30.029  32.328  1.00  0.00     0.131 A 
ATOM     78  C   UNL A   1      36.785  31.425  31.319  1.00  0.00     0.055 A 
ATOM     79  C   UNL A   1      37.827  30.238  33.135  1.00  0.00     0.041 A 
ATOM     80  F   UNL A   1      39.972  29.338  32.848  1.00  0.00    -0.206 F 
ATOM     81  C   UNL A   1      36.740  30.945  32.632  1.00  0.00     0.022 A 
BRANCH  78  82
ATOM     82  S   UNL A   1      35.405  32.401  30.664  1.00  0.00     0.124 S 
ATOM     83  O   UNL A   1      34.393  32.219  31.698  1.00  0.00    -0.237 OA
ATOM     84  O   UNL A   1      35.992  33.733  30.568  1.00  0.00    -0.237 OA
ATOM     85  O   UNL A   1      35.112  31.760  29.384  1.00  0.00    -0.744 OA
ENDBRANCH  78  82
ENDBRANCH  51  75
BRANCH  63  86
ATOM     86  C   UNL A   1      44.797  33.914  29.248  1.00  0.00     0.023 A 
ATOM     87  C   UNL A   1      45.522  34.232  30.412  1.00  0.00     0.031 A 
ATOM     88  C   UNL A   1      44.451  34.961  28.377  1.00  0.00     0.131 A 
ATOM     89  C   UNL A   1      45.813  35.572  30.709  1.00  0.00     0.055 A 
ATOM     90  C   UNL A   1      44.795  36.287  28.650  1.00  0.00     0.041 A 
ATOM     91  F   UNL A   1      43.756  34.717  27.255  1.00  0.00    -0.206 F 
ATOM     92  C   UNL A   1      45.465  36.600  29.829  1.00  0.00     0.022 A 
BRANCH  89  93
ATOM     93  S   UNL A   1      46.544  35.967  32.323  1.00  0.00     0.124 S 
ATOM     94  O   UNL A   1      45.611  35.326  33.245  1.00  0.00    -0.237 OA
ATOM     95  O   UNL A   1      47.865  35.356  32.224  1.00  0.00    -0.237 OA
ATOM     96  O   UNL A   1      46.537  37.429  32.354  1.00  0.00    -0.744 OA
ENDBRANCH  89  93
ENDBRANCH  63  86
ENDBRANCH  37  38
ENDBRANCH  30  32
ENDBRANCH  29  30
ENDBRANCH  28  29
ENDBRANCH   1  28
TORSDOF 19
ENDMDL
