MODEL 1
REMARK VINA RESULT:     -11.1      0.000      0.000
REMARK SMILES CCC[C@@H](C)[C@H](NS(=O)(=O)c1ccc(C)c(C)c1)C(=O)OCCOC(=O)c1ccc(-c2c3nc(c(-c4cc(S(=O)(=O)[O-])ccc4F)c4ccc([nH]4)c(-c4cc(S(=O)(=O)[O-])ccc4F)c4nc(c(-c5cc(S(=O)(=O)[O-])ccc5F)c5ccc2[nH]5)C=C4)C=C3)cc1
REMARK SMILES IDX 22 1 21 2 19 3 20 4 6 5 4 6 5 7 3 8 2 9 1 10 7 11 8 13 9 14
REMARK SMILES IDX 10 15 11 16 12 17 18 18 13 19 16 20 14 21 17 22 15 23 23 24
REMARK SMILES IDX 24 25 25 26 26 27 27 28 28 29 89 30 29 31 88 32 30 33 31 34
REMARK SMILES IDX 32 35 82 36 33 37 87 38 81 39 83 40 34 41 86 42 80 43 79 44
REMARK SMILES IDX 35 46 67 47 47 48 66 49 48 50 51 51 65 52 84 53 49 54 50 55
REMARK SMILES IDX 64 57 85 58 52 59 36 60 37 61 45 62 38 63 44 64 46 65 43 66
REMARK SMILES IDX 39 67 40 68 41 69 42 70 68 71 69 72 77 73 70 74 76 75 78 76
REMARK SMILES IDX 75 77 71 78 72 79 73 80 74 81 53 82 54 83 62 84 55 85 61 86
REMARK SMILES IDX 63 87 60 88 56 89 57 90 58 91 59 92
REMARK H PARENT 7 12 83 45 51 56
REMARK Flexibility Score: inf
ROOT
ATOM      1  C   UNL A   1      35.759  20.399  25.118  1.00  0.00     0.274 C 
ENDROOT
BRANCH   1   2
ATOM      2  O   UNL A   1      34.636  20.899  24.371  1.00  0.00    -0.461 OA
BRANCH   2   3
ATOM      3  C   UNL A   1      33.874  21.849  24.952  1.00  0.00     0.324 C 
ATOM      4  O   UNL A   1      34.335  22.796  25.582  1.00  0.00    -0.250 OA
BRANCH   3   5
ATOM      5  C   UNL A   1      32.381  21.668  24.720  1.00  0.00     0.182 C 
BRANCH   5   6
ATOM      6  C   UNL A   1      31.992  22.199  23.295  1.00  0.00     0.015 C 
ATOM      7  C   UNL A   1      31.777  21.108  22.233  1.00  0.00     0.010 C 
BRANCH   6   8
ATOM      8  C   UNL A   1      33.081  23.190  22.782  1.00  0.00     0.005 C 
BRANCH   8   9
ATOM      9  C   UNL A   1      32.595  24.617  22.505  1.00  0.00    -0.003 C 
ATOM     10  C   UNL A   1      33.655  25.669  22.794  1.00  0.00     0.004 C 
ENDBRANCH   8   9
ENDBRANCH   6   8
ENDBRANCH   5   6
BRANCH   5  11
ATOM     11  N   UNL A   1      31.320  21.907  25.737  1.00  0.00    -0.197 NA
ATOM     12  H   UNL A   1      31.326  21.059  26.304  1.00  0.00     0.142 HD
BRANCH  11  13
ATOM     13  S   UNL A   1      31.142  23.144  26.859  1.00  0.00     0.241 S 
ATOM     14  O   UNL A   1      29.811  23.007  27.409  1.00  0.00    -0.207 OA
ATOM     15  O   UNL A   1      32.288  23.029  27.738  1.00  0.00    -0.207 OA
BRANCH  13  16
ATOM     16  C   UNL A   1      31.208  24.753  26.146  1.00  0.00     0.082 A 
ATOM     17  C   UNL A   1      32.289  25.579  26.470  1.00  0.00     0.022 A 
ATOM     18  C   UNL A   1      30.201  25.217  25.309  1.00  0.00     0.025 A 
ATOM     19  C   UNL A   1      32.356  26.867  25.944  1.00  0.00     0.005 A 
ATOM     20  C   UNL A   1      30.281  26.495  24.738  1.00  0.00    -0.047 A 
ATOM     21  C   UNL A   1      31.361  27.336  25.072  1.00  0.00    -0.048 A 
ATOM     22  C   UNL A   1      29.232  26.867  23.725  1.00  0.00     0.044 C 
ATOM     23  C   UNL A   1      31.471  28.734  24.533  1.00  0.00     0.044 C 
ENDBRANCH  13  16
ENDBRANCH  11  13
ENDBRANCH   5  11
ENDBRANCH   3   5
ENDBRANCH   2   3
ENDBRANCH   1   2
BRANCH   1  24
ATOM     24  C   UNL A   1      37.023  21.142  24.679  1.00  0.00     0.275 C 
BRANCH  24  25
ATOM     25  O   UNL A   1      37.596  21.901  25.760  1.00  0.00    -0.458 OA
BRANCH  25  26
ATOM     26  C   UNL A   1      38.831  21.523  26.152  1.00  0.00     0.338 C 
ATOM     27  O   UNL A   1      39.325  20.402  26.126  1.00  0.00    -0.246 OA
BRANCH  26  28
ATOM     28  C   UNL A   1      39.630  22.684  26.518  1.00  0.00     0.060 A 
ATOM     29  C   UNL A   1      40.617  22.516  27.495  1.00  0.00     0.016 A 
ATOM     30  C   UNL A   1      39.323  23.938  25.995  1.00  0.00     0.016 A 
ATOM     31  C   UNL A   1      41.291  23.624  27.984  1.00  0.00     0.010 A 
ATOM     32  C   UNL A   1      40.012  25.045  26.474  1.00  0.00     0.010 A 
ATOM     33  C   UNL A   1      40.986  24.891  27.477  1.00  0.00    -0.014 A 
BRANCH  33  34
ATOM     34  C   UNL A   1      41.671  26.092  27.989  1.00  0.00     0.031 A 
ATOM     35  C   UNL A   1      40.882  27.115  28.742  1.00  0.00     0.074 A 
ATOM     36  C   UNL A   1      42.971  26.264  27.697  1.00  0.00     0.049 A 
ATOM     37  N   UNL A   1      41.201  28.343  29.046  1.00  0.00    -0.248 NA
ATOM     38  C   UNL A   1      39.547  26.701  29.199  1.00  0.00     0.031 C 
ATOM     39  C   UNL A   1      43.821  25.281  27.021  1.00  0.00     0.029 A 
ATOM     40  N   UNL A   1      43.794  27.339  27.897  1.00  0.00    -0.354 N 
ATOM     41  C   UNL A   1      40.097  28.864  29.712  1.00  0.00     0.074 A 
ATOM     42  C   UNL A   1      39.095  27.819  29.750  1.00  0.00     0.031 C 
ATOM     43  C   UNL A   1      45.039  25.811  26.836  1.00  0.00     0.029 A 
ATOM     44  C   UNL A   1      45.030  27.187  27.316  1.00  0.00     0.049 A 
ATOM     45  H   UNL A   1      43.528  28.138  28.406  1.00  0.00     0.167 HD
ATOM     46  C   UNL A   1      39.946  30.107  30.230  1.00  0.00     0.034 A 
ATOM     47  C   UNL A   1      46.017  28.086  27.138  1.00  0.00     0.034 A 
ATOM     48  C   UNL A   1      40.970  31.121  30.142  1.00  0.00     0.049 A 
ATOM     49  C   UNL A   1      45.797  29.487  27.647  1.00  0.00     0.074 A 
ATOM     50  C   UNL A   1      40.939  32.430  30.591  1.00  0.00     0.029 A 
ATOM     51  N   UNL A   1      42.218  30.932  29.558  1.00  0.00    -0.354 N 
ATOM     52  N   UNL A   1      44.733  29.992  28.231  1.00  0.00    -0.248 NA
ATOM     53  C   UNL A   1      46.903  30.434  27.476  1.00  0.00     0.031 C 
ATOM     54  C   UNL A   1      42.145  33.043  30.231  1.00  0.00     0.029 A 
ATOM     55  C   UNL A   1      42.958  32.100  29.622  1.00  0.00     0.049 A 
ATOM     56  H   UNL A   1      42.530  30.089  29.155  1.00  0.00     0.167 HD
ATOM     57  C   UNL A   1      45.059  31.310  28.533  1.00  0.00     0.074 A 
ATOM     58  C   UNL A   1      46.415  31.518  28.063  1.00  0.00     0.031 C 
ATOM     59  C   UNL A   1      44.314  32.262  29.149  1.00  0.00     0.034 A 
BRANCH  46  60
ATOM     60  C   UNL A   1      38.618  30.440  30.865  1.00  0.00     0.023 A 
ATOM     61  C   UNL A   1      37.584  31.057  30.138  1.00  0.00     0.031 A 
ATOM     62  C   UNL A   1      38.397  30.179  32.228  1.00  0.00     0.131 A 
ATOM     63  C   UNL A   1      36.407  31.452  30.792  1.00  0.00     0.055 A 
ATOM     64  C   UNL A   1      37.193  30.507  32.857  1.00  0.00     0.041 A 
ATOM     65  F   UNL A   1      39.355  29.616  32.982  1.00  0.00    -0.206 F 
ATOM     66  C   UNL A   1      36.194  31.160  32.142  1.00  0.00     0.022 A 
BRANCH  63  67
ATOM     67  S   UNL A   1      35.213  32.476  29.888  1.00  0.00     0.124 S 
ATOM     68  O   UNL A   1      34.242  32.789  30.934  1.00  0.00    -0.237 OA
ATOM     69  O   UNL A   1      36.035  33.588  29.426  1.00  0.00    -0.237 OA
ATOM     70  O   UNL A   1      34.722  31.585  28.838  1.00  0.00    -0.744 OA
ENDBRANCH  63  67
ENDBRANCH  46  60
BRANCH  47  71
ATOM     71  C   UNL A   1      47.260  27.703  26.417  1.00  0.00     0.023 A 
ATOM     72  C   UNL A   1      47.374  27.889  25.032  1.00  0.00     0.031 A 
ATOM     73  C   UNL A   1      48.353  27.136  27.098  1.00  0.00     0.131 A 
ATOM     74  C   UNL A   1      48.538  27.477  24.365  1.00  0.00     0.055 A 
ATOM     75  C   UNL A   1      49.528  26.775  26.439  1.00  0.00     0.041 A 
ATOM     76  F   UNL A   1      48.301  26.944  28.427  1.00  0.00    -0.206 F 
ATOM     77  C   UNL A   1      49.621  26.934  25.060  1.00  0.00     0.022 A 
BRANCH  74  78
ATOM     78  S   UNL A   1      48.583  27.591  22.556  1.00  0.00     0.124 S 
ATOM     79  O   UNL A   1      47.318  28.260  22.268  1.00  0.00    -0.237 OA
ATOM     80  O   UNL A   1      49.790  28.379  22.333  1.00  0.00    -0.237 OA
ATOM     81  O   UNL A   1      48.663  26.196  22.129  1.00  0.00    -0.744 OA
ENDBRANCH  74  78
ENDBRANCH  47  71
BRANCH  59  82
ATOM     82  C   UNL A   1      44.990  33.579  29.416  1.00  0.00     0.023 A 
ATOM     83  C   UNL A   1      44.848  34.674  28.548  1.00  0.00     0.031 A 
ATOM     84  C   UNL A   1      45.786  33.733  30.564  1.00  0.00     0.131 A 
ATOM     85  C   UNL A   1      45.532  35.867  28.821  1.00  0.00     0.055 A 
ATOM     86  C   UNL A   1      46.423  34.937  30.857  1.00  0.00     0.041 A 
ATOM     87  F   UNL A   1      45.950  32.712  31.422  1.00  0.00    -0.206 F 
ATOM     88  C   UNL A   1      46.305  36.010  29.978  1.00  0.00     0.022 A 
BRANCH  85  89
ATOM     89  S   UNL A   1      45.446  37.216  27.613  1.00  0.00     0.124 S 
ATOM     90  O   UNL A   1      44.208  36.909  26.904  1.00  0.00    -0.237 OA
ATOM     91  O   UNL A   1      45.416  38.400  28.466  1.00  0.00    -0.237 OA
ATOM     92  O   UNL A   1      46.668  37.051  26.827  1.00  0.00    -0.744 OA
ENDBRANCH  85  89
ENDBRANCH  59  82
ENDBRANCH  33  34
ENDBRANCH  26  28
ENDBRANCH  25  26
ENDBRANCH  24  25
ENDBRANCH   1  24
TORSDOF 20
ENDMDL
MODEL 2
REMARK VINA RESULT:     -11.1      2.009      2.427
REMARK SMILES CCC[C@@H](C)[C@H](NS(=O)(=O)c1ccc(C)c(C)c1)C(=O)OCCOC(=O)c1ccc(-c2c3nc(c(-c4cc(S(=O)(=O)[O-])ccc4F)c4ccc([nH]4)c(-c4cc(S(=O)(=O)[O-])ccc4F)c4nc(c(-c5cc(S(=O)(=O)[O-])ccc5F)c5ccc2[nH]5)C=C4)C=C3)cc1
REMARK SMILES IDX 22 1 21 2 19 3 20 4 6 5 4 6 5 7 3 8 2 9 1 10 7 11 8 13 9 14
REMARK SMILES IDX 10 15 11 16 12 17 18 18 13 19 16 20 14 21 17 22 15 23 23 24
REMARK SMILES IDX 24 25 25 26 26 27 27 28 28 29 89 30 29 31 88 32 30 33 31 34
REMARK SMILES IDX 32 35 82 36 33 37 87 38 81 39 83 40 34 41 86 42 80 43 79 44
REMARK SMILES IDX 35 46 67 47 47 48 66 49 48 50 51 51 65 52 84 53 49 54 50 55
REMARK SMILES IDX 64 57 85 58 52 59 36 60 37 61 45 62 38 63 44 64 46 65 43 66
REMARK SMILES IDX 39 67 40 68 41 69 42 70 68 71 69 72 77 73 70 74 76 75 78 76
REMARK SMILES IDX 75 77 71 78 72 79 73 80 74 81 53 82 54 83 62 84 55 85 61 86
REMARK SMILES IDX 63 87 60 88 56 89 57 90 58 91 59 92
REMARK H PARENT 7 12 83 45 51 56
REMARK Flexibility Score: inf
ROOT
ATOM      1  C   UNL A   1      35.516  20.419  25.140  1.00  0.00     0.274 C 
ENDROOT
BRANCH   1   2
ATOM      2  O   UNL A   1      35.051  21.474  24.279  1.00  0.00    -0.461 OA
BRANCH   2   3
ATOM      3  C   UNL A   1      33.718  21.657  24.182  1.00  0.00     0.324 C 
ATOM      4  O   UNL A   1      32.931  20.764  23.877  1.00  0.00    -0.250 OA
BRANCH   3   5
ATOM      5  C   UNL A   1      33.263  23.067  24.528  1.00  0.00     0.182 C 
BRANCH   5   6
ATOM      6  C   UNL A   1      34.426  24.086  24.260  1.00  0.00     0.015 C 
ATOM      7  C   UNL A   1      34.993  24.767  25.516  1.00  0.00     0.010 C 
BRANCH   6   8
ATOM      8  C   UNL A   1      33.949  25.188  23.265  1.00  0.00     0.005 C 
BRANCH   8   9
ATOM      9  C   UNL A   1      32.820  24.772  22.314  1.00  0.00    -0.003 C 
ATOM     10  C   UNL A   1      32.552  25.802  21.228  1.00  0.00     0.004 C 
ENDBRANCH   8   9
ENDBRANCH   6   8
ENDBRANCH   5   6
BRANCH   5  11
ATOM     11  N   UNL A   1      32.431  23.434  25.708  1.00  0.00    -0.197 NA
ATOM     12  H   UNL A   1      33.074  23.947  26.312  1.00  0.00     0.142 HD
BRANCH  11  13
ATOM     13  S   UNL A   1      30.998  24.305  25.806  1.00  0.00     0.241 S 
ATOM     14  O   UNL A   1      30.225  23.950  24.636  1.00  0.00    -0.207 OA
ATOM     15  O   UNL A   1      30.466  24.016  27.123  1.00  0.00    -0.207 OA
BRANCH  13  16
ATOM     16  C   UNL A   1      31.230  26.049  25.723  1.00  0.00     0.082 A 
ATOM     17  C   UNL A   1      31.897  26.681  26.776  1.00  0.00     0.022 A 
ATOM     18  C   UNL A   1      30.737  26.796  24.660  1.00  0.00     0.025 A 
ATOM     19  C   UNL A   1      32.073  28.063  26.754  1.00  0.00     0.005 A 
ATOM     20  C   UNL A   1      30.947  28.181  24.604  1.00  0.00    -0.047 A 
ATOM     21  C   UNL A   1      31.607  28.825  25.671  1.00  0.00    -0.048 A 
ATOM     22  C   UNL A   1      30.518  28.896  23.352  1.00  0.00     0.044 C 
ATOM     23  C   UNL A   1      31.813  30.313  25.690  1.00  0.00     0.044 C 
ENDBRANCH  13  16
ENDBRANCH  11  13
ENDBRANCH   5  11
ENDBRANCH   3   5
ENDBRANCH   2   3
ENDBRANCH   1   2
BRANCH   1  24
ATOM     24  C   UNL A   1      37.024  20.245  24.948  1.00  0.00     0.275 C 
BRANCH  24  25
ATOM     25  O   UNL A   1      37.759  21.369  25.467  1.00  0.00    -0.458 OA
BRANCH  25  26
ATOM     26  C   UNL A   1      38.972  21.088  25.987  1.00  0.00     0.338 C 
ATOM     27  O   UNL A   1      39.606  20.042  25.913  1.00  0.00    -0.246 OA
BRANCH  26  28
ATOM     28  C   UNL A   1      39.563  22.279  26.582  1.00  0.00     0.060 A 
ATOM     29  C   UNL A   1      39.203  23.522  26.050  1.00  0.00     0.016 A 
ATOM     30  C   UNL A   1      40.546  22.158  27.561  1.00  0.00     0.016 A 
ATOM     31  C   UNL A   1      39.858  24.665  26.479  1.00  0.00     0.010 A 
ATOM     32  C   UNL A   1      41.190  23.307  28.003  1.00  0.00     0.010 A 
ATOM     33  C   UNL A   1      40.856  24.559  27.454  1.00  0.00    -0.014 A 
BRANCH  33  34
ATOM     34  C   UNL A   1      41.585  25.753  27.918  1.00  0.00     0.031 A 
ATOM     35  C   UNL A   1      40.847  26.808  28.678  1.00  0.00     0.074 A 
ATOM     36  C   UNL A   1      42.877  25.890  27.577  1.00  0.00     0.049 A 
ATOM     37  N   UNL A   1      41.203  28.034  28.945  1.00  0.00    -0.248 NA
ATOM     38  C   UNL A   1      39.519  26.434  29.190  1.00  0.00     0.031 C 
ATOM     39  C   UNL A   1      43.681  24.875  26.891  1.00  0.00     0.029 A 
ATOM     40  N   UNL A   1      43.730  26.949  27.726  1.00  0.00    -0.354 N 
ATOM     41  C   UNL A   1      40.135  28.593  29.639  1.00  0.00     0.074 A 
ATOM     42  C   UNL A   1      39.112  27.572  29.734  1.00  0.00     0.031 C 
ATOM     43  C   UNL A   1      44.903  25.374  26.653  1.00  0.00     0.029 A 
ATOM     44  C   UNL A   1      44.941  26.759  27.105  1.00  0.00     0.049 A 
ATOM     45  H   UNL A   1      43.500  27.765  28.228  1.00  0.00     0.167 HD
ATOM     46  C   UNL A   1      40.030  29.849  30.137  1.00  0.00     0.034 A 
ATOM     47  C   UNL A   1      45.941  27.632  26.874  1.00  0.00     0.034 A 
ATOM     48  C   UNL A   1      41.072  30.837  29.993  1.00  0.00     0.049 A 
ATOM     49  C   UNL A   1      45.770  29.046  27.362  1.00  0.00     0.074 A 
ATOM     50  C   UNL A   1      41.086  32.155  30.416  1.00  0.00     0.029 A 
ATOM     51  N   UNL A   1      42.294  30.609  29.369  1.00  0.00    -0.354 N 
ATOM     52  N   UNL A   1      44.739  29.587  27.973  1.00  0.00    -0.248 NA
ATOM     53  C   UNL A   1      46.889  29.965  27.134  1.00  0.00     0.031 C 
ATOM     54  C   UNL A   1      42.291  32.734  30.002  1.00  0.00     0.029 A 
ATOM     55  C   UNL A   1      43.062  31.761  29.383  1.00  0.00     0.049 A 
ATOM     56  H   UNL A   1      42.573  29.752  28.972  1.00  0.00     0.167 HD
ATOM     57  C   UNL A   1      45.104  30.903  28.237  1.00  0.00     0.074 A 
ATOM     58  C   UNL A   1      46.447  31.071  27.715  1.00  0.00     0.031 C 
ATOM     59  C   UNL A   1      44.402  31.883  28.860  1.00  0.00     0.034 A 
BRANCH  46  60
ATOM     60  C   UNL A   1      38.733  30.224  30.811  1.00  0.00     0.023 A 
ATOM     61  C   UNL A   1      37.690  30.854  30.111  1.00  0.00     0.031 A 
ATOM     62  C   UNL A   1      38.553  29.989  32.186  1.00  0.00     0.131 A 
ATOM     63  C   UNL A   1      36.545  31.288  30.798  1.00  0.00     0.055 A 
ATOM     64  C   UNL A   1      37.380  30.356  32.850  1.00  0.00     0.041 A 
ATOM     65  F   UNL A   1      39.523  29.415  32.915  1.00  0.00    -0.206 F 
ATOM     66  C   UNL A   1      36.373  31.023  32.159  1.00  0.00     0.022 A 
BRANCH  63  67
ATOM     67  S   UNL A   1      35.345  32.327  29.918  1.00  0.00     0.124 S 
ATOM     68  O   UNL A   1      34.360  32.589  30.965  1.00  0.00    -0.237 OA
ATOM     69  O   UNL A   1      36.156  33.466  29.505  1.00  0.00    -0.237 OA
ATOM     70  O   UNL A   1      34.878  31.466  28.833  1.00  0.00    -0.744 OA
ENDBRANCH  63  67
ENDBRANCH  46  60
BRANCH  47  71
ATOM     71  C   UNL A   1      47.149  27.207  26.118  1.00  0.00     0.023 A 
ATOM     72  C   UNL A   1      48.205  26.547  26.762  1.00  0.00     0.031 A 
ATOM     73  C   UNL A   1      47.274  27.462  24.740  1.00  0.00     0.131 A 
ATOM     74  C   UNL A   1      49.356  26.198  26.039  1.00  0.00     0.055 A 
ATOM     75  C   UNL A   1      48.398  27.067  24.014  1.00  0.00     0.041 A 
ATOM     76  F   UNL A   1      46.288  28.084  24.072  1.00  0.00    -0.206 F 
ATOM     77  C   UNL A   1      49.454  26.441  24.667  1.00  0.00     0.022 A 
BRANCH  74  78
ATOM     78  S   UNL A   1      50.760  25.487  26.940  1.00  0.00     0.124 S 
ATOM     79  O   UNL A   1      50.128  24.379  27.649  1.00  0.00    -0.237 OA
ATOM     80  O   UNL A   1      51.663  25.122  25.854  1.00  0.00    -0.237 OA
ATOM     81  O   UNL A   1      51.215  26.589  27.784  1.00  0.00    -0.744 OA
ENDBRANCH  74  78
ENDBRANCH  47  71
BRANCH  59  82
ATOM     82  C   UNL A   1      45.116  33.189  29.076  1.00  0.00     0.023 A 
ATOM     83  C   UNL A   1      45.882  33.434  30.227  1.00  0.00     0.031 A 
ATOM     84  C   UNL A   1      45.026  34.201  28.104  1.00  0.00     0.131 A 
ATOM     85  C   UNL A   1      46.494  34.683  30.399  1.00  0.00     0.055 A 
ATOM     86  C   UNL A   1      45.679  35.423  28.257  1.00  0.00     0.041 A 
ATOM     87  F   UNL A   1      44.305  34.010  26.987  1.00  0.00    -0.206 F 
ATOM     88  C   UNL A   1      46.411  35.672  29.414  1.00  0.00     0.022 A 
BRANCH  85  89
ATOM     89  S   UNL A   1      47.357  35.023  31.957  1.00  0.00     0.124 S 
ATOM     90  O   UNL A   1      46.268  35.489  32.810  1.00  0.00    -0.237 OA
ATOM     91  O   UNL A   1      47.920  33.720  32.295  1.00  0.00    -0.237 OA
ATOM     92  O   UNL A   1      48.337  36.045  31.590  1.00  0.00    -0.744 OA
ENDBRANCH  85  89
ENDBRANCH  59  82
ENDBRANCH  33  34
ENDBRANCH  26  28
ENDBRANCH  25  26
ENDBRANCH  24  25
ENDBRANCH   1  24
TORSDOF 20
ENDMDL
MODEL 3
REMARK VINA RESULT:     -11.1      1.535      2.277
REMARK SMILES CCC[C@@H](C)[C@H](NS(=O)(=O)c1ccc(C)c(C)c1)C(=O)OCCOC(=O)c1ccc(-c2c3nc(c(-c4cc(S(=O)(=O)[O-])ccc4F)c4ccc([nH]4)c(-c4cc(S(=O)(=O)[O-])ccc4F)c4nc(c(-c5cc(S(=O)(=O)[O-])ccc5F)c5ccc2[nH]5)C=C4)C=C3)cc1
REMARK SMILES IDX 22 1 21 2 19 3 20 4 6 5 4 6 5 7 3 8 2 9 1 10 7 11 8 13 9 14
REMARK SMILES IDX 10 15 11 16 12 17 18 18 13 19 16 20 14 21 17 22 15 23 23 24
REMARK SMILES IDX 24 25 25 26 26 27 27 28 28 29 89 30 29 31 88 32 30 33 31 34
REMARK SMILES IDX 32 35 82 36 33 37 87 38 81 39 83 40 34 41 86 42 80 43 79 44
REMARK SMILES IDX 35 46 67 47 47 48 66 49 48 50 51 51 65 52 84 53 49 54 50 55
REMARK SMILES IDX 64 57 85 58 52 59 36 60 37 61 45 62 38 63 44 64 46 65 43 66
REMARK SMILES IDX 39 67 40 68 41 69 42 70 68 71 69 72 77 73 70 74 76 75 78 76
REMARK SMILES IDX 75 77 71 78 72 79 73 80 74 81 53 82 54 83 62 84 55 85 61 86
REMARK SMILES IDX 63 87 60 88 56 89 57 90 58 91 59 92
REMARK H PARENT 7 12 83 45 51 56
REMARK Flexibility Score: inf
ROOT
ATOM      1  C   UNL A   1      36.077  21.009  24.622  1.00  0.00     0.274 C 
ENDROOT
BRANCH   1   2
ATOM      2  O   UNL A   1      35.832  22.424  24.712  1.00  0.00    -0.461 OA
BRANCH   2   3
ATOM      3  C   UNL A   1      35.650  23.099  23.558  1.00  0.00     0.324 C 
ATOM      4  O   UNL A   1      36.382  22.980  22.580  1.00  0.00    -0.250 OA
BRANCH   3   5
ATOM      5  C   UNL A   1      34.421  23.998  23.558  1.00  0.00     0.182 C 
BRANCH   5   6
ATOM      6  C   UNL A   1      33.339  23.426  24.541  1.00  0.00     0.015 C 
ATOM      7  C   UNL A   1      31.941  23.243  23.930  1.00  0.00     0.010 C 
BRANCH   6   8
ATOM      8  C   UNL A   1      33.222  24.346  25.795  1.00  0.00     0.005 C 
BRANCH   8   9
ATOM      9  C   UNL A   1      32.000  24.093  26.685  1.00  0.00    -0.003 C 
ATOM     10  C   UNL A   1      31.922  22.660  27.190  1.00  0.00     0.004 C 
ENDBRANCH   8   9
ENDBRANCH   6   8
ENDBRANCH   5   6
BRANCH   5  11
ATOM     11  N   UNL A   1      33.827  24.638  22.351  1.00  0.00    -0.197 NA
ATOM     12  H   UNL A   1      33.151  23.951  22.016  1.00  0.00     0.142 HD
BRANCH  11  13
ATOM     13  S   UNL A   1      33.036  26.109  22.173  1.00  0.00     0.241 S 
ATOM     14  O   UNL A   1      33.956  26.985  21.482  1.00  0.00    -0.207 OA
ATOM     15  O   UNL A   1      31.765  25.784  21.555  1.00  0.00    -0.207 OA
BRANCH  13  16
ATOM     16  C   UNL A   1      32.670  26.899  23.704  1.00  0.00     0.082 A 
ATOM     17  C   UNL A   1      31.346  26.896  24.153  1.00  0.00     0.022 A 
ATOM     18  C   UNL A   1      33.656  27.543  24.440  1.00  0.00     0.025 A 
ATOM     19  C   UNL A   1      31.020  27.537  25.346  1.00  0.00     0.005 A 
ATOM     20  C   UNL A   1      33.348  28.152  25.665  1.00  0.00    -0.047 A 
ATOM     21  C   UNL A   1      32.012  28.164  26.116  1.00  0.00    -0.048 A 
ATOM     22  C   UNL A   1      34.493  28.694  26.475  1.00  0.00     0.044 C 
ATOM     23  C   UNL A   1      31.615  28.848  27.393  1.00  0.00     0.044 C 
ENDBRANCH  13  16
ENDBRANCH  11  13
ENDBRANCH   5  11
ENDBRANCH   3   5
ENDBRANCH   2   3
ENDBRANCH   1   2
BRANCH   1  24
ATOM     24  C   UNL A   1      37.534  20.729  24.997  1.00  0.00     0.275 C 
BRANCH  24  25
ATOM     25  O   UNL A   1      38.143  21.861  25.645  1.00  0.00    -0.458 OA
BRANCH  25  26
ATOM     26  C   UNL A   1      39.335  21.629  26.234  1.00  0.00     0.338 C 
ATOM     27  O   UNL A   1      40.010  20.607  26.203  1.00  0.00    -0.246 OA
BRANCH  26  28
ATOM     28  C   UNL A   1      39.846  22.844  26.851  1.00  0.00     0.060 A 
ATOM     29  C   UNL A   1      39.404  24.071  26.343  1.00  0.00     0.016 A 
ATOM     30  C   UNL A   1      40.837  22.771  27.828  1.00  0.00     0.016 A 
ATOM     31  C   UNL A   1      39.983  25.247  26.794  1.00  0.00     0.010 A 
ATOM     32  C   UNL A   1      41.404  23.952  28.291  1.00  0.00     0.010 A 
ATOM     33  C   UNL A   1      40.987  25.188  27.766  1.00  0.00    -0.014 A 
BRANCH  33  34
ATOM     34  C   UNL A   1      41.636  26.419  28.253  1.00  0.00     0.031 A 
ATOM     35  C   UNL A   1      40.812  27.446  28.962  1.00  0.00     0.074 A 
ATOM     36  C   UNL A   1      42.936  26.613  27.975  1.00  0.00     0.049 A 
ATOM     37  N   UNL A   1      41.098  28.689  29.233  1.00  0.00    -0.248 NA
ATOM     38  C   UNL A   1      39.480  27.015  29.411  1.00  0.00     0.031 C 
ATOM     39  C   UNL A   1      43.819  25.631  27.342  1.00  0.00     0.029 A 
ATOM     40  N   UNL A   1      43.731  27.712  28.155  1.00  0.00    -0.354 N 
ATOM     41  C   UNL A   1      39.972  29.204  29.867  1.00  0.00     0.074 A 
ATOM     42  C   UNL A   1      38.994  28.137  29.922  1.00  0.00     0.031 C 
ATOM     43  C   UNL A   1      45.028  26.183  27.160  1.00  0.00     0.029 A 
ATOM     44  C   UNL A   1      44.979  27.573  27.597  1.00  0.00     0.049 A 
ATOM     45  H   UNL A   1      43.438  28.520  28.635  1.00  0.00     0.167 HD
ATOM     46  C   UNL A   1      39.784  30.459  30.344  1.00  0.00     0.034 A 
ATOM     47  C   UNL A   1      45.948  28.489  27.407  1.00  0.00     0.034 A 
ATOM     48  C   UNL A   1      40.785  31.493  30.242  1.00  0.00     0.049 A 
ATOM     49  C   UNL A   1      45.688  29.898  27.870  1.00  0.00     0.074 A 
ATOM     50  C   UNL A   1      40.718  32.814  30.649  1.00  0.00     0.029 A 
ATOM     51  N   UNL A   1      42.047  31.316  29.682  1.00  0.00    -0.354 N 
ATOM     52  N   UNL A   1      44.604  30.396  28.422  1.00  0.00    -0.248 NA
ATOM     53  C   UNL A   1      46.774  30.866  27.688  1.00  0.00     0.031 C 
ATOM     54  C   UNL A   1      41.915  33.444  30.290  1.00  0.00     0.029 A 
ATOM     55  C   UNL A   1      42.759  32.503  29.722  1.00  0.00     0.049 A 
ATOM     56  H   UNL A   1      42.385  30.469  29.310  1.00  0.00     0.167 HD
ATOM     57  C   UNL A   1      44.894  31.730  28.689  1.00  0.00     0.074 A 
ATOM     58  C   UNL A   1      46.252  31.956  28.233  1.00  0.00     0.031 C 
ATOM     59  C   UNL A   1      44.118  32.682  29.265  1.00  0.00     0.034 A 
BRANCH  46  60
ATOM     60  C   UNL A   1      38.439  30.779  30.949  1.00  0.00     0.023 A 
ATOM     61  C   UNL A   1      37.417  31.386  30.199  1.00  0.00     0.031 A 
ATOM     62  C   UNL A   1      38.189  30.515  32.307  1.00  0.00     0.131 A 
ATOM     63  C   UNL A   1      36.221  31.771  30.826  1.00  0.00     0.055 A 
ATOM     64  C   UNL A   1      36.968  30.832  32.908  1.00  0.00     0.041 A 
ATOM     65  F   UNL A   1      39.135  29.961  33.082  1.00  0.00    -0.206 F 
ATOM     66  C   UNL A   1      35.980  31.477  32.170  1.00  0.00     0.022 A 
BRANCH  63  67
ATOM     67  S   UNL A   1      35.038  32.783  29.894  1.00  0.00     0.124 S 
ATOM     68  O   UNL A   1      34.496  31.809  28.951  1.00  0.00    -0.237 OA
ATOM     69  O   UNL A   1      34.125  33.241  30.935  1.00  0.00    -0.237 OA
ATOM     70  O   UNL A   1      35.874  33.822  29.295  1.00  0.00    -0.744 OA
ENDBRANCH  63  67
ENDBRANCH  46  60
BRANCH  47  71
ATOM     71  C   UNL A   1      47.211  28.114  26.717  1.00  0.00     0.023 A 
ATOM     72  C   UNL A   1      47.282  28.080  25.317  1.00  0.00     0.031 A 
ATOM     73  C   UNL A   1      48.366  27.773  27.444  1.00  0.00     0.131 A 
ATOM     74  C   UNL A   1      48.470  27.677  24.687  1.00  0.00     0.055 A 
ATOM     75  C   UNL A   1      49.560  27.423  26.813  1.00  0.00     0.041 A 
ATOM     76  F   UNL A   1      48.355  27.797  28.787  1.00  0.00    -0.206 F 
ATOM     77  C   UNL A   1      49.613  27.362  25.425  1.00  0.00     0.022 A 
BRANCH  74  78
ATOM     78  S   UNL A   1      48.473  27.498  22.883  1.00  0.00     0.124 S 
ATOM     79  O   UNL A   1      49.745  28.116  22.524  1.00  0.00    -0.237 OA
ATOM     80  O   UNL A   1      48.396  26.050  22.723  1.00  0.00    -0.237 OA
ATOM     81  O   UNL A   1      47.282  28.235  22.467  1.00  0.00    -0.744 OA
ENDBRANCH  74  78
ENDBRANCH  47  71
BRANCH  59  82
ATOM     82  C   UNL A   1      44.759  34.021  29.501  1.00  0.00     0.023 A 
ATOM     83  C   UNL A   1      44.546  35.108  28.638  1.00  0.00     0.031 A 
ATOM     84  C   UNL A   1      45.594  34.206  30.616  1.00  0.00     0.131 A 
ATOM     85  C   UNL A   1      45.200  36.324  28.881  1.00  0.00     0.055 A 
ATOM     86  C   UNL A   1      46.201  35.432  30.882  1.00  0.00     0.041 A 
ATOM     87  F   UNL A   1      45.826  33.194  31.469  1.00  0.00    -0.206 F 
ATOM     88  C   UNL A   1      46.013  36.497  30.006  1.00  0.00     0.022 A 
BRANCH  85  89
ATOM     89  S   UNL A   1      45.021  37.666  27.675  1.00  0.00     0.124 S 
ATOM     90  O   UNL A   1      44.017  37.122  26.765  1.00  0.00    -0.237 OA
ATOM     91  O   UNL A   1      44.587  38.783  28.509  1.00  0.00    -0.237 OA
ATOM     92  O   UNL A   1      46.362  37.800  27.109  1.00  0.00    -0.744 OA
ENDBRANCH  85  89
ENDBRANCH  59  82
ENDBRANCH  33  34
ENDBRANCH  26  28
ENDBRANCH  25  26
ENDBRANCH  24  25
ENDBRANCH   1  24
TORSDOF 20
ENDMDL
