MODEL 1
REMARK VINA RESULT:     -11.7      0.000      0.000
REMARK SMILES C[C@H]1CC[C@@]2(CO)C(C(=O)OCCOC(=O)c3ccc(-c4c5nc(c(-c6cc(S(=O)(=O)[O-])ccc6F)c6ccc([nH]6)c(-c6cc(S(=O)(=O)[O-])ccc6F)c6nc(c(-c7cc(S(=O)(=O)[O-])ccc7F)c7ccc4[nH]7)C=C6)C=C5)cc3)=C[C@@H](O)C[C@@H]2[C@@]1(C)CCc1ccoc1
REMARK SMILES IDX 12 1 11 2 9 3 10 4 8 5 1 6 2 7 3 8 85 9 4 10 84 11 86 12
REMARK SMILES IDX 5 13 83 14 81 15 80 16 87 17 88 18 89 19 90 20 93 21 91 22
REMARK SMILES IDX 92 23 6 24 7 25 82 27 13 29 14 30 15 31 16 32 17 33 18 34
REMARK SMILES IDX 79 35 19 36 78 37 20 38 21 39 22 40 72 41 23 42 77 43 71 44
REMARK SMILES IDX 73 45 24 46 76 47 70 48 69 49 25 51 57 52 37 53 56 54 38 55
REMARK SMILES IDX 41 56 55 57 74 58 39 59 40 60 54 62 75 63 42 64 26 65 27 66
REMARK SMILES IDX 35 67 28 68 34 69 36 70 33 71 29 72 30 73 31 74 32 75 58 76
REMARK SMILES IDX 59 77 67 78 60 79 66 80 68 81 65 82 61 83 62 84 63 85 64 86
REMARK SMILES IDX 43 87 44 88 52 89 45 90 51 91 53 92 50 93 46 94 47 95 48 96
REMARK SMILES IDX 49 97
REMARK H PARENT 7 26 82 28 73 50 41 61
REMARK Flexibility Score: inf
ROOT
ATOM      1  C   UNL A   1      31.400  31.068  26.141  1.00  0.00     0.275 C 
ENDROOT
BRANCH   1   2
ATOM      2  O   UNL A   1      31.802  29.760  26.614  1.00  0.00    -0.459 OA
BRANCH   2   3
ATOM      3  C   UNL A   1      32.554  29.084  25.696  1.00  0.00     0.334 C 
ATOM      4  O   UNL A   1      33.718  28.825  25.905  1.00  0.00    -0.247 OA
BRANCH   3   5
ATOM      5  C   UNL A   1      31.823  28.725  24.424  1.00  0.00     0.044 C 
ATOM      6  C   UNL A   1      33.181  25.370  26.490  1.00  0.00     0.008 C 
ATOM      7  C   UNL A   1      32.278  24.677  25.444  1.00  0.00    -0.008 C 
ATOM      8  C   UNL A   1      30.834  25.116  25.641  1.00  0.00     0.005 C 
ATOM      9  C   UNL A   1      32.772  24.901  23.985  1.00  0.00    -0.026 C 
ATOM     10  C   UNL A   1      30.675  26.613  25.488  1.00  0.00     0.015 C 
ATOM     11  C   UNL A   1      32.715  26.485  23.757  1.00  0.00     0.011 C 
ATOM     12  C   UNL A   1      31.854  24.205  22.947  1.00  0.00     0.012 C 
ATOM     13  C   UNL A   1      31.360  27.238  24.238  1.00  0.00     0.029 C 
ATOM     14  C   UNL A   1      33.138  27.058  22.377  1.00  0.00     0.041 C 
ATOM     15  C   UNL A   1      33.261  28.612  22.415  1.00  0.00     0.138 C 
ATOM     16  C   UNL A   1      32.289  29.358  23.320  1.00  0.00     0.016 C 
BRANCH   9  17
ATOM     17  C   UNL A   1      34.198  24.204  23.735  1.00  0.00     0.012 C 
BRANCH  17  18
ATOM     18  C   UNL A   1      34.485  22.676  23.553  1.00  0.00     0.039 C 
BRANCH  18  19
ATOM     19  C   UNL A   1      33.799  21.637  24.394  1.00  0.00    -0.010 A 
ATOM     20  C   UNL A   1      32.796  20.712  23.942  1.00  0.00     0.045 A 
ATOM     21  C   UNL A   1      33.977  21.322  25.727  1.00  0.00     0.198 A 
ATOM     22  C   UNL A   1      32.594  19.812  24.959  1.00  0.00     0.195 A 
ATOM     23  O   UNL A   1      33.276  20.205  26.061  1.00  0.00    -0.472 OA
ENDBRANCH  18  19
ENDBRANCH  17  18
ENDBRANCH   9  17
BRANCH  13  24
ATOM     24  C   UNL A   1      30.193  27.307  23.158  1.00  0.00     0.168 C 
BRANCH  24  25
ATOM     25  O   UNL A   1      28.898  27.053  23.682  1.00  0.00    -0.395 OA
ATOM     26  H   UNL A   1      28.373  26.569  23.026  1.00  0.00     0.210 HD
ENDBRANCH  24  25
ENDBRANCH  13  24
BRANCH  15  27
ATOM     27  O   UNL A   1      34.577  28.951  22.858  1.00  0.00    -0.389 OA
ATOM     28  H   UNL A   1      34.639  29.911  22.980  1.00  0.00     0.211 HD
ENDBRANCH  15  27
ENDBRANCH   3   5
ENDBRANCH   2   3
ENDBRANCH   1   2
BRANCH   1  29
ATOM     29  C   UNL A   1      31.559  32.197  27.180  1.00  0.00     0.275 C 
BRANCH  29  30
ATOM     30  O   UNL A   1      32.593  33.153  26.856  1.00  0.00    -0.458 OA
BRANCH  30  31
ATOM     31  C   UNL A   1      33.181  33.753  27.925  1.00  0.00     0.338 C 
ATOM     32  O   UNL A   1      32.689  34.653  28.591  1.00  0.00    -0.246 OA
BRANCH  31  33
ATOM     33  C   UNL A   1      34.440  33.065  28.314  1.00  0.00     0.060 A 
ATOM     34  C   UNL A   1      34.357  31.695  28.589  1.00  0.00     0.016 A 
ATOM     35  C   UNL A   1      35.671  33.715  28.438  1.00  0.00     0.016 A 
ATOM     36  C   UNL A   1      35.493  30.964  28.945  1.00  0.00     0.010 A 
ATOM     37  C   UNL A   1      36.803  32.990  28.857  1.00  0.00     0.010 A 
ATOM     38  C   UNL A   1      36.721  31.612  29.121  1.00  0.00    -0.014 A 
BRANCH  38  39
ATOM     39  C   UNL A   1      37.830  30.885  29.799  1.00  0.00     0.031 A 
ATOM     40  C   UNL A   1      38.139  31.255  31.228  1.00  0.00     0.074 A 
ATOM     41  C   UNL A   1      38.518  29.891  29.204  1.00  0.00     0.049 A 
ATOM     42  N   UNL A   1      39.080  30.812  32.022  1.00  0.00    -0.248 NA
ATOM     43  C   UNL A   1      37.249  32.250  31.847  1.00  0.00     0.031 C 
ATOM     44  C   UNL A   1      38.248  29.349  27.874  1.00  0.00     0.029 A 
ATOM     45  N   UNL A   1      39.591  29.156  29.653  1.00  0.00    -0.354 N 
ATOM     46  C   UNL A   1      38.876  31.451  33.240  1.00  0.00     0.074 A 
ATOM     47  C   UNL A   1      37.741  32.332  33.072  1.00  0.00     0.031 C 
ATOM     48  C   UNL A   1      39.148  28.383  27.606  1.00  0.00     0.029 A 
ATOM     49  C   UNL A   1      40.085  28.265  28.725  1.00  0.00     0.049 A 
ATOM     50  H   UNL A   1      39.973  29.257  30.555  1.00  0.00     0.167 HD
ATOM     51  C   UNL A   1      39.571  31.324  34.396  1.00  0.00     0.034 A 
ATOM     52  C   UNL A   1      41.181  27.476  28.766  1.00  0.00     0.034 A 
ATOM     53  C   UNL A   1      40.752  30.514  34.540  1.00  0.00     0.049 A 
ATOM     54  C   UNL A   1      42.057  27.498  30.005  1.00  0.00     0.074 A 
ATOM     55  C   UNL A   1      41.592  30.394  35.632  1.00  0.00     0.029 A 
ATOM     56  N   UNL A   1      41.276  29.698  33.546  1.00  0.00    -0.354 N 
ATOM     57  N   UNL A   1      41.882  28.144  31.135  1.00  0.00    -0.248 NA
ATOM     58  C   UNL A   1      43.282  26.683  29.970  1.00  0.00     0.031 C 
ATOM     59  C   UNL A   1      42.657  29.557  35.279  1.00  0.00     0.029 A 
ATOM     60  C   UNL A   1      42.438  29.091  33.992  1.00  0.00     0.049 A 
ATOM     61  H   UNL A   1      40.879  29.569  32.653  1.00  0.00     0.167 HD
ATOM     62  C   UNL A   1      42.947  27.770  31.957  1.00  0.00     0.074 A 
ATOM     63  C   UNL A   1      43.754  26.842  31.197  1.00  0.00     0.031 C 
ATOM     64  C   UNL A   1      43.228  28.154  33.229  1.00  0.00     0.034 A 
BRANCH  51  65
ATOM     65  C   UNL A   1      39.100  32.156  35.562  1.00  0.00     0.023 A 
ATOM     66  C   UNL A   1      39.531  33.483  35.737  1.00  0.00     0.031 A 
ATOM     67  C   UNL A   1      38.267  31.595  36.545  1.00  0.00     0.131 A 
ATOM     68  C   UNL A   1      39.183  34.182  36.902  1.00  0.00     0.055 A 
ATOM     69  C   UNL A   1      37.863  32.321  37.667  1.00  0.00     0.041 A 
ATOM     70  F   UNL A   1      37.852  30.322  36.445  1.00  0.00    -0.206 F 
ATOM     71  C   UNL A   1      38.333  33.618  37.857  1.00  0.00     0.022 A 
BRANCH  68  72
ATOM     72  S   UNL A   1      39.974  35.783  37.224  1.00  0.00     0.124 S 
ATOM     73  O   UNL A   1      39.654  36.521  36.005  1.00  0.00    -0.237 OA
ATOM     74  O   UNL A   1      39.302  36.231  38.438  1.00  0.00    -0.237 OA
ATOM     75  O   UNL A   1      41.386  35.441  37.382  1.00  0.00    -0.744 OA
ENDBRANCH  68  72
ENDBRANCH  51  65
BRANCH  52  76
ATOM     76  C   UNL A   1      41.589  26.645  27.589  1.00  0.00     0.023 A 
ATOM     77  C   UNL A   1      41.267  25.278  27.514  1.00  0.00     0.031 A 
ATOM     78  C   UNL A   1      42.425  27.174  26.588  1.00  0.00     0.131 A 
ATOM     79  C   UNL A   1      41.834  24.475  26.508  1.00  0.00     0.055 A 
ATOM     80  C   UNL A   1      42.933  26.386  25.554  1.00  0.00     0.041 A 
ATOM     81  F   UNL A   1      42.785  28.467  26.615  1.00  0.00    -0.206 F 
ATOM     82  C   UNL A   1      42.654  25.023  25.520  1.00  0.00     0.022 A 
BRANCH  79  83
ATOM     83  S   UNL A   1      41.602  22.677  26.593  1.00  0.00     0.124 S 
ATOM     84  O   UNL A   1      42.274  22.233  25.377  1.00  0.00    -0.237 OA
ATOM     85  O   UNL A   1      42.262  22.343  27.850  1.00  0.00    -0.237 OA
ATOM     86  O   UNL A   1      40.148  22.520  26.594  1.00  0.00    -0.744 OA
ENDBRANCH  79  83
ENDBRANCH  52  76
BRANCH  64  87
ATOM     87  C   UNL A   1      44.414  27.507  33.907  1.00  0.00     0.023 A 
ATOM     88  C   UNL A   1      44.308  26.293  34.607  1.00  0.00     0.031 A 
ATOM     89  C   UNL A   1      45.677  28.124  33.841  1.00  0.00     0.131 A 
ATOM     90  C   UNL A   1      45.434  25.760  35.255  1.00  0.00     0.055 A 
ATOM     91  C   UNL A   1      46.804  27.561  34.439  1.00  0.00     0.041 A 
ATOM     92  F   UNL A   1      45.837  29.284  33.184  1.00  0.00    -0.206 F 
ATOM     93  C   UNL A   1      46.684  26.378  35.162  1.00  0.00     0.022 A 
BRANCH  90  94
ATOM     94  S   UNL A   1      45.231  24.284  36.291  1.00  0.00     0.124 S 
ATOM     95  O   UNL A   1      46.425  23.513  35.962  1.00  0.00    -0.237 OA
ATOM     96  O   UNL A   1      45.186  24.850  37.635  1.00  0.00    -0.237 OA
ATOM     97  O   UNL A   1      43.972  23.705  35.823  1.00  0.00    -0.744 OA
ENDBRANCH  90  94
ENDBRANCH  64  87
ENDBRANCH  38  39
ENDBRANCH  31  33
ENDBRANCH  30  31
ENDBRANCH  29  30
ENDBRANCH   1  29
TORSDOF 20
ENDMDL
MODEL 2
REMARK VINA RESULT:     -11.5      1.625      7.600
REMARK SMILES C[C@H]1CC[C@@]2(CO)C(C(=O)OCCOC(=O)c3ccc(-c4c5nc(c(-c6cc(S(=O)(=O)[O-])ccc6F)c6ccc([nH]6)c(-c6cc(S(=O)(=O)[O-])ccc6F)c6nc(c(-c7cc(S(=O)(=O)[O-])ccc7F)c7ccc4[nH]7)C=C6)C=C5)cc3)=C[C@@H](O)C[C@@H]2[C@@]1(C)CCc1ccoc1
REMARK SMILES IDX 12 1 11 2 9 3 10 4 8 5 1 6 2 7 3 8 85 9 4 10 84 11 86 12
REMARK SMILES IDX 5 13 83 14 81 15 80 16 87 17 88 18 89 19 90 20 93 21 91 22
REMARK SMILES IDX 92 23 6 24 7 25 82 27 13 29 14 30 15 31 16 32 17 33 18 34
REMARK SMILES IDX 79 35 19 36 78 37 20 38 21 39 22 40 72 41 23 42 77 43 71 44
REMARK SMILES IDX 73 45 24 46 76 47 70 48 69 49 25 51 57 52 37 53 56 54 38 55
REMARK SMILES IDX 41 56 55 57 74 58 39 59 40 60 54 62 75 63 42 64 26 65 27 66
REMARK SMILES IDX 35 67 28 68 34 69 36 70 33 71 29 72 30 73 31 74 32 75 58 76
REMARK SMILES IDX 59 77 67 78 60 79 66 80 68 81 65 82 61 83 62 84 63 85 64 86
REMARK SMILES IDX 43 87 44 88 52 89 45 90 51 91 53 92 50 93 46 94 47 95 48 96
REMARK SMILES IDX 49 97
REMARK H PARENT 7 26 82 28 73 50 41 61
REMARK Flexibility Score: inf
ROOT
ATOM      1  C   UNL A   1      33.010  29.662  25.427  1.00  0.00     0.275 C 
ENDROOT
BRANCH   1   2
ATOM      2  O   UNL A   1      32.379  29.333  24.166  1.00  0.00    -0.459 OA
BRANCH   2   3
ATOM      3  C   UNL A   1      32.717  28.086  23.724  1.00  0.00     0.334 C 
ATOM      4  O   UNL A   1      33.871  27.723  23.687  1.00  0.00    -0.247 OA
BRANCH   3   5
ATOM      5  C   UNL A   1      31.549  27.239  23.275  1.00  0.00     0.044 C 
ATOM      6  C   UNL A   1      34.075  25.218  25.902  1.00  0.00     0.008 C 
ATOM      7  C   UNL A   1      32.897  24.220  25.864  1.00  0.00    -0.008 C 
ATOM      8  C   UNL A   1      31.645  24.883  26.425  1.00  0.00     0.005 C 
ATOM      9  C   UNL A   1      32.666  23.620  24.447  1.00  0.00    -0.026 C 
ATOM     10  C   UNL A   1      31.254  26.109  25.630  1.00  0.00     0.015 C 
ATOM     11  C   UNL A   1      32.321  24.871  23.508  1.00  0.00     0.011 C 
ATOM     12  C   UNL A   1      31.477  22.625  24.424  1.00  0.00     0.012 C 
ATOM     13  C   UNL A   1      31.237  25.932  24.084  1.00  0.00     0.029 C 
ATOM     14  C   UNL A   1      32.020  24.618  22.006  1.00  0.00     0.041 C 
ATOM     15  C   UNL A   1      31.957  25.953  21.202  1.00  0.00     0.138 C 
ATOM     16  C   UNL A   1      31.401  27.170  21.930  1.00  0.00     0.016 C 
BRANCH   9  17
ATOM     17  C   UNL A   1      33.908  22.712  23.985  1.00  0.00     0.012 C 
BRANCH  17  18
ATOM     18  C   UNL A   1      34.455  21.427  24.690  1.00  0.00     0.039 C 
BRANCH  18  19
ATOM     19  C   UNL A   1      33.603  20.203  24.874  1.00  0.00    -0.010 A 
ATOM     20  C   UNL A   1      33.129  19.338  23.829  1.00  0.00     0.045 A 
ATOM     21  C   UNL A   1      33.118  19.632  26.035  1.00  0.00     0.198 A 
ATOM     22  C   UNL A   1      32.574  18.239  24.439  1.00  0.00     0.195 A 
ATOM     23  O   UNL A   1      32.525  18.434  25.778  1.00  0.00    -0.472 OA
ENDBRANCH  18  19
ENDBRANCH  17  18
ENDBRANCH   9  17
BRANCH  13  24
ATOM     24  C   UNL A   1      29.715  25.604  23.755  1.00  0.00     0.168 C 
BRANCH  24  25
ATOM     25  O   UNL A   1      28.785  26.193  24.651  1.00  0.00    -0.395 OA
ATOM     26  H   UNL A   1      28.836  25.747  25.511  1.00  0.00     0.210 HD
ENDBRANCH  24  25
ENDBRANCH  13  24
BRANCH  15  27
ATOM     27  O   UNL A   1      33.281  26.293  20.787  1.00  0.00    -0.389 OA
ATOM     28  H   UNL A   1      33.383  26.100  19.841  1.00  0.00     0.211 HD
ENDBRANCH  15  27
ENDBRANCH   3   5
ENDBRANCH   2   3
ENDBRANCH   1   2
BRANCH   1  29
ATOM     29  C   UNL A   1      32.155  30.548  26.355  1.00  0.00     0.275 C 
BRANCH  29  30
ATOM     30  O   UNL A   1      32.778  30.845  27.624  1.00  0.00    -0.458 OA
BRANCH  30  31
ATOM     31  C   UNL A   1      33.657  31.882  27.609  1.00  0.00     0.338 C 
ATOM     32  O   UNL A   1      33.374  33.046  27.361  1.00  0.00    -0.246 OA
BRANCH  31  33
ATOM     33  C   UNL A   1      34.994  31.473  28.112  1.00  0.00     0.060 A 
ATOM     34  C   UNL A   1      35.108  30.182  28.641  1.00  0.00     0.016 A 
ATOM     35  C   UNL A   1      36.115  32.309  28.101  1.00  0.00     0.016 A 
ATOM     36  C   UNL A   1      36.331  29.707  29.120  1.00  0.00     0.010 A 
ATOM     37  C   UNL A   1      37.332  31.852  28.640  1.00  0.00     0.010 A 
ATOM     38  C   UNL A   1      37.447  30.551  29.160  1.00  0.00    -0.014 A 
BRANCH  38  39
ATOM     39  C   UNL A   1      38.637  30.136  29.955  1.00  0.00     0.031 A 
ATOM     40  C   UNL A   1      39.544  29.089  29.362  1.00  0.00     0.074 A 
ATOM     41  C   UNL A   1      38.949  30.695  31.140  1.00  0.00     0.049 A 
ATOM     42  N   UNL A   1      40.610  28.521  29.868  1.00  0.00    -0.248 NA
ATOM     43  C   UNL A   1      39.208  28.633  28.004  1.00  0.00     0.031 C 
ATOM     44  C   UNL A   1      38.231  31.799  31.774  1.00  0.00     0.029 A 
ATOM     45  N   UNL A   1      39.964  30.406  32.024  1.00  0.00    -0.354 N 
ATOM     46  C   UNL A   1      41.087  27.668  28.879  1.00  0.00     0.074 A 
ATOM     47  C   UNL A   1      40.180  27.770  27.757  1.00  0.00     0.031 C 
ATOM     48  C   UNL A   1      38.815  32.077  32.956  1.00  0.00     0.029 A 
ATOM     49  C   UNL A   1      39.921  31.146  33.185  1.00  0.00     0.049 A 
ATOM     50  H   UNL A   1      40.657  29.731  31.843  1.00  0.00     0.167 HD
ATOM     51  C   UNL A   1      42.178  26.865  28.900  1.00  0.00     0.034 A 
ATOM     52  C   UNL A   1      40.667  31.056  34.308  1.00  0.00     0.034 A 
ATOM     53  C   UNL A   1      43.032  26.697  30.047  1.00  0.00     0.049 A 
ATOM     54  C   UNL A   1      41.764  30.010  34.381  1.00  0.00     0.074 A 
ATOM     55  C   UNL A   1      44.100  25.834  30.212  1.00  0.00     0.029 A 
ATOM     56  N   UNL A   1      42.899  27.396  31.239  1.00  0.00    -0.354 N 
ATOM     57  N   UNL A   1      42.176  29.173  33.457  1.00  0.00    -0.248 NA
ATOM     58  C   UNL A   1      42.495  29.897  35.653  1.00  0.00     0.031 C 
ATOM     59  C   UNL A   1      44.572  25.965  31.523  1.00  0.00     0.029 A 
ATOM     60  C   UNL A   1      43.850  26.967  32.150  1.00  0.00     0.049 A 
ATOM     61  H   UNL A   1      42.227  28.096  31.412  1.00  0.00     0.167 HD
ATOM     62  C   UNL A   1      43.245  28.475  34.022  1.00  0.00     0.074 A 
ATOM     63  C   UNL A   1      43.416  28.990  35.363  1.00  0.00     0.031 C 
ATOM     64  C   UNL A   1      44.020  27.500  33.481  1.00  0.00     0.034 A 
BRANCH  51  65
ATOM     65  C   UNL A   1      42.441  26.051  27.658  1.00  0.00     0.023 A 
ATOM     66  C   UNL A   1      41.970  24.732  27.533  1.00  0.00     0.031 A 
ATOM     67  C   UNL A   1      43.229  26.574  26.618  1.00  0.00     0.131 A 
ATOM     68  C   UNL A   1      42.349  23.958  26.426  1.00  0.00     0.055 A 
ATOM     69  C   UNL A   1      43.540  25.824  25.484  1.00  0.00     0.041 A 
ATOM     70  F   UNL A   1      43.731  27.817  26.700  1.00  0.00    -0.206 F 
ATOM     71  C   UNL A   1      43.111  24.503  25.390  1.00  0.00     0.022 A 
BRANCH  68  72
ATOM     72  S   UNL A   1      41.953  22.187  26.429  1.00  0.00     0.124 S 
ATOM     73  O   UNL A   1      42.513  21.761  27.709  1.00  0.00    -0.237 OA
ATOM     74  O   UNL A   1      40.498  22.187  26.336  1.00  0.00    -0.237 OA
ATOM     75  O   UNL A   1      42.654  21.678  25.251  1.00  0.00    -0.744 OA
ENDBRANCH  68  72
ENDBRANCH  51  65
BRANCH  52  76
ATOM     76  C   UNL A   1      40.383  31.911  35.505  1.00  0.00     0.023 A 
ATOM     77  C   UNL A   1      39.312  31.622  36.369  1.00  0.00     0.031 A 
ATOM     78  C   UNL A   1      41.092  33.106  35.721  1.00  0.00     0.131 A 
ATOM     79  C   UNL A   1      38.938  32.548  37.360  1.00  0.00     0.055 A 
ATOM     80  C   UNL A   1      40.758  33.991  36.748  1.00  0.00     0.041 A 
ATOM     81  F   UNL A   1      42.113  33.447  34.917  1.00  0.00    -0.206 F 
ATOM     82  C   UNL A   1      39.662  33.724  37.563  1.00  0.00     0.022 A 
BRANCH  79  83
ATOM     83  S   UNL A   1      37.402  32.264  38.285  1.00  0.00     0.124 S 
ATOM     84  O   UNL A   1      37.755  32.767  39.607  1.00  0.00    -0.237 OA
ATOM     85  O   UNL A   1      36.439  33.059  37.530  1.00  0.00    -0.237 OA
ATOM     86  O   UNL A   1      37.215  30.816  38.199  1.00  0.00    -0.744 OA
ENDBRANCH  79  83
ENDBRANCH  52  76
BRANCH  64  87
ATOM     87  C   UNL A   1      45.175  26.986  34.309  1.00  0.00     0.023 A 
ATOM     88  C   UNL A   1      45.012  25.990  35.287  1.00  0.00     0.031 A 
ATOM     89  C   UNL A   1      46.466  27.506  34.103  1.00  0.00     0.131 A 
ATOM     90  C   UNL A   1      46.113  25.581  36.057  1.00  0.00     0.055 A 
ATOM     91  C   UNL A   1      47.567  27.055  34.833  1.00  0.00     0.041 A 
ATOM     92  F   UNL A   1      46.681  28.458  33.182  1.00  0.00    -0.206 F 
ATOM     93  C   UNL A   1      47.392  26.096  35.826  1.00  0.00     0.022 A 
BRANCH  90  94
ATOM     94  S   UNL A   1      45.841  24.420  37.425  1.00  0.00     0.124 S 
ATOM     95  O   UNL A   1      45.876  23.130  36.742  1.00  0.00    -0.237 OA
ATOM     96  O   UNL A   1      46.969  24.706  38.306  1.00  0.00    -0.237 OA
ATOM     97  O   UNL A   1      44.533  24.807  37.951  1.00  0.00    -0.744 OA
ENDBRANCH  90  94
ENDBRANCH  64  87
ENDBRANCH  38  39
ENDBRANCH  31  33
ENDBRANCH  30  31
ENDBRANCH  29  30
ENDBRANCH   1  29
TORSDOF 20
ENDMDL
MODEL 3
REMARK VINA RESULT:     -11.5      1.328      7.909
REMARK SMILES C[C@H]1CC[C@@]2(CO)C(C(=O)OCCOC(=O)c3ccc(-c4c5nc(c(-c6cc(S(=O)(=O)[O-])ccc6F)c6ccc([nH]6)c(-c6cc(S(=O)(=O)[O-])ccc6F)c6nc(c(-c7cc(S(=O)(=O)[O-])ccc7F)c7ccc4[nH]7)C=C6)C=C5)cc3)=C[C@@H](O)C[C@@H]2[C@@]1(C)CCc1ccoc1
REMARK SMILES IDX 12 1 11 2 9 3 10 4 8 5 1 6 2 7 3 8 85 9 4 10 84 11 86 12
REMARK SMILES IDX 5 13 83 14 81 15 80 16 87 17 88 18 89 19 90 20 93 21 91 22
REMARK SMILES IDX 92 23 6 24 7 25 82 27 13 29 14 30 15 31 16 32 17 33 18 34
REMARK SMILES IDX 79 35 19 36 78 37 20 38 21 39 22 40 72 41 23 42 77 43 71 44
REMARK SMILES IDX 73 45 24 46 76 47 70 48 69 49 25 51 57 52 37 53 56 54 38 55
REMARK SMILES IDX 41 56 55 57 74 58 39 59 40 60 54 62 75 63 42 64 26 65 27 66
REMARK SMILES IDX 35 67 28 68 34 69 36 70 33 71 29 72 30 73 31 74 32 75 58 76
REMARK SMILES IDX 59 77 67 78 60 79 66 80 68 81 65 82 61 83 62 84 63 85 64 86
REMARK SMILES IDX 43 87 44 88 52 89 45 90 51 91 53 92 50 93 46 94 47 95 48 96
REMARK SMILES IDX 49 97
REMARK H PARENT 7 26 82 28 73 50 41 61
REMARK Flexibility Score: inf
ROOT
ATOM      1  C   UNL A   1      33.841  28.435  24.622  1.00  0.00     0.275 C 
ENDROOT
BRANCH   1   2
ATOM      2  O   UNL A   1      33.830  27.923  23.268  1.00  0.00    -0.459 OA
BRANCH   2   3
ATOM      3  C   UNL A   1      33.337  26.652  23.196  1.00  0.00     0.334 C 
ATOM      4  O   UNL A   1      33.585  25.934  22.253  1.00  0.00    -0.247 OA
BRANCH   3   5
ATOM      5  C   UNL A   1      32.458  26.251  24.357  1.00  0.00     0.044 C 
ATOM      6  C   UNL A   1      35.379  23.405  23.503  1.00  0.00     0.008 C 
ATOM      7  C   UNL A   1      34.866  22.845  24.849  1.00  0.00    -0.008 C 
ATOM      8  C   UNL A   1      35.135  23.853  25.959  1.00  0.00     0.005 C 
ATOM      9  C   UNL A   1      33.371  22.417  24.787  1.00  0.00    -0.026 C 
ATOM     10  C   UNL A   1      34.445  25.174  25.699  1.00  0.00     0.015 C 
ATOM     11  C   UNL A   1      32.561  23.753  24.433  1.00  0.00     0.011 C 
ATOM     12  C   UNL A   1      32.868  21.864  26.146  1.00  0.00     0.012 C 
ATOM     13  C   UNL A   1      32.950  25.081  25.279  1.00  0.00     0.029 C 
ATOM     14  C   UNL A   1      31.016  23.679  24.305  1.00  0.00     0.041 C 
ATOM     15  C   UNL A   1      30.425  24.996  23.715  1.00  0.00     0.138 C 
ATOM     16  C   UNL A   1      31.131  26.294  24.087  1.00  0.00     0.016 C 
BRANCH   9  17
ATOM     17  C   UNL A   1      33.157  21.177  23.789  1.00  0.00     0.012 C 
BRANCH  17  18
ATOM     18  C   UNL A   1      32.491  19.800  24.119  1.00  0.00     0.039 C 
BRANCH  18  19
ATOM     19  C   UNL A   1      33.259  18.511  24.039  1.00  0.00    -0.010 A 
ATOM     20  C   UNL A   1      34.546  18.255  24.625  1.00  0.00     0.045 A 
ATOM     21  C   UNL A   1      32.917  17.317  23.434  1.00  0.00     0.198 A 
ATOM     22  C   UNL A   1      34.785  16.909  24.497  1.00  0.00     0.195 A 
ATOM     23  O   UNL A   1      33.819  16.343  23.735  1.00  0.00    -0.472 OA
ENDBRANCH  18  19
ENDBRANCH  17  18
ENDBRANCH   9  17
BRANCH  13  24
ATOM     24  C   UNL A   1      32.158  25.281  26.645  1.00  0.00     0.168 C 
BRANCH  24  25
ATOM     25  O   UNL A   1      32.029  26.634  27.053  1.00  0.00    -0.395 OA
ATOM     26  H   UNL A   1      31.542  26.675  27.891  1.00  0.00     0.210 HD
ENDBRANCH  24  25
ENDBRANCH  13  24
BRANCH  15  27
ATOM     27  O   UNL A   1      30.457  24.906  22.289  1.00  0.00    -0.389 OA
ATOM     28  H   UNL A   1      31.376  24.812  21.993  1.00  0.00     0.211 HD
ENDBRANCH  15  27
ENDBRANCH   3   5
ENDBRANCH   2   3
ENDBRANCH   1   2
BRANCH   1  29
ATOM     29  C   UNL A   1      32.890  29.625  24.861  1.00  0.00     0.275 C 
BRANCH  29  30
ATOM     30  O   UNL A   1      32.504  29.803  26.242  1.00  0.00    -0.458 OA
BRANCH  30  31
ATOM     31  C   UNL A   1      32.927  30.961  26.816  1.00  0.00     0.338 C 
ATOM     32  O   UNL A   1      32.251  31.971  26.955  1.00  0.00    -0.246 OA
BRANCH  31  33
ATOM     33  C   UNL A   1      34.272  30.808  27.430  1.00  0.00     0.060 A 
ATOM     34  C   UNL A   1      34.660  29.514  27.798  1.00  0.00     0.016 A 
ATOM     35  C   UNL A   1      35.139  31.876  27.673  1.00  0.00     0.016 A 
ATOM     36  C   UNL A   1      35.914  29.274  28.365  1.00  0.00     0.010 A 
ATOM     37  C   UNL A   1      36.377  31.643  28.301  1.00  0.00     0.010 A 
ATOM     38  C   UNL A   1      36.770  30.341  28.659  1.00  0.00    -0.014 A 
BRANCH  38  39
ATOM     39  C   UNL A   1      37.946  30.101  29.540  1.00  0.00     0.031 A 
ATOM     40  C   UNL A   1      39.022  29.174  29.035  1.00  0.00     0.074 A 
ATOM     41  C   UNL A   1      38.100  30.715  30.729  1.00  0.00     0.049 A 
ATOM     42  N   UNL A   1      40.116  28.761  29.624  1.00  0.00    -0.248 NA
ATOM     43  C   UNL A   1      38.843  28.656  27.669  1.00  0.00     0.031 C 
ATOM     44  C   UNL A   1      37.201  31.724  31.287  1.00  0.00     0.029 A 
ATOM     45  N   UNL A   1      39.081  30.577  31.685  1.00  0.00    -0.354 N 
ATOM     46  C   UNL A   1      40.768  27.963  28.691  1.00  0.00     0.074 A 
ATOM     47  C   UNL A   1      39.934  27.926  27.509  1.00  0.00     0.031 C 
ATOM     48  C   UNL A   1      37.661  32.096  32.498  1.00  0.00     0.029 A 
ATOM     49  C   UNL A   1      38.862  31.324  32.822  1.00  0.00     0.049 A 
ATOM     50  H   UNL A   1      39.868  29.998  31.567  1.00  0.00     0.167 HD
ATOM     51  C   UNL A   1      41.951  27.313  28.803  1.00  0.00     0.034 A 
ATOM     52  C   UNL A   1      39.534  31.352  33.994  1.00  0.00     0.034 A 
ATOM     53  C   UNL A   1      42.738  27.279  30.008  1.00  0.00     0.049 A 
ATOM     54  C   UNL A   1      40.751  30.462  34.165  1.00  0.00     0.074 A 
ATOM     55  C   UNL A   1      43.897  26.568  30.264  1.00  0.00     0.029 A 
ATOM     56  N   UNL A   1      42.433  27.973  31.171  1.00  0.00    -0.354 N 
ATOM     57  N   UNL A   1      41.333  29.673  33.291  1.00  0.00    -0.248 NA
ATOM     58  C   UNL A   1      41.402  30.468  35.485  1.00  0.00     0.031 C 
ATOM     59  C   UNL A   1      44.257  26.781  31.600  1.00  0.00     0.029 A 
ATOM     60  C   UNL A   1      43.368  27.688  32.153  1.00  0.00     0.049 A 
ATOM     61  H   UNL A   1      41.665  28.579  31.282  1.00  0.00     0.167 HD
ATOM     62  C   UNL A   1      42.442  29.132  33.943  1.00  0.00     0.074 A 
ATOM     63  C   UNL A   1      42.451  29.687  35.279  1.00  0.00     0.031 C 
ATOM     64  C   UNL A   1      43.374  28.261  33.478  1.00  0.00     0.034 A 
BRANCH  51  65
ATOM     65  C   UNL A   1      42.404  26.522  27.602  1.00  0.00     0.023 A 
ATOM     66  C   UNL A   1      42.003  25.187  27.411  1.00  0.00     0.031 A 
ATOM     67  C   UNL A   1      43.299  27.084  26.676  1.00  0.00     0.131 A 
ATOM     68  C   UNL A   1      42.551  24.439  26.358  1.00  0.00     0.055 A 
ATOM     69  C   UNL A   1      43.782  26.356  25.588  1.00  0.00     0.041 A 
ATOM     70  F   UNL A   1      43.739  28.343  26.828  1.00  0.00    -0.206 F 
ATOM     71  C   UNL A   1      43.420  25.021  25.432  1.00  0.00     0.022 A 
BRANCH  68  72
ATOM     72  S   UNL A   1      42.226  22.654  26.301  1.00  0.00     0.124 S 
ATOM     73  O   UNL A   1      42.800  22.290  25.009  1.00  0.00    -0.237 OA
ATOM     74  O   UNL A   1      42.936  22.164  27.477  1.00  0.00    -0.237 OA
ATOM     75  O   UNL A   1      40.768  22.570  26.372  1.00  0.00    -0.744 OA
ENDBRANCH  68  72
ENDBRANCH  51  65
BRANCH  52  76
ATOM     76  C   UNL A   1      39.058  32.180  35.147  1.00  0.00     0.023 A 
ATOM     77  C   UNL A   1      39.486  33.508  35.318  1.00  0.00     0.031 A 
ATOM     78  C   UNL A   1      38.278  31.610  36.170  1.00  0.00     0.131 A 
ATOM     79  C   UNL A   1      39.194  34.195  36.510  1.00  0.00     0.055 A 
ATOM     80  C   UNL A   1      37.935  32.318  37.323  1.00  0.00     0.041 A 
ATOM     81  F   UNL A   1      37.855  30.339  36.075  1.00  0.00    -0.206 F 
ATOM     82  C   UNL A   1      38.410  33.612  37.508  1.00  0.00     0.022 A 
BRANCH  79  83
ATOM     83  S   UNL A   1      39.975  35.807  36.802  1.00  0.00     0.124 S 
ATOM     84  O   UNL A   1      39.676  36.511  35.560  1.00  0.00    -0.237 OA
ATOM     85  O   UNL A   1      39.271  36.277  37.991  1.00  0.00    -0.237 OA
ATOM     86  O   UNL A   1      41.383  35.473  37.006  1.00  0.00    -0.744 OA
ENDBRANCH  79  83
ENDBRANCH  52  76
BRANCH  64  87
ATOM     87  C   UNL A   1      44.527  27.918  34.393  1.00  0.00     0.023 A 
ATOM     88  C   UNL A   1      44.479  26.836  35.289  1.00  0.00     0.031 A 
ATOM     89  C   UNL A   1      45.701  28.694  34.357  1.00  0.00     0.131 A 
ATOM     90  C   UNL A   1      45.563  26.589  36.147  1.00  0.00     0.055 A 
ATOM     91  C   UNL A   1      46.797  28.410  35.173  1.00  0.00     0.041 A 
ATOM     92  F   UNL A   1      45.804  29.739  33.521  1.00  0.00    -0.206 F 
ATOM     93  C   UNL A   1      46.727  27.360  36.083  1.00  0.00     0.022 A 
BRANCH  90  94
ATOM     94  S   UNL A   1      45.405  25.294  37.407  1.00  0.00     0.124 S 
ATOM     95  O   UNL A   1      46.726  24.674  37.375  1.00  0.00    -0.237 OA
ATOM     96  O   UNL A   1      45.090  26.063  38.607  1.00  0.00    -0.237 OA
ATOM     97  O   UNL A   1      44.316  24.457  36.907  1.00  0.00    -0.744 OA
ENDBRANCH  90  94
ENDBRANCH  64  87
ENDBRANCH  38  39
ENDBRANCH  31  33
ENDBRANCH  30  31
ENDBRANCH  29  30
ENDBRANCH   1  29
TORSDOF 20
ENDMDL
