MODEL 1
REMARK VINA RESULT:     -10.8      0.000      0.000
REMARK SMILES O=C(OCCOC(=O)c1ccc2nc(Cl)sc2c1)c1ccc(-c2c3nc(c(-c4cc(S(=O)(=O)[O-])ccc4F)c4ccc([nH]4)c(-c4cc(S(=O)(=O)[O-])ccc4F)c4nc(c(-c5cc(S(=O)(=O)[O-])ccc5F)c5ccc2[nH]5)C=C4)C=C3)cc1
REMARK SMILES IDX 3 1 2 2 1 3 19 4 20 5 81 6 21 7 80 8 22 9 23 10 24 11 74 12
REMARK SMILES IDX 25 13 79 14 73 15 75 16 26 17 78 18 72 19 71 20 27 22 59 23
REMARK SMILES IDX 39 24 58 25 40 26 43 27 57 28 76 29 41 30 42 31 56 33 77 34
REMARK SMILES IDX 44 35 28 36 29 37 37 38 30 39 36 40 38 41 35 42 31 43 32 44
REMARK SMILES IDX 33 45 34 46 60 47 61 48 69 49 62 50 68 51 70 52 67 53 63 54
REMARK SMILES IDX 64 55 65 56 66 57 45 58 46 59 54 60 47 61 53 62 55 63 52 64
REMARK SMILES IDX 48 65 49 66 50 67 51 68 4 69 5 70 6 71 7 72 8 73 9 74 10 75
REMARK SMILES IDX 18 76 11 77 17 78 12 79 16 80 13 81 14 82 15 83
REMARK H PARENT 75 21 43 32
REMARK Flexibility Score: inf
ROOT
ATOM      1  O   UNL A   1      41.757  20.971  25.772  1.00  0.00    -0.458 OA
ENDROOT
BRANCH   1   2
ATOM      2  C   UNL A   1      41.267  21.750  26.770  1.00  0.00     0.338 C 
ATOM      3  O   UNL A   1      40.287  21.374  27.410  1.00  0.00    -0.246 OA
BRANCH   2   4
ATOM      4  C   UNL A   1      41.680  23.190  26.854  1.00  0.00     0.060 A 
ATOM      5  C   UNL A   1      41.416  23.863  28.064  1.00  0.00     0.016 A 
ATOM      6  C   UNL A   1      42.260  23.924  25.825  1.00  0.00     0.016 A 
ATOM      7  C   UNL A   1      41.662  25.236  28.216  1.00  0.00     0.010 A 
ATOM      8  C   UNL A   1      42.461  25.306  25.959  1.00  0.00     0.010 A 
ATOM      9  C   UNL A   1      42.174  25.984  27.158  1.00  0.00    -0.014 A 
BRANCH   9  10
ATOM     10  C   UNL A   1      42.594  27.400  27.446  1.00  0.00     0.031 A 
ATOM     11  C   UNL A   1      41.358  28.250  27.487  1.00  0.00     0.074 A 
ATOM     12  C   UNL A   1      43.489  27.683  28.422  1.00  0.00     0.049 A 
ATOM     13  N   UNL A   1      40.552  28.299  28.499  1.00  0.00    -0.248 NA
ATOM     14  C   UNL A   1      40.792  28.807  26.259  1.00  0.00     0.031 C 
ATOM     15  C   UNL A   1      43.422  27.226  29.807  1.00  0.00     0.029 A 
ATOM     16  N   UNL A   1      44.560  28.572  28.414  1.00  0.00    -0.354 N 
ATOM     17  C   UNL A   1      39.355  28.834  28.053  1.00  0.00     0.074 A 
ATOM     18  C   UNL A   1      39.550  29.130  26.653  1.00  0.00     0.031 C 
ATOM     19  C   UNL A   1      44.424  27.775  30.515  1.00  0.00     0.029 A 
ATOM     20  C   UNL A   1      45.062  28.805  29.700  1.00  0.00     0.049 A 
ATOM     21  H   UNL A   1      44.923  28.988  27.599  1.00  0.00     0.167 HD
ATOM     22  C   UNL A   1      38.308  29.037  28.899  1.00  0.00     0.034 A 
ATOM     23  C   UNL A   1      45.388  30.037  30.196  1.00  0.00     0.034 A 
ATOM     24  C   UNL A   1      38.564  28.762  30.298  1.00  0.00     0.049 A 
ATOM     25  C   UNL A   1      44.092  30.458  30.886  1.00  0.00     0.074 A 
ATOM     26  C   UNL A   1      37.954  28.203  31.398  1.00  0.00     0.029 A 
ATOM     27  N   UNL A   1      39.802  29.155  30.731  1.00  0.00    -0.354 N 
ATOM     28  N   UNL A   1      43.631  30.021  32.038  1.00  0.00    -0.248 NA
ATOM     29  C   UNL A   1      43.085  31.158  30.075  1.00  0.00     0.031 C 
ATOM     30  C   UNL A   1      38.879  28.317  32.496  1.00  0.00     0.029 A 
ATOM     31  C   UNL A   1      40.027  28.971  32.056  1.00  0.00     0.049 A 
ATOM     32  H   UNL A   1      40.477  29.542  30.127  1.00  0.00     0.167 HD
ATOM     33  C   UNL A   1      42.238  30.096  31.927  1.00  0.00     0.074 A 
ATOM     34  C   UNL A   1      41.984  30.959  30.791  1.00  0.00     0.031 C 
ATOM     35  C   UNL A   1      41.351  29.277  32.581  1.00  0.00     0.034 A 
BRANCH  22  36
ATOM     36  C   UNL A   1      37.149  29.868  28.492  1.00  0.00     0.023 A 
ATOM     37  C   UNL A   1      35.959  29.371  27.942  1.00  0.00     0.031 A 
ATOM     38  C   UNL A   1      37.264  31.257  28.708  1.00  0.00     0.131 A 
ATOM     39  C   UNL A   1      34.922  30.274  27.638  1.00  0.00     0.055 A 
ATOM     40  C   UNL A   1      36.230  32.140  28.419  1.00  0.00     0.041 A 
ATOM     41  F   UNL A   1      38.404  31.772  29.199  1.00  0.00    -0.206 F 
ATOM     42  C   UNL A   1      35.049  31.648  27.883  1.00  0.00     0.022 A 
BRANCH  39  43
ATOM     43  S   UNL A   1      33.356  29.713  26.911  1.00  0.00     0.124 S 
ATOM     44  O   UNL A   1      33.026  28.556  27.738  1.00  0.00    -0.237 OA
ATOM     45  O   UNL A   1      32.501  30.883  27.100  1.00  0.00    -0.237 OA
ATOM     46  O   UNL A   1      33.704  29.414  25.525  1.00  0.00    -0.744 OA
ENDBRANCH  39  43
ENDBRANCH  22  36
BRANCH  23  47
ATOM     47  C   UNL A   1      46.244  30.894  29.320  1.00  0.00     0.023 A 
ATOM     48  C   UNL A   1      45.772  31.929  28.508  1.00  0.00     0.031 A 
ATOM     49  C   UNL A   1      47.614  30.568  29.197  1.00  0.00     0.131 A 
ATOM     50  C   UNL A   1      46.568  32.420  27.461  1.00  0.00     0.055 A 
ATOM     51  C   UNL A   1      48.432  31.117  28.204  1.00  0.00     0.041 A 
ATOM     52  F   UNL A   1      48.176  29.676  30.031  1.00  0.00    -0.206 F 
ATOM     53  C   UNL A   1      47.891  32.012  27.293  1.00  0.00     0.022 A 
BRANCH  50  54
ATOM     54  S   UNL A   1      45.836  33.491  26.191  1.00  0.00     0.124 S 
ATOM     55  O   UNL A   1      47.014  34.091  25.574  1.00  0.00    -0.237 OA
ATOM     56  O   UNL A   1      45.120  32.514  25.377  1.00  0.00    -0.237 OA
ATOM     57  O   UNL A   1      44.995  34.400  26.962  1.00  0.00    -0.744 OA
ENDBRANCH  50  54
ENDBRANCH  23  47
BRANCH  35  58
ATOM     58  C   UNL A   1      41.779  28.642  33.862  1.00  0.00     0.023 A 
ATOM     59  C   UNL A   1      42.336  27.348  33.898  1.00  0.00     0.031 A 
ATOM     60  C   UNL A   1      41.390  29.235  35.074  1.00  0.00     0.131 A 
ATOM     61  C   UNL A   1      42.421  26.666  35.120  1.00  0.00     0.055 A 
ATOM     62  C   UNL A   1      41.526  28.572  36.290  1.00  0.00     0.041 A 
ATOM     63  F   UNL A   1      40.780  30.434  35.087  1.00  0.00    -0.206 F 
ATOM     64  C   UNL A   1      42.026  27.275  36.316  1.00  0.00     0.022 A 
BRANCH  61  65
ATOM     65  S   UNL A   1      42.939  24.929  35.188  1.00  0.00     0.124 S 
ATOM     66  O   UNL A   1      41.666  24.225  35.325  1.00  0.00    -0.237 OA
ATOM     67  O   UNL A   1      43.605  24.764  33.898  1.00  0.00    -0.237 OA
ATOM     68  O   UNL A   1      43.810  24.867  36.358  1.00  0.00    -0.744 OA
ENDBRANCH  61  65
ENDBRANCH  35  58
ENDBRANCH   9  10
ENDBRANCH   2   4
ENDBRANCH   1   2
BRANCH   1  69
ATOM     69  C   UNL A   1      42.550  19.784  25.980  1.00  0.00     0.275 C 
BRANCH  69  70
ATOM     70  C   UNL A   1      43.926  19.857  25.292  1.00  0.00     0.275 C 
BRANCH  70  71
ATOM     71  O   UNL A   1      44.427  21.195  25.225  1.00  0.00    -0.458 OA
BRANCH  71  72
ATOM     72  C   UNL A   1      45.778  21.332  25.219  1.00  0.00     0.338 C 
ATOM     73  O   UNL A   1      46.594  20.612  24.663  1.00  0.00    -0.246 OA
BRANCH  72  74
ATOM     74  C   UNL A   1      46.066  22.672  25.774  1.00  0.00     0.061 A 
ATOM     75  C   UNL A   1      45.527  23.033  27.003  1.00  0.00     0.018 A 
ATOM     76  C   UNL A   1      46.754  23.604  24.975  1.00  0.00     0.037 A 
ATOM     77  C   UNL A   1      45.635  24.349  27.437  1.00  0.00     0.031 A 
ATOM     78  C   UNL A   1      46.737  24.951  25.383  1.00  0.00     0.057 A 
ATOM     79  C   UNL A   1      46.161  25.345  26.595  1.00  0.00     0.083 A 
ATOM     80  S   UNL A   1      47.300  26.364  24.560  1.00  0.00    -0.102 S 
ATOM     81  N   UNL A   1      46.125  26.708  26.825  1.00  0.00    -0.225 NA
ATOM     82  C   UNL A   1      46.623  27.321  25.787  1.00  0.00     0.184 A 
ATOM     83  Cl  UNL A   1      46.586  29.031  25.626  1.00  0.00    -0.050 Cl
ENDBRANCH  72  74
ENDBRANCH  71  72
ENDBRANCH  70  71
ENDBRANCH  69  70
ENDBRANCH   1  69
TORSDOF 14
ENDMDL
MODEL 2
REMARK VINA RESULT:     -10.5      2.114      2.398
REMARK SMILES O=C(OCCOC(=O)c1ccc2nc(Cl)sc2c1)c1ccc(-c2c3nc(c(-c4cc(S(=O)(=O)[O-])ccc4F)c4ccc([nH]4)c(-c4cc(S(=O)(=O)[O-])ccc4F)c4nc(c(-c5cc(S(=O)(=O)[O-])ccc5F)c5ccc2[nH]5)C=C4)C=C3)cc1
REMARK SMILES IDX 3 1 2 2 1 3 19 4 20 5 81 6 21 7 80 8 22 9 23 10 24 11 74 12
REMARK SMILES IDX 25 13 79 14 73 15 75 16 26 17 78 18 72 19 71 20 27 22 59 23
REMARK SMILES IDX 39 24 58 25 40 26 43 27 57 28 76 29 41 30 42 31 56 33 77 34
REMARK SMILES IDX 44 35 28 36 29 37 37 38 30 39 36 40 38 41 35 42 31 43 32 44
REMARK SMILES IDX 33 45 34 46 60 47 61 48 69 49 62 50 68 51 70 52 67 53 63 54
REMARK SMILES IDX 64 55 65 56 66 57 45 58 46 59 54 60 47 61 53 62 55 63 52 64
REMARK SMILES IDX 48 65 49 66 50 67 51 68 4 69 5 70 6 71 7 72 8 73 9 74 10 75
REMARK SMILES IDX 18 76 11 77 17 78 12 79 16 80 13 81 14 82 15 83
REMARK H PARENT 75 21 43 32
REMARK Flexibility Score: inf
ROOT
ATOM      1  O   UNL A   1      42.554  21.294  27.287  1.00  0.00    -0.458 OA
ENDROOT
BRANCH   1   2
ATOM      2  C   UNL A   1      41.544  22.072  27.752  1.00  0.00     0.338 C 
ATOM      3  O   UNL A   1      40.431  21.584  27.928  1.00  0.00    -0.246 OA
BRANCH   2   4
ATOM      4  C   UNL A   1      41.684  23.566  27.711  1.00  0.00     0.060 A 
ATOM      5  C   UNL A   1      42.597  24.149  28.612  1.00  0.00     0.016 A 
ATOM      6  C   UNL A   1      40.956  24.422  26.892  1.00  0.00     0.016 A 
ATOM      7  C   UNL A   1      42.730  25.540  28.735  1.00  0.00     0.010 A 
ATOM      8  C   UNL A   1      41.052  25.812  27.047  1.00  0.00     0.010 A 
ATOM      9  C   UNL A   1      41.945  26.396  27.964  1.00  0.00    -0.014 A 
BRANCH   9  10
ATOM     10  C   UNL A   1      42.271  27.864  28.004  1.00  0.00     0.031 A 
ATOM     11  C   UNL A   1      40.985  28.628  27.875  1.00  0.00     0.074 A 
ATOM     12  C   UNL A   1      43.121  28.370  28.929  1.00  0.00     0.049 A 
ATOM     13  N   UNL A   1      40.151  28.801  28.850  1.00  0.00    -0.248 NA
ATOM     14  C   UNL A   1      40.420  28.923  26.559  1.00  0.00     0.031 C 
ATOM     15  C   UNL A   1      43.045  28.160  30.372  1.00  0.00     0.029 A 
ATOM     16  N   UNL A   1      44.136  29.312  28.781  1.00  0.00    -0.354 N 
ATOM     17  C   UNL A   1      38.937  29.172  28.297  1.00  0.00     0.074 A 
ATOM     18  C   UNL A   1      39.151  29.231  26.870  1.00  0.00     0.031 C 
ATOM     19  C   UNL A   1      43.992  28.887  30.987  1.00  0.00     0.029 A 
ATOM     20  C   UNL A   1      44.588  29.798  30.014  1.00  0.00     0.049 A 
ATOM     21  H   UNL A   1      44.495  29.600  27.911  1.00  0.00     0.167 HD
ATOM     22  C   UNL A   1      37.856  29.452  29.077  1.00  0.00     0.034 A 
ATOM     23  C   UNL A   1      44.826  31.116  30.290  1.00  0.00     0.034 A 
ATOM     24  C   UNL A   1      38.091  29.443  30.507  1.00  0.00     0.049 A 
ATOM     25  C   UNL A   1      43.490  31.567  30.874  1.00  0.00     0.074 A 
ATOM     26  C   UNL A   1      37.486  29.048  31.679  1.00  0.00     0.029 A 
ATOM     27  N   UNL A   1      39.291  29.985  30.883  1.00  0.00    -0.354 N 
ATOM     28  N   UNL A   1      43.025  31.310  32.078  1.00  0.00    -0.248 NA
ATOM     29  C   UNL A   1      42.464  32.048  29.937  1.00  0.00     0.031 C 
ATOM     30  C   UNL A   1      38.374  29.411  32.753  1.00  0.00     0.029 A 
ATOM     31  C   UNL A   1      39.491  30.051  32.223  1.00  0.00     0.049 A 
ATOM     32  H   UNL A   1      39.957  30.303  30.232  1.00  0.00     0.167 HD
ATOM     33  C   UNL A   1      41.633  31.275  31.933  1.00  0.00     0.074 A 
ATOM     34  C   UNL A   1      41.358  31.908  30.659  1.00  0.00     0.031 C 
ATOM     35  C   UNL A   1      40.780  30.528  32.707  1.00  0.00     0.034 A 
BRANCH  22  36
ATOM     36  C   UNL A   1      36.661  30.124  28.512  1.00  0.00     0.023 A 
ATOM     37  C   UNL A   1      35.588  29.465  27.895  1.00  0.00     0.031 A 
ATOM     38  C   UNL A   1      36.609  31.527  28.638  1.00  0.00     0.131 A 
ATOM     39  C   UNL A   1      34.496  30.227  27.438  1.00  0.00     0.055 A 
ATOM     40  C   UNL A   1      35.521  32.270  28.197  1.00  0.00     0.041 A 
ATOM     41  F   UNL A   1      37.637  32.195  29.190  1.00  0.00    -0.206 F 
ATOM     42  C   UNL A   1      34.454  31.619  27.595  1.00  0.00     0.022 A 
BRANCH  39  43
ATOM     43  S   UNL A   1      33.074  29.453  26.617  1.00  0.00     0.124 S 
ATOM     44  O   UNL A   1      32.559  28.566  27.657  1.00  0.00    -0.237 OA
ATOM     45  O   UNL A   1      32.236  30.610  26.311  1.00  0.00    -0.237 OA
ATOM     46  O   UNL A   1      33.662  28.785  25.459  1.00  0.00    -0.744 OA
ENDBRANCH  39  43
ENDBRANCH  22  36
BRANCH  23  47
ATOM     47  C   UNL A   1      45.652  31.859  29.290  1.00  0.00     0.023 A 
ATOM     48  C   UNL A   1      45.140  32.698  28.296  1.00  0.00     0.031 A 
ATOM     49  C   UNL A   1      47.044  31.611  29.253  1.00  0.00     0.131 A 
ATOM     50  C   UNL A   1      45.935  33.048  27.193  1.00  0.00     0.055 A 
ATOM     51  C   UNL A   1      47.855  32.029  28.193  1.00  0.00     0.041 A 
ATOM     52  F   UNL A   1      47.635  30.922  30.244  1.00  0.00    -0.206 F 
ATOM     53  C   UNL A   1      47.286  32.708  27.126  1.00  0.00     0.022 A 
BRANCH  50  54
ATOM     54  S   UNL A   1      45.175  33.823  25.738  1.00  0.00     0.124 S 
ATOM     55  O   UNL A   1      44.617  32.675  25.031  1.00  0.00    -0.237 OA
ATOM     56  O   UNL A   1      44.205  34.714  26.368  1.00  0.00    -0.237 OA
ATOM     57  O   UNL A   1      46.299  34.482  25.083  1.00  0.00    -0.744 OA
ENDBRANCH  50  54
ENDBRANCH  23  47
BRANCH  35  58
ATOM     58  C   UNL A   1      41.210  30.156  34.087  1.00  0.00     0.023 A 
ATOM     59  C   UNL A   1      41.423  31.128  35.085  1.00  0.00     0.031 A 
ATOM     60  C   UNL A   1      41.655  28.846  34.326  1.00  0.00     0.131 A 
ATOM     61  C   UNL A   1      42.127  30.783  36.246  1.00  0.00     0.055 A 
ATOM     62  C   UNL A   1      42.307  28.498  35.506  1.00  0.00     0.041 A 
ATOM     63  F   UNL A   1      41.549  27.901  33.376  1.00  0.00    -0.206 F 
ATOM     64  C   UNL A   1      42.563  29.472  36.465  1.00  0.00     0.022 A 
BRANCH  61  65
ATOM     65  S   UNL A   1      42.602  32.043  37.463  1.00  0.00     0.124 S 
ATOM     66  O   UNL A   1      44.061  31.986  37.423  1.00  0.00    -0.237 OA
ATOM     67  O   UNL A   1      42.011  33.251  36.889  1.00  0.00    -0.237 OA
ATOM     68  O   UNL A   1      41.997  31.578  38.707  1.00  0.00    -0.744 OA
ENDBRANCH  61  65
ENDBRANCH  35  58
ENDBRANCH   9  10
ENDBRANCH   2   4
ENDBRANCH   1   2
BRANCH   1  69
ATOM     69  C   UNL A   1      42.430  20.367  26.187  1.00  0.00     0.275 C 
BRANCH  69  70
ATOM     70  C   UNL A   1      43.742  20.194  25.401  1.00  0.00     0.275 C 
BRANCH  70  71
ATOM     71  O   UNL A   1      44.641  21.289  25.600  1.00  0.00    -0.458 OA
BRANCH  71  72
ATOM     72  C   UNL A   1      44.609  22.272  24.663  1.00  0.00     0.338 C 
ATOM     73  O   UNL A   1      44.308  22.162  23.484  1.00  0.00    -0.246 OA
BRANCH  72  74
ATOM     74  C   UNL A   1      44.732  23.551  25.394  1.00  0.00     0.061 A 
ATOM     75  C   UNL A   1      44.174  24.703  24.853  1.00  0.00     0.018 A 
ATOM     76  C   UNL A   1      45.544  23.600  26.542  1.00  0.00     0.037 A 
ATOM     77  C   UNL A   1      44.451  25.935  25.435  1.00  0.00     0.031 A 
ATOM     78  C   UNL A   1      45.905  24.870  27.031  1.00  0.00     0.057 A 
ATOM     79  C   UNL A   1      45.390  26.046  26.476  1.00  0.00     0.083 A 
ATOM     80  S   UNL A   1      47.022  25.299  28.280  1.00  0.00    -0.102 S 
ATOM     81  N   UNL A   1      45.905  27.224  26.986  1.00  0.00    -0.225 NA
ATOM     82  C   UNL A   1      46.816  26.933  27.872  1.00  0.00     0.184 A 
ATOM     83  Cl  UNL A   1      47.806  28.135  28.599  1.00  0.00    -0.050 Cl
ENDBRANCH  72  74
ENDBRANCH  71  72
ENDBRANCH  70  71
ENDBRANCH  69  70
ENDBRANCH   1  69
TORSDOF 14
ENDMDL
MODEL 3
REMARK VINA RESULT:     -10.4      3.384     10.114
REMARK SMILES O=C(OCCOC(=O)c1ccc2nc(Cl)sc2c1)c1ccc(-c2c3nc(c(-c4cc(S(=O)(=O)[O-])ccc4F)c4ccc([nH]4)c(-c4cc(S(=O)(=O)[O-])ccc4F)c4nc(c(-c5cc(S(=O)(=O)[O-])ccc5F)c5ccc2[nH]5)C=C4)C=C3)cc1
REMARK SMILES IDX 3 1 2 2 1 3 19 4 20 5 81 6 21 7 80 8 22 9 23 10 24 11 74 12
REMARK SMILES IDX 25 13 79 14 73 15 75 16 26 17 78 18 72 19 71 20 27 22 59 23
REMARK SMILES IDX 39 24 58 25 40 26 43 27 57 28 76 29 41 30 42 31 56 33 77 34
REMARK SMILES IDX 44 35 28 36 29 37 37 38 30 39 36 40 38 41 35 42 31 43 32 44
REMARK SMILES IDX 33 45 34 46 60 47 61 48 69 49 62 50 68 51 70 52 67 53 63 54
REMARK SMILES IDX 64 55 65 56 66 57 45 58 46 59 54 60 47 61 53 62 55 63 52 64
REMARK SMILES IDX 48 65 49 66 50 67 51 68 4 69 5 70 6 71 7 72 8 73 9 74 10 75
REMARK SMILES IDX 18 76 11 77 17 78 12 79 16 80 13 81 14 82 15 83
REMARK H PARENT 75 21 43 32
REMARK Flexibility Score: inf
ROOT
ATOM      1  O   UNL A   1      35.075  33.654  28.062  1.00  0.00    -0.458 OA
ENDROOT
BRANCH   1   2
ATOM      2  C   UNL A   1      35.302  32.319  27.962  1.00  0.00     0.338 C 
ATOM      3  O   UNL A   1      34.430  31.587  27.499  1.00  0.00    -0.246 OA
BRANCH   2   4
ATOM      4  C   UNL A   1      36.437  31.703  28.726  1.00  0.00     0.060 A 
ATOM      5  C   UNL A   1      36.212  30.436  29.298  1.00  0.00     0.016 A 
ATOM      6  C   UNL A   1      37.673  32.299  28.952  1.00  0.00     0.016 A 
ATOM      7  C   UNL A   1      37.164  29.814  30.120  1.00  0.00     0.010 A 
ATOM      8  C   UNL A   1      38.606  31.702  29.813  1.00  0.00     0.010 A 
ATOM      9  C   UNL A   1      38.372  30.448  30.405  1.00  0.00    -0.014 A 
BRANCH   9  10
ATOM     10  C   UNL A   1      39.422  29.650  31.130  1.00  0.00     0.031 A 
ATOM     11  C   UNL A   1      39.506  28.298  30.484  1.00  0.00     0.074 A 
ATOM     12  C   UNL A   1      40.626  30.190  31.437  1.00  0.00     0.049 A 
ATOM     13  N   UNL A   1      40.125  28.072  29.370  1.00  0.00    -0.248 NA
ATOM     14  C   UNL A   1      38.602  27.221  30.883  1.00  0.00     0.031 C 
ATOM     15  C   UNL A   1      41.522  30.874  30.509  1.00  0.00     0.029 A 
ATOM     16  N   UNL A   1      41.368  30.095  32.611  1.00  0.00    -0.354 N 
ATOM     17  C   UNL A   1      39.667  26.860  28.878  1.00  0.00     0.074 A 
ATOM     18  C   UNL A   1      38.718  26.371  29.851  1.00  0.00     0.031 C 
ATOM     19  C   UNL A   1      42.666  31.194  31.137  1.00  0.00     0.029 A 
ATOM     20  C   UNL A   1      42.687  30.533  32.439  1.00  0.00     0.049 A 
ATOM     21  H   UNL A   1      41.008  29.760  33.464  1.00  0.00     0.167 HD
ATOM     22  C   UNL A   1      40.152  26.334  27.721  1.00  0.00     0.034 A 
ATOM     23  C   UNL A   1      43.791  29.882  32.915  1.00  0.00     0.034 A 
ATOM     24  C   UNL A   1      41.244  27.061  27.105  1.00  0.00     0.049 A 
ATOM     25  C   UNL A   1      44.182  29.003  31.729  1.00  0.00     0.074 A 
ATOM     26  C   UNL A   1      41.697  27.443  25.862  1.00  0.00     0.029 A 
ATOM     27  N   UNL A   1      42.156  27.564  27.994  1.00  0.00    -0.354 N 
ATOM     28  N   UNL A   1      44.781  29.388  30.623  1.00  0.00    -0.248 NA
ATOM     29  C   UNL A   1      43.560  27.674  31.632  1.00  0.00     0.031 C 
ATOM     30  C   UNL A   1      42.927  28.164  26.066  1.00  0.00     0.029 A 
ATOM     31  C   UNL A   1      43.222  28.183  27.427  1.00  0.00     0.049 A 
ATOM     32  H   UNL A   1      42.047  27.483  28.969  1.00  0.00     0.167 HD
ATOM     33  C   UNL A   1      44.315  28.515  29.632  1.00  0.00     0.074 A 
ATOM     34  C   UNL A   1      43.728  27.397  30.344  1.00  0.00     0.031 C 
ATOM     35  C   UNL A   1      44.193  28.827  28.301  1.00  0.00     0.034 A 
BRANCH  22  36
ATOM     36  C   UNL A   1      39.882  24.922  27.353  1.00  0.00     0.023 A 
ATOM     37  C   UNL A   1      38.804  24.491  26.568  1.00  0.00     0.031 A 
ATOM     38  C   UNL A   1      40.806  23.964  27.817  1.00  0.00     0.131 A 
ATOM     39  C   UNL A   1      38.692  23.121  26.263  1.00  0.00     0.055 A 
ATOM     40  C   UNL A   1      40.696  22.615  27.499  1.00  0.00     0.041 A 
ATOM     41  F   UNL A   1      41.831  24.336  28.603  1.00  0.00    -0.206 F 
ATOM     42  C   UNL A   1      39.635  22.187  26.714  1.00  0.00     0.022 A 
BRANCH  39  43
ATOM     43  S   UNL A   1      37.319  22.479  25.264  1.00  0.00     0.124 S 
ATOM     44  O   UNL A   1      37.806  21.157  24.878  1.00  0.00    -0.237 OA
ATOM     45  O   UNL A   1      36.219  22.484  26.226  1.00  0.00    -0.237 OA
ATOM     46  O   UNL A   1      37.199  23.445  24.176  1.00  0.00    -0.744 OA
ENDBRANCH  39  43
ENDBRANCH  22  36
BRANCH  23  47
ATOM     47  C   UNL A   1      43.740  29.463  34.349  1.00  0.00     0.023 A 
ATOM     48  C   UNL A   1      43.263  28.232  34.806  1.00  0.00     0.031 A 
ATOM     49  C   UNL A   1      44.081  30.416  35.337  1.00  0.00     0.131 A 
ATOM     50  C   UNL A   1      42.907  28.072  36.155  1.00  0.00     0.055 A 
ATOM     51  C   UNL A   1      43.801  30.225  36.695  1.00  0.00     0.041 A 
ATOM     52  F   UNL A   1      44.668  31.573  34.989  1.00  0.00    -0.206 F 
ATOM     53  C   UNL A   1      43.160  29.064  37.102  1.00  0.00     0.022 A 
BRANCH  50  54
ATOM     54  S   UNL A   1      41.956  26.616  36.675  1.00  0.00     0.124 S 
ATOM     55  O   UNL A   1      41.786  25.892  35.419  1.00  0.00    -0.237 OA
ATOM     56  O   UNL A   1      42.871  26.011  37.638  1.00  0.00    -0.237 OA
ATOM     57  O   UNL A   1      40.742  27.192  37.240  1.00  0.00    -0.744 OA
ENDBRANCH  50  54
ENDBRANCH  23  47
BRANCH  35  58
ATOM     58  C   UNL A   1      45.062  29.902  27.739  1.00  0.00     0.023 A 
ATOM     59  C   UNL A   1      44.529  31.124  27.282  1.00  0.00     0.031 A 
ATOM     60  C   UNL A   1      46.397  29.597  27.425  1.00  0.00     0.131 A 
ATOM     61  C   UNL A   1      45.311  31.961  26.476  1.00  0.00     0.055 A 
ATOM     62  C   UNL A   1      47.185  30.459  26.667  1.00  0.00     0.041 A 
ATOM     63  F   UNL A   1      46.929  28.411  27.767  1.00  0.00    -0.206 F 
ATOM     64  C   UNL A   1      46.639  31.639  26.173  1.00  0.00     0.022 A 
BRANCH  61  65
ATOM     65  S   UNL A   1      44.605  33.441  25.698  1.00  0.00     0.124 S 
ATOM     66  O   UNL A   1      43.829  34.030  26.787  1.00  0.00    -0.237 OA
ATOM     67  O   UNL A   1      45.806  34.182  25.319  1.00  0.00    -0.237 OA
ATOM     68  O   UNL A   1      43.815  32.914  24.590  1.00  0.00    -0.744 OA
ENDBRANCH  61  65
ENDBRANCH  35  58
ENDBRANCH   9  10
ENDBRANCH   2   4
ENDBRANCH   1   2
BRANCH   1  69
ATOM     69  C   UNL A   1      33.910  34.240  28.680  1.00  0.00     0.275 C 
BRANCH  69  70
ATOM     70  C   UNL A   1      34.107  34.517  30.182  1.00  0.00     0.275 C 
BRANCH  70  71
ATOM     71  O   UNL A   1      34.249  33.314  30.941  1.00  0.00    -0.458 OA
BRANCH  71  72
ATOM     72  C   UNL A   1      34.458  33.464  32.275  1.00  0.00     0.338 C 
ATOM     73  O   UNL A   1      33.623  33.709  33.132  1.00  0.00    -0.246 OA
BRANCH  72  74
ATOM     74  C   UNL A   1      35.836  32.999  32.538  1.00  0.00     0.061 A 
ATOM     75  C   UNL A   1      36.038  31.757  33.128  1.00  0.00     0.018 A 
ATOM     76  C   UNL A   1      36.904  33.890  32.327  1.00  0.00     0.037 A 
ATOM     77  C   UNL A   1      37.313  31.399  33.551  1.00  0.00     0.031 A 
ATOM     78  C   UNL A   1      38.155  33.552  32.878  1.00  0.00     0.057 A 
ATOM     79  C   UNL A   1      38.371  32.326  33.514  1.00  0.00     0.083 A 
ATOM     80  S   UNL A   1      39.609  34.483  32.977  1.00  0.00    -0.102 S 
ATOM     81  N   UNL A   1      39.615  32.164  34.097  1.00  0.00    -0.225 NA
ATOM     82  C   UNL A   1      40.297  33.264  33.936  1.00  0.00     0.184 A 
ATOM     83  Cl  UNL A   1      41.827  33.510  34.677  1.00  0.00    -0.050 Cl
ENDBRANCH  72  74
ENDBRANCH  71  72
ENDBRANCH  70  71
ENDBRANCH  69  70
ENDBRANCH   1  69
TORSDOF 14
ENDMDL
