MODEL 1
REMARK VINA RESULT:     -11.9      0.000      0.000
REMARK SMILES CC(C)CSc1cc2c(cc1Cl)C=C(C(=O)OCCOC(=O)c1ccc(-c3c4nc(c(-c5cc(S(=O)(=O)[O-])ccc5F)c5ccc([nH]5)c(-c5cc(S(=O)(=O)[O-])ccc5F)c5nc(c(-c6cc(S(=O)(=O)[O-])ccc6F)c6ccc3[nH]6)C=C5)C=C4)cc1)[C@@H](C(F)(F)F)O2
REMARK SMILES IDX 18 1 17 2 15 3 16 4 14 5 6 6 7 7 11 8 8 9 10 10 12 11 9 12
REMARK SMILES IDX 91 13 13 14 86 15 5 16 4 17 2 18 1 19 3 20 87 21 88 22 89 23
REMARK SMILES IDX 90 24 19 25 20 26 21 27 22 28 23 29 24 30 85 31 25 32 84 33
REMARK SMILES IDX 26 34 27 35 28 36 78 37 29 38 83 39 77 40 79 41 30 42 82 43
REMARK SMILES IDX 76 44 75 45 31 47 63 48 43 49 62 50 44 51 47 52 61 53 80 54
REMARK SMILES IDX 45 55 46 56 60 58 81 59 48 60 32 61 33 62 41 63 34 64 40 65
REMARK SMILES IDX 42 66 39 67 35 68 36 69 37 70 38 71 64 72 65 73 73 74 66 75
REMARK SMILES IDX 72 76 74 77 71 78 67 79 68 80 69 81 70 82 49 83 50 84 58 85
REMARK SMILES IDX 51 86 57 87 59 88 56 89 52 90 53 91 54 92 55 93
REMARK H PARENT 79 46 47 57
REMARK Flexibility Score: inf
ROOT
ATOM      1  C   UNL A   1      36.536  20.006  24.955  1.00  0.00     0.275 C 
ENDROOT
BRANCH   1   2
ATOM      2  O   UNL A   1      35.706  21.135  24.603  1.00  0.00    -0.459 OA
BRANCH   2   3
ATOM      3  C   UNL A   1      34.376  20.890  24.591  1.00  0.00     0.338 C 
ATOM      4  O   UNL A   1      33.844  19.792  24.543  1.00  0.00    -0.246 OA
BRANCH   3   5
ATOM      5  C   UNL A   1      33.600  22.143  24.641  1.00  0.00     0.087 C 
ATOM      6  C   UNL A   1      32.279  26.976  24.221  1.00  0.00     0.030 A 
ATOM      7  C   UNL A   1      31.921  25.933  25.093  1.00  0.00     0.063 A 
ATOM      8  C   UNL A   1      33.186  26.710  23.180  1.00  0.00     0.055 A 
ATOM      9  C   UNL A   1      32.425  24.644  24.916  1.00  0.00     0.129 A 
ATOM     10  C   UNL A   1      33.691  25.422  23.005  1.00  0.00     0.033 A 
ATOM     11  Cl  UNL A   1      33.707  27.917  22.056  1.00  0.00    -0.083 Cl
ATOM     12  C   UNL A   1      33.312  24.396  23.877  1.00  0.00     0.019 A 
ATOM     13  O   UNL A   1      31.992  23.682  25.785  1.00  0.00    -0.475 OA
ATOM     14  C   UNL A   1      33.893  23.081  23.734  1.00  0.00     0.027 C 
ATOM     15  C   UNL A   1      32.656  22.381  25.784  1.00  0.00     0.316 C 
BRANCH   6  16
ATOM     16  S   UNL A   1      31.576  28.605  24.459  1.00  0.00    -0.124 SA
BRANCH  16  17
ATOM     17  C   UNL A   1      32.952  29.500  25.260  1.00  0.00     0.078 C 
BRANCH  17  18
ATOM     18  C   UNL A   1      32.953  29.514  26.801  1.00  0.00    -0.007 C 
ATOM     19  C   UNL A   1      31.759  28.796  27.433  1.00  0.00     0.008 C 
ATOM     20  C   UNL A   1      34.241  28.842  27.289  1.00  0.00     0.008 C 
ENDBRANCH  17  18
ENDBRANCH  16  17
ENDBRANCH   6  16
BRANCH  15  21
ATOM     21  C   UNL A   1      33.346  22.190  27.144  1.00  0.00     0.430 C 
ATOM     22  F   UNL A   1      34.551  22.811  27.171  1.00  0.00    -0.167 F 
ATOM     23  F   UNL A   1      32.619  22.724  28.155  1.00  0.00    -0.167 F 
ATOM     24  F   UNL A   1      33.555  20.887  27.436  1.00  0.00    -0.167 F 
ENDBRANCH  15  21
ENDBRANCH   3   5
ENDBRANCH   2   3
ENDBRANCH   1   2
BRANCH   1  25
ATOM     25  C   UNL A   1      38.026  20.322  24.811  1.00  0.00     0.275 C 
BRANCH  25  26
ATOM     26  O   UNL A   1      38.404  21.429  25.648  1.00  0.00    -0.458 OA
BRANCH  26  27
ATOM     27  C   UNL A   1      39.590  21.287  26.280  1.00  0.00     0.338 C 
ATOM     28  O   UNL A   1      40.325  20.314  26.259  1.00  0.00    -0.246 OA
BRANCH  27  29
ATOM     29  C   UNL A   1      39.958  22.547  26.937  1.00  0.00     0.060 A 
ATOM     30  C   UNL A   1      40.965  22.608  27.893  1.00  0.00     0.016 A 
ATOM     31  C   UNL A   1      39.397  23.718  26.446  1.00  0.00     0.016 A 
ATOM     32  C   UNL A   1      41.397  23.862  28.344  1.00  0.00     0.010 A 
ATOM     33  C   UNL A   1      39.941  24.954  26.767  1.00  0.00     0.010 A 
ATOM     34  C   UNL A   1      40.928  25.054  27.751  1.00  0.00    -0.014 A 
BRANCH  34  35
ATOM     35  C   UNL A   1      41.466  26.393  28.137  1.00  0.00     0.031 A 
ATOM     36  C   UNL A   1      42.872  26.807  27.767  1.00  0.00     0.074 A 
ATOM     37  C   UNL A   1      40.703  27.224  28.879  1.00  0.00     0.049 A 
ATOM     38  N   UNL A   1      43.492  27.934  28.018  1.00  0.00    -0.248 NA
ATOM     39  C   UNL A   1      43.714  25.821  27.068  1.00  0.00     0.031 C 
ATOM     40  C   UNL A   1      39.376  26.897  29.406  1.00  0.00     0.029 A 
ATOM     41  N   UNL A   1      40.918  28.511  29.312  1.00  0.00    -0.354 N 
ATOM     42  C   UNL A   1      44.786  27.778  27.531  1.00  0.00     0.074 A 
ATOM     43  C   UNL A   1      44.893  26.421  27.052  1.00  0.00     0.031 C 
ATOM     44  C   UNL A   1      38.865  27.975  30.015  1.00  0.00     0.029 A 
ATOM     45  C   UNL A   1      39.844  29.059  29.978  1.00  0.00     0.049 A 
ATOM     46  H   UNL A   1      41.761  28.996  29.160  1.00  0.00     0.167 HD
ATOM     47  C   UNL A   1      45.780  28.694  27.441  1.00  0.00     0.034 A 
ATOM     48  C   UNL A   1      39.654  30.294  30.485  1.00  0.00     0.034 A 
ATOM     49  C   UNL A   1      45.635  30.062  27.863  1.00  0.00     0.049 A 
ATOM     50  C   UNL A   1      40.743  31.323  30.314  1.00  0.00     0.074 A 
ATOM     51  C   UNL A   1      46.542  31.098  27.727  1.00  0.00     0.029 A 
ATOM     52  N   UNL A   1      44.513  30.590  28.486  1.00  0.00    -0.354 N 
ATOM     53  N   UNL A   1      41.915  31.191  29.735  1.00  0.00    -0.248 NA
ATOM     54  C   UNL A   1      40.490  32.669  30.846  1.00  0.00     0.031 C 
ATOM     55  C   UNL A   1      45.995  32.235  28.320  1.00  0.00     0.029 A 
ATOM     56  C   UNL A   1      44.714  31.933  28.757  1.00  0.00     0.049 A 
ATOM     57  H   UNL A   1      43.695  30.086  28.703  1.00  0.00     0.167 HD
ATOM     58  C   UNL A   1      42.527  32.438  29.814  1.00  0.00     0.074 A 
ATOM     59  C   UNL A   1      41.585  33.319  30.470  1.00  0.00     0.031 C 
ATOM     60  C   UNL A   1      43.758  32.813  29.387  1.00  0.00     0.034 A 
BRANCH  47  61
ATOM     61  C   UNL A   1      47.093  28.292  26.807  1.00  0.00     0.023 A 
ATOM     62  C   UNL A   1      47.209  28.203  25.407  1.00  0.00     0.031 A 
ATOM     63  C   UNL A   1      48.182  27.861  27.589  1.00  0.00     0.131 A 
ATOM     64  C   UNL A   1      48.370  27.665  24.835  1.00  0.00     0.055 A 
ATOM     65  C   UNL A   1      49.357  27.376  27.012  1.00  0.00     0.041 A 
ATOM     66  F   UNL A   1      48.123  27.911  28.929  1.00  0.00    -0.206 F 
ATOM     67  C   UNL A   1      49.448  27.263  25.630  1.00  0.00     0.022 A 
BRANCH  64  68
ATOM     68  S   UNL A   1      48.500  27.391  23.046  1.00  0.00     0.124 S 
ATOM     69  O   UNL A   1      47.341  28.126  22.545  1.00  0.00    -0.237 OA
ATOM     70  O   UNL A   1      49.796  27.991  22.741  1.00  0.00    -0.237 OA
ATOM     71  O   UNL A   1      48.426  25.942  22.905  1.00  0.00    -0.744 OA
ENDBRANCH  64  68
ENDBRANCH  47  61
BRANCH  48  72
ATOM     72  C   UNL A   1      38.335  30.632  31.102  1.00  0.00     0.023 A 
ATOM     73  C   UNL A   1      37.323  31.267  30.358  1.00  0.00     0.031 A 
ATOM     74  C   UNL A   1      38.120  30.447  32.479  1.00  0.00     0.131 A 
ATOM     75  C   UNL A   1      36.185  31.763  31.007  1.00  0.00     0.055 A 
ATOM     76  C   UNL A   1      36.949  30.872  33.108  1.00  0.00     0.041 A 
ATOM     77  F   UNL A   1      39.061  29.863  33.237  1.00  0.00    -0.206 F 
ATOM     78  C   UNL A   1      35.982  31.553  32.375  1.00  0.00     0.022 A 
BRANCH  75  79
ATOM     79  S   UNL A   1      35.004  32.830  30.134  1.00  0.00     0.124 S 
ATOM     80  O   UNL A   1      35.871  33.885  29.619  1.00  0.00    -0.237 OA
ATOM     81  O   UNL A   1      34.460  31.915  29.132  1.00  0.00    -0.237 OA
ATOM     82  O   UNL A   1      34.068  33.232  31.177  1.00  0.00    -0.744 OA
ENDBRANCH  75  79
ENDBRANCH  48  72
BRANCH  60  83
ATOM     83  C   UNL A   1      44.198  34.243  29.589  1.00  0.00     0.023 A 
ATOM     84  C   UNL A   1      43.873  35.217  28.624  1.00  0.00     0.031 A 
ATOM     85  C   UNL A   1      45.089  34.594  30.616  1.00  0.00     0.131 A 
ATOM     86  C   UNL A   1      44.484  36.476  28.671  1.00  0.00     0.055 A 
ATOM     87  C   UNL A   1      45.653  35.869  30.690  1.00  0.00     0.041 A 
ATOM     88  F   UNL A   1      45.441  33.697  31.552  1.00  0.00    -0.206 F 
ATOM     89  C   UNL A   1      45.365  36.810  29.704  1.00  0.00     0.022 A 
BRANCH  86  90
ATOM     90  S   UNL A   1      44.240  37.683  27.340  1.00  0.00     0.124 S 
ATOM     91  O   UNL A   1      43.973  38.909  28.088  1.00  0.00    -0.237 OA
ATOM     92  O   UNL A   1      45.527  37.643  26.650  1.00  0.00    -0.237 OA
ATOM     93  O   UNL A   1      43.107  37.156  26.587  1.00  0.00    -0.744 OA
ENDBRANCH  86  90
ENDBRANCH  60  83
ENDBRANCH  34  35
ENDBRANCH  27  29
ENDBRANCH  26  27
ENDBRANCH  25  26
ENDBRANCH   1  25
TORSDOF 18
ENDMDL
MODEL 2
REMARK VINA RESULT:     -11.7      1.327      1.631
REMARK SMILES CC(C)CSc1cc2c(cc1Cl)C=C(C(=O)OCCOC(=O)c1ccc(-c3c4nc(c(-c5cc(S(=O)(=O)[O-])ccc5F)c5ccc([nH]5)c(-c5cc(S(=O)(=O)[O-])ccc5F)c5nc(c(-c6cc(S(=O)(=O)[O-])ccc6F)c6ccc3[nH]6)C=C5)C=C4)cc1)[C@@H](C(F)(F)F)O2
REMARK SMILES IDX 18 1 17 2 15 3 16 4 14 5 6 6 7 7 11 8 8 9 10 10 12 11 9 12
REMARK SMILES IDX 91 13 13 14 86 15 5 16 4 17 2 18 1 19 3 20 87 21 88 22 89 23
REMARK SMILES IDX 90 24 19 25 20 26 21 27 22 28 23 29 24 30 85 31 25 32 84 33
REMARK SMILES IDX 26 34 27 35 28 36 78 37 29 38 83 39 77 40 79 41 30 42 82 43
REMARK SMILES IDX 76 44 75 45 31 47 63 48 43 49 62 50 44 51 47 52 61 53 80 54
REMARK SMILES IDX 45 55 46 56 60 58 81 59 48 60 32 61 33 62 41 63 34 64 40 65
REMARK SMILES IDX 42 66 39 67 35 68 36 69 37 70 38 71 64 72 65 73 73 74 66 75
REMARK SMILES IDX 72 76 74 77 71 78 67 79 68 80 69 81 70 82 49 83 50 84 58 85
REMARK SMILES IDX 51 86 57 87 59 88 56 89 52 90 53 91 54 92 55 93
REMARK H PARENT 79 46 47 57
REMARK Flexibility Score: inf
ROOT
ATOM      1  C   UNL A   1      36.393  19.898  24.907  1.00  0.00     0.275 C 
ENDROOT
BRANCH   1   2
ATOM      2  O   UNL A   1      35.582  21.075  24.699  1.00  0.00    -0.459 OA
BRANCH   2   3
ATOM      3  C   UNL A   1      34.249  20.854  24.648  1.00  0.00     0.338 C 
ATOM      4  O   UNL A   1      33.699  19.766  24.576  1.00  0.00    -0.246 OA
BRANCH   3   5
ATOM      5  C   UNL A   1      33.494  22.120  24.686  1.00  0.00     0.087 C 
ATOM      6  C   UNL A   1      32.249  26.968  24.208  1.00  0.00     0.030 A 
ATOM      7  C   UNL A   1      31.881  25.943  25.098  1.00  0.00     0.063 A 
ATOM      8  C   UNL A   1      33.143  26.673  23.164  1.00  0.00     0.055 A 
ATOM      9  C   UNL A   1      32.363  24.645  24.935  1.00  0.00     0.129 A 
ATOM     10  C   UNL A   1      33.626  25.375  23.003  1.00  0.00     0.033 A 
ATOM     11  Cl  UNL A   1      33.675  27.855  22.019  1.00  0.00    -0.083 Cl
ATOM     12  C   UNL A   1      33.237  24.367  23.893  1.00  0.00     0.019 A 
ATOM     13  O   UNL A   1      31.921  23.701  25.821  1.00  0.00    -0.475 OA
ATOM     14  C   UNL A   1      33.794  23.041  23.764  1.00  0.00     0.027 C 
ATOM     15  C   UNL A   1      32.564  22.390  25.833  1.00  0.00     0.316 C 
BRANCH   6  16
ATOM     16  S   UNL A   1      31.575  28.612  24.429  1.00  0.00    -0.124 SA
BRANCH  16  17
ATOM     17  C   UNL A   1      32.984  29.504  25.175  1.00  0.00     0.078 C 
BRANCH  17  18
ATOM     18  C   UNL A   1      33.063  29.493  26.714  1.00  0.00    -0.007 C 
ATOM     19  C   UNL A   1      31.832  28.894  27.398  1.00  0.00     0.008 C 
ATOM     20  C   UNL A   1      34.294  28.681  27.129  1.00  0.00     0.008 C 
ENDBRANCH  17  18
ENDBRANCH  16  17
ENDBRANCH   6  16
BRANCH  15  21
ATOM     21  C   UNL A   1      33.261  22.206  27.190  1.00  0.00     0.430 C 
ATOM     22  F   UNL A   1      34.422  22.907  27.241  1.00  0.00    -0.167 F 
ATOM     23  F   UNL A   1      32.498  22.661  28.213  1.00  0.00    -0.167 F 
ATOM     24  F   UNL A   1      33.556  20.913  27.445  1.00  0.00    -0.167 F 
ENDBRANCH  15  21
ENDBRANCH   3   5
ENDBRANCH   2   3
ENDBRANCH   1   2
BRANCH   1  25
ATOM     25  C   UNL A   1      37.888  20.206  24.812  1.00  0.00     0.275 C 
BRANCH  25  26
ATOM     26  O   UNL A   1      38.256  21.268  25.710  1.00  0.00    -0.458 OA
BRANCH  26  27
ATOM     27  C   UNL A   1      39.470  21.130  26.289  1.00  0.00     0.338 C 
ATOM     28  O   UNL A   1      40.204  20.158  26.238  1.00  0.00    -0.246 OA
BRANCH  27  29
ATOM     29  C   UNL A   1      39.865  22.394  26.923  1.00  0.00     0.060 A 
ATOM     30  C   UNL A   1      40.875  22.450  27.875  1.00  0.00     0.016 A 
ATOM     31  C   UNL A   1      39.326  23.568  26.413  1.00  0.00     0.016 A 
ATOM     32  C   UNL A   1      41.334  23.703  28.304  1.00  0.00     0.010 A 
ATOM     33  C   UNL A   1      39.897  24.798  26.711  1.00  0.00     0.010 A 
ATOM     34  C   UNL A   1      40.888  24.894  27.691  1.00  0.00    -0.014 A 
BRANCH  34  35
ATOM     35  C   UNL A   1      41.453  26.228  28.054  1.00  0.00     0.031 A 
ATOM     36  C   UNL A   1      42.856  26.620  27.645  1.00  0.00     0.074 A 
ATOM     37  C   UNL A   1      40.721  27.075  28.808  1.00  0.00     0.049 A 
ATOM     38  N   UNL A   1      43.497  27.739  27.872  1.00  0.00    -0.248 NA
ATOM     39  C   UNL A   1      43.665  25.617  26.933  1.00  0.00     0.031 C 
ATOM     40  C   UNL A   1      39.404  26.771  29.371  1.00  0.00     0.029 A 
ATOM     41  N   UNL A   1      40.965  28.362  29.225  1.00  0.00    -0.354 N 
ATOM     42  C   UNL A   1      44.776  27.562  27.353  1.00  0.00     0.074 A 
ATOM     43  C   UNL A   1      44.853  26.199  26.883  1.00  0.00     0.031 C 
ATOM     44  C   UNL A   1      38.923  27.861  29.984  1.00  0.00     0.029 A 
ATOM     45  C   UNL A   1      39.915  28.930  29.913  1.00  0.00     0.049 A 
ATOM     46  H   UNL A   1      41.810  28.834  29.049  1.00  0.00     0.167 HD
ATOM     47  C   UNL A   1      45.780  28.463  27.231  1.00  0.00     0.034 A 
ATOM     48  C   UNL A   1      39.755  30.172  30.416  1.00  0.00     0.034 A 
ATOM     49  C   UNL A   1      45.664  29.836  27.647  1.00  0.00     0.049 A 
ATOM     50  C   UNL A   1      40.854  31.184  30.209  1.00  0.00     0.074 A 
ATOM     51  C   UNL A   1      46.582  30.858  27.480  1.00  0.00     0.029 A 
ATOM     52  N   UNL A   1      44.566  30.385  28.293  1.00  0.00    -0.354 N 
ATOM     53  N   UNL A   1      42.009  31.031  29.602  1.00  0.00    -0.248 NA
ATOM     54  C   UNL A   1      40.633  32.537  30.737  1.00  0.00     0.031 C 
ATOM     55  C   UNL A   1      46.066  32.007  28.077  1.00  0.00     0.029 A 
ATOM     56  C   UNL A   1      44.793  31.726  28.549  1.00  0.00     0.049 A 
ATOM     57  H   UNL A   1      43.747  29.894  28.534  1.00  0.00     0.167 HD
ATOM     58  C   UNL A   1      42.639  32.270  29.656  1.00  0.00     0.074 A 
ATOM     59  C   UNL A   1      41.727  33.170  30.329  1.00  0.00     0.031 C 
ATOM     60  C   UNL A   1      43.865  32.624  29.195  1.00  0.00     0.034 A 
BRANCH  47  61
ATOM     61  C   UNL A   1      47.071  28.038  26.568  1.00  0.00     0.023 A 
ATOM     62  C   UNL A   1      47.213  28.123  25.170  1.00  0.00     0.031 A 
ATOM     63  C   UNL A   1      48.102  27.419  27.301  1.00  0.00     0.131 A 
ATOM     64  C   UNL A   1      48.340  27.567  24.548  1.00  0.00     0.055 A 
ATOM     65  C   UNL A   1      49.247  26.916  26.682  1.00  0.00     0.041 A 
ATOM     66  F   UNL A   1      48.014  27.299  28.636  1.00  0.00    -0.206 F 
ATOM     67  C   UNL A   1      49.363  26.976  25.298  1.00  0.00     0.022 A 
BRANCH  64  68
ATOM     68  S   UNL A   1      48.492  27.519  22.741  1.00  0.00     0.124 S 
ATOM     69  O   UNL A   1      49.780  28.176  22.530  1.00  0.00    -0.237 OA
ATOM     70  O   UNL A   1      48.474  26.084  22.473  1.00  0.00    -0.237 OA
ATOM     71  O   UNL A   1      47.330  28.263  22.270  1.00  0.00    -0.744 OA
ENDBRANCH  64  68
ENDBRANCH  47  61
BRANCH  48  72
ATOM     72  C   UNL A   1      38.457  30.532  31.063  1.00  0.00     0.023 A 
ATOM     73  C   UNL A   1      37.426  31.153  30.332  1.00  0.00     0.031 A 
ATOM     74  C   UNL A   1      38.283  30.385  32.450  1.00  0.00     0.131 A 
ATOM     75  C   UNL A   1      36.310  31.671  31.003  1.00  0.00     0.055 A 
ATOM     76  C   UNL A   1      37.134  30.833  33.103  1.00  0.00     0.041 A 
ATOM     77  F   UNL A   1      39.243  29.817  33.195  1.00  0.00    -0.206 F 
ATOM     78  C   UNL A   1      36.147  31.500  32.381  1.00  0.00     0.022 A 
BRANCH  75  79
ATOM     79  S   UNL A   1      35.108  32.721  30.137  1.00  0.00     0.124 S 
ATOM     80  O   UNL A   1      34.159  33.038  31.200  1.00  0.00    -0.237 OA
ATOM     81  O   UNL A   1      35.949  33.831  29.691  1.00  0.00    -0.237 OA
ATOM     82  O   UNL A   1      34.603  31.862  29.073  1.00  0.00    -0.744 OA
ENDBRANCH  75  79
ENDBRANCH  48  72
BRANCH  60  83
ATOM     83  C   UNL A   1      44.330  34.049  29.375  1.00  0.00     0.023 A 
ATOM     84  C   UNL A   1      44.950  34.436  30.579  1.00  0.00     0.031 A 
ATOM     85  C   UNL A   1      43.987  35.050  28.451  1.00  0.00     0.131 A 
ATOM     86  C   UNL A   1      45.153  35.794  30.854  1.00  0.00     0.055 A 
ATOM     87  C   UNL A   1      44.241  36.399  28.706  1.00  0.00     0.041 A 
ATOM     88  F   UNL A   1      43.382  34.734  27.294  1.00  0.00    -0.206 F 
ATOM     89  C   UNL A   1      44.810  36.777  29.921  1.00  0.00     0.022 A 
BRANCH  86  90
ATOM     90  S   UNL A   1      45.767  36.338  32.472  1.00  0.00     0.124 S 
ATOM     91  O   UNL A   1      46.945  35.492  32.648  1.00  0.00    -0.237 OA
ATOM     92  O   UNL A   1      46.046  37.752  32.234  1.00  0.00    -0.237 OA
ATOM     93  O   UNL A   1      44.662  36.059  33.382  1.00  0.00    -0.744 OA
ENDBRANCH  86  90
ENDBRANCH  60  83
ENDBRANCH  34  35
ENDBRANCH  27  29
ENDBRANCH  26  27
ENDBRANCH  25  26
ENDBRANCH   1  25
TORSDOF 18
ENDMDL
MODEL 3
REMARK VINA RESULT:     -11.6      5.088     10.282
REMARK SMILES CC(C)CSc1cc2c(cc1Cl)C=C(C(=O)OCCOC(=O)c1ccc(-c3c4nc(c(-c5cc(S(=O)(=O)[O-])ccc5F)c5ccc([nH]5)c(-c5cc(S(=O)(=O)[O-])ccc5F)c5nc(c(-c6cc(S(=O)(=O)[O-])ccc6F)c6ccc3[nH]6)C=C5)C=C4)cc1)[C@@H](C(F)(F)F)O2
REMARK SMILES IDX 18 1 17 2 15 3 16 4 14 5 6 6 7 7 11 8 8 9 10 10 12 11 9 12
REMARK SMILES IDX 91 13 13 14 86 15 5 16 4 17 2 18 1 19 3 20 87 21 88 22 89 23
REMARK SMILES IDX 90 24 19 25 20 26 21 27 22 28 23 29 24 30 85 31 25 32 84 33
REMARK SMILES IDX 26 34 27 35 28 36 78 37 29 38 83 39 77 40 79 41 30 42 82 43
REMARK SMILES IDX 76 44 75 45 31 47 63 48 43 49 62 50 44 51 47 52 61 53 80 54
REMARK SMILES IDX 45 55 46 56 60 58 81 59 48 60 32 61 33 62 41 63 34 64 40 65
REMARK SMILES IDX 42 66 39 67 35 68 36 69 37 70 38 71 64 72 65 73 73 74 66 75
REMARK SMILES IDX 72 76 74 77 71 78 67 79 68 80 69 81 70 82 49 83 50 84 58 85
REMARK SMILES IDX 51 86 57 87 59 88 56 89 52 90 53 91 54 92 55 93
REMARK H PARENT 79 46 47 57
REMARK Flexibility Score: inf
ROOT
ATOM      1  C   UNL A   1      32.233  28.839  25.165  1.00  0.00     0.275 C 
ENDROOT
BRANCH   1   2
ATOM      2  O   UNL A   1      32.757  27.592  25.674  1.00  0.00    -0.459 OA
BRANCH   2   3
ATOM      3  C   UNL A   1      31.943  26.933  26.530  1.00  0.00     0.338 C 
ATOM      4  O   UNL A   1      31.359  27.415  27.488  1.00  0.00    -0.246 OA
BRANCH   3   5
ATOM      5  C   UNL A   1      31.832  25.507  26.172  1.00  0.00     0.087 C 
ATOM      6  C   UNL A   1      32.951  20.863  24.603  1.00  0.00     0.030 A 
ATOM      7  C   UNL A   1      31.784  21.649  24.592  1.00  0.00     0.063 A 
ATOM      8  C   UNL A   1      34.119  21.391  25.181  1.00  0.00     0.055 A 
ATOM      9  C   UNL A   1      31.767  22.916  25.173  1.00  0.00     0.129 A 
ATOM     10  C   UNL A   1      34.102  22.658  25.760  1.00  0.00     0.033 A 
ATOM     11  Cl  UNL A   1      35.614  20.521  25.239  1.00  0.00    -0.083 Cl
ATOM     12  C   UNL A   1      32.927  23.418  25.749  1.00  0.00     0.019 A 
ATOM     13  O   UNL A   1      30.580  23.594  25.155  1.00  0.00    -0.475 OA
ATOM     14  C   UNL A   1      32.933  24.759  26.287  1.00  0.00     0.027 C 
ATOM     15  C   UNL A   1      30.565  25.001  25.543  1.00  0.00     0.316 C 
BRANCH   6  16
ATOM     16  S   UNL A   1      32.918  19.225  23.883  1.00  0.00    -0.124 SA
BRANCH  16  17
ATOM     17  C   UNL A   1      32.844  18.160  25.365  1.00  0.00     0.078 C 
BRANCH  17  18
ATOM     18  C   UNL A   1      33.504  16.773  25.244  1.00  0.00    -0.007 C 
ATOM     19  C   UNL A   1      32.586  15.609  25.625  1.00  0.00     0.008 C 
ATOM     20  C   UNL A   1      33.959  16.579  23.793  1.00  0.00     0.008 C 
ENDBRANCH  17  18
ENDBRANCH  16  17
ENDBRANCH   6  16
BRANCH  15  21
ATOM     21  C   UNL A   1      30.162  25.836  24.319  1.00  0.00     0.430 C 
ATOM     22  F   UNL A   1      31.241  26.126  23.548  1.00  0.00    -0.167 F 
ATOM     23  F   UNL A   1      29.294  25.170  23.520  1.00  0.00    -0.167 F 
ATOM     24  F   UNL A   1      29.584  27.008  24.662  1.00  0.00    -0.167 F 
ENDBRANCH  15  21
ENDBRANCH   3   5
ENDBRANCH   2   3
ENDBRANCH   1   2
BRANCH   1  25
ATOM     25  C   UNL A   1      33.087  30.036  25.588  1.00  0.00     0.275 C 
BRANCH  25  26
ATOM     26  O   UNL A   1      32.837  30.391  26.959  1.00  0.00    -0.458 OA
BRANCH  26  27
ATOM     27  C   UNL A   1      33.513  31.475  27.399  1.00  0.00     0.338 C 
ATOM     28  O   UNL A   1      33.072  32.600  27.570  1.00  0.00    -0.246 OA
BRANCH  27  29
ATOM     29  C   UNL A   1      34.881  31.093  27.771  1.00  0.00     0.060 A 
ATOM     30  C   UNL A   1      35.883  32.038  27.949  1.00  0.00     0.016 A 
ATOM     31  C   UNL A   1      35.107  29.767  28.119  1.00  0.00     0.016 A 
ATOM     32  C   UNL A   1      37.112  31.631  28.484  1.00  0.00     0.010 A 
ATOM     33  C   UNL A   1      36.259  29.401  28.803  1.00  0.00     0.010 A 
ATOM     34  C   UNL A   1      37.301  30.318  28.966  1.00  0.00    -0.014 A 
BRANCH  34  35
ATOM     35  C   UNL A   1      38.563  29.899  29.646  1.00  0.00     0.031 A 
ATOM     36  C   UNL A   1      38.917  30.416  31.023  1.00  0.00     0.074 A 
ATOM     37  C   UNL A   1      39.430  29.093  28.998  1.00  0.00     0.049 A 
ATOM     38  N   UNL A   1      39.968  30.149  31.758  1.00  0.00    -0.248 NA
ATOM     39  C   UNL A   1      38.005  31.394  31.642  1.00  0.00     0.031 C 
ATOM     40  C   UNL A   1      39.267  28.623  27.620  1.00  0.00     0.029 A 
ATOM     41  N   UNL A   1      40.610  28.515  29.402  1.00  0.00    -0.354 N 
ATOM     42  C   UNL A   1      39.850  30.936  32.899  1.00  0.00     0.074 A 
ATOM     43  C   UNL A   1      38.677  31.758  32.723  1.00  0.00     0.031 C 
ATOM     44  C   UNL A   1      40.256  27.770  27.325  1.00  0.00     0.029 A 
ATOM     45  C   UNL A   1      41.162  27.668  28.466  1.00  0.00     0.049 A 
ATOM     46  H   UNL A   1      41.022  28.689  30.279  1.00  0.00     0.167 HD
ATOM     47  C   UNL A   1      40.616  30.940  34.016  1.00  0.00     0.034 A 
ATOM     48  C   UNL A   1      42.259  26.885  28.520  1.00  0.00     0.034 A 
ATOM     49  C   UNL A   1      41.746  30.067  34.203  1.00  0.00     0.049 A 
ATOM     50  C   UNL A   1      43.060  26.848  29.796  1.00  0.00     0.074 A 
ATOM     51  C   UNL A   1      42.531  29.918  35.333  1.00  0.00     0.029 A 
ATOM     52  N   UNL A   1      42.242  29.189  33.251  1.00  0.00    -0.354 N 
ATOM     53  N   UNL A   1      42.858  27.507  30.914  1.00  0.00    -0.248 NA
ATOM     54  C   UNL A   1      44.228  25.956  29.834  1.00  0.00     0.031 C 
ATOM     55  C   UNL A   1      43.535  28.996  35.044  1.00  0.00     0.029 A 
ATOM     56  C   UNL A   1      43.334  28.509  33.762  1.00  0.00     0.049 A 
ATOM     57  H   UNL A   1      41.872  29.067  32.346  1.00  0.00     0.167 HD
ATOM     58  C   UNL A   1      43.856  27.095  31.791  1.00  0.00     0.074 A 
ATOM     59  C   UNL A   1      44.645  26.108  31.085  1.00  0.00     0.031 C 
ATOM     60  C   UNL A   1      44.098  27.504  33.061  1.00  0.00     0.034 A 
BRANCH  47  61
ATOM     61  C   UNL A   1      40.242  31.856  35.160  1.00  0.00     0.023 A 
ATOM     62  C   UNL A   1      39.322  31.431  36.139  1.00  0.00     0.031 A 
ATOM     63  C   UNL A   1      40.682  33.193  35.203  1.00  0.00     0.131 A 
ATOM     64  C   UNL A   1      38.849  32.341  37.093  1.00  0.00     0.055 A 
ATOM     65  C   UNL A   1      40.248  34.080  36.189  1.00  0.00     0.041 A 
ATOM     66  F   UNL A   1      41.548  33.656  34.288  1.00  0.00    -0.206 F 
ATOM     67  C   UNL A   1      39.316  33.659  37.131  1.00  0.00     0.022 A 
BRANCH  64  68
ATOM     68  S   UNL A   1      37.552  31.878  38.275  1.00  0.00     0.124 S 
ATOM     69  O   UNL A   1      38.244  32.030  39.554  1.00  0.00    -0.237 OA
ATOM     70  O   UNL A   1      36.523  32.877  38.003  1.00  0.00    -0.237 OA
ATOM     71  O   UNL A   1      37.215  30.508  37.909  1.00  0.00    -0.744 OA
ENDBRANCH  64  68
ENDBRANCH  47  61
BRANCH  48  72
ATOM     72  C   UNL A   1      42.579  26.003  27.356  1.00  0.00     0.023 A 
ATOM     73  C   UNL A   1      42.064  24.696  27.268  1.00  0.00     0.031 A 
ATOM     74  C   UNL A   1      43.515  26.408  26.388  1.00  0.00     0.131 A 
ATOM     75  C   UNL A   1      42.545  23.821  26.285  1.00  0.00     0.055 A 
ATOM     76  C   UNL A   1      43.933  25.557  25.363  1.00  0.00     0.041 A 
ATOM     77  F   UNL A   1      44.051  27.636  26.437  1.00  0.00    -0.206 F 
ATOM     78  C   UNL A   1      43.463  24.248  25.320  1.00  0.00     0.022 A 
BRANCH  75  79
ATOM     79  S   UNL A   1      42.117  22.057  26.318  1.00  0.00     0.124 S 
ATOM     80  O   UNL A   1      40.676  22.088  26.090  1.00  0.00    -0.237 OA
ATOM     81  O   UNL A   1      42.920  21.535  25.214  1.00  0.00    -0.237 OA
ATOM     82  O   UNL A   1      42.538  21.626  27.646  1.00  0.00    -0.744 OA
ENDBRANCH  75  79
ENDBRANCH  48  72
BRANCH  60  83
ATOM     83  C   UNL A   1      45.256  26.898  33.817  1.00  0.00     0.023 A 
ATOM     84  C   UNL A   1      45.086  25.673  34.491  1.00  0.00     0.031 A 
ATOM     85  C   UNL A   1      46.445  27.616  34.029  1.00  0.00     0.131 A 
ATOM     86  C   UNL A   1      46.062  25.232  35.393  1.00  0.00     0.055 A 
ATOM     87  C   UNL A   1      47.440  27.145  34.888  1.00  0.00     0.041 A 
ATOM     88  F   UNL A   1      46.648  28.795  33.420  1.00  0.00    -0.206 F 
ATOM     89  C   UNL A   1      47.241  25.958  35.588  1.00  0.00     0.022 A 
BRANCH  86  90
ATOM     90  S   UNL A   1      45.789  23.764  36.422  1.00  0.00     0.124 S 
ATOM     91  O   UNL A   1      44.538  23.241  35.876  1.00  0.00    -0.237 OA
ATOM     92  O   UNL A   1      46.976  22.963  36.135  1.00  0.00    -0.237 OA
ATOM     93  O   UNL A   1      45.700  24.293  37.778  1.00  0.00    -0.744 OA
ENDBRANCH  86  90
ENDBRANCH  60  83
ENDBRANCH  34  35
ENDBRANCH  27  29
ENDBRANCH  26  27
ENDBRANCH  25  26
ENDBRANCH   1  25
TORSDOF 18
ENDMDL
