MODEL 1
REMARK VINA RESULT:     -11.6      0.000      0.000
REMARK SMILES CC(C)COc1cccc(N2C[C@@H](C(=O)OCCOC(=O)c3ccc(-c4c5nc(c(-c6cc(S(=O)(=O)[O-])ccc6F)c6ccc([nH]6)c(-c6cc(S(=O)(=O)[O-])ccc6F)c6nc(c(-c7cc(S(=O)(=O)[O-])ccc7F)c7ccc4[nH]7)C=C6)C=C5)cc3)CC2=O)c1
REMARK SMILES IDX 17 1 16 2 14 3 15 4 13 5 11 6 12 7 86 8 85 9 87 10 10 11
REMARK SMILES IDX 6 12 7 13 88 14 8 15 9 16 5 17 4 18 2 19 1 20 3 21 18 22
REMARK SMILES IDX 19 23 20 24 21 25 22 26 23 27 84 28 24 29 83 30 25 31 26 32
REMARK SMILES IDX 27 33 77 34 28 35 82 36 76 37 78 38 29 39 81 40 75 41 74 42
REMARK SMILES IDX 30 44 62 45 42 46 61 47 43 48 46 49 60 50 79 51 44 52 45 53
REMARK SMILES IDX 59 55 80 56 47 57 31 58 32 59 40 60 33 61 39 62 41 63 38 64
REMARK SMILES IDX 34 65 35 66 36 67 37 68 63 69 64 70 72 71 65 72 71 73 73 74
REMARK SMILES IDX 70 75 66 76 67 77 68 78 69 79 48 80 49 81 57 82 50 83 56 84
REMARK SMILES IDX 58 85 55 86 51 87 52 88 53 89 54 90
REMARK H PARENT 78 43 46 54
REMARK Flexibility Score: inf
ROOT
ATOM      1  C   UNL A   1      35.691  21.463  24.973  1.00  0.00     0.274 C 
ENDROOT
BRANCH   1   2
ATOM      2  O   UNL A   1      35.421  22.433  26.003  1.00  0.00    -0.462 OA
BRANCH   2   3
ATOM      3  C   UNL A   1      34.232  22.335  26.648  1.00  0.00     0.311 C 
ATOM      4  O   UNL A   1      34.045  21.691  27.673  1.00  0.00    -0.252 OA
BRANCH   3   5
ATOM      5  C   UNL A   1      33.150  23.166  26.006  1.00  0.00     0.128 C 
ATOM      6  N   UNL A   1      32.337  25.354  25.967  1.00  0.00    -0.311 N 
ATOM      7  C   UNL A   1      33.576  24.616  25.976  1.00  0.00     0.141 C 
ATOM      8  C   UNL A   1      31.263  24.547  26.364  1.00  0.00     0.227 C 
ATOM      9  C   UNL A   1      31.799  23.179  26.690  1.00  0.00     0.117 C 
ATOM     10  O   UNL A   1      30.088  24.848  26.511  1.00  0.00    -0.274 OA
BRANCH   6  11
ATOM     11  C   UNL A   1      32.337  26.771  25.916  1.00  0.00     0.047 A 
ATOM     12  C   UNL A   1      31.825  28.732  24.613  1.00  0.00     0.121 A 
ATOM     13  C   UNL A   1      31.722  29.512  25.757  1.00  0.00     0.046 A 
ATOM     14  C   UNL A   1      32.262  27.414  24.682  1.00  0.00     0.072 A 
ATOM     15  C   UNL A   1      31.951  28.921  26.996  1.00  0.00     0.006 A 
ATOM     16  C   UNL A   1      32.211  27.548  27.078  1.00  0.00     0.026 A 
BRANCH  12  17
ATOM     17  O   UNL A   1      31.419  29.221  23.400  1.00  0.00    -0.493 OA
BRANCH  17  18
ATOM     18  C   UNL A   1      29.987  29.070  23.240  1.00  0.00     0.232 C 
BRANCH  18  19
ATOM     19  C   UNL A   1      29.293  30.356  22.732  1.00  0.00     0.020 C 
ATOM     20  C   UNL A   1      27.931  30.067  22.080  1.00  0.00     0.011 C 
ATOM     21  C   UNL A   1      29.066  31.350  23.874  1.00  0.00     0.011 C 
ENDBRANCH  18  19
ENDBRANCH  17  18
ENDBRANCH  12  17
ENDBRANCH   6  11
ENDBRANCH   3   5
ENDBRANCH   2   3
ENDBRANCH   1   2
BRANCH   1  22
ATOM     22  C   UNL A   1      36.893  20.599  25.361  1.00  0.00     0.275 C 
BRANCH  22  23
ATOM     23  O   UNL A   1      38.136  21.260  25.056  1.00  0.00    -0.458 OA
BRANCH  23  24
ATOM     24  C   UNL A   1      39.136  21.006  25.929  1.00  0.00     0.338 C 
ATOM     25  O   UNL A   1      39.689  19.932  26.125  1.00  0.00    -0.246 OA
BRANCH  24  26
ATOM     26  C   UNL A   1      39.602  22.251  26.548  1.00  0.00     0.060 A 
ATOM     27  C   UNL A   1      38.996  23.439  26.146  1.00  0.00     0.016 A 
ATOM     28  C   UNL A   1      40.718  22.279  27.384  1.00  0.00     0.016 A 
ATOM     29  C   UNL A   1      39.548  24.663  26.489  1.00  0.00     0.010 A 
ATOM     30  C   UNL A   1      41.233  23.516  27.792  1.00  0.00     0.010 A 
ATOM     31  C   UNL A   1      40.674  24.717  27.316  1.00  0.00    -0.014 A 
BRANCH  31  32
ATOM     32  C   UNL A   1      41.280  26.039  27.616  1.00  0.00     0.031 A 
ATOM     33  C   UNL A   1      42.612  26.405  27.022  1.00  0.00     0.074 A 
ATOM     34  C   UNL A   1      40.603  26.931  28.365  1.00  0.00     0.049 A 
ATOM     35  N   UNL A   1      43.345  27.470  27.225  1.00  0.00    -0.248 NA
ATOM     36  C   UNL A   1      43.200  25.440  26.081  1.00  0.00     0.031 C 
ATOM     37  C   UNL A   1      39.276  26.711  28.946  1.00  0.00     0.029 A 
ATOM     38  N   UNL A   1      40.926  28.207  28.751  1.00  0.00    -0.354 N 
ATOM     39  C   UNL A   1      44.499  27.287  26.468  1.00  0.00     0.074 A 
ATOM     40  C   UNL A   1      44.372  25.999  25.818  1.00  0.00     0.031 C 
ATOM     41  C   UNL A   1      38.889  27.822  29.590  1.00  0.00     0.029 A 
ATOM     42  C   UNL A   1      39.963  28.806  29.529  1.00  0.00     0.049 A 
ATOM     43  H   UNL A   1      41.766  28.650  28.496  1.00  0.00     0.167 HD
ATOM     44  C   UNL A   1      45.562  28.119  26.331  1.00  0.00     0.034 A 
ATOM     45  C   UNL A   1      39.959  30.001  30.151  1.00  0.00     0.034 A 
ATOM     46  C   UNL A   1      45.657  29.411  26.968  1.00  0.00     0.049 A 
ATOM     47  C   UNL A   1      41.165  30.890  30.012  1.00  0.00     0.074 A 
ATOM     48  C   UNL A   1      46.689  30.332  26.908  1.00  0.00     0.029 A 
ATOM     49  N   UNL A   1      44.677  29.970  27.780  1.00  0.00    -0.354 N 
ATOM     50  N   UNL A   1      42.276  30.678  29.344  1.00  0.00    -0.248 NA
ATOM     51  C   UNL A   1      41.118  32.178  30.715  1.00  0.00     0.031 C 
ATOM     52  C   UNL A   1      46.356  31.421  27.722  1.00  0.00     0.029 A 
ATOM     53  C   UNL A   1      45.088  31.212  28.242  1.00  0.00     0.049 A 
ATOM     54  H   UNL A   1      43.816  29.545  27.997  1.00  0.00     0.167 HD
ATOM     55  C   UNL A   1      43.057  31.812  29.540  1.00  0.00     0.074 A 
ATOM     56  C   UNL A   1      42.278  32.714  30.366  1.00  0.00     0.031 C 
ATOM     57  C   UNL A   1      44.306  32.085  29.084  1.00  0.00     0.034 A 
BRANCH  44  58
ATOM     58  C   UNL A   1      46.729  27.615  25.515  1.00  0.00     0.023 A 
ATOM     59  C   UNL A   1      46.965  28.052  24.200  1.00  0.00     0.031 A 
ATOM     60  C   UNL A   1      47.590  26.640  26.050  1.00  0.00     0.131 A 
ATOM     61  C   UNL A   1      47.987  27.460  23.440  1.00  0.00     0.055 A 
ATOM     62  C   UNL A   1      48.653  26.111  25.314  1.00  0.00     0.041 A 
ATOM     63  F   UNL A   1      47.400  26.167  27.291  1.00  0.00    -0.206 F 
ATOM     64  C   UNL A   1      48.846  26.509  23.996  1.00  0.00     0.022 A 
BRANCH  61  65
ATOM     65  S   UNL A   1      48.086  27.842  21.669  1.00  0.00     0.124 S 
ATOM     66  O   UNL A   1      46.777  28.444  21.425  1.00  0.00    -0.237 OA
ATOM     67  O   UNL A   1      49.229  28.746  21.605  1.00  0.00    -0.237 OA
ATOM     68  O   UNL A   1      48.287  26.535  21.047  1.00  0.00    -0.744 OA
ENDBRANCH  61  65
ENDBRANCH  44  58
BRANCH  45  69
ATOM     69  C   UNL A   1      38.807  30.399  31.006  1.00  0.00     0.023 A 
ATOM     70  C   UNL A   1      37.722  31.115  30.479  1.00  0.00     0.031 A 
ATOM     71  C   UNL A   1      38.795  30.092  32.380  1.00  0.00     0.131 A 
ATOM     72  C   UNL A   1      36.683  31.531  31.328  1.00  0.00     0.055 A 
ATOM     73  C   UNL A   1      37.738  30.467  33.209  1.00  0.00     0.041 A 
ATOM     74  F   UNL A   1      39.808  29.406  32.932  1.00  0.00    -0.206 F 
ATOM     75  C   UNL A   1      36.679  31.201  32.686  1.00  0.00     0.022 A 
BRANCH  72  76
ATOM     76  S   UNL A   1      35.365  32.571  30.644  1.00  0.00     0.124 S 
ATOM     77  O   UNL A   1      36.024  33.870  30.557  1.00  0.00    -0.237 OA
ATOM     78  O   UNL A   1      35.085  31.908  29.374  1.00  0.00    -0.237 OA
ATOM     79  O   UNL A   1      34.302  32.476  31.642  1.00  0.00    -0.744 OA
ENDBRANCH  72  76
ENDBRANCH  45  69
BRANCH  57  80
ATOM     80  C   UNL A   1      44.879  33.428  29.457  1.00  0.00     0.023 A 
ATOM     81  C   UNL A   1      44.704  34.555  28.636  1.00  0.00     0.031 A 
ATOM     82  C   UNL A   1      45.646  33.570  30.627  1.00  0.00     0.131 A 
ATOM     83  C   UNL A   1      45.338  35.763  28.963  1.00  0.00     0.055 A 
ATOM     84  C   UNL A   1      46.230  34.788  30.975  1.00  0.00     0.041 A 
ATOM     85  F   UNL A   1      45.846  32.524  31.444  1.00  0.00    -0.206 F 
ATOM     86  C   UNL A   1      46.090  35.889  30.134  1.00  0.00     0.022 A 
BRANCH  83  87
ATOM     87  S   UNL A   1      45.253  37.138  27.784  1.00  0.00     0.124 S 
ATOM     88  O   UNL A   1      46.431  37.920  28.142  1.00  0.00    -0.237 OA
ATOM     89  O   UNL A   1      45.311  36.449  26.498  1.00  0.00    -0.237 OA
ATOM     90  O   UNL A   1      43.972  37.773  28.090  1.00  0.00    -0.744 OA
ENDBRANCH  83  87
ENDBRANCH  57  80
ENDBRANCH  31  32
ENDBRANCH  24  26
ENDBRANCH  23  24
ENDBRANCH  22  23
ENDBRANCH   1  22
TORSDOF 18
ENDMDL
MODEL 2
REMARK VINA RESULT:     -11.4      1.563      7.751
REMARK SMILES CC(C)COc1cccc(N2C[C@@H](C(=O)OCCOC(=O)c3ccc(-c4c5nc(c(-c6cc(S(=O)(=O)[O-])ccc6F)c6ccc([nH]6)c(-c6cc(S(=O)(=O)[O-])ccc6F)c6nc(c(-c7cc(S(=O)(=O)[O-])ccc7F)c7ccc4[nH]7)C=C6)C=C5)cc3)CC2=O)c1
REMARK SMILES IDX 17 1 16 2 14 3 15 4 13 5 11 6 12 7 86 8 85 9 87 10 10 11
REMARK SMILES IDX 6 12 7 13 88 14 8 15 9 16 5 17 4 18 2 19 1 20 3 21 18 22
REMARK SMILES IDX 19 23 20 24 21 25 22 26 23 27 84 28 24 29 83 30 25 31 26 32
REMARK SMILES IDX 27 33 77 34 28 35 82 36 76 37 78 38 29 39 81 40 75 41 74 42
REMARK SMILES IDX 30 44 62 45 42 46 61 47 43 48 46 49 60 50 79 51 44 52 45 53
REMARK SMILES IDX 59 55 80 56 47 57 31 58 32 59 40 60 33 61 39 62 41 63 38 64
REMARK SMILES IDX 34 65 35 66 36 67 37 68 63 69 64 70 72 71 65 72 71 73 73 74
REMARK SMILES IDX 70 75 66 76 67 77 68 78 69 79 48 80 49 81 57 82 50 83 56 84
REMARK SMILES IDX 58 85 55 86 51 87 52 88 53 89 54 90
REMARK H PARENT 78 43 46 54
REMARK Flexibility Score: inf
ROOT
ATOM      1  C   UNL A   1      35.184  21.715  24.447  1.00  0.00     0.274 C 
ENDROOT
BRANCH   1   2
ATOM      2  O   UNL A   1      33.979  22.081  25.147  1.00  0.00    -0.462 OA
BRANCH   2   3
ATOM      3  C   UNL A   1      32.815  21.563  24.684  1.00  0.00     0.311 C 
ATOM      4  O   UNL A   1      32.673  20.415  24.282  1.00  0.00    -0.252 OA
BRANCH   3   5
ATOM      5  C   UNL A   1      31.666  22.536  24.775  1.00  0.00     0.128 C 
ATOM      6  N   UNL A   1      31.247  24.831  24.864  1.00  0.00    -0.311 N 
ATOM      7  C   UNL A   1      32.083  23.867  24.194  1.00  0.00     0.141 C 
ATOM      8  C   UNL A   1      30.669  24.284  26.018  1.00  0.00     0.227 C 
ATOM      9  C   UNL A   1      31.159  22.868  26.163  1.00  0.00     0.117 C 
ATOM     10  O   UNL A   1      29.946  24.821  26.845  1.00  0.00    -0.274 OA
BRANCH   6  11
ATOM     11  C   UNL A   1      31.337  26.211  24.555  1.00  0.00     0.047 A 
ATOM     12  C   UNL A   1      30.413  28.053  23.307  1.00  0.00     0.121 A 
ATOM     13  C   UNL A   1      30.951  28.975  24.195  1.00  0.00     0.046 A 
ATOM     14  C   UNL A   1      30.717  26.700  23.407  1.00  0.00     0.072 A 
ATOM     15  C   UNL A   1      31.712  28.512  25.265  1.00  0.00     0.006 A 
ATOM     16  C   UNL A   1      31.865  27.135  25.469  1.00  0.00     0.026 A 
BRANCH  12  17
ATOM     17  O   UNL A   1      29.503  28.448  22.363  1.00  0.00    -0.493 OA
BRANCH  17  18
ATOM     18  C   UNL A   1      28.235  28.780  22.980  1.00  0.00     0.232 C 
BRANCH  18  19
ATOM     19  C   UNL A   1      27.652  30.126  22.485  1.00  0.00     0.020 C 
ATOM     20  C   UNL A   1      27.720  31.222  23.561  1.00  0.00     0.011 C 
ATOM     21  C   UNL A   1      28.402  30.632  21.250  1.00  0.00     0.011 C 
ENDBRANCH  18  19
ENDBRANCH  17  18
ENDBRANCH  12  17
ENDBRANCH   6  11
ENDBRANCH   3   5
ENDBRANCH   2   3
ENDBRANCH   1   2
BRANCH   1  22
ATOM     22  C   UNL A   1      36.278  21.327  25.444  1.00  0.00     0.275 C 
BRANCH  22  23
ATOM     23  O   UNL A   1      37.585  21.685  24.956  1.00  0.00    -0.458 OA
BRANCH  23  24
ATOM     24  C   UNL A   1      38.607  21.294  25.750  1.00  0.00     0.338 C 
ATOM     25  O   UNL A   1      39.063  20.164  25.862  1.00  0.00    -0.246 OA
BRANCH  24  26
ATOM     26  C   UNL A   1      39.231  22.457  26.390  1.00  0.00     0.060 A 
ATOM     27  C   UNL A   1      38.703  23.713  26.103  1.00  0.00     0.016 A 
ATOM     28  C   UNL A   1      40.408  22.341  27.128  1.00  0.00     0.016 A 
ATOM     29  C   UNL A   1      39.388  24.864  26.459  1.00  0.00     0.010 A 
ATOM     30  C   UNL A   1      41.063  23.504  27.553  1.00  0.00     0.010 A 
ATOM     31  C   UNL A   1      40.577  24.774  27.189  1.00  0.00    -0.014 A 
BRANCH  31  32
ATOM     32  C   UNL A   1      41.321  26.020  27.504  1.00  0.00     0.031 A 
ATOM     33  C   UNL A   1      40.709  27.049  28.414  1.00  0.00     0.074 A 
ATOM     34  C   UNL A   1      42.569  26.192  27.027  1.00  0.00     0.049 A 
ATOM     35  N   UNL A   1      41.157  28.233  28.746  1.00  0.00    -0.248 NA
ATOM     36  C   UNL A   1      39.417  26.702  29.023  1.00  0.00     0.031 C 
ATOM     37  C   UNL A   1      43.290  25.235  26.183  1.00  0.00     0.029 A 
ATOM     38  N   UNL A   1      43.461  27.220  27.197  1.00  0.00    -0.354 N 
ATOM     39  C   UNL A   1      40.186  28.789  29.572  1.00  0.00     0.074 A 
ATOM     40  C   UNL A   1      39.117  27.817  29.673  1.00  0.00     0.031 C 
ATOM     41  C   UNL A   1      44.520  25.709  25.934  1.00  0.00     0.029 A 
ATOM     42  C   UNL A   1      44.652  27.030  26.537  1.00  0.00     0.049 A 
ATOM     43  H   UNL A   1      43.265  28.018  27.740  1.00  0.00     0.167 HD
ATOM     44  C   UNL A   1      40.189  29.999  30.187  1.00  0.00     0.034 A 
ATOM     45  C   UNL A   1      45.718  27.842  26.405  1.00  0.00     0.034 A 
ATOM     46  C   UNL A   1      41.277  30.943  30.094  1.00  0.00     0.049 A 
ATOM     47  C   UNL A   1      45.683  29.193  27.068  1.00  0.00     0.074 A 
ATOM     48  C   UNL A   1      41.384  32.199  30.666  1.00  0.00     0.029 A 
ATOM     49  N   UNL A   1      42.453  30.731  29.385  1.00  0.00    -0.354 N 
ATOM     50  N   UNL A   1      44.731  29.732  27.795  1.00  0.00    -0.248 NA
ATOM     51  C   UNL A   1      46.864  30.046  26.887  1.00  0.00     0.031 C 
ATOM     52  C   UNL A   1      42.599  32.765  30.261  1.00  0.00     0.029 A 
ATOM     53  C   UNL A   1      43.282  31.839  29.488  1.00  0.00     0.049 A 
ATOM     54  H   UNL A   1      42.668  29.913  28.881  1.00  0.00     0.167 HD
ATOM     55  C   UNL A   1      45.205  30.986  28.166  1.00  0.00     0.074 A 
ATOM     56  C   UNL A   1      46.536  31.110  27.605  1.00  0.00     0.031 C 
ATOM     57  C   UNL A   1      44.595  31.952  28.901  1.00  0.00     0.034 A 
BRANCH  44  58
ATOM     58  C   UNL A   1      38.945  30.385  30.952  1.00  0.00     0.023 A 
ATOM     59  C   UNL A   1      37.890  31.094  30.354  1.00  0.00     0.031 A 
ATOM     60  C   UNL A   1      38.841  30.080  32.322  1.00  0.00     0.131 A 
ATOM     61  C   UNL A   1      36.814  31.538  31.138  1.00  0.00     0.055 A 
ATOM     62  C   UNL A   1      37.731  30.459  33.079  1.00  0.00     0.041 A 
ATOM     63  F   UNL A   1      39.828  29.426  32.953  1.00  0.00    -0.206 F 
ATOM     64  C   UNL A   1      36.716  31.207  32.491  1.00  0.00     0.022 A 
BRANCH  61  65
ATOM     65  S   UNL A   1      35.615  32.683  30.400  1.00  0.00     0.124 S 
ATOM     66  O   UNL A   1      36.255  33.975  30.640  1.00  0.00    -0.237 OA
ATOM     67  O   UNL A   1      35.569  32.240  29.011  1.00  0.00    -0.237 OA
ATOM     68  O   UNL A   1      34.396  32.449  31.171  1.00  0.00    -0.744 OA
ENDBRANCH  61  65
ENDBRANCH  44  58
BRANCH  45  69
ATOM     69  C   UNL A   1      46.878  27.430  25.567  1.00  0.00     0.023 A 
ATOM     70  C   UNL A   1      46.998  27.847  24.233  1.00  0.00     0.031 A 
ATOM     71  C   UNL A   1      47.872  26.580  26.087  1.00  0.00     0.131 A 
ATOM     72  C   UNL A   1      48.069  27.386  23.452  1.00  0.00     0.055 A 
ATOM     73  C   UNL A   1      48.960  26.162  25.321  1.00  0.00     0.041 A 
ATOM     74  F   UNL A   1      47.805  26.155  27.359  1.00  0.00    -0.206 F 
ATOM     75  C   UNL A   1      49.057  26.557  23.991  1.00  0.00     0.022 A 
BRANCH  72  76
ATOM     76  S   UNL A   1      48.121  27.832  21.695  1.00  0.00     0.124 S 
ATOM     77  O   UNL A   1      46.813  28.451  21.505  1.00  0.00    -0.237 OA
ATOM     78  O   UNL A   1      49.269  28.731  21.645  1.00  0.00    -0.237 OA
ATOM     79  O   UNL A   1      48.308  26.549  21.022  1.00  0.00    -0.744 OA
ENDBRANCH  72  76
ENDBRANCH  45  69
BRANCH  57  80
ATOM     80  C   UNL A   1      45.390  33.207  29.151  1.00  0.00     0.023 A 
ATOM     81  C   UNL A   1      46.177  33.361  30.307  1.00  0.00     0.031 A 
ATOM     82  C   UNL A   1      45.326  34.279  28.243  1.00  0.00     0.131 A 
ATOM     83  C   UNL A   1      46.820  34.583  30.556  1.00  0.00     0.055 A 
ATOM     84  C   UNL A   1      46.012  35.473  28.470  1.00  0.00     0.041 A 
ATOM     85  F   UNL A   1      44.587  34.184  27.126  1.00  0.00    -0.206 F 
ATOM     86  C   UNL A   1      46.752  35.635  29.638  1.00  0.00     0.022 A 
BRANCH  83  87
ATOM     87  S   UNL A   1      47.662  34.815  32.145  1.00  0.00     0.124 S 
ATOM     88  O   UNL A   1      47.342  36.202  32.461  1.00  0.00    -0.237 OA
ATOM     89  O   UNL A   1      47.024  33.806  32.985  1.00  0.00    -0.237 OA
ATOM     90  O   UNL A   1      49.067  34.560  31.828  1.00  0.00    -0.744 OA
ENDBRANCH  83  87
ENDBRANCH  57  80
ENDBRANCH  31  32
ENDBRANCH  24  26
ENDBRANCH  23  24
ENDBRANCH  22  23
ENDBRANCH   1  22
TORSDOF 18
ENDMDL
MODEL 3
REMARK VINA RESULT:     -11.1      1.815      7.716
REMARK SMILES CC(C)COc1cccc(N2C[C@@H](C(=O)OCCOC(=O)c3ccc(-c4c5nc(c(-c6cc(S(=O)(=O)[O-])ccc6F)c6ccc([nH]6)c(-c6cc(S(=O)(=O)[O-])ccc6F)c6nc(c(-c7cc(S(=O)(=O)[O-])ccc7F)c7ccc4[nH]7)C=C6)C=C5)cc3)CC2=O)c1
REMARK SMILES IDX 17 1 16 2 14 3 15 4 13 5 11 6 12 7 86 8 85 9 87 10 10 11
REMARK SMILES IDX 6 12 7 13 88 14 8 15 9 16 5 17 4 18 2 19 1 20 3 21 18 22
REMARK SMILES IDX 19 23 20 24 21 25 22 26 23 27 84 28 24 29 83 30 25 31 26 32
REMARK SMILES IDX 27 33 77 34 28 35 82 36 76 37 78 38 29 39 81 40 75 41 74 42
REMARK SMILES IDX 30 44 62 45 42 46 61 47 43 48 46 49 60 50 79 51 44 52 45 53
REMARK SMILES IDX 59 55 80 56 47 57 31 58 32 59 40 60 33 61 39 62 41 63 38 64
REMARK SMILES IDX 34 65 35 66 36 67 37 68 63 69 64 70 72 71 65 72 71 73 73 74
REMARK SMILES IDX 70 75 66 76 67 77 68 78 69 79 48 80 49 81 57 82 50 83 56 84
REMARK SMILES IDX 58 85 55 86 51 87 52 88 53 89 54 90
REMARK H PARENT 78 43 46 54
REMARK Flexibility Score: inf
ROOT
ATOM      1  C   UNL A   1      35.234  21.743  24.409  1.00  0.00     0.274 C 
ENDROOT
BRANCH   1   2
ATOM      2  O   UNL A   1      34.003  22.087  25.074  1.00  0.00    -0.462 OA
BRANCH   2   3
ATOM      3  C   UNL A   1      32.860  21.564  24.566  1.00  0.00     0.311 C 
ATOM      4  O   UNL A   1      32.747  20.426  24.129  1.00  0.00    -0.252 OA
BRANCH   3   5
ATOM      5  C   UNL A   1      31.694  22.516  24.653  1.00  0.00     0.128 C 
ATOM      6  N   UNL A   1      31.234  24.802  24.772  1.00  0.00    -0.311 N 
ATOM      7  C   UNL A   1      32.098  23.864  24.100  1.00  0.00     0.141 C 
ATOM      8  C   UNL A   1      30.646  24.228  25.907  1.00  0.00     0.227 C 
ATOM      9  C   UNL A   1      31.157  22.818  26.037  1.00  0.00     0.117 C 
ATOM     10  O   UNL A   1      29.900  24.739  26.729  1.00  0.00    -0.274 OA
BRANCH   6  11
ATOM     11  C   UNL A   1      31.307  26.189  24.487  1.00  0.00     0.047 A 
ATOM     12  C   UNL A   1      30.366  28.038  23.263  1.00  0.00     0.121 A 
ATOM     13  C   UNL A   1      30.884  28.953  24.171  1.00  0.00     0.046 A 
ATOM     14  C   UNL A   1      30.688  26.688  23.343  1.00  0.00     0.072 A 
ATOM     15  C   UNL A   1      31.644  28.483  25.238  1.00  0.00     0.006 A 
ATOM     16  C   UNL A   1      31.814  27.105  25.421  1.00  0.00     0.026 A 
BRANCH  12  17
ATOM     17  O   UNL A   1      29.457  28.437  22.318  1.00  0.00    -0.493 OA
BRANCH  17  18
ATOM     18  C   UNL A   1      28.184  28.753  22.933  1.00  0.00     0.232 C 
BRANCH  18  19
ATOM     19  C   UNL A   1      27.625  30.129  22.499  1.00  0.00     0.020 C 
ATOM     20  C   UNL A   1      27.732  31.181  23.616  1.00  0.00     0.011 C 
ATOM     21  C   UNL A   1      28.370  30.667  21.275  1.00  0.00     0.011 C 
ENDBRANCH  18  19
ENDBRANCH  17  18
ENDBRANCH  12  17
ENDBRANCH   6  11
ENDBRANCH   3   5
ENDBRANCH   2   3
ENDBRANCH   1   2
BRANCH   1  22
ATOM     22  C   UNL A   1      36.312  21.395  25.437  1.00  0.00     0.275 C 
BRANCH  22  23
ATOM     23  O   UNL A   1      37.620  21.791  24.983  1.00  0.00    -0.458 OA
BRANCH  23  24
ATOM     24  C   UNL A   1      38.633  21.420  25.797  1.00  0.00     0.338 C 
ATOM     25  O   UNL A   1      39.130  20.306  25.896  1.00  0.00    -0.246 OA
BRANCH  24  26
ATOM     26  C   UNL A   1      39.193  22.591  26.482  1.00  0.00     0.060 A 
ATOM     27  C   UNL A   1      38.718  23.846  26.108  1.00  0.00     0.016 A 
ATOM     28  C   UNL A   1      40.273  22.479  27.356  1.00  0.00     0.016 A 
ATOM     29  C   UNL A   1      39.371  24.997  26.519  1.00  0.00     0.010 A 
ATOM     30  C   UNL A   1      40.888  23.644  27.831  1.00  0.00     0.010 A 
ATOM     31  C   UNL A   1      40.465  24.911  27.386  1.00  0.00    -0.014 A 
BRANCH  31  32
ATOM     32  C   UNL A   1      41.183  26.156  27.760  1.00  0.00     0.031 A 
ATOM     33  C   UNL A   1      40.485  27.206  28.579  1.00  0.00     0.074 A 
ATOM     34  C   UNL A   1      42.478  26.308  27.422  1.00  0.00     0.049 A 
ATOM     35  N   UNL A   1      40.907  28.392  28.939  1.00  0.00    -0.248 NA
ATOM     36  C   UNL A   1      39.130  26.881  29.048  1.00  0.00     0.031 C 
ATOM     37  C   UNL A   1      43.278  25.330  26.679  1.00  0.00     0.029 A 
ATOM     38  N   UNL A   1      43.356  27.331  27.673  1.00  0.00    -0.354 N 
ATOM     39  C   UNL A   1      39.856  28.971  29.643  1.00  0.00     0.074 A 
ATOM     40  C   UNL A   1      38.771  28.011  29.641  1.00  0.00     0.031 C 
ATOM     41  C   UNL A   1      44.532  25.789  26.560  1.00  0.00     0.029 A 
ATOM     42  C   UNL A   1      44.611  27.119  27.152  1.00  0.00     0.049 A 
ATOM     43  H   UNL A   1      43.111  28.140  28.176  1.00  0.00     0.167 HD
ATOM     44  C   UNL A   1      39.804  30.191  30.235  1.00  0.00     0.034 A 
ATOM     45  C   UNL A   1      45.694  27.920  27.125  1.00  0.00     0.034 A 
ATOM     46  C   UNL A   1      40.905  31.124  30.246  1.00  0.00     0.049 A 
ATOM     47  C   UNL A   1      45.600  29.282  27.757  1.00  0.00     0.074 A 
ATOM     48  C   UNL A   1      40.962  32.389  30.806  1.00  0.00     0.029 A 
ATOM     49  N   UNL A   1      42.151  30.890  29.676  1.00  0.00    -0.354 N 
ATOM     50  N   UNL A   1      44.580  29.842  28.365  1.00  0.00    -0.248 NA
ATOM     51  C   UNL A   1      46.803  30.121  27.694  1.00  0.00     0.031 C 
ATOM     52  C   UNL A   1      42.221  32.938  30.529  1.00  0.00     0.029 A 
ATOM     53  C   UNL A   1      42.974  31.992  29.852  1.00  0.00     0.049 A 
ATOM     54  H   UNL A   1      42.411  30.061  29.213  1.00  0.00     0.167 HD
ATOM     55  C   UNL A   1      45.023  31.099  28.766  1.00  0.00     0.074 A 
ATOM     56  C   UNL A   1      46.408  31.201  28.353  1.00  0.00     0.031 C 
ATOM     57  C   UNL A   1      44.346  32.082  29.412  1.00  0.00     0.034 A 
BRANCH  44  58
ATOM     58  C   UNL A   1      38.487  30.602  30.851  1.00  0.00     0.023 A 
ATOM     59  C   UNL A   1      37.475  31.227  30.103  1.00  0.00     0.031 A 
ATOM     60  C   UNL A   1      38.266  30.408  32.226  1.00  0.00     0.131 A 
ATOM     61  C   UNL A   1      36.322  31.703  30.747  1.00  0.00     0.055 A 
ATOM     62  C   UNL A   1      37.083  30.815  32.847  1.00  0.00     0.041 A 
ATOM     63  F   UNL A   1      39.205  29.838  32.996  1.00  0.00    -0.206 F 
ATOM     64  C   UNL A   1      36.109  31.481  32.110  1.00  0.00     0.022 A 
BRANCH  61  65
ATOM     65  S   UNL A   1      35.170  32.747  29.812  1.00  0.00     0.124 S 
ATOM     66  O   UNL A   1      34.624  31.792  28.849  1.00  0.00    -0.237 OA
ATOM     67  O   UNL A   1      34.252  33.209  30.846  1.00  0.00    -0.237 OA
ATOM     68  O   UNL A   1      36.031  33.777  29.234  1.00  0.00    -0.744 OA
ENDBRANCH  61  65
ENDBRANCH  44  58
BRANCH  45  69
ATOM     69  C   UNL A   1      46.935  27.482  26.428  1.00  0.00     0.023 A 
ATOM     70  C   UNL A   1      48.029  26.968  27.141  1.00  0.00     0.031 A 
ATOM     71  C   UNL A   1      47.053  27.602  25.031  1.00  0.00     0.131 A 
ATOM     72  C   UNL A   1      49.207  26.626  26.459  1.00  0.00     0.055 A 
ATOM     73  C   UNL A   1      48.209  27.217  24.353  1.00  0.00     0.041 A 
ATOM     74  F   UNL A   1      46.034  28.085  24.302  1.00  0.00    -0.206 F 
ATOM     75  C   UNL A   1      49.300  26.735  25.069  1.00  0.00     0.022 A 
BRANCH  72  76
ATOM     76  S   UNL A   1      50.648  26.096  27.424  1.00  0.00     0.124 S 
ATOM     77  O   UNL A   1      51.642  27.096  27.051  1.00  0.00    -0.237 OA
ATOM     78  O   UNL A   1      50.142  26.174  28.791  1.00  0.00    -0.237 OA
ATOM     79  O   UNL A   1      50.908  24.744  26.935  1.00  0.00    -0.744 OA
ENDBRANCH  72  76
ENDBRANCH  45  69
BRANCH  57  80
ATOM     80  C   UNL A   1      45.122  33.335  29.728  1.00  0.00     0.023 A 
ATOM     81  C   UNL A   1      45.159  34.421  28.835  1.00  0.00     0.031 A 
ATOM     82  C   UNL A   1      45.867  33.426  30.916  1.00  0.00     0.131 A 
ATOM     83  C   UNL A   1      45.975  35.527  29.115  1.00  0.00     0.055 A 
ATOM     84  C   UNL A   1      46.634  34.552  31.215  1.00  0.00     0.041 A 
ATOM     85  F   UNL A   1      45.867  32.416  31.801  1.00  0.00    -0.206 F 
ATOM     86  C   UNL A   1      46.703  35.604  30.306  1.00  0.00     0.022 A 
BRANCH  83  87
ATOM     87  S   UNL A   1      46.153  36.818  27.854  1.00  0.00     0.124 S 
ATOM     88  O   UNL A   1      46.321  38.017  28.667  1.00  0.00    -0.237 OA
ATOM     89  O   UNL A   1      47.334  36.375  27.120  1.00  0.00    -0.237 OA
ATOM     90  O   UNL A   1      44.897  36.746  27.110  1.00  0.00    -0.744 OA
ENDBRANCH  83  87
ENDBRANCH  57  80
ENDBRANCH  31  32
ENDBRANCH  24  26
ENDBRANCH  23  24
ENDBRANCH  22  23
ENDBRANCH   1  22
TORSDOF 18
ENDMDL
