MODEL 1
REMARK VINA RESULT:     -12.0      0.000      0.000
REMARK SMILES O=C(OCCOC(=O)[C@@]1([NH2+]C2CC2)CC[C@@H]([N@@H+]2CC[N@@H+]3CCC[C@@H]3C2)C1)c1ccc(-c2c3nc(c(-c4cc(S(=O)(=O)[O-])ccc4F)c4ccc([nH]4)c(-c4cc(S(=O)(=O)[O-])ccc4F)c4nc(c(-c5cc(S(=O)(=O)[O-])ccc5F)c5ccc2[nH]5)C=C4)C=C3)cc1
REMARK SMILES IDX 4 1 3 2 2 3 1 4 27 5 28 6 89 7 29 8 88 9 30 10 31 11 32 12
REMARK SMILES IDX 82 13 33 14 87 15 81 16 83 17 34 18 86 19 80 20 79 21 35 23
REMARK SMILES IDX 67 24 47 25 66 26 48 27 51 28 65 29 84 30 49 31 50 32 64 34
REMARK SMILES IDX 85 35 52 36 36 37 37 38 45 39 38 40 44 41 46 42 43 43 39 44
REMARK SMILES IDX 40 45 41 46 42 47 68 48 69 49 77 50 70 51 76 52 78 53 75 54
REMARK SMILES IDX 71 55 72 56 73 57 74 58 53 59 54 60 62 61 55 62 61 63 63 64
REMARK SMILES IDX 60 65 56 66 57 67 58 68 59 69 5 70 6 71 7 72 8 73 9 74 14 75
REMARK SMILES IDX 26 76 15 77 16 78 10 79 11 82 12 83 13 84 17 85 18 86 25 87
REMARK SMILES IDX 19 89 24 90 20 91 23 92 21 93 22 95
REMARK H PARENT 83 22 51 33 10 80 10 81 17 88 20 94
REMARK Flexibility Score: inf
ROOT
ATOM      1  C   UNL A   1      33.117  29.834  26.448  1.00  0.00     0.275 C 
ENDROOT
BRANCH   1   2
ATOM      2  O   UNL A   1      33.298  30.994  27.274  1.00  0.00    -0.458 OA
BRANCH   2   3
ATOM      3  C   UNL A   1      34.436  31.584  27.709  1.00  0.00     0.338 C 
ATOM      4  O   UNL A   1      34.558  32.791  27.485  1.00  0.00    -0.246 OA
BRANCH   3   5
ATOM      5  C   UNL A   1      35.605  30.875  28.344  1.00  0.00     0.060 A 
ATOM      6  C   UNL A   1      35.578  29.703  29.108  1.00  0.00     0.016 A 
ATOM      7  C   UNL A   1      36.873  31.404  28.036  1.00  0.00     0.016 A 
ATOM      8  C   UNL A   1      36.755  29.030  29.469  1.00  0.00     0.010 A 
ATOM      9  C   UNL A   1      38.050  30.707  28.349  1.00  0.00     0.010 A 
ATOM     10  C   UNL A   1      38.001  29.507  29.069  1.00  0.00    -0.014 A 
BRANCH  10  11
ATOM     11  C   UNL A   1      39.245  28.872  29.586  1.00  0.00     0.031 A 
ATOM     12  C   UNL A   1      39.749  29.360  30.905  1.00  0.00     0.074 A 
ATOM     13  C   UNL A   1      39.882  27.873  28.940  1.00  0.00     0.049 A 
ATOM     14  N   UNL A   1      40.829  29.025  31.551  1.00  0.00    -0.248 NA
ATOM     15  C   UNL A   1      38.941  30.398  31.567  1.00  0.00     0.031 C 
ATOM     16  C   UNL A   1      39.459  27.325  27.663  1.00  0.00     0.029 A 
ATOM     17  N   UNL A   1      40.994  27.128  29.246  1.00  0.00    -0.354 N 
ATOM     18  C   UNL A   1      40.828  29.819  32.688  1.00  0.00     0.074 A 
ATOM     19  C   UNL A   1      39.722  30.738  32.573  1.00  0.00     0.031 C 
ATOM     20  C   UNL A   1      40.268  26.319  27.292  1.00  0.00     0.029 A 
ATOM     21  C   UNL A   1      41.303  26.163  28.304  1.00  0.00     0.049 A 
ATOM     22  H   UNL A   1      41.525  27.268  30.064  1.00  0.00     0.167 HD
ATOM     23  C   UNL A   1      41.639  29.739  33.767  1.00  0.00     0.034 A 
ATOM     24  C   UNL A   1      42.304  25.257  28.272  1.00  0.00     0.034 A 
ATOM     25  C   UNL A   1      42.720  28.800  33.858  1.00  0.00     0.049 A 
ATOM     26  C   UNL A   1      43.251  25.244  29.448  1.00  0.00     0.074 A 
ATOM     27  C   UNL A   1      43.640  28.638  34.875  1.00  0.00     0.029 A 
ATOM     28  N   UNL A   1      43.026  27.855  32.882  1.00  0.00    -0.354 N 
ATOM     29  N   UNL A   1      43.232  26.002  30.523  1.00  0.00    -0.248 NA
ATOM     30  C   UNL A   1      44.336  24.258  29.424  1.00  0.00     0.031 C 
ATOM     31  C   UNL A   1      44.533  27.632  34.490  1.00  0.00     0.029 A 
ATOM     32  C   UNL A   1      44.127  27.115  33.268  1.00  0.00     0.049 A 
ATOM     33  H   UNL A   1      42.529  27.733  32.041  1.00  0.00     0.167 HD
ATOM     34  C   UNL A   1      44.282  25.559  31.319  1.00  0.00     0.074 A 
ATOM     35  C   UNL A   1      44.897  24.455  30.608  1.00  0.00     0.031 C 
ATOM     36  C   UNL A   1      44.705  26.018  32.526  1.00  0.00     0.034 A 
BRANCH  23  37
ATOM     37  C   UNL A   1      41.361  30.722  34.873  1.00  0.00     0.023 A 
ATOM     38  C   UNL A   1      40.179  30.640  35.637  1.00  0.00     0.031 A 
ATOM     39  C   UNL A   1      42.192  31.836  35.058  1.00  0.00     0.131 A 
ATOM     40  C   UNL A   1      39.801  31.717  36.449  1.00  0.00     0.055 A 
ATOM     41  C   UNL A   1      41.859  32.855  35.953  1.00  0.00     0.041 A 
ATOM     42  F   UNL A   1      43.311  31.981  34.332  1.00  0.00    -0.206 F 
ATOM     43  C   UNL A   1      40.646  32.812  36.635  1.00  0.00     0.022 A 
BRANCH  40  44
ATOM     44  S   UNL A   1      38.099  31.762  37.081  1.00  0.00     0.124 S 
ATOM     45  O   UNL A   1      37.403  32.457  36.000  1.00  0.00    -0.237 OA
ATOM     46  O   UNL A   1      37.779  30.348  37.237  1.00  0.00    -0.237 OA
ATOM     47  O   UNL A   1      38.216  32.517  38.326  1.00  0.00    -0.744 OA
ENDBRANCH  40  44
ENDBRANCH  23  37
BRANCH  24  48
ATOM     48  C   UNL A   1      42.487  24.309  27.123  1.00  0.00     0.023 A 
ATOM     49  C   UNL A   1      41.991  22.993  27.165  1.00  0.00     0.031 A 
ATOM     50  C   UNL A   1      43.236  24.679  25.990  1.00  0.00     0.131 A 
ATOM     51  C   UNL A   1      42.295  22.085  26.132  1.00  0.00     0.055 A 
ATOM     52  C   UNL A   1      43.489  23.791  24.940  1.00  0.00     0.041 A 
ATOM     53  F   UNL A   1      43.741  25.918  25.884  1.00  0.00    -0.206 F 
ATOM     54  C   UNL A   1      43.033  22.480  25.015  1.00  0.00     0.022 A 
BRANCH  51  55
ATOM     55  S   UNL A   1      41.810  20.344  26.321  1.00  0.00     0.124 S 
ATOM     56  O   UNL A   1      40.363  20.419  26.156  1.00  0.00    -0.237 OA
ATOM     57  O   UNL A   1      42.549  19.707  25.236  1.00  0.00    -0.237 OA
ATOM     58  O   UNL A   1      42.268  20.007  27.667  1.00  0.00    -0.744 OA
ENDBRANCH  51  55
ENDBRANCH  24  48
BRANCH  36  59
ATOM     59  C   UNL A   1      45.854  25.280  33.160  1.00  0.00     0.023 A 
ATOM     60  C   UNL A   1      45.657  24.089  33.875  1.00  0.00     0.031 A 
ATOM     61  C   UNL A   1      47.161  25.783  33.044  1.00  0.00     0.131 A 
ATOM     62  C   UNL A   1      46.745  23.471  34.504  1.00  0.00     0.055 A 
ATOM     63  C   UNL A   1      48.251  25.123  33.608  1.00  0.00     0.041 A 
ATOM     64  F   UNL A   1      47.399  26.921  32.372  1.00  0.00    -0.206 F 
ATOM     65  C   UNL A   1      48.043  23.966  34.356  1.00  0.00     0.022 A 
BRANCH  62  66
ATOM     66  S   UNL A   1      46.422  22.071  35.607  1.00  0.00     0.124 S 
ATOM     67  O   UNL A   1      47.728  21.869  36.228  1.00  0.00    -0.237 OA
ATOM     68  O   UNL A   1      45.377  22.593  36.479  1.00  0.00    -0.237 OA
ATOM     69  O   UNL A   1      45.998  21.009  34.696  1.00  0.00    -0.744 OA
ENDBRANCH  62  66
ENDBRANCH  36  59
ENDBRANCH  10  11
ENDBRANCH   3   5
ENDBRANCH   2   3
ENDBRANCH   1   2
BRANCH   1  70
ATOM     70  C   UNL A   1      32.417  28.688  27.181  1.00  0.00     0.274 C 
BRANCH  70  71
ATOM     71  O   UNL A   1      32.978  27.406  26.856  1.00  0.00    -0.457 OA
BRANCH  71  72
ATOM     72  C   UNL A   1      32.138  26.447  26.366  1.00  0.00     0.368 C 
ATOM     73  O   UNL A   1      31.055  26.162  26.876  1.00  0.00    -0.245 OA
BRANCH  72  74
ATOM     74  C   UNL A   1      32.683  25.781  25.081  1.00  0.00     0.200 C 
ATOM     75  C   UNL A   1      34.171  25.414  25.156  1.00  0.00     0.087 C 
ATOM     76  C   UNL A   1      32.056  24.384  24.950  1.00  0.00     0.146 C 
ATOM     77  C   UNL A   1      34.355  24.257  24.169  1.00  0.00     0.072 C 
ATOM     78  C   UNL A   1      33.033  23.471  24.192  1.00  0.00     0.191 C 
BRANCH  74  79
ATOM     79  N   UNL A   1      32.378  26.508  23.842  1.00  0.00    -0.329 N 
ATOM     80  H   UNL A   1      33.057  26.176  23.157  1.00  0.00     0.347 HD
ATOM     81  H   UNL A   1      32.389  27.469  24.184  1.00  0.00     0.347 HD
BRANCH  79  82
ATOM     82  C   UNL A   1      31.097  26.483  23.163  1.00  0.00     0.183 C 
ATOM     83  C   UNL A   1      29.842  27.192  23.551  1.00  0.00     0.071 C 
ATOM     84  C   UNL A   1      30.691  27.742  22.447  1.00  0.00     0.071 C 
ENDBRANCH  79  82
ENDBRANCH  74  79
BRANCH  78  85
ATOM     85  N   UNL A   1      33.151  22.094  24.694  1.00  0.00    -0.323 N 
ATOM     86  C   UNL A   1      34.472  21.791  25.289  1.00  0.00     0.324 C 
ATOM     87  C   UNL A   1      32.716  21.049  23.765  1.00  0.00     0.328 C 
ATOM     88  H   UNL A   1      32.470  22.068  25.451  1.00  0.00     0.348 HD
ATOM     89  C   UNL A   1      35.078  20.392  24.988  1.00  0.00     0.324 C 
ATOM     90  C   UNL A   1      32.822  19.638  24.379  1.00  0.00     0.240 C 
ATOM     91  N   UNL A   1      34.121  19.277  24.984  1.00  0.00    -0.323 N 
ATOM     92  C   UNL A   1      32.534  18.563  23.331  1.00  0.00     0.077 C 
ATOM     93  C   UNL A   1      34.645  18.096  24.289  1.00  0.00     0.263 C 
ATOM     94  H   UNL A   1      33.976  19.058  25.970  1.00  0.00     0.348 HD
ATOM     95  C   UNL A   1      33.407  17.400  23.754  1.00  0.00     0.068 C 
ENDBRANCH  78  85
ENDBRANCH  72  74
ENDBRANCH  71  72
ENDBRANCH  70  71
ENDBRANCH   1  70
TORSDOF 17
ENDMDL
MODEL 2
REMARK VINA RESULT:     -12.0      4.944     10.511
REMARK SMILES O=C(OCCOC(=O)[C@@]1([NH2+]C2CC2)CC[C@@H]([N@@H+]2CC[N@@H+]3CCC[C@@H]3C2)C1)c1ccc(-c2c3nc(c(-c4cc(S(=O)(=O)[O-])ccc4F)c4ccc([nH]4)c(-c4cc(S(=O)(=O)[O-])ccc4F)c4nc(c(-c5cc(S(=O)(=O)[O-])ccc5F)c5ccc2[nH]5)C=C4)C=C3)cc1
REMARK SMILES IDX 4 1 3 2 2 3 1 4 27 5 28 6 89 7 29 8 88 9 30 10 31 11 32 12
REMARK SMILES IDX 82 13 33 14 87 15 81 16 83 17 34 18 86 19 80 20 79 21 35 23
REMARK SMILES IDX 67 24 47 25 66 26 48 27 51 28 65 29 84 30 49 31 50 32 64 34
REMARK SMILES IDX 85 35 52 36 36 37 37 38 45 39 38 40 44 41 46 42 43 43 39 44
REMARK SMILES IDX 40 45 41 46 42 47 68 48 69 49 77 50 70 51 76 52 78 53 75 54
REMARK SMILES IDX 71 55 72 56 73 57 74 58 53 59 54 60 62 61 55 62 61 63 63 64
REMARK SMILES IDX 60 65 56 66 57 67 58 68 59 69 5 70 6 71 7 72 8 73 9 74 14 75
REMARK SMILES IDX 26 76 15 77 16 78 10 79 11 82 12 83 13 84 17 85 18 86 25 87
REMARK SMILES IDX 19 89 24 90 20 91 23 92 21 93 22 95
REMARK H PARENT 83 22 51 33 10 80 10 81 17 88 20 94
REMARK Flexibility Score: inf
ROOT
ATOM      1  C   UNL A   1      37.363  21.932  25.628  1.00  0.00     0.275 C 
ENDROOT
BRANCH   1   2
ATOM      2  O   UNL A   1      38.736  21.532  25.752  1.00  0.00    -0.458 OA
BRANCH   2   3
ATOM      3  C   UNL A   1      39.692  21.952  26.613  1.00  0.00     0.338 C 
ATOM      4  O   UNL A   1      40.251  21.086  27.291  1.00  0.00    -0.246 OA
BRANCH   3   5
ATOM      5  C   UNL A   1      40.053  23.389  26.890  1.00  0.00     0.060 A 
ATOM      6  C   UNL A   1      39.577  24.530  26.233  1.00  0.00     0.016 A 
ATOM      7  C   UNL A   1      40.881  23.600  28.009  1.00  0.00     0.016 A 
ATOM      8  C   UNL A   1      39.830  25.821  26.719  1.00  0.00     0.010 A 
ATOM      9  C   UNL A   1      41.093  24.885  28.530  1.00  0.00     0.010 A 
ATOM     10  C   UNL A   1      40.565  26.013  27.887  1.00  0.00    -0.014 A 
BRANCH  10  11
ATOM     11  C   UNL A   1      40.956  27.387  28.308  1.00  0.00     0.031 A 
ATOM     12  C   UNL A   1      42.378  27.781  28.071  1.00  0.00     0.074 A 
ATOM     13  C   UNL A   1      40.083  28.270  28.835  1.00  0.00     0.049 A 
ATOM     14  N   UNL A   1      42.992  28.885  28.390  1.00  0.00    -0.248 NA
ATOM     15  C   UNL A   1      43.232  26.775  27.418  1.00  0.00     0.031 C 
ATOM     16  C   UNL A   1      38.681  27.981  29.088  1.00  0.00     0.029 A 
ATOM     17  N   UNL A   1      40.211  29.574  29.244  1.00  0.00    -0.354 N 
ATOM     18  C   UNL A   1      44.304  28.696  27.983  1.00  0.00     0.074 A 
ATOM     19  C   UNL A   1      44.423  27.333  27.523  1.00  0.00     0.031 C 
ATOM     20  C   UNL A   1      38.060  29.065  29.582  1.00  0.00     0.029 A 
ATOM     21  C   UNL A   1      39.036  30.137  29.711  1.00  0.00     0.049 A 
ATOM     22  H   UNL A   1      41.063  30.066  29.208  1.00  0.00     0.167 HD
ATOM     23  C   UNL A   1      45.305  29.603  27.931  1.00  0.00     0.034 A 
ATOM     24  C   UNL A   1      38.785  31.377  30.183  1.00  0.00     0.034 A 
ATOM     25  C   UNL A   1      45.149  30.957  28.380  1.00  0.00     0.049 A 
ATOM     26  C   UNL A   1      39.940  32.349  30.198  1.00  0.00     0.074 A 
ATOM     27  C   UNL A   1      46.089  31.968  28.419  1.00  0.00     0.029 A 
ATOM     28  N   UNL A   1      43.961  31.491  28.871  1.00  0.00    -0.354 N 
ATOM     29  N   UNL A   1      41.180  32.155  29.802  1.00  0.00    -0.248 NA
ATOM     30  C   UNL A   1      39.673  33.700  30.702  1.00  0.00     0.031 C 
ATOM     31  C   UNL A   1      45.484  33.095  28.984  1.00  0.00     0.029 A 
ATOM     32  C   UNL A   1      44.147  32.813  29.228  1.00  0.00     0.049 A 
ATOM     33  H   UNL A   1      43.112  30.998  28.953  1.00  0.00     0.167 HD
ATOM     34  C   UNL A   1      41.830  33.370  29.977  1.00  0.00     0.074 A 
ATOM     35  C   UNL A   1      40.838  34.294  30.492  1.00  0.00     0.031 C 
ATOM     36  C   UNL A   1      43.126  33.700  29.736  1.00  0.00     0.034 A 
BRANCH  23  37
ATOM     37  C   UNL A   1      46.620  29.102  27.396  1.00  0.00     0.023 A 
ATOM     38  C   UNL A   1      46.807  28.882  26.018  1.00  0.00     0.031 A 
ATOM     39  C   UNL A   1      47.631  28.688  28.275  1.00  0.00     0.131 A 
ATOM     40  C   UNL A   1      47.915  28.149  25.574  1.00  0.00     0.055 A 
ATOM     41  C   UNL A   1      48.786  28.054  27.813  1.00  0.00     0.041 A 
ATOM     42  F   UNL A   1      47.490  28.841  29.601  1.00  0.00    -0.206 F 
ATOM     43  C   UNL A   1      48.921  27.758  26.459  1.00  0.00     0.022 A 
BRANCH  40  44
ATOM     44  S   UNL A   1      47.910  27.529  23.868  1.00  0.00     0.124 S 
ATOM     45  O   UNL A   1      47.614  26.112  24.071  1.00  0.00    -0.237 OA
ATOM     46  O   UNL A   1      46.853  28.317  23.245  1.00  0.00    -0.237 OA
ATOM     47  O   UNL A   1      49.263  27.815  23.396  1.00  0.00    -0.744 OA
ENDBRANCH  40  44
ENDBRANCH  23  37
BRANCH  24  48
ATOM     48  C   UNL A   1      37.429  31.781  30.683  1.00  0.00     0.023 A 
ATOM     49  C   UNL A   1      36.486  32.400  29.842  1.00  0.00     0.031 A 
ATOM     50  C   UNL A   1      37.081  31.630  32.039  1.00  0.00     0.131 A 
ATOM     51  C   UNL A   1      35.276  32.892  30.370  1.00  0.00     0.055 A 
ATOM     52  C   UNL A   1      35.856  32.069  32.549  1.00  0.00     0.041 A 
ATOM     53  F   UNL A   1      37.934  31.050  32.898  1.00  0.00    -0.206 F 
ATOM     54  C   UNL A   1      34.952  32.720  31.717  1.00  0.00     0.022 A 
BRANCH  51  55
ATOM     55  S   UNL A   1      34.178  33.862  29.296  1.00  0.00     0.124 S 
ATOM     56  O   UNL A   1      35.119  34.767  28.647  1.00  0.00    -0.237 OA
ATOM     57  O   UNL A   1      33.593  32.827  28.450  1.00  0.00    -0.237 OA
ATOM     58  O   UNL A   1      33.252  34.492  30.236  1.00  0.00    -0.744 OA
ENDBRANCH  51  55
ENDBRANCH  24  48
BRANCH  36  59
ATOM     59  C   UNL A   1      43.511  35.134  29.982  1.00  0.00     0.023 A 
ATOM     60  C   UNL A   1      43.396  36.109  28.980  1.00  0.00     0.031 A 
ATOM     61  C   UNL A   1      44.002  35.522  31.242  1.00  0.00     0.131 A 
ATOM     62  C   UNL A   1      43.828  37.416  29.233  1.00  0.00     0.055 A 
ATOM     63  C   UNL A   1      44.359  36.842  31.511  1.00  0.00     0.041 A 
ATOM     64  F   UNL A   1      44.133  34.625  32.231  1.00  0.00    -0.206 F 
ATOM     65  C   UNL A   1      44.286  37.796  30.498  1.00  0.00     0.022 A 
BRANCH  62  66
ATOM     66  S   UNL A   1      43.881  38.590  27.854  1.00  0.00     0.124 S 
ATOM     67  O   UNL A   1      45.304  38.607  27.529  1.00  0.00    -0.237 OA
ATOM     68  O   UNL A   1      43.011  37.957  26.870  1.00  0.00    -0.237 OA
ATOM     69  O   UNL A   1      43.363  39.826  28.437  1.00  0.00    -0.744 OA
ENDBRANCH  62  66
ENDBRANCH  36  59
ENDBRANCH  10  11
ENDBRANCH   3   5
ENDBRANCH   2   3
ENDBRANCH   1   2
BRANCH   1  70
ATOM     70  C   UNL A   1      36.996  22.358  24.206  1.00  0.00     0.274 C 
BRANCH  70  71
ATOM     71  O   UNL A   1      36.322  23.627  24.171  1.00  0.00    -0.457 OA
BRANCH  71  72
ATOM     72  C   UNL A   1      35.094  23.682  23.575  1.00  0.00     0.368 C 
ATOM     73  O   UNL A   1      34.892  23.381  22.399  1.00  0.00    -0.245 OA
BRANCH  72  74
ATOM     74  C   UNL A   1      33.981  24.133  24.550  1.00  0.00     0.200 C 
ATOM     75  C   UNL A   1      34.369  25.335  25.420  1.00  0.00     0.087 C 
ATOM     76  C   UNL A   1      32.830  24.739  23.732  1.00  0.00     0.146 C 
ATOM     77  C   UNL A   1      33.046  26.013  25.791  1.00  0.00     0.072 C 
ATOM     78  C   UNL A   1      32.109  25.788  24.593  1.00  0.00     0.191 C 
BRANCH  74  79
ATOM     79  N   UNL A   1      33.410  23.052  25.363  1.00  0.00    -0.329 N 
ATOM     80  H   UNL A   1      33.269  22.272  24.720  1.00  0.00     0.347 HD
ATOM     81  H   UNL A   1      32.622  23.539  25.791  1.00  0.00     0.347 HD
BRANCH  79  82
ATOM     82  C   UNL A   1      34.037  22.479  26.537  1.00  0.00     0.183 C 
ATOM     83  C   UNL A   1      33.494  22.415  27.926  1.00  0.00     0.071 C 
ATOM     84  C   UNL A   1      33.448  21.197  27.057  1.00  0.00     0.071 C 
ENDBRANCH  79  82
ENDBRANCH  74  79
BRANCH  78  85
ATOM     85  N   UNL A   1      31.699  27.019  23.900  1.00  0.00    -0.323 N 
ATOM     86  C   UNL A   1      32.307  28.246  24.462  1.00  0.00     0.324 C 
ATOM     87  C   UNL A   1      30.258  27.169  23.689  1.00  0.00     0.328 C 
ATOM     88  H   UNL A   1      32.086  26.895  22.966  1.00  0.00     0.348 HD
ATOM     89  C   UNL A   1      31.397  29.502  24.565  1.00  0.00     0.324 C 
ATOM     90  C   UNL A   1      29.909  28.457  22.915  1.00  0.00     0.240 C 
ATOM     91  N   UNL A   1      30.485  29.715  23.433  1.00  0.00    -0.323 N 
ATOM     92  C   UNL A   1      28.397  28.674  22.869  1.00  0.00     0.077 C 
ATOM     93  C   UNL A   1      29.385  30.625  23.769  1.00  0.00     0.263 C 
ATOM     94  H   UNL A   1      31.067  30.135  22.708  1.00  0.00     0.348 HD
ATOM     95  C   UNL A   1      28.247  30.181  22.867  1.00  0.00     0.068 C 
ENDBRANCH  78  85
ENDBRANCH  72  74
ENDBRANCH  71  72
ENDBRANCH  70  71
ENDBRANCH   1  70
TORSDOF 17
ENDMDL
MODEL 3
REMARK VINA RESULT:     -11.9      2.540      3.680
REMARK SMILES O=C(OCCOC(=O)[C@@]1([NH2+]C2CC2)CC[C@@H]([N@@H+]2CC[N@@H+]3CCC[C@@H]3C2)C1)c1ccc(-c2c3nc(c(-c4cc(S(=O)(=O)[O-])ccc4F)c4ccc([nH]4)c(-c4cc(S(=O)(=O)[O-])ccc4F)c4nc(c(-c5cc(S(=O)(=O)[O-])ccc5F)c5ccc2[nH]5)C=C4)C=C3)cc1
REMARK SMILES IDX 4 1 3 2 2 3 1 4 27 5 28 6 89 7 29 8 88 9 30 10 31 11 32 12
REMARK SMILES IDX 82 13 33 14 87 15 81 16 83 17 34 18 86 19 80 20 79 21 35 23
REMARK SMILES IDX 67 24 47 25 66 26 48 27 51 28 65 29 84 30 49 31 50 32 64 34
REMARK SMILES IDX 85 35 52 36 36 37 37 38 45 39 38 40 44 41 46 42 43 43 39 44
REMARK SMILES IDX 40 45 41 46 42 47 68 48 69 49 77 50 70 51 76 52 78 53 75 54
REMARK SMILES IDX 71 55 72 56 73 57 74 58 53 59 54 60 62 61 55 62 61 63 63 64
REMARK SMILES IDX 60 65 56 66 57 67 58 68 59 69 5 70 6 71 7 72 8 73 9 74 14 75
REMARK SMILES IDX 26 76 15 77 16 78 10 79 11 82 12 83 13 84 17 85 18 86 25 87
REMARK SMILES IDX 19 89 24 90 20 91 23 92 21 93 22 95
REMARK H PARENT 83 22 51 33 10 80 10 81 17 88 20 94
REMARK Flexibility Score: inf
ROOT
ATOM      1  C   UNL A   1      31.228  32.299  26.810  1.00  0.00     0.275 C 
ENDROOT
BRANCH   1   2
ATOM      2  O   UNL A   1      32.205  33.350  26.850  1.00  0.00    -0.458 OA
BRANCH   2   3
ATOM      3  C   UNL A   1      32.936  33.821  27.887  1.00  0.00     0.338 C 
ATOM      4  O   UNL A   1      32.538  34.855  28.427  1.00  0.00    -0.246 OA
BRANCH   3   5
ATOM      5  C   UNL A   1      34.247  33.249  28.365  1.00  0.00     0.060 A 
ATOM      6  C   UNL A   1      35.517  33.830  28.269  1.00  0.00     0.016 A 
ATOM      7  C   UNL A   1      34.154  32.043  29.085  1.00  0.00     0.016 A 
ATOM      8  C   UNL A   1      36.627  33.293  28.936  1.00  0.00     0.010 A 
ATOM      9  C   UNL A   1      35.249  31.530  29.797  1.00  0.00     0.010 A 
ATOM     10  C   UNL A   1      36.501  32.155  29.730  1.00  0.00    -0.014 A 
BRANCH  10  11
ATOM     11  C   UNL A   1      37.712  31.508  30.307  1.00  0.00     0.031 A 
ATOM     12  C   UNL A   1      38.053  31.862  31.718  1.00  0.00     0.074 A 
ATOM     13  C   UNL A   1      38.456  30.609  29.631  1.00  0.00     0.049 A 
ATOM     14  N   UNL A   1      39.075  31.493  32.438  1.00  0.00    -0.248 NA
ATOM     15  C   UNL A   1      37.135  32.793  32.396  1.00  0.00     0.031 C 
ATOM     16  C   UNL A   1      38.193  30.193  28.264  1.00  0.00     0.029 A 
ATOM     17  N   UNL A   1      39.562  29.871  29.974  1.00  0.00    -0.354 N 
ATOM     18  C   UNL A   1      38.920  32.155  33.646  1.00  0.00     0.074 A 
ATOM     19  C   UNL A   1      37.791  33.045  33.512  1.00  0.00     0.031 C 
ATOM     20  C   UNL A   1      39.080  29.262  27.878  1.00  0.00     0.029 A 
ATOM     21  C   UNL A   1      40.010  29.027  28.973  1.00  0.00     0.049 A 
ATOM     22  H   UNL A   1      39.999  29.936  30.854  1.00  0.00     0.167 HD
ATOM     23  C   UNL A   1      39.617  31.982  34.792  1.00  0.00     0.034 A 
ATOM     24  C   UNL A   1      41.048  28.164  28.952  1.00  0.00     0.034 A 
ATOM     25  C   UNL A   1      40.723  31.074  34.899  1.00  0.00     0.049 A 
ATOM     26  C   UNL A   1      41.867  28.051  30.216  1.00  0.00     0.074 A 
ATOM     27  C   UNL A   1      41.539  30.830  35.985  1.00  0.00     0.029 A 
ATOM     28  N   UNL A   1      41.170  30.255  33.866  1.00  0.00    -0.354 N 
ATOM     29  N   UNL A   1      41.703  28.684  31.358  1.00  0.00    -0.248 NA
ATOM     30  C   UNL A   1      42.992  27.111  30.204  1.00  0.00     0.031 C 
ATOM     31  C   UNL A   1      42.511  29.904  35.593  1.00  0.00     0.029 A 
ATOM     32  C   UNL A   1      42.258  29.513  34.286  1.00  0.00     0.049 A 
ATOM     33  H   UNL A   1      40.770  30.211  32.967  1.00  0.00     0.167 HD
ATOM     34  C   UNL A   1      42.684  28.190  32.210  1.00  0.00     0.074 A 
ATOM     35  C   UNL A   1      43.418  27.192  31.456  1.00  0.00     0.031 C 
ATOM     36  C   UNL A   1      42.958  28.525  33.498  1.00  0.00     0.034 A 
BRANCH  23  37
ATOM     37  C   UNL A   1      39.181  32.826  35.961  1.00  0.00     0.023 A 
ATOM     38  C   UNL A   1      39.725  34.108  36.173  1.00  0.00     0.031 A 
ATOM     39  C   UNL A   1      38.349  32.288  36.952  1.00  0.00     0.131 A 
ATOM     40  C   UNL A   1      39.535  34.749  37.404  1.00  0.00     0.055 A 
ATOM     41  C   UNL A   1      38.076  32.983  38.132  1.00  0.00     0.041 A 
ATOM     42  F   UNL A   1      37.832  31.057  36.817  1.00  0.00    -0.206 F 
ATOM     43  C   UNL A   1      38.690  34.209  38.375  1.00  0.00     0.022 A 
BRANCH  40  44
ATOM     44  S   UNL A   1      40.576  36.183  37.798  1.00  0.00     0.124 S 
ATOM     45  O   UNL A   1      41.501  35.614  38.777  1.00  0.00    -0.237 OA
ATOM     46  O   UNL A   1      41.153  36.524  36.502  1.00  0.00    -0.237 OA
ATOM     47  O   UNL A   1      39.629  37.156  38.336  1.00  0.00    -0.744 OA
ENDBRANCH  40  44
ENDBRANCH  23  37
BRANCH  24  48
ATOM     48  C   UNL A   1      41.392  27.357  27.735  1.00  0.00     0.023 A 
ATOM     49  C   UNL A   1      41.160  25.970  27.679  1.00  0.00     0.031 A 
ATOM     50  C   UNL A   1      42.036  27.947  26.631  1.00  0.00     0.131 A 
ATOM     51  C   UNL A   1      41.617  25.217  26.580  1.00  0.00     0.055 A 
ATOM     52  C   UNL A   1      42.439  27.205  25.517  1.00  0.00     0.041 A 
ATOM     53  F   UNL A   1      42.290  29.265  26.618  1.00  0.00    -0.206 F 
ATOM     54  C   UNL A   1      42.246  25.828  25.494  1.00  0.00     0.022 A 
BRANCH  51  55
ATOM     55  S   UNL A   1      41.481  23.405  26.638  1.00  0.00     0.124 S 
ATOM     56  O   UNL A   1      42.333  23.007  25.525  1.00  0.00    -0.237 OA
ATOM     57  O   UNL A   1      41.986  23.109  27.974  1.00  0.00    -0.237 OA
ATOM     58  O   UNL A   1      40.052  23.166  26.447  1.00  0.00    -0.744 OA
ENDBRANCH  51  55
ENDBRANCH  24  48
BRANCH  36  59
ATOM     59  C   UNL A   1      44.066  27.759  34.170  1.00  0.00     0.023 A 
ATOM     60  C   UNL A   1      43.845  26.497  34.742  1.00  0.00     0.031 A 
ATOM     61  C   UNL A   1      45.359  28.307  34.236  1.00  0.00     0.131 A 
ATOM     62  C   UNL A   1      44.889  25.850  35.415  1.00  0.00     0.055 A 
ATOM     63  C   UNL A   1      46.412  27.624  34.840  1.00  0.00     0.041 A 
ATOM     64  F   UNL A   1      45.618  29.513  33.705  1.00  0.00    -0.206 F 
ATOM     65  C   UNL A   1      46.176  26.393  35.447  1.00  0.00     0.022 A 
BRANCH  62  66
ATOM     66  S   UNL A   1      44.513  24.337  36.338  1.00  0.00     0.124 S 
ATOM     67  O   UNL A   1      44.240  24.859  37.673  1.00  0.00    -0.237 OA
ATOM     68  O   UNL A   1      43.364  23.806  35.614  1.00  0.00    -0.237 OA
ATOM     69  O   UNL A   1      45.739  23.550  36.218  1.00  0.00    -0.744 OA
ENDBRANCH  62  66
ENDBRANCH  36  59
ENDBRANCH  10  11
ENDBRANCH   3   5
ENDBRANCH   2   3
ENDBRANCH   1   2
BRANCH   1  70
ATOM     70  C   UNL A   1      31.837  30.938  26.465  1.00  0.00     0.274 C 
BRANCH  70  71
ATOM     71  O   UNL A   1      31.311  30.398  25.242  1.00  0.00    -0.457 OA
BRANCH  71  72
ATOM     72  C   UNL A   1      31.525  29.073  24.985  1.00  0.00     0.368 C 
ATOM     73  O   UNL A   1      31.312  28.176  25.802  1.00  0.00    -0.245 OA
BRANCH  72  74
ATOM     74  C   UNL A   1      32.032  28.821  23.546  1.00  0.00     0.200 C 
ATOM     75  C   UNL A   1      33.544  29.022  23.378  1.00  0.00     0.087 C 
ATOM     76  C   UNL A   1      31.913  27.320  23.241  1.00  0.00     0.146 C 
ATOM     77  C   UNL A   1      33.940  28.147  22.184  1.00  0.00     0.072 C 
ATOM     78  C   UNL A   1      32.996  26.934  22.221  1.00  0.00     0.191 C 
BRANCH  74  79
ATOM     79  N   UNL A   1      31.283  29.533  22.504  1.00  0.00    -0.329 N 
ATOM     80  H   UNL A   1      31.866  29.485  21.668  1.00  0.00     0.347 HD
ATOM     81  H   UNL A   1      31.102  30.418  22.978  1.00  0.00     0.347 HD
BRANCH  79  82
ATOM     82  C   UNL A   1      29.945  29.188  22.065  1.00  0.00     0.183 C 
ATOM     83  C   UNL A   1      28.737  28.951  22.910  1.00  0.00     0.071 C 
ATOM     84  C   UNL A   1      28.897  30.259  22.198  1.00  0.00     0.071 C 
ENDBRANCH  79  82
ENDBRANCH  74  79
BRANCH  78  85
ATOM     85  N   UNL A   1      33.668  25.645  22.450  1.00  0.00    -0.323 N 
ATOM     86  C   UNL A   1      32.970  24.496  21.830  1.00  0.00     0.324 C 
ATOM     87  C   UNL A   1      34.047  25.374  23.837  1.00  0.00     0.328 C 
ATOM     88  H   UNL A   1      34.552  25.759  21.957  1.00  0.00     0.348 HD
ATOM     89  C   UNL A   1      32.914  23.178  22.652  1.00  0.00     0.324 C 
ATOM     90  C   UNL A   1      34.788  24.030  23.990  1.00  0.00     0.240 C 
ATOM     91  N   UNL A   1      34.137  22.845  23.395  1.00  0.00    -0.323 N 
ATOM     92  C   UNL A   1      35.009  23.692  25.465  1.00  0.00     0.077 C 
ATOM     93  C   UNL A   1      33.892  21.866  24.460  1.00  0.00     0.263 C 
ATOM     94  H   UNL A   1      34.761  22.441  22.697  1.00  0.00     0.348 HD
ATOM     95  C   UNL A   1      34.949  22.179  25.503  1.00  0.00     0.068 C 
ENDBRANCH  78  85
ENDBRANCH  72  74
ENDBRANCH  71  72
ENDBRANCH  70  71
ENDBRANCH   1  70
TORSDOF 17
ENDMDL
