MODEL 1
REMARK VINA RESULT:     -11.4      0.000      0.000
REMARK SMILES Cc1nsc(N(C)C(=O)[C@@H](C)NC(N)=O)c1C(=O)OCCOC(=O)c1ccc(-c2c3nc(c(-c4cc(S(=O)(=O)[O-])ccc4F)c4ccc([nH]4)c(-c4cc(S(=O)(=O)[O-])ccc4F)c4nc(c(-c5cc(S(=O)(=O)[O-])ccc5F)c5ccc2[nH]5)C=C4)C=C3)cc1
REMARK SMILES IDX 20 1 19 2 17 3 18 4 16 5 1 6 2 7 3 8 4 9 5 10 6 11 7 12 8 13
REMARK SMILES IDX 9 14 10 15 11 16 12 17 13 18 14 20 15 21 21 24 22 25 23 26
REMARK SMILES IDX 24 27 25 28 26 29 87 30 27 31 86 32 28 33 29 34 30 35 80 36
REMARK SMILES IDX 31 37 85 38 79 39 81 40 32 41 84 42 78 43 77 44 33 46 65 47
REMARK SMILES IDX 45 48 64 49 46 50 49 51 63 52 82 53 47 54 48 55 62 57 83 58
REMARK SMILES IDX 50 59 34 60 35 61 43 62 36 63 42 64 44 65 41 66 37 67 38 68
REMARK SMILES IDX 39 69 40 70 66 71 67 72 75 73 68 74 74 75 76 76 73 77 69 78
REMARK SMILES IDX 70 79 71 80 72 81 51 82 52 83 60 84 53 85 59 86 61 87 58 88
REMARK SMILES IDX 54 89 55 90 56 91 57 92
REMARK H PARENT 12 19 14 22 14 23 81 45 49 56
REMARK Flexibility Score: inf
ROOT
ATOM      1  C   UNL A   1      33.938  28.961  26.401  1.00  0.00     0.275 C 
ENDROOT
BRANCH   1   2
ATOM      2  O   UNL A   1      33.782  27.576  26.729  1.00  0.00    -0.458 OA
BRANCH   2   3
ATOM      3  C   UNL A   1      32.716  26.917  26.196  1.00  0.00     0.343 C 
ATOM      4  O   UNL A   1      31.616  26.827  26.739  1.00  0.00    -0.246 OA
BRANCH   3   5
ATOM      5  C   UNL A   1      33.082  26.212  24.979  1.00  0.00     0.117 A 
ATOM      6  C   UNL A   1      34.069  24.119  26.243  1.00  0.00     0.069 C 
ATOM      7  C   UNL A   1      33.667  24.879  25.022  1.00  0.00     0.068 A 
ATOM      8  N   UNL A   1      33.847  24.275  23.852  1.00  0.00    -0.195 NA
ATOM      9  S   UNL A   1      33.466  25.322  22.658  1.00  0.00    -0.017 S 
ATOM     10  C   UNL A   1      32.980  26.657  23.653  1.00  0.00     0.133 A 
BRANCH  10  11
ATOM     11  N   UNL A   1      32.641  27.871  22.960  1.00  0.00    -0.303 N 
ATOM     12  C   UNL A   1      33.639  28.940  22.815  1.00  0.00     0.154 C 
BRANCH  11  13
ATOM     13  C   UNL A   1      31.300  28.091  22.596  1.00  0.00     0.249 C 
ATOM     14  O   UNL A   1      30.700  27.369  21.794  1.00  0.00    -0.272 OA
BRANCH  13  15
ATOM     15  C   UNL A   1      30.456  29.246  23.229  1.00  0.00     0.170 C 
ATOM     16  C   UNL A   1      30.873  29.710  24.623  1.00  0.00     0.041 C 
BRANCH  15  17
ATOM     17  N   UNL A   1      30.222  30.372  22.326  1.00  0.00    -0.327 N 
ATOM     18  C   UNL A   1      29.083  30.473  21.587  1.00  0.00     0.312 C 
ATOM     19  H   UNL A   1      30.907  31.075  22.249  1.00  0.00     0.166 HD
ATOM     20  N   UNL A   1      29.042  31.592  20.827  1.00  0.00    -0.352 N 
ATOM     21  O   UNL A   1      28.154  29.681  21.582  1.00  0.00    -0.249 OA
ATOM     22  H   UNL A   1      29.798  32.223  20.839  1.00  0.00     0.161 HD
ATOM     23  H   UNL A   1      28.257  31.775  20.263  1.00  0.00     0.161 HD
ENDBRANCH  15  17
ENDBRANCH  13  15
ENDBRANCH  11  13
ENDBRANCH  10  11
ENDBRANCH   3   5
ENDBRANCH   2   3
ENDBRANCH   1   2
BRANCH   1  24
ATOM     24  C   UNL A   1      34.478  29.674  27.631  1.00  0.00     0.275 C 
BRANCH  24  25
ATOM     25  O   UNL A   1      35.896  29.775  27.559  1.00  0.00    -0.458 OA
BRANCH  25  26
ATOM     26  C   UNL A   1      36.581  29.686  28.723  1.00  0.00     0.338 C 
ATOM     27  O   UNL A   1      36.337  30.240  29.780  1.00  0.00    -0.246 OA
BRANCH  26  28
ATOM     28  C   UNL A   1      37.816  28.937  28.448  1.00  0.00     0.060 A 
ATOM     29  C   UNL A   1      38.305  28.069  29.431  1.00  0.00     0.016 A 
ATOM     30  C   UNL A   1      38.580  29.280  27.322  1.00  0.00     0.016 A 
ATOM     31  C   UNL A   1      39.630  27.678  29.364  1.00  0.00     0.010 A 
ATOM     32  C   UNL A   1      39.900  28.923  27.275  1.00  0.00     0.010 A 
ATOM     33  C   UNL A   1      40.424  28.182  28.329  1.00  0.00    -0.014 A 
BRANCH  33  34
ATOM     34  C   UNL A   1      41.836  27.874  28.293  1.00  0.00     0.031 A 
ATOM     35  C   UNL A   1      42.146  26.591  27.613  1.00  0.00     0.074 A 
ATOM     36  C   UNL A   1      42.752  28.788  28.670  1.00  0.00     0.049 A 
ATOM     37  N   UNL A   1      42.696  25.539  28.117  1.00  0.00    -0.248 NA
ATOM     38  C   UNL A   1      41.635  26.388  26.244  1.00  0.00     0.031 C 
ATOM     39  C   UNL A   1      42.554  30.188  29.058  1.00  0.00     0.029 A 
ATOM     40  N   UNL A   1      44.101  28.666  28.685  1.00  0.00    -0.354 N 
ATOM     41  C   UNL A   1      42.801  24.617  27.078  1.00  0.00     0.074 A 
ATOM     42  C   UNL A   1      41.980  25.122  26.014  1.00  0.00     0.031 C 
ATOM     43  C   UNL A   1      43.747  30.832  29.044  1.00  0.00     0.029 A 
ATOM     44  C   UNL A   1      44.801  29.863  28.787  1.00  0.00     0.049 A 
ATOM     45  H   UNL A   1      44.554  27.793  28.627  1.00  0.00     0.167 HD
ATOM     46  C   UNL A   1      43.720  23.613  27.117  1.00  0.00     0.034 A 
ATOM     47  C   UNL A   1      46.141  30.032  28.605  1.00  0.00     0.034 A 
ATOM     48  C   UNL A   1      44.184  23.399  28.470  1.00  0.00     0.049 A 
ATOM     49  C   UNL A   1      46.756  28.686  28.782  1.00  0.00     0.074 A 
ATOM     50  C   UNL A   1      43.557  23.023  29.643  1.00  0.00     0.029 A 
ATOM     51  N   UNL A   1      45.362  24.000  28.860  1.00  0.00    -0.354 N 
ATOM     52  N   UNL A   1      46.724  28.037  29.917  1.00  0.00    -0.248 NA
ATOM     53  C   UNL A   1      46.907  27.846  27.600  1.00  0.00     0.031 C 
ATOM     54  C   UNL A   1      44.106  23.885  30.638  1.00  0.00     0.029 A 
ATOM     55  C   UNL A   1      45.108  24.658  30.043  1.00  0.00     0.049 A 
ATOM     56  H   UNL A   1      46.222  23.964  28.383  1.00  0.00     0.167 HD
ATOM     57  C   UNL A   1      46.424  26.724  29.583  1.00  0.00     0.074 A 
ATOM     58  C   UNL A   1      46.622  26.652  28.133  1.00  0.00     0.031 C 
ATOM     59  C   UNL A   1      45.754  25.898  30.443  1.00  0.00     0.034 A 
BRANCH  46  60
ATOM     60  C   UNL A   1      44.434  23.042  25.913  1.00  0.00     0.023 A 
ATOM     61  C   UNL A   1      44.332  21.653  25.696  1.00  0.00     0.031 A 
ATOM     62  C   UNL A   1      45.411  23.711  25.141  1.00  0.00     0.131 A 
ATOM     63  C   UNL A   1      45.226  20.986  24.839  1.00  0.00     0.055 A 
ATOM     64  C   UNL A   1      46.258  23.053  24.246  1.00  0.00     0.041 A 
ATOM     65  F   UNL A   1      45.669  25.017  25.270  1.00  0.00    -0.206 F 
ATOM     66  C   UNL A   1      46.192  21.677  24.113  1.00  0.00     0.022 A 
BRANCH  63  67
ATOM     67  S   UNL A   1      45.216  19.175  24.821  1.00  0.00     0.124 S 
ATOM     68  O   UNL A   1      44.943  18.892  23.417  1.00  0.00    -0.237 OA
ATOM     69  O   UNL A   1      46.561  18.863  25.292  1.00  0.00    -0.237 OA
ATOM     70  O   UNL A   1      44.137  18.834  25.746  1.00  0.00    -0.744 OA
ENDBRANCH  63  67
ENDBRANCH  46  60
BRANCH  47  71
ATOM     71  C   UNL A   1      46.799  31.160  27.879  1.00  0.00     0.023 A 
ATOM     72  C   UNL A   1      46.093  32.209  27.247  1.00  0.00     0.031 A 
ATOM     73  C   UNL A   1      48.199  31.332  28.002  1.00  0.00     0.131 A 
ATOM     74  C   UNL A   1      46.786  33.349  26.763  1.00  0.00     0.055 A 
ATOM     75  C   UNL A   1      48.875  32.457  27.527  1.00  0.00     0.041 A 
ATOM     76  F   UNL A   1      48.950  30.440  28.666  1.00  0.00    -0.206 F 
ATOM     77  C   UNL A   1      48.170  33.476  26.910  1.00  0.00     0.022 A 
BRANCH  74  78
ATOM     78  S   UNL A   1      45.887  34.735  25.984  1.00  0.00     0.124 S 
ATOM     79  O   UNL A   1      46.633  35.895  26.458  1.00  0.00    -0.237 OA
ATOM     80  O   UNL A   1      45.999  34.426  24.564  1.00  0.00    -0.237 OA
ATOM     81  O   UNL A   1      44.533  34.614  26.530  1.00  0.00    -0.744 OA
ENDBRANCH  74  78
ENDBRANCH  47  71
BRANCH  59  82
ATOM     82  C   UNL A   1      45.489  26.384  31.861  1.00  0.00     0.023 A 
ATOM     83  C   UNL A   1      44.354  27.129  32.268  1.00  0.00     0.031 A 
ATOM     84  C   UNL A   1      46.365  25.944  32.867  1.00  0.00     0.131 A 
ATOM     85  C   UNL A   1      44.143  27.411  33.636  1.00  0.00     0.055 A 
ATOM     86  C   UNL A   1      46.140  26.204  34.219  1.00  0.00     0.041 A 
ATOM     87  F   UNL A   1      47.444  25.208  32.554  1.00  0.00    -0.206 F 
ATOM     88  C   UNL A   1      45.031  26.944  34.608  1.00  0.00     0.022 A 
BRANCH  85  89
ATOM     89  S   UNL A   1      42.715  28.409  34.181  1.00  0.00     0.124 S 
ATOM     90  O   UNL A   1      42.816  29.620  33.376  1.00  0.00    -0.237 OA
ATOM     91  O   UNL A   1      41.585  27.533  33.882  1.00  0.00    -0.237 OA
ATOM     92  O   UNL A   1      42.965  28.607  35.611  1.00  0.00    -0.744 OA
ENDBRANCH  85  89
ENDBRANCH  59  82
ENDBRANCH  33  34
ENDBRANCH  26  28
ENDBRANCH  25  26
ENDBRANCH  24  25
ENDBRANCH   1  24
TORSDOF 18
ENDMDL
MODEL 2
REMARK VINA RESULT:     -11.4      4.021      5.654
REMARK SMILES Cc1nsc(N(C)C(=O)[C@@H](C)NC(N)=O)c1C(=O)OCCOC(=O)c1ccc(-c2c3nc(c(-c4cc(S(=O)(=O)[O-])ccc4F)c4ccc([nH]4)c(-c4cc(S(=O)(=O)[O-])ccc4F)c4nc(c(-c5cc(S(=O)(=O)[O-])ccc5F)c5ccc2[nH]5)C=C4)C=C3)cc1
REMARK SMILES IDX 20 1 19 2 17 3 18 4 16 5 1 6 2 7 3 8 4 9 5 10 6 11 7 12 8 13
REMARK SMILES IDX 9 14 10 15 11 16 12 17 13 18 14 20 15 21 21 24 22 25 23 26
REMARK SMILES IDX 24 27 25 28 26 29 87 30 27 31 86 32 28 33 29 34 30 35 80 36
REMARK SMILES IDX 31 37 85 38 79 39 81 40 32 41 84 42 78 43 77 44 33 46 65 47
REMARK SMILES IDX 45 48 64 49 46 50 49 51 63 52 82 53 47 54 48 55 62 57 83 58
REMARK SMILES IDX 50 59 34 60 35 61 43 62 36 63 42 64 44 65 41 66 37 67 38 68
REMARK SMILES IDX 39 69 40 70 66 71 67 72 75 73 68 74 74 75 76 76 73 77 69 78
REMARK SMILES IDX 70 79 71 80 72 81 51 82 52 83 60 84 53 85 59 86 61 87 58 88
REMARK SMILES IDX 54 89 55 90 56 91 57 92
REMARK H PARENT 12 19 14 22 14 23 81 45 49 56
REMARK Flexibility Score: inf
ROOT
ATOM      1  C   UNL A   1      36.433  30.202  32.117  1.00  0.00     0.275 C 
ENDROOT
BRANCH   1   2
ATOM      2  O   UNL A   1      37.784  30.072  32.570  1.00  0.00    -0.458 OA
BRANCH   2   3
ATOM      3  C   UNL A   1      38.461  31.214  32.872  1.00  0.00     0.343 C 
ATOM      4  O   UNL A   1      39.598  31.471  32.479  1.00  0.00    -0.246 OA
BRANCH   3   5
ATOM      5  C   UNL A   1      37.732  32.023  33.835  1.00  0.00     0.117 A 
ATOM      6  C   UNL A   1      38.554  30.643  35.927  1.00  0.00     0.069 C 
ATOM      7  C   UNL A   1      37.832  31.771  35.266  1.00  0.00     0.068 A 
ATOM      8  N   UNL A   1      37.227  32.645  36.064  1.00  0.00    -0.195 NA
ATOM      9  S   UNL A   1      36.399  33.710  35.142  1.00  0.00    -0.017 S 
ATOM     10  C   UNL A   1      36.849  33.084  33.587  1.00  0.00     0.133 A 
BRANCH  10  11
ATOM     11  N   UNL A   1      36.229  33.710  32.450  1.00  0.00    -0.303 N 
ATOM     12  C   UNL A   1      37.048  34.440  31.474  1.00  0.00     0.154 C 
BRANCH  11  13
ATOM     13  C   UNL A   1      34.825  33.771  32.394  1.00  0.00     0.249 C 
ATOM     14  O   UNL A   1      34.111  32.764  32.423  1.00  0.00    -0.272 OA
BRANCH  13  15
ATOM     15  C   UNL A   1      34.064  35.138  32.341  1.00  0.00     0.170 C 
ATOM     16  C   UNL A   1      34.302  36.095  33.506  1.00  0.00     0.041 C 
BRANCH  15  17
ATOM     17  N   UNL A   1      34.155  35.816  31.049  1.00  0.00    -0.327 N 
ATOM     18  C   UNL A   1      33.132  36.572  30.563  1.00  0.00     0.312 C 
ATOM     19  H   UNL A   1      34.977  35.722  30.515  1.00  0.00     0.166 HD
ATOM     20  N   UNL A   1      33.411  37.132  29.364  1.00  0.00    -0.352 N 
ATOM     21  O   UNL A   1      32.061  36.776  31.113  1.00  0.00    -0.249 OA
ATOM     22  H   UNL A   1      34.278  36.961  28.929  1.00  0.00     0.161 HD
ATOM     23  H   UNL A   1      32.748  37.712  28.924  1.00  0.00     0.161 HD
ENDBRANCH  15  17
ENDBRANCH  13  15
ENDBRANCH  11  13
ENDBRANCH  10  11
ENDBRANCH   3   5
ENDBRANCH   2   3
ENDBRANCH   1   2
BRANCH   1  24
ATOM     24  C   UNL A   1      36.468  30.668  30.670  1.00  0.00     0.275 C 
BRANCH  24  25
ATOM     25  O   UNL A   1      36.313  29.560  29.790  1.00  0.00    -0.458 OA
BRANCH  25  26
ATOM     26  C   UNL A   1      36.663  29.746  28.496  1.00  0.00     0.338 C 
ATOM     27  O   UNL A   1      36.027  30.306  27.621  1.00  0.00    -0.246 OA
BRANCH  26  28
ATOM     28  C   UNL A   1      37.891  28.973  28.259  1.00  0.00     0.060 A 
ATOM     29  C   UNL A   1      38.273  28.014  29.205  1.00  0.00     0.016 A 
ATOM     30  C   UNL A   1      38.753  29.370  27.225  1.00  0.00     0.016 A 
ATOM     31  C   UNL A   1      39.585  27.579  29.210  1.00  0.00     0.010 A 
ATOM     32  C   UNL A   1      40.061  28.968  27.251  1.00  0.00     0.010 A 
ATOM     33  C   UNL A   1      40.475  28.130  28.281  1.00  0.00    -0.014 A 
BRANCH  33  34
ATOM     34  C   UNL A   1      41.874  27.772  28.329  1.00  0.00     0.031 A 
ATOM     35  C   UNL A   1      42.186  26.501  27.626  1.00  0.00     0.074 A 
ATOM     36  C   UNL A   1      42.794  28.639  28.799  1.00  0.00     0.049 A 
ATOM     37  N   UNL A   1      42.664  25.414  28.129  1.00  0.00    -0.248 NA
ATOM     38  C   UNL A   1      41.764  26.362  26.220  1.00  0.00     0.031 C 
ATOM     39  C   UNL A   1      42.618  30.032  29.222  1.00  0.00     0.029 A 
ATOM     40  N   UNL A   1      44.134  28.467  28.900  1.00  0.00    -0.354 N 
ATOM     41  C   UNL A   1      42.809  24.523  27.069  1.00  0.00     0.074 A 
ATOM     42  C   UNL A   1      42.080  25.092  25.970  1.00  0.00     0.031 C 
ATOM     43  C   UNL A   1      43.830  30.631  29.310  1.00  0.00     0.029 A 
ATOM     44  C   UNL A   1      44.865  29.634  29.091  1.00  0.00     0.049 A 
ATOM     45  H   UNL A   1      44.559  27.581  28.842  1.00  0.00     0.167 HD
ATOM     46  C   UNL A   1      43.688  23.485  27.134  1.00  0.00     0.034 A 
ATOM     47  C   UNL A   1      46.219  29.760  29.006  1.00  0.00     0.034 A 
ATOM     48  C   UNL A   1      44.050  23.211  28.506  1.00  0.00     0.049 A 
ATOM     49  C   UNL A   1      46.774  28.387  29.176  1.00  0.00     0.074 A 
ATOM     50  C   UNL A   1      43.332  22.819  29.621  1.00  0.00     0.029 A 
ATOM     51  N   UNL A   1      45.219  23.755  28.995  1.00  0.00    -0.354 N 
ATOM     52  N   UNL A   1      46.643  27.703  30.283  1.00  0.00    -0.248 NA
ATOM     53  C   UNL A   1      46.977  27.581  27.978  1.00  0.00     0.031 C 
ATOM     54  C   UNL A   1      43.842  23.628  30.680  1.00  0.00     0.029 A 
ATOM     55  C   UNL A   1      44.907  24.383  30.181  1.00  0.00     0.049 A 
ATOM     56  H   UNL A   1      46.108  23.703  28.576  1.00  0.00     0.167 HD
ATOM     57  C   UNL A   1      46.321  26.414  29.883  1.00  0.00     0.074 A 
ATOM     58  C   UNL A   1      46.616  26.382  28.448  1.00  0.00     0.031 C 
ATOM     59  C   UNL A   1      45.567  25.584  30.667  1.00  0.00     0.034 A 
BRANCH  46  60
ATOM     60  C   UNL A   1      44.462  22.928  25.961  1.00  0.00     0.023 A 
ATOM     61  C   UNL A   1      44.212  21.591  25.594  1.00  0.00     0.031 A 
ATOM     62  C   UNL A   1      45.601  23.521  25.370  1.00  0.00     0.131 A 
ATOM     63  C   UNL A   1      45.110  20.884  24.773  1.00  0.00     0.055 A 
ATOM     64  C   UNL A   1      46.459  22.833  24.508  1.00  0.00     0.041 A 
ATOM     65  F   UNL A   1      46.006  24.763  25.659  1.00  0.00    -0.206 F 
ATOM     66  C   UNL A   1      46.235  21.496  24.229  1.00  0.00     0.022 A 
BRANCH  63  67
ATOM     67  S   UNL A   1      44.872  19.100  24.570  1.00  0.00     0.124 S 
ATOM     68  O   UNL A   1      44.563  19.001  23.149  1.00  0.00    -0.237 OA
ATOM     69  O   UNL A   1      46.168  18.576  24.986  1.00  0.00    -0.237 OA
ATOM     70  O   UNL A   1      43.761  18.803  25.472  1.00  0.00    -0.744 OA
ENDBRANCH  63  67
ENDBRANCH  46  60
BRANCH  47  71
ATOM     71  C   UNL A   1      46.964  30.887  28.365  1.00  0.00     0.023 A 
ATOM     72  C   UNL A   1      46.380  31.805  27.464  1.00  0.00     0.031 A 
ATOM     73  C   UNL A   1      48.261  31.206  28.834  1.00  0.00     0.131 A 
ATOM     74  C   UNL A   1      47.091  32.967  27.064  1.00  0.00     0.055 A 
ATOM     75  C   UNL A   1      48.955  32.351  28.439  1.00  0.00     0.041 A 
ATOM     76  F   UNL A   1      48.868  30.448  29.761  1.00  0.00    -0.206 F 
ATOM     77  C   UNL A   1      48.370  33.243  27.556  1.00  0.00     0.022 A 
BRANCH  74  78
ATOM     78  S   UNL A   1      46.336  34.190  25.938  1.00  0.00     0.124 S 
ATOM     79  O   UNL A   1      47.484  34.656  25.169  1.00  0.00    -0.237 OA
ATOM     80  O   UNL A   1      45.352  33.391  25.218  1.00  0.00    -0.237 OA
ATOM     81  O   UNL A   1      45.764  35.186  26.846  1.00  0.00    -0.744 OA
ENDBRANCH  74  78
ENDBRANCH  47  71
BRANCH  59  82
ATOM     82  C   UNL A   1      45.222  26.033  32.080  1.00  0.00     0.023 A 
ATOM     83  C   UNL A   1      44.058  26.755  32.444  1.00  0.00     0.031 A 
ATOM     84  C   UNL A   1      46.050  25.580  33.120  1.00  0.00     0.131 A 
ATOM     85  C   UNL A   1      43.772  27.001  33.806  1.00  0.00     0.055 A 
ATOM     86  C   UNL A   1      45.752  25.805  34.464  1.00  0.00     0.041 A 
ATOM     87  F   UNL A   1      47.154  24.865  32.846  1.00  0.00    -0.206 F 
ATOM     88  C   UNL A   1      44.615  26.522  34.812  1.00  0.00     0.022 A 
BRANCH  85  89
ATOM     89  S   UNL A   1      42.305  27.969  34.299  1.00  0.00     0.124 S 
ATOM     90  O   UNL A   1      42.238  29.025  33.297  1.00  0.00    -0.237 OA
ATOM     91  O   UNL A   1      41.238  26.972  34.250  1.00  0.00    -0.237 OA
ATOM     92  O   UNL A   1      42.640  28.431  35.648  1.00  0.00    -0.744 OA
ENDBRANCH  85  89
ENDBRANCH  59  82
ENDBRANCH  33  34
ENDBRANCH  26  28
ENDBRANCH  25  26
ENDBRANCH  24  25
ENDBRANCH   1  24
TORSDOF 18
ENDMDL
MODEL 3
REMARK VINA RESULT:     -11.3      1.567      3.300
REMARK SMILES Cc1nsc(N(C)C(=O)[C@@H](C)NC(N)=O)c1C(=O)OCCOC(=O)c1ccc(-c2c3nc(c(-c4cc(S(=O)(=O)[O-])ccc4F)c4ccc([nH]4)c(-c4cc(S(=O)(=O)[O-])ccc4F)c4nc(c(-c5cc(S(=O)(=O)[O-])ccc5F)c5ccc2[nH]5)C=C4)C=C3)cc1
REMARK SMILES IDX 20 1 19 2 17 3 18 4 16 5 1 6 2 7 3 8 4 9 5 10 6 11 7 12 8 13
REMARK SMILES IDX 9 14 10 15 11 16 12 17 13 18 14 20 15 21 21 24 22 25 23 26
REMARK SMILES IDX 24 27 25 28 26 29 87 30 27 31 86 32 28 33 29 34 30 35 80 36
REMARK SMILES IDX 31 37 85 38 79 39 81 40 32 41 84 42 78 43 77 44 33 46 65 47
REMARK SMILES IDX 45 48 64 49 46 50 49 51 63 52 82 53 47 54 48 55 62 57 83 58
REMARK SMILES IDX 50 59 34 60 35 61 43 62 36 63 42 64 44 65 41 66 37 67 38 68
REMARK SMILES IDX 39 69 40 70 66 71 67 72 75 73 68 74 74 75 76 76 73 77 69 78
REMARK SMILES IDX 70 79 71 80 72 81 51 82 52 83 60 84 53 85 59 86 61 87 58 88
REMARK SMILES IDX 54 89 55 90 56 91 57 92
REMARK H PARENT 12 19 14 22 14 23 81 45 49 56
REMARK Flexibility Score: inf
ROOT
ATOM      1  C   UNL A   1      33.861  29.046  27.408  1.00  0.00     0.275 C 
ENDROOT
BRANCH   1   2
ATOM      2  O   UNL A   1      33.334  27.784  26.986  1.00  0.00    -0.458 OA
BRANCH   2   3
ATOM      3  C   UNL A   1      31.982  27.672  26.870  1.00  0.00     0.343 C 
ATOM      4  O   UNL A   1      31.193  27.803  27.805  1.00  0.00    -0.246 OA
BRANCH   3   5
ATOM      5  C   UNL A   1      31.598  27.236  25.538  1.00  0.00     0.117 A 
ATOM      6  C   UNL A   1      30.950  29.654  24.708  1.00  0.00     0.069 C 
ATOM      7  C   UNL A   1      31.167  28.188  24.523  1.00  0.00     0.068 A 
ATOM      8  N   UNL A   1      30.961  27.699  23.305  1.00  0.00    -0.195 NA
ATOM      9  S   UNL A   1      31.127  26.075  23.356  1.00  0.00    -0.017 S 
ATOM     10  C   UNL A   1      31.544  25.928  25.034  1.00  0.00     0.133 A 
BRANCH  10  11
ATOM     11  N   UNL A   1      31.691  24.588  25.533  1.00  0.00    -0.303 N 
ATOM     12  C   UNL A   1      30.620  23.976  26.331  1.00  0.00     0.154 C 
BRANCH  11  13
ATOM     13  C   UNL A   1      32.940  23.952  25.406  1.00  0.00     0.249 C 
ATOM     14  O   UNL A   1      33.902  24.220  26.133  1.00  0.00    -0.272 OA
BRANCH  13  15
ATOM     15  C   UNL A   1      33.179  22.814  24.359  1.00  0.00     0.170 C 
ATOM     16  C   UNL A   1      33.696  23.245  22.989  1.00  0.00     0.041 C 
BRANCH  15  17
ATOM     17  N   UNL A   1      33.920  21.669  24.888  1.00  0.00    -0.327 N 
ATOM     18  C   UNL A   1      33.517  20.389  24.662  1.00  0.00     0.312 C 
ATOM     19  H   UNL A   1      34.730  21.829  25.423  1.00  0.00     0.166 HD
ATOM     20  N   UNL A   1      34.341  19.469  25.215  1.00  0.00    -0.352 N 
ATOM     21  O   UNL A   1      32.538  20.043  24.019  1.00  0.00    -0.249 OA
ATOM     22  H   UNL A   1      35.127  19.760  25.731  1.00  0.00     0.161 HD
ATOM     23  H   UNL A   1      34.154  18.509  25.102  1.00  0.00     0.161 HD
ENDBRANCH  15  17
ENDBRANCH  13  15
ENDBRANCH  11  13
ENDBRANCH  10  11
ENDBRANCH   3   5
ENDBRANCH   2   3
ENDBRANCH   1   2
BRANCH   1  24
ATOM     24  C   UNL A   1      35.304  29.131  26.931  1.00  0.00     0.275 C 
BRANCH  24  25
ATOM     25  O   UNL A   1      36.002  30.141  27.650  1.00  0.00    -0.458 OA
BRANCH  25  26
ATOM     26  C   UNL A   1      36.534  29.793  28.844  1.00  0.00     0.338 C 
ATOM     27  O   UNL A   1      36.184  30.153  29.954  1.00  0.00    -0.246 OA
BRANCH  26  28
ATOM     28  C   UNL A   1      37.764  29.034  28.572  1.00  0.00     0.060 A 
ATOM     29  C   UNL A   1      38.166  28.058  29.490  1.00  0.00     0.016 A 
ATOM     30  C   UNL A   1      38.607  29.461  27.534  1.00  0.00     0.016 A 
ATOM     31  C   UNL A   1      39.482  27.632  29.466  1.00  0.00     0.010 A 
ATOM     32  C   UNL A   1      39.918  29.067  27.532  1.00  0.00     0.010 A 
ATOM     33  C   UNL A   1      40.353  28.210  28.537  1.00  0.00    -0.014 A 
BRANCH  33  34
ATOM     34  C   UNL A   1      41.756  27.860  28.555  1.00  0.00     0.031 A 
ATOM     35  C   UNL A   1      42.070  26.626  27.791  1.00  0.00     0.074 A 
ATOM     36  C   UNL A   1      42.673  28.711  29.057  1.00  0.00     0.049 A 
ATOM     37  N   UNL A   1      42.560  25.520  28.238  1.00  0.00    -0.248 NA
ATOM     38  C   UNL A   1      41.636  26.549  26.384  1.00  0.00     0.031 C 
ATOM     39  C   UNL A   1      42.491  30.082  29.546  1.00  0.00     0.029 A 
ATOM     40  N   UNL A   1      44.015  28.545  29.139  1.00  0.00    -0.354 N 
ATOM     41  C   UNL A   1      42.702  24.681  27.136  1.00  0.00     0.074 A 
ATOM     42  C   UNL A   1      41.959  25.295  26.072  1.00  0.00     0.031 C 
ATOM     43  C   UNL A   1      43.700  30.685  29.652  1.00  0.00     0.029 A 
ATOM     44  C   UNL A   1      44.740  29.707  29.377  1.00  0.00     0.049 A 
ATOM     45  H   UNL A   1      44.446  27.666  29.036  1.00  0.00     0.167 HD
ATOM     46  C   UNL A   1      43.589  23.648  27.145  1.00  0.00     0.034 A 
ATOM     47  C   UNL A   1      46.092  29.847  29.286  1.00  0.00     0.034 A 
ATOM     48  C   UNL A   1      43.966  23.313  28.500  1.00  0.00     0.049 A 
ATOM     49  C   UNL A   1      46.658  28.472  29.387  1.00  0.00     0.074 A 
ATOM     50  C   UNL A   1      43.261  22.864  29.601  1.00  0.00     0.029 A 
ATOM     51  N   UNL A   1      45.135  23.842  29.004  1.00  0.00    -0.354 N 
ATOM     52  N   UNL A   1      46.542  27.736  30.462  1.00  0.00    -0.248 NA
ATOM     53  C   UNL A   1      46.856  27.725  28.151  1.00  0.00     0.031 C 
ATOM     54  C   UNL A   1      43.774  23.626  30.693  1.00  0.00     0.029 A 
ATOM     55  C   UNL A   1      44.829  24.411  30.220  1.00  0.00     0.049 A 
ATOM     56  H   UNL A   1      46.021  23.817  28.575  1.00  0.00     0.167 HD
ATOM     57  C   UNL A   1      46.226  26.465  30.005  1.00  0.00     0.074 A 
ATOM     58  C   UNL A   1      46.508  26.502  28.568  1.00  0.00     0.031 C 
ATOM     59  C   UNL A   1      45.485  25.594  30.756  1.00  0.00     0.034 A 
BRANCH  46  60
ATOM     60  C   UNL A   1      44.357  23.152  25.941  1.00  0.00     0.023 A 
ATOM     61  C   UNL A   1      44.118  21.830  25.517  1.00  0.00     0.031 A 
ATOM     62  C   UNL A   1      45.483  23.784  25.365  1.00  0.00     0.131 A 
ATOM     63  C   UNL A   1      45.014  21.171  24.657  1.00  0.00     0.055 A 
ATOM     64  C   UNL A   1      46.339  23.144  24.464  1.00  0.00     0.041 A 
ATOM     65  F   UNL A   1      45.877  25.016  25.704  1.00  0.00    -0.206 F 
ATOM     66  C   UNL A   1      46.127  21.819  24.129  1.00  0.00     0.022 A 
BRANCH  63  67
ATOM     67  S   UNL A   1      44.794  19.395  24.378  1.00  0.00     0.124 S 
ATOM     68  O   UNL A   1      46.082  18.863  24.809  1.00  0.00    -0.237 OA
ATOM     69  O   UNL A   1      43.654  19.095  25.236  1.00  0.00    -0.237 OA
ATOM     70  O   UNL A   1      44.534  19.308  22.943  1.00  0.00    -0.744 OA
ENDBRANCH  63  67
ENDBRANCH  46  60
BRANCH  47  71
ATOM     71  C   UNL A   1      46.823  31.008  28.693  1.00  0.00     0.023 A 
ATOM     72  C   UNL A   1      46.296  31.832  27.673  1.00  0.00     0.031 A 
ATOM     73  C   UNL A   1      48.010  31.463  29.316  1.00  0.00     0.131 A 
ATOM     74  C   UNL A   1      46.958  33.035  27.311  1.00  0.00     0.055 A 
ATOM     75  C   UNL A   1      48.655  32.648  28.958  1.00  0.00     0.041 A 
ATOM     76  F   UNL A   1      48.542  30.803  30.356  1.00  0.00    -0.206 F 
ATOM     77  C   UNL A   1      48.127  33.445  27.956  1.00  0.00     0.022 A 
BRANCH  74  78
ATOM     78  S   UNL A   1      46.268  34.137  26.027  1.00  0.00     0.124 S 
ATOM     79  O   UNL A   1      47.458  34.525  25.279  1.00  0.00    -0.237 OA
ATOM     80  O   UNL A   1      45.323  33.266  25.339  1.00  0.00    -0.237 OA
ATOM     81  O   UNL A   1      45.651  35.218  26.798  1.00  0.00    -0.744 OA
ENDBRANCH  74  78
ENDBRANCH  47  71
BRANCH  59  82
ATOM     82  C   UNL A   1      45.149  25.974  32.192  1.00  0.00     0.023 A 
ATOM     83  C   UNL A   1      43.973  26.648  32.602  1.00  0.00     0.031 A 
ATOM     84  C   UNL A   1      46.005  25.498  33.199  1.00  0.00     0.131 A 
ATOM     85  C   UNL A   1      43.701  26.830  33.976  1.00  0.00     0.055 A 
ATOM     86  C   UNL A   1      45.721  25.659  34.556  1.00  0.00     0.041 A 
ATOM     87  F   UNL A   1      47.122  24.825  32.881  1.00  0.00    -0.206 F 
ATOM     88  C   UNL A   1      44.570  26.331  34.950  1.00  0.00     0.022 A 
BRANCH  85  89
ATOM     89  S   UNL A   1      42.217  27.737  34.531  1.00  0.00     0.124 S 
ATOM     90  O   UNL A   1      41.215  26.691  34.688  1.00  0.00    -0.237 OA
ATOM     91  O   UNL A   1      42.678  28.373  35.763  1.00  0.00    -0.237 OA
ATOM     92  O   UNL A   1      41.957  28.667  33.430  1.00  0.00    -0.744 OA
ENDBRANCH  85  89
ENDBRANCH  59  82
ENDBRANCH  33  34
ENDBRANCH  26  28
ENDBRANCH  25  26
ENDBRANCH  24  25
ENDBRANCH   1  24
TORSDOF 18
ENDMDL
