MODEL 1
REMARK VINA RESULT:     -10.9      0.000      0.000
REMARK SMILES Cc1ccc(Cl)cc1S(=O)(=O)N1CC[C@@H](C(=O)OCCOC(=O)c2ccc(-c3c4nc(c(-c5cc(S(=O)(=O)[O-])ccc5F)c5ccc([nH]5)c(-c5cc(S(=O)(=O)[O-])ccc5F)c5nc(c(-c6cc(S(=O)(=O)[O-])ccc6F)c6ccc3[nH]6)C=C5)C=C4)cc2)[C@@H]1C
REMARK SMILES IDX 20 1 19 2 18 3 16 4 17 5 15 6 12 7 13 8 87 9 14 10 88 11
REMARK SMILES IDX 9 12 10 13 11 14 8 15 1 16 2 17 3 18 4 19 7 20 5 21 6 22
REMARK SMILES IDX 21 23 22 24 23 25 24 26 25 27 86 28 26 29 85 30 27 31 28 32
REMARK SMILES IDX 29 33 79 34 30 35 84 36 78 37 80 38 31 39 83 40 77 41 76 42
REMARK SMILES IDX 32 44 64 45 44 46 63 47 45 48 48 49 62 50 81 51 46 52 47 53
REMARK SMILES IDX 61 55 82 56 49 57 33 58 34 59 42 60 35 61 41 62 43 63 40 64
REMARK SMILES IDX 36 65 37 66 38 67 39 68 65 69 66 70 74 71 67 72 73 73 75 74
REMARK SMILES IDX 72 75 68 76 69 77 70 78 71 79 50 80 51 81 59 82 52 83 58 84
REMARK SMILES IDX 60 85 57 86 53 87 54 88 55 89 56 90
REMARK H PARENT 80 43 48 54
REMARK Flexibility Score: inf
ROOT
ATOM      1  C   UNL A   1      32.692  33.541  27.606  1.00  0.00     0.275 C 
ENDROOT
BRANCH   1   2
ATOM      2  C   UNL A   1      33.276  34.910  27.961  1.00  0.00     0.274 C 
BRANCH   2   3
ATOM      3  O   UNL A   1      32.734  35.356  29.218  1.00  0.00    -0.462 OA
BRANCH   3   4
ATOM      4  C   UNL A   1      33.093  36.579  29.680  1.00  0.00     0.310 C 
ATOM      5  O   UNL A   1      33.638  37.442  29.000  1.00  0.00    -0.252 OA
BRANCH   4   6
ATOM      6  C   UNL A   1      32.627  36.816  31.109  1.00  0.00     0.118 C 
ATOM      7  N   UNL A   1      33.667  35.322  32.557  1.00  0.00    -0.194 NA
ATOM      8  C   UNL A   1      34.222  36.614  32.961  1.00  0.00     0.104 C 
ATOM      9  C   UNL A   1      32.373  35.532  31.890  1.00  0.00     0.084 C 
ATOM     10  C   UNL A   1      33.635  37.611  31.959  1.00  0.00     0.034 C 
ATOM     11  C   UNL A   1      31.263  35.776  32.922  1.00  0.00     0.027 C 
BRANCH   7  12
ATOM     12  S   UNL A   1      34.555  33.916  32.444  1.00  0.00     0.243 S 
ATOM     13  O   UNL A   1      34.185  33.339  31.168  1.00  0.00    -0.207 OA
ATOM     14  O   UNL A   1      34.369  33.162  33.670  1.00  0.00    -0.207 OA
BRANCH  12  15
ATOM     15  C   UNL A   1      36.335  34.230  32.332  1.00  0.00     0.087 A 
ATOM     16  C   UNL A   1      36.990  34.177  34.847  1.00  0.00     0.046 C 
ATOM     17  C   UNL A   1      37.255  34.368  33.390  1.00  0.00    -0.031 A 
ATOM     18  C   UNL A   1      38.622  34.580  33.087  1.00  0.00     0.006 A 
ATOM     19  C   UNL A   1      39.095  34.557  31.779  1.00  0.00     0.021 A 
ATOM     20  C   UNL A   1      36.838  34.196  31.010  1.00  0.00     0.042 A 
ATOM     21  C   UNL A   1      38.201  34.330  30.747  1.00  0.00     0.042 A 
ATOM     22  Cl  UNL A   1      38.791  34.165  29.139  1.00  0.00    -0.084 Cl
ENDBRANCH  12  15
ENDBRANCH   7  12
ENDBRANCH   4   6
ENDBRANCH   3   4
ENDBRANCH   2   3
ENDBRANCH   1   2
BRANCH   1  23
ATOM     23  O   UNL A   1      33.388  32.497  28.312  1.00  0.00    -0.458 OA
BRANCH  23  24
ATOM     24  C   UNL A   1      33.685  31.415  27.557  1.00  0.00     0.338 C 
ATOM     25  O   UNL A   1      33.058  30.974  26.609  1.00  0.00    -0.246 OA
BRANCH  24  26
ATOM     26  C   UNL A   1      35.014  30.914  27.917  1.00  0.00     0.060 A 
ATOM     27  C   UNL A   1      35.126  29.563  28.235  1.00  0.00     0.016 A 
ATOM     28  C   UNL A   1      36.088  31.777  28.102  1.00  0.00     0.016 A 
ATOM     29  C   UNL A   1      36.253  29.083  28.873  1.00  0.00     0.010 A 
ATOM     30  C   UNL A   1      37.274  31.266  28.636  1.00  0.00     0.010 A 
ATOM     31  C   UNL A   1      37.348  29.925  29.061  1.00  0.00    -0.014 A 
BRANCH  31  32
ATOM     32  C   UNL A   1      38.549  29.394  29.741  1.00  0.00     0.031 A 
ATOM     33  C   UNL A   1      38.888  29.883  31.119  1.00  0.00     0.074 A 
ATOM     34  C   UNL A   1      39.298  28.455  29.129  1.00  0.00     0.049 A 
ATOM     35  N   UNL A   1      39.974  29.695  31.816  1.00  0.00    -0.248 NA
ATOM     36  C   UNL A   1      37.871  30.706  31.797  1.00  0.00     0.031 C 
ATOM     37  C   UNL A   1      38.997  27.844  27.828  1.00  0.00     0.029 A 
ATOM     38  N   UNL A   1      40.461  27.842  29.514  1.00  0.00    -0.354 N 
ATOM     39  C   UNL A   1      39.801  30.423  32.988  1.00  0.00     0.074 A 
ATOM     40  C   UNL A   1      38.503  31.056  32.908  1.00  0.00     0.031 C 
ATOM     41  C   UNL A   1      39.938  26.935  27.538  1.00  0.00     0.029 A 
ATOM     42  C   UNL A   1      40.961  26.974  28.572  1.00  0.00     0.049 A 
ATOM     43  H   UNL A   1      40.895  28.008  30.382  1.00  0.00     0.167 HD
ATOM     44  C   UNL A   1      40.664  30.552  34.024  1.00  0.00     0.034 A 
ATOM     45  C   UNL A   1      42.144  26.333  28.520  1.00  0.00     0.034 A 
ATOM     46  C   UNL A   1      41.935  29.874  34.078  1.00  0.00     0.049 A 
ATOM     47  C   UNL A   1      43.114  26.558  29.652  1.00  0.00     0.074 A 
ATOM     48  C   UNL A   1      42.888  29.908  35.080  1.00  0.00     0.029 A 
ATOM     49  N   UNL A   1      42.430  29.036  33.086  1.00  0.00    -0.354 N 
ATOM     50  N   UNL A   1      42.963  27.284  30.737  1.00  0.00    -0.248 NA
ATOM     51  C   UNL A   1      44.415  25.887  29.550  1.00  0.00     0.031 C 
ATOM     52  C   UNL A   1      43.989  29.156  34.660  1.00  0.00     0.029 A 
ATOM     53  C   UNL A   1      43.690  28.578  33.435  1.00  0.00     0.049 A 
ATOM     54  H   UNL A   1      41.956  28.804  32.256  1.00  0.00     0.167 HD
ATOM     55  C   UNL A   1      44.137  27.125  31.464  1.00  0.00     0.074 A 
ATOM     56  C   UNL A   1      44.976  26.222  30.701  1.00  0.00     0.031 C 
ATOM     57  C   UNL A   1      44.497  27.672  32.653  1.00  0.00     0.034 A 
BRANCH  44  58
ATOM     58  C   UNL A   1      40.303  31.515  35.128  1.00  0.00     0.023 A 
ATOM     59  C   UNL A   1      39.372  31.199  36.132  1.00  0.00     0.031 A 
ATOM     60  C   UNL A   1      40.904  32.788  35.163  1.00  0.00     0.131 A 
ATOM     61  C   UNL A   1      39.035  32.161  37.098  1.00  0.00     0.055 A 
ATOM     62  C   UNL A   1      40.617  33.712  36.169  1.00  0.00     0.041 A 
ATOM     63  F   UNL A   1      41.777  33.157  34.213  1.00  0.00    -0.206 F 
ATOM     64  C   UNL A   1      39.670  33.405  37.139  1.00  0.00     0.022 A 
BRANCH  61  65
ATOM     65  S   UNL A   1      37.664  31.809  38.235  1.00  0.00     0.124 S 
ATOM     66  O   UNL A   1      38.303  32.006  39.535  1.00  0.00    -0.237 OA
ATOM     67  O   UNL A   1      36.672  32.807  37.852  1.00  0.00    -0.237 OA
ATOM     68  O   UNL A   1      37.310  30.426  37.925  1.00  0.00    -0.744 OA
ENDBRANCH  61  65
ENDBRANCH  44  58
BRANCH  45  69
ATOM     69  C   UNL A   1      42.514  25.490  27.345  1.00  0.00     0.023 A 
ATOM     70  C   UNL A   1      42.117  24.147  27.271  1.00  0.00     0.031 A 
ATOM     71  C   UNL A   1      43.334  25.989  26.315  1.00  0.00     0.131 A 
ATOM     72  C   UNL A   1      42.592  23.332  26.232  1.00  0.00     0.055 A 
ATOM     73  C   UNL A   1      43.744  25.193  25.243  1.00  0.00     0.041 A 
ATOM     74  F   UNL A   1      43.749  27.266  26.331  1.00  0.00    -0.206 F 
ATOM     75  C   UNL A   1      43.390  23.849  25.210  1.00  0.00     0.022 A 
BRANCH  72  76
ATOM     76  S   UNL A   1      42.262  21.551  26.316  1.00  0.00     0.124 S 
ATOM     77  O   UNL A   1      43.205  21.030  25.332  1.00  0.00    -0.237 OA
ATOM     78  O   UNL A   1      42.561  21.254  27.712  1.00  0.00    -0.237 OA
ATOM     79  O   UNL A   1      40.852  21.450  25.945  1.00  0.00    -0.744 OA
ENDBRANCH  72  76
ENDBRANCH  45  69
BRANCH  57  80
ATOM     80  C   UNL A   1      45.828  27.246  33.219  1.00  0.00     0.023 A 
ATOM     81  C   UNL A   1      46.988  28.018  33.043  1.00  0.00     0.031 A 
ATOM     82  C   UNL A   1      45.933  26.038  33.930  1.00  0.00     0.131 A 
ATOM     83  C   UNL A   1      48.218  27.542  33.517  1.00  0.00     0.055 A 
ATOM     84  C   UNL A   1      47.146  25.605  34.462  1.00  0.00     0.041 A 
ATOM     85  F   UNL A   1      44.854  25.261  34.123  1.00  0.00    -0.206 F 
ATOM     86  C   UNL A   1      48.301  26.350  34.243  1.00  0.00     0.022 A 
BRANCH  83  87
ATOM     87  S   UNL A   1      49.725  28.449  33.082  1.00  0.00     0.124 S 
ATOM     88  O   UNL A   1      50.576  27.388  32.553  1.00  0.00    -0.237 OA
ATOM     89  O   UNL A   1      49.236  29.418  32.106  1.00  0.00    -0.237 OA
ATOM     90  O   UNL A   1      50.162  29.019  34.355  1.00  0.00    -0.744 OA
ENDBRANCH  83  87
ENDBRANCH  57  80
ENDBRANCH  31  32
ENDBRANCH  24  26
ENDBRANCH  23  24
ENDBRANCH   1  23
TORSDOF 16
ENDMDL
MODEL 2
REMARK VINA RESULT:     -10.9      5.420      9.268
REMARK SMILES Cc1ccc(Cl)cc1S(=O)(=O)N1CC[C@@H](C(=O)OCCOC(=O)c2ccc(-c3c4nc(c(-c5cc(S(=O)(=O)[O-])ccc5F)c5ccc([nH]5)c(-c5cc(S(=O)(=O)[O-])ccc5F)c5nc(c(-c6cc(S(=O)(=O)[O-])ccc6F)c6ccc3[nH]6)C=C5)C=C4)cc2)[C@@H]1C
REMARK SMILES IDX 20 1 19 2 18 3 16 4 17 5 15 6 12 7 13 8 87 9 14 10 88 11
REMARK SMILES IDX 9 12 10 13 11 14 8 15 1 16 2 17 3 18 4 19 7 20 5 21 6 22
REMARK SMILES IDX 21 23 22 24 23 25 24 26 25 27 86 28 26 29 85 30 27 31 28 32
REMARK SMILES IDX 29 33 79 34 30 35 84 36 78 37 80 38 31 39 83 40 77 41 76 42
REMARK SMILES IDX 32 44 64 45 44 46 63 47 45 48 48 49 62 50 81 51 46 52 47 53
REMARK SMILES IDX 61 55 82 56 49 57 33 58 34 59 42 60 35 61 41 62 43 63 40 64
REMARK SMILES IDX 36 65 37 66 38 67 39 68 65 69 66 70 74 71 67 72 73 73 75 74
REMARK SMILES IDX 72 75 68 76 69 77 70 78 71 79 50 80 51 81 59 82 52 83 58 84
REMARK SMILES IDX 60 85 57 86 53 87 54 88 55 89 56 90
REMARK H PARENT 80 43 48 54
REMARK Flexibility Score: inf
ROOT
ATOM      1  C   UNL A   1      36.258  20.923  24.869  1.00  0.00     0.275 C 
ENDROOT
BRANCH   1   2
ATOM      2  C   UNL A   1      35.292  21.454  25.930  1.00  0.00     0.274 C 
BRANCH   2   3
ATOM      3  O   UNL A   1      33.936  21.305  25.468  1.00  0.00    -0.462 OA
BRANCH   3   4
ATOM      4  C   UNL A   1      33.101  22.369  25.561  1.00  0.00     0.310 C 
ATOM      5  O   UNL A   1      33.165  23.224  26.436  1.00  0.00    -0.252 OA
BRANCH   4   6
ATOM      6  C   UNL A   1      32.148  22.459  24.377  1.00  0.00     0.118 C 
ATOM      7  N   UNL A   1      32.727  24.249  23.009  1.00  0.00    -0.194 NA
ATOM      8  C   UNL A   1      33.007  23.086  22.167  1.00  0.00     0.104 C 
ATOM      9  C   UNL A   1      31.736  23.885  24.032  1.00  0.00     0.084 C 
ATOM     10  C   UNL A   1      32.734  21.884  23.074  1.00  0.00     0.034 C 
ATOM     11  C   UNL A   1      30.320  23.875  23.438  1.00  0.00     0.027 C 
BRANCH   7  12
ATOM     12  S   UNL A   1      33.701  25.599  23.095  1.00  0.00     0.243 S 
ATOM     13  O   UNL A   1      33.904  26.006  21.720  1.00  0.00    -0.207 OA
ATOM     14  O   UNL A   1      34.837  25.285  23.942  1.00  0.00    -0.207 OA
BRANCH  12  15
ATOM     15  C   UNL A   1      32.873  26.998  23.893  1.00  0.00     0.087 A 
ATOM     16  C   UNL A   1      30.828  27.305  22.317  1.00  0.00     0.046 C 
ATOM     17  C   UNL A   1      31.709  27.668  23.467  1.00  0.00    -0.031 A 
ATOM     18  C   UNL A   1      31.199  28.727  24.257  1.00  0.00     0.006 A 
ATOM     19  C   UNL A   1      31.757  29.058  25.487  1.00  0.00     0.021 A 
ATOM     20  C   UNL A   1      33.417  27.341  25.153  1.00  0.00     0.042 A 
ATOM     21  C   UNL A   1      32.846  28.336  25.945  1.00  0.00     0.042 A 
ATOM     22  Cl  UNL A   1      33.461  28.645  27.522  1.00  0.00    -0.084 Cl
ENDBRANCH  12  15
ENDBRANCH   7  12
ENDBRANCH   4   6
ENDBRANCH   3   4
ENDBRANCH   2   3
ENDBRANCH   1   2
BRANCH   1  23
ATOM     23  O   UNL A   1      37.467  21.704  24.851  1.00  0.00    -0.458 OA
BRANCH  23  24
ATOM     24  C   UNL A   1      38.455  21.221  25.639  1.00  0.00     0.338 C 
ATOM     25  O   UNL A   1      38.895  20.086  25.668  1.00  0.00    -0.246 OA
BRANCH  24  26
ATOM     26  C   UNL A   1      39.089  22.326  26.364  1.00  0.00     0.060 A 
ATOM     27  C   UNL A   1      38.621  23.613  26.110  1.00  0.00     0.016 A 
ATOM     28  C   UNL A   1      40.221  22.125  27.144  1.00  0.00     0.016 A 
ATOM     29  C   UNL A   1      39.351  24.716  26.504  1.00  0.00     0.010 A 
ATOM     30  C   UNL A   1      40.895  23.242  27.647  1.00  0.00     0.010 A 
ATOM     31  C   UNL A   1      40.486  24.543  27.296  1.00  0.00    -0.014 A 
BRANCH  31  32
ATOM     32  C   UNL A   1      41.253  25.735  27.714  1.00  0.00     0.031 A 
ATOM     33  C   UNL A   1      40.579  26.785  28.549  1.00  0.00     0.074 A 
ATOM     34  C   UNL A   1      42.552  25.843  27.370  1.00  0.00     0.049 A 
ATOM     35  N   UNL A   1      40.997  27.979  28.868  1.00  0.00    -0.248 NA
ATOM     36  C   UNL A   1      39.248  26.449  29.085  1.00  0.00     0.031 C 
ATOM     37  C   UNL A   1      43.325  24.830  26.642  1.00  0.00     0.029 A 
ATOM     38  N   UNL A   1      43.458  26.848  27.589  1.00  0.00    -0.354 N 
ATOM     39  C   UNL A   1      39.961  28.562  29.589  1.00  0.00     0.074 A 
ATOM     40  C   UNL A   1      38.894  27.589  29.661  1.00  0.00     0.031 C 
ATOM     41  C   UNL A   1      44.586  25.257  26.494  1.00  0.00     0.029 A 
ATOM     42  C   UNL A   1      44.687  26.611  27.016  1.00  0.00     0.049 A 
ATOM     43  H   UNL A   1      43.249  27.659  28.105  1.00  0.00     0.167 HD
ATOM     44  C   UNL A   1      39.916  29.805  30.125  1.00  0.00     0.034 A 
ATOM     45  C   UNL A   1      45.751  27.424  26.873  1.00  0.00     0.034 A 
ATOM     46  C   UNL A   1      41.019  30.731  30.059  1.00  0.00     0.049 A 
ATOM     47  C   UNL A   1      45.640  28.827  27.413  1.00  0.00     0.074 A 
ATOM     48  C   UNL A   1      41.103  32.010  30.579  1.00  0.00     0.029 A 
ATOM     49  N   UNL A   1      42.233  30.475  29.433  1.00  0.00    -0.354 N 
ATOM     50  N   UNL A   1      44.640  29.388  28.056  1.00  0.00    -0.248 NA
ATOM     51  C   UNL A   1      46.794  29.708  27.204  1.00  0.00     0.031 C 
ATOM     52  C   UNL A   1      42.334  32.554  30.202  1.00  0.00     0.029 A 
ATOM     53  C   UNL A   1      43.058  31.585  29.522  1.00  0.00     0.049 A 
ATOM     54  H   UNL A   1      42.472  29.629  28.990  1.00  0.00     0.167 HD
ATOM     55  C   UNL A   1      45.062  30.677  28.359  1.00  0.00     0.074 A 
ATOM     56  C   UNL A   1      46.411  30.801  27.844  1.00  0.00     0.031 C 
ATOM     57  C   UNL A   1      44.401  31.673  29.002  1.00  0.00     0.034 A 
BRANCH  44  58
ATOM     58  C   UNL A   1      38.618  30.258  30.747  1.00  0.00     0.023 A 
ATOM     59  C   UNL A   1      37.625  30.931  30.017  1.00  0.00     0.031 A 
ATOM     60  C   UNL A   1      38.382  30.015  32.114  1.00  0.00     0.131 A 
ATOM     61  C   UNL A   1      36.464  31.380  30.668  1.00  0.00     0.055 A 
ATOM     62  C   UNL A   1      37.194  30.400  32.737  1.00  0.00     0.041 A 
ATOM     63  F   UNL A   1      39.308  29.404  32.869  1.00  0.00    -0.206 F 
ATOM     64  C   UNL A   1      36.230  31.096  32.017  1.00  0.00     0.022 A 
BRANCH  61  65
ATOM     65  S   UNL A   1      35.312  32.446  29.757  1.00  0.00     0.124 S 
ATOM     66  O   UNL A   1      34.325  32.761  30.787  1.00  0.00    -0.237 OA
ATOM     67  O   UNL A   1      36.169  33.548  29.334  1.00  0.00    -0.237 OA
ATOM     68  O   UNL A   1      34.827  31.584  28.681  1.00  0.00    -0.744 OA
ENDBRANCH  61  65
ENDBRANCH  44  58
BRANCH  45  69
ATOM     69  C   UNL A   1      46.969  26.976  26.136  1.00  0.00     0.023 A 
ATOM     70  C   UNL A   1      47.997  26.289  26.799  1.00  0.00     0.031 A 
ATOM     71  C   UNL A   1      47.162  27.295  24.778  1.00  0.00     0.131 A 
ATOM     72  C   UNL A   1      49.194  26.002  26.126  1.00  0.00     0.055 A 
ATOM     73  C   UNL A   1      48.326  26.941  24.093  1.00  0.00     0.041 A 
ATOM     74  F   UNL A   1      46.216  27.954  24.091  1.00  0.00    -0.206 F 
ATOM     75  C   UNL A   1      49.361  26.310  24.774  1.00  0.00     0.022 A 
BRANCH  72  76
ATOM     76  S   UNL A   1      50.585  25.344  27.086  1.00  0.00     0.124 S 
ATOM     77  O   UNL A   1      50.956  26.497  27.897  1.00  0.00    -0.237 OA
ATOM     78  O   UNL A   1      49.961  24.233  27.796  1.00  0.00    -0.237 OA
ATOM     79  O   UNL A   1      51.554  24.962  26.060  1.00  0.00    -0.744 OA
ENDBRANCH  72  76
ENDBRANCH  45  69
BRANCH  57  80
ATOM     80  C   UNL A   1      45.165  32.951  29.236  1.00  0.00     0.023 A 
ATOM     81  C   UNL A   1      45.190  33.984  28.284  1.00  0.00     0.031 A 
ATOM     82  C   UNL A   1      45.892  33.126  30.427  1.00  0.00     0.131 A 
ATOM     83  C   UNL A   1      45.980  35.119  28.511  1.00  0.00     0.055 A 
ATOM     84  C   UNL A   1      46.618  34.288  30.678  1.00  0.00     0.041 A 
ATOM     85  F   UNL A   1      45.905  32.167  31.368  1.00  0.00    -0.206 F 
ATOM     86  C   UNL A   1      46.677  35.287  29.711  1.00  0.00     0.022 A 
BRANCH  83  87
ATOM     87  S   UNL A   1      46.166  36.327  27.173  1.00  0.00     0.124 S 
ATOM     88  O   UNL A   1      46.047  35.485  25.986  1.00  0.00    -0.237 OA
ATOM     89  O   UNL A   1      45.055  37.240  27.418  1.00  0.00    -0.237 OA
ATOM     90  O   UNL A   1      47.494  36.892  27.404  1.00  0.00    -0.744 OA
ENDBRANCH  83  87
ENDBRANCH  57  80
ENDBRANCH  31  32
ENDBRANCH  24  26
ENDBRANCH  23  24
ENDBRANCH   1  23
TORSDOF 16
ENDMDL
MODEL 3
REMARK VINA RESULT:     -10.8      5.566      9.168
REMARK SMILES Cc1ccc(Cl)cc1S(=O)(=O)N1CC[C@@H](C(=O)OCCOC(=O)c2ccc(-c3c4nc(c(-c5cc(S(=O)(=O)[O-])ccc5F)c5ccc([nH]5)c(-c5cc(S(=O)(=O)[O-])ccc5F)c5nc(c(-c6cc(S(=O)(=O)[O-])ccc6F)c6ccc3[nH]6)C=C5)C=C4)cc2)[C@@H]1C
REMARK SMILES IDX 20 1 19 2 18 3 16 4 17 5 15 6 12 7 13 8 87 9 14 10 88 11
REMARK SMILES IDX 9 12 10 13 11 14 8 15 1 16 2 17 3 18 4 19 7 20 5 21 6 22
REMARK SMILES IDX 21 23 22 24 23 25 24 26 25 27 86 28 26 29 85 30 27 31 28 32
REMARK SMILES IDX 29 33 79 34 30 35 84 36 78 37 80 38 31 39 83 40 77 41 76 42
REMARK SMILES IDX 32 44 64 45 44 46 63 47 45 48 48 49 62 50 81 51 46 52 47 53
REMARK SMILES IDX 61 55 82 56 49 57 33 58 34 59 42 60 35 61 41 62 43 63 40 64
REMARK SMILES IDX 36 65 37 66 38 67 39 68 65 69 66 70 74 71 67 72 73 73 75 74
REMARK SMILES IDX 72 75 68 76 69 77 70 78 71 79 50 80 51 81 59 82 52 83 58 84
REMARK SMILES IDX 60 85 57 86 53 87 54 88 55 89 56 90
REMARK H PARENT 80 43 48 54
REMARK Flexibility Score: inf
ROOT
ATOM      1  C   UNL A   1      36.402  20.838  25.253  1.00  0.00     0.275 C 
ENDROOT
BRANCH   1   2
ATOM      2  C   UNL A   1      35.007  21.438  25.440  1.00  0.00     0.274 C 
BRANCH   2   3
ATOM      3  O   UNL A   1      34.217  21.201  24.258  1.00  0.00    -0.462 OA
BRANCH   3   4
ATOM      4  C   UNL A   1      32.869  21.314  24.348  1.00  0.00     0.310 C 
ATOM      5  O   UNL A   1      32.180  20.723  25.172  1.00  0.00    -0.252 OA
BRANCH   4   6
ATOM      6  C   UNL A   1      32.312  22.361  23.394  1.00  0.00     0.118 C 
ATOM      7  N   UNL A   1      32.515  24.486  24.317  1.00  0.00    -0.194 NA
ATOM      8  C   UNL A   1      33.432  24.531  23.178  1.00  0.00     0.104 C 
ATOM      9  C   UNL A   1      31.499  23.448  24.086  1.00  0.00     0.084 C 
ATOM     10  C   UNL A   1      33.400  23.112  22.606  1.00  0.00     0.034 C 
ATOM     11  C   UNL A   1      30.411  23.955  23.129  1.00  0.00     0.027 C 
BRANCH   7  12
ATOM     12  S   UNL A   1      32.841  25.153  25.809  1.00  0.00     0.243 S 
ATOM     13  O   UNL A   1      34.196  24.741  26.117  1.00  0.00    -0.207 OA
ATOM     14  O   UNL A   1      31.751  24.816  26.705  1.00  0.00    -0.207 OA
BRANCH  12  15
ATOM     15  C   UNL A   1      32.890  26.963  25.761  1.00  0.00     0.087 A 
ATOM     16  C   UNL A   1      30.610  27.472  24.619  1.00  0.00     0.046 C 
ATOM     17  C   UNL A   1      31.936  27.836  25.203  1.00  0.00    -0.031 A 
ATOM     18  C   UNL A   1      32.146  29.234  25.299  1.00  0.00     0.006 A 
ATOM     19  C   UNL A   1      33.214  29.766  26.012  1.00  0.00     0.021 A 
ATOM     20  C   UNL A   1      33.961  27.525  26.494  1.00  0.00     0.042 A 
ATOM     21  C   UNL A   1      34.100  28.905  26.637  1.00  0.00     0.042 A 
ATOM     22  Cl  UNL A   1      35.346  29.550  27.633  1.00  0.00    -0.084 Cl
ENDBRANCH  12  15
ENDBRANCH   7  12
ENDBRANCH   4   6
ENDBRANCH   3   4
ENDBRANCH   2   3
ENDBRANCH   1   2
BRANCH   1  23
ATOM     23  O   UNL A   1      37.402  21.872  25.269  1.00  0.00    -0.458 OA
BRANCH  23  24
ATOM     24  C   UNL A   1      38.586  21.496  25.804  1.00  0.00     0.338 C 
ATOM     25  O   UNL A   1      39.176  20.443  25.639  1.00  0.00    -0.246 OA
BRANCH  24  26
ATOM     26  C   UNL A   1      39.194  22.633  26.500  1.00  0.00     0.060 A 
ATOM     27  C   UNL A   1      38.743  23.907  26.165  1.00  0.00     0.016 A 
ATOM     28  C   UNL A   1      40.294  22.468  27.334  1.00  0.00     0.016 A 
ATOM     29  C   UNL A   1      39.461  25.026  26.535  1.00  0.00     0.010 A 
ATOM     30  C   UNL A   1      40.951  23.607  27.809  1.00  0.00     0.010 A 
ATOM     31  C   UNL A   1      40.562  24.890  27.380  1.00  0.00    -0.014 A 
BRANCH  31  32
ATOM     32  C   UNL A   1      41.317  26.100  27.770  1.00  0.00     0.031 A 
ATOM     33  C   UNL A   1      40.625  27.172  28.561  1.00  0.00     0.074 A 
ATOM     34  C   UNL A   1      42.619  26.205  27.441  1.00  0.00     0.049 A 
ATOM     35  N   UNL A   1      41.032  28.377  28.848  1.00  0.00    -0.248 NA
ATOM     36  C   UNL A   1      39.289  26.845  29.089  1.00  0.00     0.031 C 
ATOM     37  C   UNL A   1      43.408  25.173  26.756  1.00  0.00     0.029 A 
ATOM     38  N   UNL A   1      43.517  27.221  27.640  1.00  0.00    -0.354 N 
ATOM     39  C   UNL A   1      39.982  28.977  29.536  1.00  0.00     0.074 A 
ATOM     40  C   UNL A   1      38.919  28.000  29.624  1.00  0.00     0.031 C 
ATOM     41  C   UNL A   1      44.669  25.603  26.612  1.00  0.00     0.029 A 
ATOM     42  C   UNL A   1      44.754  26.974  27.092  1.00  0.00     0.049 A 
ATOM     43  H   UNL A   1      43.296  28.047  28.127  1.00  0.00     0.167 HD
ATOM     44  C   UNL A   1      39.922  30.236  30.031  1.00  0.00     0.034 A 
ATOM     45  C   UNL A   1      45.816  27.788  26.938  1.00  0.00     0.034 A 
ATOM     46  C   UNL A   1      41.021  31.166  29.951  1.00  0.00     0.049 A 
ATOM     47  C   UNL A   1      45.689  29.207  27.432  1.00  0.00     0.074 A 
ATOM     48  C   UNL A   1      41.090  32.461  30.431  1.00  0.00     0.029 A 
ATOM     49  N   UNL A   1      42.245  30.898  29.350  1.00  0.00    -0.354 N 
ATOM     50  N   UNL A   1      44.678  29.782  28.042  1.00  0.00    -0.248 NA
ATOM     51  C   UNL A   1      46.842  30.087  27.210  1.00  0.00     0.031 C 
ATOM     52  C   UNL A   1      42.324  33.000  30.054  1.00  0.00     0.029 A 
ATOM     53  C   UNL A   1      43.062  32.015  29.416  1.00  0.00     0.049 A 
ATOM     54  H   UNL A   1      42.495  30.040  28.938  1.00  0.00     0.167 HD
ATOM     55  C   UNL A   1      45.088  31.083  28.310  1.00  0.00     0.074 A 
ATOM     56  C   UNL A   1      46.443  31.199  27.810  1.00  0.00     0.031 C 
ATOM     57  C   UNL A   1      44.412  32.095  28.912  1.00  0.00     0.034 A 
BRANCH  44  58
ATOM     58  C   UNL A   1      38.614  30.701  30.620  1.00  0.00     0.023 A 
ATOM     59  C   UNL A   1      37.678  31.449  29.887  1.00  0.00     0.031 A 
ATOM     60  C   UNL A   1      38.306  30.391  31.959  1.00  0.00     0.131 A 
ATOM     61  C   UNL A   1      36.504  31.903  30.511  1.00  0.00     0.055 A 
ATOM     62  C   UNL A   1      37.105  30.783  32.550  1.00  0.00     0.041 A 
ATOM     63  F   UNL A   1      39.175  29.705  32.718  1.00  0.00    -0.206 F 
ATOM     64  C   UNL A   1      36.200  31.553  31.829  1.00  0.00     0.022 A 
BRANCH  61  65
ATOM     65  S   UNL A   1      35.433  33.060  29.612  1.00  0.00     0.124 S 
ATOM     66  O   UNL A   1      36.229  33.331  28.418  1.00  0.00    -0.237 OA
ATOM     67  O   UNL A   1      34.221  32.274  29.409  1.00  0.00    -0.237 OA
ATOM     68  O   UNL A   1      35.298  34.187  30.533  1.00  0.00    -0.744 OA
ENDBRANCH  61  65
ENDBRANCH  44  58
BRANCH  45  69
ATOM     69  C   UNL A   1      47.047  27.324  26.233  1.00  0.00     0.023 A 
ATOM     70  C   UNL A   1      47.299  27.703  24.906  1.00  0.00     0.031 A 
ATOM     71  C   UNL A   1      47.951  26.435  26.844  1.00  0.00     0.131 A 
ATOM     72  C   UNL A   1      48.385  27.144  24.213  1.00  0.00     0.055 A 
ATOM     73  C   UNL A   1      49.071  25.940  26.174  1.00  0.00     0.041 A 
ATOM     74  F   UNL A   1      47.761  26.034  28.112  1.00  0.00    -0.206 F 
ATOM     75  C   UNL A   1      49.281  26.278  24.842  1.00  0.00     0.022 A 
BRANCH  72  76
ATOM     76  S   UNL A   1      48.526  27.463  22.433  1.00  0.00     0.124 S 
ATOM     77  O   UNL A   1      49.722  28.296  22.377  1.00  0.00    -0.237 OA
ATOM     78  O   UNL A   1      48.656  26.114  21.895  1.00  0.00    -0.237 OA
ATOM     79  O   UNL A   1      47.274  28.145  22.111  1.00  0.00    -0.744 OA
ENDBRANCH  72  76
ENDBRANCH  45  69
BRANCH  57  80
ATOM     80  C   UNL A   1      45.166  33.384  29.116  1.00  0.00     0.023 A 
ATOM     81  C   UNL A   1      45.226  34.372  28.118  1.00  0.00     0.031 A 
ATOM     82  C   UNL A   1      45.847  33.615  30.324  1.00  0.00     0.131 A 
ATOM     83  C   UNL A   1      46.006  35.518  28.323  1.00  0.00     0.055 A 
ATOM     84  C   UNL A   1      46.561  34.790  30.548  1.00  0.00     0.041 A 
ATOM     85  F   UNL A   1      45.824  32.701  31.308  1.00  0.00    -0.206 F 
ATOM     86  C   UNL A   1      46.657  35.743  29.539  1.00  0.00     0.022 A 
BRANCH  83  87
ATOM     87  S   UNL A   1      46.242  36.664  26.938  1.00  0.00     0.124 S 
ATOM     88  O   UNL A   1      47.463  37.362  27.327  1.00  0.00    -0.237 OA
ATOM     89  O   UNL A   1      46.363  35.758  25.800  1.00  0.00    -0.237 OA
ATOM     90  O   UNL A   1      45.029  37.477  26.955  1.00  0.00    -0.744 OA
ENDBRANCH  83  87
ENDBRANCH  57  80
ENDBRANCH  31  32
ENDBRANCH  24  26
ENDBRANCH  23  24
ENDBRANCH   1  23
TORSDOF 16
ENDMDL
