MODEL 1
REMARK VINA RESULT:     -11.7      0.000      0.000
REMARK SMILES CC[C@H](C)[C@H](C(=O)OCCOC(=O)c1ccc(-c2c3nc(c(-c4cc(S(=O)(=O)[O-])ccc4F)c4ccc([nH]4)c(-c4cc(S(=O)(=O)[O-])ccc4F)c4nc(c(-c5cc(S(=O)(=O)[O-])ccc5F)c5ccc2[nH]5)C=C4)C=C3)cc1)N1C(=O)/C(=C/c2ccc(C)o2)SC1=S
REMARK SMILES IDX 10 1 9 2 8 3 6 4 7 5 5 6 3 7 4 8 2 9 1 10 77 11 78 12 89 13
REMARK SMILES IDX 79 14 80 15 88 16 90 17 81 18 82 19 83 20 87 21 84 22 85 23
REMARK SMILES IDX 86 24 11 25 12 26 13 27 14 28 15 29 76 30 16 31 75 32 17 33
REMARK SMILES IDX 18 34 19 35 69 36 20 37 74 38 68 39 70 40 21 41 73 42 67 43
REMARK SMILES IDX 66 44 22 46 54 47 34 48 53 49 35 50 38 51 52 52 71 53 36 54
REMARK SMILES IDX 37 55 51 57 72 58 39 59 23 60 24 61 32 62 25 63 31 64 33 65
REMARK SMILES IDX 30 66 26 67 27 68 28 69 29 70 55 71 56 72 64 73 57 74 63 75
REMARK SMILES IDX 65 76 62 77 58 78 59 79 60 80 61 81 40 82 41 83 49 84 42 85
REMARK SMILES IDX 48 86 50 87 47 88 43 89 44 90 45 91 46 92
REMARK H PARENT 70 45 38 56
REMARK Flexibility Score: inf
ROOT
ATOM      1  C   UNL A   1      31.780  29.688  26.881  1.00  0.00     0.275 C 
ENDROOT
BRANCH   1   2
ATOM      2  C   UNL A   1      31.822  28.387  27.693  1.00  0.00     0.274 C 
BRANCH   2   3
ATOM      3  O   UNL A   1      31.174  27.283  27.022  1.00  0.00    -0.461 OA
BRANCH   3   4
ATOM      4  C   UNL A   1      31.912  26.620  26.084  1.00  0.00     0.329 C 
ATOM      5  O   UNL A   1      33.127  26.483  26.176  1.00  0.00    -0.250 OA
BRANCH   4   6
ATOM      6  C   UNL A   1      31.017  25.909  25.017  1.00  0.00     0.204 C 
BRANCH   6   7
ATOM      7  C   UNL A   1      30.312  26.715  23.867  1.00  0.00     0.020 C 
ATOM      8  C   UNL A   1      28.793  26.528  23.829  1.00  0.00     0.010 C 
BRANCH   7   9
ATOM      9  C   UNL A   1      30.623  28.227  23.732  1.00  0.00     0.002 C 
ATOM     10  C   UNL A   1      29.997  28.883  22.505  1.00  0.00     0.004 C 
ENDBRANCH   7   9
ENDBRANCH   6   7
BRANCH   6  11
ATOM     11  N   UNL A   1      31.684  24.657  24.566  1.00  0.00    -0.278 N 
ATOM     12  C   UNL A   1      31.397  23.464  25.215  1.00  0.00     0.267 C 
ATOM     13  C   UNL A   1      32.648  24.587  23.576  1.00  0.00     0.149 C 
ATOM     14  O   UNL A   1      30.697  23.336  26.213  1.00  0.00    -0.268 OA
ATOM     15  C   UNL A   1      32.117  22.331  24.579  1.00  0.00     0.084 C 
ATOM     16  S   UNL A   1      33.141  22.917  23.338  1.00  0.00    -0.054 SA
ATOM     17  S   UNL A   1      33.340  25.836  22.712  1.00  0.00    -0.052 S 
ATOM     18  C   UNL A   1      31.887  21.080  24.991  1.00  0.00     0.068 C 
BRANCH  18  19
ATOM     19  C   UNL A   1      32.505  19.906  24.483  1.00  0.00     0.128 A 
ATOM     20  C   UNL A   1      32.110  18.994  23.511  1.00  0.00     0.050 A 
ATOM     21  O   UNL A   1      33.753  19.522  24.922  1.00  0.00    -0.462 OA
ATOM     22  C   UNL A   1      33.121  18.013  23.392  1.00  0.00     0.046 A 
ATOM     23  C   UNL A   1      34.099  18.375  24.285  1.00  0.00     0.101 A 
ATOM     24  C   UNL A   1      35.378  17.753  24.674  1.00  0.00     0.087 C 
ENDBRANCH  18  19
ENDBRANCH   6  11
ENDBRANCH   4   6
ENDBRANCH   3   4
ENDBRANCH   2   3
ENDBRANCH   1   2
BRANCH   1  25
ATOM     25  O   UNL A   1      33.090  30.140  26.494  1.00  0.00    -0.458 OA
BRANCH  25  26
ATOM     26  C   UNL A   1      33.529  31.229  27.169  1.00  0.00     0.338 C 
ATOM     27  O   UNL A   1      32.869  32.213  27.464  1.00  0.00    -0.246 OA
BRANCH  26  28
ATOM     28  C   UNL A   1      34.882  30.989  27.702  1.00  0.00     0.060 A 
ATOM     29  C   UNL A   1      35.186  29.670  28.034  1.00  0.00     0.016 A 
ATOM     30  C   UNL A   1      35.803  32.004  27.955  1.00  0.00     0.016 A 
ATOM     31  C   UNL A   1      36.391  29.346  28.639  1.00  0.00     0.010 A 
ATOM     32  C   UNL A   1      37.028  31.678  28.558  1.00  0.00     0.010 A 
ATOM     33  C   UNL A   1      37.325  30.347  28.915  1.00  0.00    -0.014 A 
BRANCH  33  34
ATOM     34  C   UNL A   1      38.561  29.988  29.656  1.00  0.00     0.031 A 
ATOM     35  C   UNL A   1      39.540  29.030  29.039  1.00  0.00     0.074 A 
ATOM     36  C   UNL A   1      38.842  30.579  30.834  1.00  0.00     0.049 A 
ATOM     37  N   UNL A   1      40.622  28.504  29.551  1.00  0.00    -0.248 NA
ATOM     38  C   UNL A   1      39.258  28.610  27.658  1.00  0.00     0.031 C 
ATOM     39  C   UNL A   1      38.020  31.603  31.482  1.00  0.00     0.029 A 
ATOM     40  N   UNL A   1      39.902  30.414  31.690  1.00  0.00    -0.354 N 
ATOM     41  C   UNL A   1      41.139  27.668  28.567  1.00  0.00     0.074 A 
ATOM     42  C   UNL A   1      40.239  27.748  27.435  1.00  0.00     0.031 C 
ATOM     43  C   UNL A   1      38.610  31.978  32.629  1.00  0.00     0.029 A 
ATOM     44  C   UNL A   1      39.811  31.173  32.834  1.00  0.00     0.049 A 
ATOM     45  H   UNL A   1      40.656  29.809  31.503  1.00  0.00     0.167 HD
ATOM     46  C   UNL A   1      42.258  26.903  28.610  1.00  0.00     0.034 A 
ATOM     47  C   UNL A   1      40.584  31.186  33.940  1.00  0.00     0.034 A 
ATOM     48  C   UNL A   1      43.151  26.852  29.744  1.00  0.00     0.049 A 
ATOM     49  C   UNL A   1      41.771  30.257  34.002  1.00  0.00     0.074 A 
ATOM     50  C   UNL A   1      44.303  26.103  29.904  1.00  0.00     0.029 A 
ATOM     51  N   UNL A   1      42.989  27.584  30.915  1.00  0.00    -0.354 N 
ATOM     52  N   UNL A   1      42.212  29.417  33.095  1.00  0.00    -0.248 NA
ATOM     53  C   UNL A   1      42.558  30.272  35.241  1.00  0.00     0.031 C 
ATOM     54  C   UNL A   1      44.804  26.335  31.191  1.00  0.00     0.029 A 
ATOM     55  C   UNL A   1      44.004  27.283  31.811  1.00  0.00     0.049 A 
ATOM     56  H   UNL A   1      42.259  28.223  31.083  1.00  0.00     0.167 HD
ATOM     57  C   UNL A   1      43.342  28.821  33.647  1.00  0.00     0.074 A 
ATOM     58  C   UNL A   1      43.522  29.409  34.958  1.00  0.00     0.031 C 
ATOM     59  C   UNL A   1      44.160  27.873  33.119  1.00  0.00     0.034 A 
BRANCH  46  60
ATOM     60  C   UNL A   1      42.528  26.007  27.425  1.00  0.00     0.023 A 
ATOM     61  C   UNL A   1      42.043  24.689  27.355  1.00  0.00     0.031 A 
ATOM     62  C   UNL A   1      43.331  26.470  26.365  1.00  0.00     0.131 A 
ATOM     63  C   UNL A   1      42.424  23.860  26.288  1.00  0.00     0.055 A 
ATOM     64  C   UNL A   1      43.642  25.665  25.269  1.00  0.00     0.041 A 
ATOM     65  F   UNL A   1      43.841  27.712  26.388  1.00  0.00    -0.206 F 
ATOM     66  C   UNL A   1      43.201  24.346  25.233  1.00  0.00     0.022 A 
BRANCH  63  67
ATOM     67  S   UNL A   1      42.012  22.094  26.367  1.00  0.00     0.124 S 
ATOM     68  O   UNL A   1      42.770  21.563  25.237  1.00  0.00    -0.237 OA
ATOM     69  O   UNL A   1      42.491  21.718  27.693  1.00  0.00    -0.237 OA
ATOM     70  O   UNL A   1      40.560  22.072  26.199  1.00  0.00    -0.744 OA
ENDBRANCH  63  67
ENDBRANCH  46  60
BRANCH  47  71
ATOM     71  C   UNL A   1      40.220  32.038  35.110  1.00  0.00     0.023 A 
ATOM     72  C   UNL A   1      39.286  31.613  36.068  1.00  0.00     0.031 A 
ATOM     73  C   UNL A   1      40.770  33.326  35.254  1.00  0.00     0.131 A 
ATOM     74  C   UNL A   1      38.908  32.478  37.110  1.00  0.00     0.055 A 
ATOM     75  C   UNL A   1      40.434  34.159  36.322  1.00  0.00     0.041 A 
ATOM     76  F   UNL A   1      41.654  33.793  34.356  1.00  0.00    -0.206 F 
ATOM     77  C   UNL A   1      39.492  33.739  37.253  1.00  0.00     0.022 A 
BRANCH  74  78
ATOM     78  S   UNL A   1      37.592  31.958  38.251  1.00  0.00     0.124 S 
ATOM     79  O   UNL A   1      37.320  30.601  37.792  1.00  0.00    -0.237 OA
ATOM     80  O   UNL A   1      38.243  32.072  39.552  1.00  0.00    -0.237 OA
ATOM     81  O   UNL A   1      36.530  32.931  38.007  1.00  0.00    -0.744 OA
ENDBRANCH  74  78
ENDBRANCH  47  71
BRANCH  59  82
ATOM     82  C   UNL A   1      45.346  27.458  33.953  1.00  0.00     0.023 A 
ATOM     83  C   UNL A   1      45.278  26.377  34.849  1.00  0.00     0.031 A 
ATOM     84  C   UNL A   1      46.556  28.170  33.861  1.00  0.00     0.131 A 
ATOM     85  C   UNL A   1      46.384  26.071  35.656  1.00  0.00     0.055 A 
ATOM     86  C   UNL A   1      47.669  27.827  34.628  1.00  0.00     0.041 A 
ATOM     87  F   UNL A   1      46.673  29.212  33.023  1.00  0.00    -0.206 F 
ATOM     88  C   UNL A   1      47.583  26.780  35.541  1.00  0.00     0.022 A 
BRANCH  85  89
ATOM     89  S   UNL A   1      46.210  24.783  36.922  1.00  0.00     0.124 S 
ATOM     90  O   UNL A   1      45.957  25.571  38.125  1.00  0.00    -0.237 OA
ATOM     91  O   UNL A   1      45.084  24.002  36.422  1.00  0.00    -0.237 OA
ATOM     92  O   UNL A   1      47.500  24.096  36.893  1.00  0.00    -0.744 OA
ENDBRANCH  85  89
ENDBRANCH  59  82
ENDBRANCH  33  34
ENDBRANCH  26  28
ENDBRANCH  25  26
ENDBRANCH   1  25
TORSDOF 18
ENDMDL
MODEL 2
REMARK VINA RESULT:     -11.7      4.983     10.231
REMARK SMILES CC[C@H](C)[C@H](C(=O)OCCOC(=O)c1ccc(-c2c3nc(c(-c4cc(S(=O)(=O)[O-])ccc4F)c4ccc([nH]4)c(-c4cc(S(=O)(=O)[O-])ccc4F)c4nc(c(-c5cc(S(=O)(=O)[O-])ccc5F)c5ccc2[nH]5)C=C4)C=C3)cc1)N1C(=O)/C(=C/c2ccc(C)o2)SC1=S
REMARK SMILES IDX 10 1 9 2 8 3 6 4 7 5 5 6 3 7 4 8 2 9 1 10 77 11 78 12 89 13
REMARK SMILES IDX 79 14 80 15 88 16 90 17 81 18 82 19 83 20 87 21 84 22 85 23
REMARK SMILES IDX 86 24 11 25 12 26 13 27 14 28 15 29 76 30 16 31 75 32 17 33
REMARK SMILES IDX 18 34 19 35 69 36 20 37 74 38 68 39 70 40 21 41 73 42 67 43
REMARK SMILES IDX 66 44 22 46 54 47 34 48 53 49 35 50 38 51 52 52 71 53 36 54
REMARK SMILES IDX 37 55 51 57 72 58 39 59 23 60 24 61 32 62 25 63 31 64 33 65
REMARK SMILES IDX 30 66 26 67 27 68 28 69 29 70 55 71 56 72 64 73 57 74 63 75
REMARK SMILES IDX 65 76 62 77 58 78 59 79 60 80 61 81 40 82 41 83 49 84 42 85
REMARK SMILES IDX 48 86 50 87 47 88 43 89 44 90 45 91 46 92
REMARK H PARENT 70 45 38 56
REMARK Flexibility Score: inf
ROOT
ATOM      1  C   UNL A   1      37.294  20.243  25.114  1.00  0.00     0.275 C 
ENDROOT
BRANCH   1   2
ATOM      2  C   UNL A   1      35.848  20.744  24.996  1.00  0.00     0.274 C 
BRANCH   2   3
ATOM      3  O   UNL A   1      35.467  21.621  26.079  1.00  0.00    -0.461 OA
BRANCH   3   4
ATOM      4  C   UNL A   1      34.138  21.667  26.389  1.00  0.00     0.329 C 
ATOM      5  O   UNL A   1      33.727  21.616  27.543  1.00  0.00    -0.250 OA
BRANCH   4   6
ATOM      6  C   UNL A   1      33.248  21.984  25.144  1.00  0.00     0.204 C 
BRANCH   6   7
ATOM      7  C   UNL A   1      32.288  20.905  24.523  1.00  0.00     0.020 C 
ATOM      8  C   UNL A   1      32.165  20.996  22.999  1.00  0.00     0.010 C 
BRANCH   7   9
ATOM      9  C   UNL A   1      32.506  19.419  24.909  1.00  0.00     0.002 C 
ATOM     10  C   UNL A   1      32.926  18.530  23.742  1.00  0.00     0.004 C 
ENDBRANCH   7   9
ENDBRANCH   6   7
BRANCH   6  11
ATOM     11  N   UNL A   1      32.631  23.329  25.304  1.00  0.00    -0.278 N 
ATOM     12  C   UNL A   1      33.327  24.450  24.870  1.00  0.00     0.267 C 
ATOM     13  C   UNL A   1      31.424  23.576  25.931  1.00  0.00     0.149 C 
ATOM     14  O   UNL A   1      34.473  24.464  24.436  1.00  0.00    -0.268 OA
ATOM     15  C   UNL A   1      32.519  25.681  25.067  1.00  0.00     0.084 C 
ATOM     16  S   UNL A   1      31.056  25.294  25.869  1.00  0.00    -0.054 SA
ATOM     17  S   UNL A   1      30.415  22.492  26.702  1.00  0.00    -0.052 S 
ATOM     18  C   UNL A   1      32.970  26.854  24.611  1.00  0.00     0.068 C 
BRANCH  18  19
ATOM     19  C   UNL A   1      32.312  28.107  24.734  1.00  0.00     0.128 A 
ATOM     20  C   UNL A   1      31.392  28.757  23.919  1.00  0.00     0.050 A 
ATOM     21  O   UNL A   1      32.503  28.896  25.846  1.00  0.00    -0.462 OA
ATOM     22  C   UNL A   1      31.052  29.985  24.533  1.00  0.00     0.046 A 
ATOM     23  C   UNL A   1      31.768  30.028  25.703  1.00  0.00     0.101 A 
ATOM     24  C   UNL A   1      31.895  31.046  26.762  1.00  0.00     0.087 C 
ENDBRANCH  18  19
ENDBRANCH   6  11
ENDBRANCH   4   6
ENDBRANCH   3   4
ENDBRANCH   2   3
ENDBRANCH   1   2
BRANCH   1  25
ATOM     25  O   UNL A   1      38.236  21.315  25.299  1.00  0.00    -0.458 OA
BRANCH  25  26
ATOM     26  C   UNL A   1      39.274  21.014  26.116  1.00  0.00     0.338 C 
ATOM     27  O   UNL A   1      39.797  19.918  26.248  1.00  0.00    -0.246 OA
BRANCH  26  28
ATOM     28  C   UNL A   1      39.846  22.243  26.690  1.00  0.00     0.060 A 
ATOM     29  C   UNL A   1      39.402  23.443  26.136  1.00  0.00     0.016 A 
ATOM     30  C   UNL A   1      40.839  22.250  27.668  1.00  0.00     0.016 A 
ATOM     31  C   UNL A   1      39.950  24.657  26.528  1.00  0.00     0.010 A 
ATOM     32  C   UNL A   1      41.388  23.477  28.074  1.00  0.00     0.010 A 
ATOM     33  C   UNL A   1      40.955  24.687  27.497  1.00  0.00    -0.014 A 
BRANCH  33  34
ATOM     34  C   UNL A   1      41.596  25.987  27.822  1.00  0.00     0.031 A 
ATOM     35  C   UNL A   1      40.831  27.011  28.611  1.00  0.00     0.074 A 
ATOM     36  C   UNL A   1      42.880  26.215  27.483  1.00  0.00     0.049 A 
ATOM     37  N   UNL A   1      41.157  28.240  28.915  1.00  0.00    -0.248 NA
ATOM     38  C   UNL A   1      39.520  26.589  29.128  1.00  0.00     0.031 C 
ATOM     39  C   UNL A   1      43.758  25.256  26.808  1.00  0.00     0.029 A 
ATOM     40  N   UNL A   1      43.676  27.318  27.671  1.00  0.00    -0.354 N 
ATOM     41  C   UNL A   1      40.082  28.752  29.634  1.00  0.00     0.074 A 
ATOM     42  C   UNL A   1      39.088  27.700  29.706  1.00  0.00     0.031 C 
ATOM     43  C   UNL A   1      44.970  25.811  26.646  1.00  0.00     0.029 A 
ATOM     44  C   UNL A   1      44.937  27.186  27.137  1.00  0.00     0.049 A 
ATOM     45  H   UNL A   1      43.371  28.127  28.142  1.00  0.00     0.167 HD
ATOM     46  C   UNL A   1      39.939  29.986  30.179  1.00  0.00     0.034 A 
ATOM     47  C   UNL A   1      45.936  28.085  27.017  1.00  0.00     0.034 A 
ATOM     48  C   UNL A   1      40.951  31.013  30.109  1.00  0.00     0.049 A 
ATOM     49  C   UNL A   1      45.718  29.481  27.548  1.00  0.00     0.074 A 
ATOM     50  C   UNL A   1      40.910  32.303  30.610  1.00  0.00     0.029 A 
ATOM     51  N   UNL A   1      42.191  30.867  29.498  1.00  0.00    -0.354 N 
ATOM     52  N   UNL A   1      44.670  29.977  28.164  1.00  0.00    -0.248 NA
ATOM     53  C   UNL A   1      46.813  30.439  27.357  1.00  0.00     0.031 C 
ATOM     54  C   UNL A   1      42.096  32.954  30.250  1.00  0.00     0.029 A 
ATOM     55  C   UNL A   1      42.910  32.050  29.586  1.00  0.00     0.049 A 
ATOM     56  H   UNL A   1      42.512  30.042  29.066  1.00  0.00     0.167 HD
ATOM     57  C   UNL A   1      44.992  31.299  28.455  1.00  0.00     0.074 A 
ATOM     58  C   UNL A   1      46.336  31.517  27.960  1.00  0.00     0.031 C 
ATOM     59  C   UNL A   1      44.247  32.250  29.076  1.00  0.00     0.034 A 
BRANCH  46  60
ATOM     60  C   UNL A   1      38.613  30.306  30.824  1.00  0.00     0.023 A 
ATOM     61  C   UNL A   1      37.585  30.974  30.136  1.00  0.00     0.031 A 
ATOM     62  C   UNL A   1      38.395  29.977  32.176  1.00  0.00     0.131 A 
ATOM     63  C   UNL A   1      36.419  31.355  30.819  1.00  0.00     0.055 A 
ATOM     64  C   UNL A   1      37.201  30.291  32.828  1.00  0.00     0.041 A 
ATOM     65  F   UNL A   1      39.349  29.360  32.890  1.00  0.00    -0.206 F 
ATOM     66  C   UNL A   1      36.210  30.997  32.154  1.00  0.00     0.022 A 
BRANCH  63  67
ATOM     67  S   UNL A   1      35.239  32.451  29.983  1.00  0.00     0.124 S 
ATOM     68  O   UNL A   1      36.096  33.569  29.598  1.00  0.00    -0.237 OA
ATOM     69  O   UNL A   1      34.749  31.614  28.893  1.00  0.00    -0.237 OA
ATOM     70  O   UNL A   1      34.258  32.757  31.024  1.00  0.00    -0.744 OA
ENDBRANCH  63  67
ENDBRANCH  46  60
BRANCH  47  71
ATOM     71  C   UNL A   1      47.194  27.730  26.299  1.00  0.00     0.023 A 
ATOM     72  C   UNL A   1      47.328  27.912  24.913  1.00  0.00     0.031 A 
ATOM     73  C   UNL A   1      48.272  27.147  26.992  1.00  0.00     0.131 A 
ATOM     74  C   UNL A   1      48.498  27.489  24.259  1.00  0.00     0.055 A 
ATOM     75  C   UNL A   1      49.455  26.781  26.348  1.00  0.00     0.041 A 
ATOM     76  F   UNL A   1      48.193  26.931  28.315  1.00  0.00    -0.206 F 
ATOM     77  C   UNL A   1      49.569  26.943  24.972  1.00  0.00     0.022 A 
BRANCH  74  78
ATOM     78  S   UNL A   1      48.585  27.604  22.448  1.00  0.00     0.124 S 
ATOM     79  O   UNL A   1      48.616  26.198  22.063  1.00  0.00    -0.237 OA
ATOM     80  O   UNL A   1      47.361  28.328  22.120  1.00  0.00    -0.237 OA
ATOM     81  O   UNL A   1      49.821  28.348  22.216  1.00  0.00    -0.744 OA
ENDBRANCH  74  78
ENDBRANCH  47  71
BRANCH  59  82
ATOM     82  C   UNL A   1      44.898  33.593  29.290  1.00  0.00     0.023 A 
ATOM     83  C   UNL A   1      44.805  34.621  28.336  1.00  0.00     0.031 A 
ATOM     84  C   UNL A   1      45.640  33.837  30.460  1.00  0.00     0.131 A 
ATOM     85  C   UNL A   1      45.487  35.829  28.545  1.00  0.00     0.055 A 
ATOM     86  C   UNL A   1      46.272  35.061  30.686  1.00  0.00     0.041 A 
ATOM     87  F   UNL A   1      45.762  32.888  31.402  1.00  0.00    -0.206 F 
ATOM     88  C   UNL A   1      46.207  36.060  29.721  1.00  0.00     0.022 A 
BRANCH  85  89
ATOM     89  S   UNL A   1      45.489  37.069  27.221  1.00  0.00     0.124 S 
ATOM     90  O   UNL A   1      46.156  38.198  27.862  1.00  0.00    -0.237 OA
ATOM     91  O   UNL A   1      46.241  36.399  26.165  1.00  0.00    -0.237 OA
ATOM     92  O   UNL A   1      44.069  37.270  26.936  1.00  0.00    -0.744 OA
ENDBRANCH  85  89
ENDBRANCH  59  82
ENDBRANCH  33  34
ENDBRANCH  26  28
ENDBRANCH  25  26
ENDBRANCH   1  25
TORSDOF 18
ENDMDL
MODEL 3
REMARK VINA RESULT:     -11.6      4.866      7.902
REMARK SMILES CC[C@H](C)[C@H](C(=O)OCCOC(=O)c1ccc(-c2c3nc(c(-c4cc(S(=O)(=O)[O-])ccc4F)c4ccc([nH]4)c(-c4cc(S(=O)(=O)[O-])ccc4F)c4nc(c(-c5cc(S(=O)(=O)[O-])ccc5F)c5ccc2[nH]5)C=C4)C=C3)cc1)N1C(=O)/C(=C/c2ccc(C)o2)SC1=S
REMARK SMILES IDX 10 1 9 2 8 3 6 4 7 5 5 6 3 7 4 8 2 9 1 10 77 11 78 12 89 13
REMARK SMILES IDX 79 14 80 15 88 16 90 17 81 18 82 19 83 20 87 21 84 22 85 23
REMARK SMILES IDX 86 24 11 25 12 26 13 27 14 28 15 29 76 30 16 31 75 32 17 33
REMARK SMILES IDX 18 34 19 35 69 36 20 37 74 38 68 39 70 40 21 41 73 42 67 43
REMARK SMILES IDX 66 44 22 46 54 47 34 48 53 49 35 50 38 51 52 52 71 53 36 54
REMARK SMILES IDX 37 55 51 57 72 58 39 59 23 60 24 61 32 62 25 63 31 64 33 65
REMARK SMILES IDX 30 66 26 67 27 68 28 69 29 70 55 71 56 72 64 73 57 74 63 75
REMARK SMILES IDX 65 76 62 77 58 78 59 79 60 80 61 81 40 82 41 83 49 84 42 85
REMARK SMILES IDX 48 86 50 87 47 88 43 89 44 90 45 91 46 92
REMARK H PARENT 70 45 38 56
REMARK Flexibility Score: inf
ROOT
ATOM      1  C   UNL A   1      37.581  20.065  24.937  1.00  0.00     0.275 C 
ENDROOT
BRANCH   1   2
ATOM      2  C   UNL A   1      36.052  20.180  25.001  1.00  0.00     0.274 C 
BRANCH   2   3
ATOM      3  O   UNL A   1      35.597  21.053  26.058  1.00  0.00    -0.461 OA
BRANCH   3   4
ATOM      4  C   UNL A   1      34.255  21.292  26.117  1.00  0.00     0.329 C 
ATOM      5  O   UNL A   1      33.666  21.501  27.173  1.00  0.00    -0.250 OA
BRANCH   4   6
ATOM      6  C   UNL A   1      33.618  21.461  24.699  1.00  0.00     0.204 C 
BRANCH   6   7
ATOM      7  C   UNL A   1      32.456  20.526  24.204  1.00  0.00     0.020 C 
ATOM      8  C   UNL A   1      32.153  20.662  22.709  1.00  0.00     0.010 C 
BRANCH   7   9
ATOM      9  C   UNL A   1      32.528  19.017  24.553  1.00  0.00     0.002 C 
ATOM     10  C   UNL A   1      32.656  18.103  23.337  1.00  0.00     0.004 C 
ENDBRANCH   7   9
ENDBRANCH   6   7
BRANCH   6  11
ATOM     11  N   UNL A   1      33.398  22.907  24.423  1.00  0.00    -0.278 N 
ATOM     12  C   UNL A   1      32.185  23.487  24.771  1.00  0.00     0.267 C 
ATOM     13  C   UNL A   1      34.291  23.731  23.762  1.00  0.00     0.149 C 
ATOM     14  O   UNL A   1      31.207  22.899  25.218  1.00  0.00    -0.268 OA
ATOM     15  C   UNL A   1      32.189  24.940  24.465  1.00  0.00     0.084 C 
ATOM     16  S   UNL A   1      33.650  25.365  23.680  1.00  0.00    -0.054 SA
ATOM     17  S   UNL A   1      35.756  23.328  23.070  1.00  0.00    -0.052 S 
ATOM     18  C   UNL A   1      31.151  25.701  24.829  1.00  0.00     0.068 C 
BRANCH  18  19
ATOM     19  C   UNL A   1      31.015  27.095  24.596  1.00  0.00     0.128 A 
ATOM     20  C   UNL A   1      31.404  28.204  25.340  1.00  0.00     0.050 A 
ATOM     21  O   UNL A   1      30.452  27.562  23.430  1.00  0.00    -0.462 OA
ATOM     22  C   UNL A   1      31.029  29.365  24.626  1.00  0.00     0.046 A 
ATOM     23  C   UNL A   1      30.439  28.919  23.470  1.00  0.00     0.101 A 
ATOM     24  C   UNL A   1      29.801  29.616  22.338  1.00  0.00     0.087 C 
ENDBRANCH  18  19
ENDBRANCH   6  11
ENDBRANCH   4   6
ENDBRANCH   3   4
ENDBRANCH   2   3
ENDBRANCH   1   2
BRANCH   1  25
ATOM     25  O   UNL A   1      38.244  21.265  25.376  1.00  0.00    -0.458 OA
BRANCH  25  26
ATOM     26  C   UNL A   1      39.350  21.051  26.127  1.00  0.00     0.338 C 
ATOM     27  O   UNL A   1      39.961  19.998  26.234  1.00  0.00    -0.246 OA
BRANCH  26  28
ATOM     28  C   UNL A   1      39.865  22.326  26.654  1.00  0.00     0.060 A 
ATOM     29  C   UNL A   1      39.281  23.483  26.140  1.00  0.00     0.016 A 
ATOM     30  C   UNL A   1      40.929  22.419  27.549  1.00  0.00     0.016 A 
ATOM     31  C   UNL A   1      39.758  24.739  26.487  1.00  0.00     0.010 A 
ATOM     32  C   UNL A   1      41.408  23.688  27.911  1.00  0.00     0.010 A 
ATOM     33  C   UNL A   1      40.832  24.856  27.372  1.00  0.00    -0.014 A 
BRANCH  33  34
ATOM     34  C   UNL A   1      41.389  26.206  27.646  1.00  0.00     0.031 A 
ATOM     35  C   UNL A   1      42.757  26.558  27.136  1.00  0.00     0.074 A 
ATOM     36  C   UNL A   1      40.641  27.134  28.274  1.00  0.00     0.049 A 
ATOM     37  N   UNL A   1      43.471  27.633  27.346  1.00  0.00    -0.248 NA
ATOM     38  C   UNL A   1      43.407  25.561  26.271  1.00  0.00     0.031 C 
ATOM     39  C   UNL A   1      39.260  26.943  28.722  1.00  0.00     0.029 A 
ATOM     40  N   UNL A   1      40.930  28.427  28.634  1.00  0.00    -0.354 N 
ATOM     41  C   UNL A   1      44.667  27.434  26.665  1.00  0.00     0.074 A 
ATOM     42  C   UNL A   1      44.584  26.126  26.048  1.00  0.00     0.031 C 
ATOM     43  C   UNL A   1      38.822  28.079  29.289  1.00  0.00     0.029 A 
ATOM     44  C   UNL A   1      39.910  29.053  29.312  1.00  0.00     0.049 A 
ATOM     45  H   UNL A   1      41.788  28.864  28.426  1.00  0.00     0.167 HD
ATOM     46  C   UNL A   1      45.734  28.265  26.568  1.00  0.00     0.034 A 
ATOM     47  C   UNL A   1      39.872  30.256  29.920  1.00  0.00     0.034 A 
ATOM     48  C   UNL A   1      45.788  29.573  27.178  1.00  0.00     0.049 A 
ATOM     49  C   UNL A   1      41.105  31.125  29.879  1.00  0.00     0.074 A 
ATOM     50  C   UNL A   1      46.821  30.494  27.160  1.00  0.00     0.029 A 
ATOM     51  N   UNL A   1      44.760  30.147  27.918  1.00  0.00    -0.354 N 
ATOM     52  N   UNL A   1      42.258  30.898  29.292  1.00  0.00    -0.248 NA
ATOM     53  C   UNL A   1      41.035  32.407  30.591  1.00  0.00     0.031 C 
ATOM     54  C   UNL A   1      46.442  31.596  27.937  1.00  0.00     0.029 A 
ATOM     55  C   UNL A   1      45.145  31.396  28.383  1.00  0.00     0.049 A 
ATOM     56  H   UNL A   1      43.885  29.727  28.087  1.00  0.00     0.167 HD
ATOM     57  C   UNL A   1      43.040  32.021  29.546  1.00  0.00     0.074 A 
ATOM     58  C   UNL A   1      42.223  32.928  30.325  1.00  0.00     0.031 C 
ATOM     59  C   UNL A   1      44.319  32.281  29.168  1.00  0.00     0.034 A 
BRANCH  46  60
ATOM     60  C   UNL A   1      46.951  27.746  25.841  1.00  0.00     0.023 A 
ATOM     61  C   UNL A   1      47.212  28.060  24.496  1.00  0.00     0.031 A 
ATOM     62  C   UNL A   1      47.841  26.877  26.499  1.00  0.00     0.131 A 
ATOM     63  C   UNL A   1      48.291  27.453  23.833  1.00  0.00     0.055 A 
ATOM     64  C   UNL A   1      48.956  26.338  25.856  1.00  0.00     0.041 A 
ATOM     65  F   UNL A   1      47.631  26.523  27.777  1.00  0.00    -0.206 F 
ATOM     66  C   UNL A   1      49.178  26.612  24.510  1.00  0.00     0.022 A 
BRANCH  63  67
ATOM     67  S   UNL A   1      48.437  27.660  22.036  1.00  0.00     0.124 S 
ATOM     68  O   UNL A   1      47.137  28.234  21.698  1.00  0.00    -0.237 OA
ATOM     69  O   UNL A   1      49.584  28.554  21.914  1.00  0.00    -0.237 OA
ATOM     70  O   UNL A   1      48.653  26.299  21.550  1.00  0.00    -0.744 OA
ENDBRANCH  63  67
ENDBRANCH  46  60
BRANCH  47  71
ATOM     71  C   UNL A   1      38.666  30.681  30.689  1.00  0.00     0.023 A 
ATOM     72  C   UNL A   1      37.610  31.377  30.078  1.00  0.00     0.031 A 
ATOM     73  C   UNL A   1      38.580  30.439  32.073  1.00  0.00     0.131 A 
ATOM     74  C   UNL A   1      36.530  31.832  30.852  1.00  0.00     0.055 A 
ATOM     75  C   UNL A   1      37.478  30.843  32.828  1.00  0.00     0.041 A 
ATOM     76  F   UNL A   1      39.569  29.795  32.714  1.00  0.00    -0.206 F 
ATOM     77  C   UNL A   1      36.448  31.552  32.219  1.00  0.00     0.022 A 
BRANCH  74  78
ATOM     78  S   UNL A   1      35.250  32.854  30.064  1.00  0.00     0.124 S 
ATOM     79  O   UNL A   1      34.399  33.192  31.198  1.00  0.00    -0.237 OA
ATOM     80  O   UNL A   1      36.029  33.952  29.501  1.00  0.00    -0.237 OA
ATOM     81  O   UNL A   1      34.658  31.952  29.079  1.00  0.00    -0.744 OA
ENDBRANCH  74  78
ENDBRANCH  47  71
BRANCH  59  82
ATOM     82  C   UNL A   1      44.883  33.624  29.561  1.00  0.00     0.023 A 
ATOM     83  C   UNL A   1      44.753  34.752  28.731  1.00  0.00     0.031 A 
ATOM     84  C   UNL A   1      45.578  33.768  30.775  1.00  0.00     0.131 A 
ATOM     85  C   UNL A   1      45.356  35.963  29.104  1.00  0.00     0.055 A 
ATOM     86  C   UNL A   1      46.129  34.990  31.164  1.00  0.00     0.041 A 
ATOM     87  F   UNL A   1      45.733  32.722  31.602  1.00  0.00    -0.206 F 
ATOM     88  C   UNL A   1      46.030  36.092  30.322  1.00  0.00     0.022 A 
BRANCH  85  89
ATOM     89  S   UNL A   1      45.318  37.351  27.936  1.00  0.00     0.124 S 
ATOM     90  O   UNL A   1      45.798  36.727  26.707  1.00  0.00    -0.237 OA
ATOM     91  O   UNL A   1      43.910  37.734  27.950  1.00  0.00    -0.237 OA
ATOM     92  O   UNL A   1      46.230  38.326  28.532  1.00  0.00    -0.744 OA
ENDBRANCH  85  89
ENDBRANCH  59  82
ENDBRANCH  33  34
ENDBRANCH  26  28
ENDBRANCH  25  26
ENDBRANCH   1  25
TORSDOF 18
ENDMDL
