MODEL 1
REMARK VINA RESULT:      -9.8      0.000      0.000
REMARK SMILES CC[C@H](C)[C@@H](Nc1ccc(Cl)c(Br)c1)C(=O)OCCOC(=O)c1ccc(-c2c3nc(c(-c4cc(S(=O)(=O)[O-])ccc4F)c4ccc([nH]4)c(-c4cc(S(=O)(=O)[O-])ccc4F)c4nc(c(-c5cc(S(=O)(=O)[O-])ccc5F)c5ccc2[nH]5)C=C4)C=C3)cc1
REMARK SMILES IDX 19 1 18 2 17 3 15 4 16 5 5 6 3 7 4 8 2 9 1 10 6 11 7 13 8 14
REMARK SMILES IDX 14 15 9 16 12 17 10 18 13 19 11 20 20 21 21 22 22 23 23 24
REMARK SMILES IDX 24 25 85 26 25 27 84 28 26 29 27 30 28 31 78 32 29 33 83 34
REMARK SMILES IDX 77 35 79 36 30 37 82 38 76 39 75 40 31 42 63 43 43 44 62 45
REMARK SMILES IDX 44 46 47 47 61 48 80 49 45 50 46 51 60 53 81 54 48 55 32 56
REMARK SMILES IDX 33 57 41 58 34 59 40 60 42 61 39 62 35 63 36 64 37 65 38 66
REMARK SMILES IDX 64 67 65 68 73 69 66 70 72 71 74 72 71 73 67 74 68 75 69 76
REMARK SMILES IDX 70 77 49 78 50 79 58 80 51 81 57 82 59 83 56 84 52 85 53 86
REMARK SMILES IDX 54 87 55 88
REMARK H PARENT 6 12 79 41 47 52
REMARK Flexibility Score: inf
ROOT
ATOM      1  C   UNL A   1      33.156  33.273  27.695  1.00  0.00     0.275 C 
ENDROOT
BRANCH   1   2
ATOM      2  C   UNL A   1      32.960  34.581  28.469  1.00  0.00     0.274 C 
BRANCH   2   3
ATOM      3  O   UNL A   1      34.091  34.932  29.291  1.00  0.00    -0.461 OA
BRANCH   3   4
ATOM      4  C   UNL A   1      33.891  34.805  30.634  1.00  0.00     0.328 C 
ATOM      5  O   UNL A   1      32.899  35.229  31.222  1.00  0.00    -0.250 OA
BRANCH   4   6
ATOM      6  C   UNL A   1      35.092  34.168  31.378  1.00  0.00     0.192 C 
BRANCH   6   7
ATOM      7  C   UNL A   1      34.688  32.972  32.309  1.00  0.00     0.019 C 
ATOM      8  C   UNL A   1      35.489  31.698  31.992  1.00  0.00     0.010 C 
BRANCH   7   9
ATOM      9  C   UNL A   1      34.755  33.336  33.818  1.00  0.00     0.002 C 
ATOM     10  C   UNL A   1      35.104  34.770  34.197  1.00  0.00     0.004 C 
ENDBRANCH   7   9
ENDBRANCH   6   7
BRANCH   6  11
ATOM     11  N   UNL A   1      36.171  33.744  30.445  1.00  0.00    -0.372 N 
ATOM     12  H   UNL A   1      35.915  33.183  29.677  1.00  0.00     0.161 HD
BRANCH  11  13
ATOM     13  C   UNL A   1      37.504  34.082  30.574  1.00  0.00     0.036 A 
ATOM     14  C   UNL A   1      38.385  34.102  29.491  1.00  0.00     0.027 A 
ATOM     15  C   UNL A   1      38.020  34.324  31.850  1.00  0.00     0.043 A 
ATOM     16  C   UNL A   1      39.758  34.287  29.680  1.00  0.00     0.024 A 
ATOM     17  C   UNL A   1      39.392  34.520  32.050  1.00  0.00     0.038 A 
ATOM     18  C   UNL A   1      40.268  34.483  30.962  1.00  0.00     0.055 A 
ATOM     19  Br  UNL A   1      39.982  34.795  33.834  1.00  0.00    -0.049 Br
ATOM     20  Cl  UNL A   1      41.978  34.651  31.130  1.00  0.00    -0.083 Cl
ENDBRANCH  11  13
ENDBRANCH   6  11
ENDBRANCH   4   6
ENDBRANCH   3   4
ENDBRANCH   2   3
ENDBRANCH   1   2
BRANCH   1  21
ATOM     21  O   UNL A   1      34.151  32.443  28.317  1.00  0.00    -0.458 OA
BRANCH  21  22
ATOM     22  C   UNL A   1      34.305  31.208  27.787  1.00  0.00     0.338 C 
ATOM     23  O   UNL A   1      33.559  30.639  27.009  1.00  0.00    -0.246 OA
BRANCH  22  24
ATOM     24  C   UNL A   1      35.599  30.659  28.223  1.00  0.00     0.060 A 
ATOM     25  C   UNL A   1      36.787  31.221  27.762  1.00  0.00     0.016 A 
ATOM     26  C   UNL A   1      35.622  29.614  29.152  1.00  0.00     0.016 A 
ATOM     27  C   UNL A   1      38.003  30.710  28.223  1.00  0.00     0.010 A 
ATOM     28  C   UNL A   1      36.831  29.112  29.618  1.00  0.00     0.010 A 
ATOM     29  C   UNL A   1      38.031  29.652  29.151  1.00  0.00    -0.014 A 
BRANCH  29  30
ATOM     30  C   UNL A   1      39.315  29.174  29.707  1.00  0.00     0.031 A 
ATOM     31  C   UNL A   1      39.852  29.720  30.994  1.00  0.00     0.074 A 
ATOM     32  C   UNL A   1      40.011  28.259  29.007  1.00  0.00     0.049 A 
ATOM     33  N   UNL A   1      40.867  29.296  31.699  1.00  0.00    -0.248 NA
ATOM     34  C   UNL A   1      39.178  30.901  31.556  1.00  0.00     0.031 C 
ATOM     35  C   UNL A   1      39.624  27.751  27.691  1.00  0.00     0.029 A 
ATOM     36  N   UNL A   1      41.173  27.595  29.299  1.00  0.00    -0.354 N 
ATOM     37  C   UNL A   1      40.937  30.132  32.805  1.00  0.00     0.074 A 
ATOM     38  C   UNL A   1      39.908  31.136  32.639  1.00  0.00     0.031 C 
ATOM     39  C   UNL A   1      40.512  26.823  27.305  1.00  0.00     0.029 A 
ATOM     40  C   UNL A   1      41.533  26.677  28.341  1.00  0.00     0.049 A 
ATOM     41  H   UNL A   1      41.700  27.759  30.114  1.00  0.00     0.167 HD
ATOM     42  C   UNL A   1      41.766  30.042  33.871  1.00  0.00     0.034 A 
ATOM     43  C   UNL A   1      42.550  25.792  28.316  1.00  0.00     0.034 A 
ATOM     44  C   UNL A   1      42.792  29.036  33.996  1.00  0.00     0.049 A 
ATOM     45  C   UNL A   1      43.443  25.687  29.527  1.00  0.00     0.074 A 
ATOM     46  C   UNL A   1      43.637  28.806  35.066  1.00  0.00     0.029 A 
ATOM     47  N   UNL A   1      43.120  28.106  33.020  1.00  0.00    -0.354 N 
ATOM     48  N   UNL A   1      43.397  26.373  30.645  1.00  0.00    -0.248 NA
ATOM     49  C   UNL A   1      44.506  24.674  29.490  1.00  0.00     0.031 C 
ATOM     50  C   UNL A   1      44.515  27.780  34.714  1.00  0.00     0.029 A 
ATOM     51  C   UNL A   1      44.175  27.319  33.451  1.00  0.00     0.049 A 
ATOM     52  H   UNL A   1      42.668  28.018  32.149  1.00  0.00     0.167 HD
ATOM     53  C   UNL A   1      44.408  25.862  31.453  1.00  0.00     0.074 A 
ATOM     54  C   UNL A   1      45.031  24.790  30.704  1.00  0.00     0.031 C 
ATOM     55  C   UNL A   1      44.786  26.248  32.698  1.00  0.00     0.034 A 
BRANCH  42  56
ATOM     56  C   UNL A   1      41.583  31.008  35.016  1.00  0.00     0.023 A 
ATOM     57  C   UNL A   1      40.364  31.063  35.716  1.00  0.00     0.031 A 
ATOM     58  C   UNL A   1      42.565  31.971  35.314  1.00  0.00     0.131 A 
ATOM     59  C   UNL A   1      40.147  32.079  36.657  1.00  0.00     0.055 A 
ATOM     60  C   UNL A   1      42.359  32.957  36.281  1.00  0.00     0.041 A 
ATOM     61  F   UNL A   1      43.742  31.967  34.669  1.00  0.00    -0.206 F 
ATOM     62  C   UNL A   1      41.140  33.021  36.948  1.00  0.00     0.022 A 
BRANCH  59  63
ATOM     63  S   UNL A   1      38.549  32.259  37.496  1.00  0.00     0.124 S 
ATOM     64  O   UNL A   1      38.955  32.358  38.897  1.00  0.00    -0.237 OA
ATOM     65  O   UNL A   1      38.033  33.492  36.909  1.00  0.00    -0.237 OA
ATOM     66  O   UNL A   1      37.828  31.041  37.145  1.00  0.00    -0.744 OA
ENDBRANCH  59  63
ENDBRANCH  42  56
BRANCH  43  67
ATOM     67  C   UNL A   1      42.671  24.871  27.151  1.00  0.00     0.023 A 
ATOM     68  C   UNL A   1      42.091  23.589  27.180  1.00  0.00     0.031 A 
ATOM     69  C   UNL A   1      43.485  25.205  26.055  1.00  0.00     0.131 A 
ATOM     70  C   UNL A   1      42.390  22.667  26.167  1.00  0.00     0.055 A 
ATOM     71  C   UNL A   1      43.725  24.306  25.015  1.00  0.00     0.041 A 
ATOM     72  F   UNL A   1      44.076  26.408  25.995  1.00  0.00    -0.206 F 
ATOM     73  C   UNL A   1      43.191  23.023  25.077  1.00  0.00     0.022 A 
BRANCH  70  74
ATOM     74  S   UNL A   1      41.868  20.935  26.303  1.00  0.00     0.124 S 
ATOM     75  O   UNL A   1      40.458  21.012  25.932  1.00  0.00    -0.237 OA
ATOM     76  O   UNL A   1      42.740  20.282  25.329  1.00  0.00    -0.237 OA
ATOM     77  O   UNL A   1      42.137  20.601  27.698  1.00  0.00    -0.744 OA
ENDBRANCH  70  74
ENDBRANCH  43  67
BRANCH  55  78
ATOM     78  C   UNL A   1      45.938  25.529  33.358  1.00  0.00     0.023 A 
ATOM     79  C   UNL A   1      45.690  24.462  34.242  1.00  0.00     0.031 A 
ATOM     80  C   UNL A   1      47.255  26.005  33.240  1.00  0.00     0.131 A 
ATOM     81  C   UNL A   1      46.737  23.936  35.009  1.00  0.00     0.055 A 
ATOM     82  C   UNL A   1      48.304  25.444  33.971  1.00  0.00     0.041 A 
ATOM     83  F   UNL A   1      47.540  27.028  32.419  1.00  0.00    -0.206 F 
ATOM     84  C   UNL A   1      48.044  24.415  34.872  1.00  0.00     0.022 A 
BRANCH  81  85
ATOM     85  S   UNL A   1      46.428  22.677  36.279  1.00  0.00     0.124 S 
ATOM     86  O   UNL A   1      44.973  22.731  36.409  1.00  0.00    -0.237 OA
ATOM     87  O   UNL A   1      46.953  21.468  35.650  1.00  0.00    -0.237 OA
ATOM     88  O   UNL A   1      47.173  23.155  37.439  1.00  0.00    -0.744 OA
ENDBRANCH  81  85
ENDBRANCH  55  78
ENDBRANCH  29  30
ENDBRANCH  22  24
ENDBRANCH  21  22
ENDBRANCH   1  21
TORSDOF 18
ENDMDL
MODEL 2
REMARK VINA RESULT:      -9.5      5.794     11.503
REMARK SMILES CC[C@H](C)[C@@H](Nc1ccc(Cl)c(Br)c1)C(=O)OCCOC(=O)c1ccc(-c2c3nc(c(-c4cc(S(=O)(=O)[O-])ccc4F)c4ccc([nH]4)c(-c4cc(S(=O)(=O)[O-])ccc4F)c4nc(c(-c5cc(S(=O)(=O)[O-])ccc5F)c5ccc2[nH]5)C=C4)C=C3)cc1
REMARK SMILES IDX 19 1 18 2 17 3 15 4 16 5 5 6 3 7 4 8 2 9 1 10 6 11 7 13 8 14
REMARK SMILES IDX 14 15 9 16 12 17 10 18 13 19 11 20 20 21 21 22 22 23 23 24
REMARK SMILES IDX 24 25 85 26 25 27 84 28 26 29 27 30 28 31 78 32 29 33 83 34
REMARK SMILES IDX 77 35 79 36 30 37 82 38 76 39 75 40 31 42 63 43 43 44 62 45
REMARK SMILES IDX 44 46 47 47 61 48 80 49 45 50 46 51 60 53 81 54 48 55 32 56
REMARK SMILES IDX 33 57 41 58 34 59 40 60 42 61 39 62 35 63 36 64 37 65 38 66
REMARK SMILES IDX 64 67 65 68 73 69 66 70 72 71 74 72 71 73 67 74 68 75 69 76
REMARK SMILES IDX 70 77 49 78 50 79 58 80 51 81 57 82 59 83 56 84 52 85 53 86
REMARK SMILES IDX 54 87 55 88
REMARK H PARENT 6 12 79 41 47 52
REMARK Flexibility Score: inf
ROOT
ATOM      1  C   UNL A   1      37.355  20.650  24.978  1.00  0.00     0.275 C 
ENDROOT
BRANCH   1   2
ATOM      2  C   UNL A   1      35.888  20.955  24.659  1.00  0.00     0.274 C 
BRANCH   2   3
ATOM      3  O   UNL A   1      35.546  22.346  24.823  1.00  0.00    -0.461 OA
BRANCH   3   4
ATOM      4  C   UNL A   1      35.482  23.066  23.666  1.00  0.00     0.328 C 
ATOM      5  O   UNL A   1      36.337  23.024  22.785  1.00  0.00    -0.250 OA
BRANCH   4   6
ATOM      6  C   UNL A   1      34.274  24.034  23.611  1.00  0.00     0.192 C 
BRANCH   6   7
ATOM      7  C   UNL A   1      33.358  23.821  22.355  1.00  0.00     0.019 C 
ATOM      8  C   UNL A   1      32.576  22.500  22.430  1.00  0.00     0.010 C 
BRANCH   7   9
ATOM      9  C   UNL A   1      32.424  25.032  22.080  1.00  0.00     0.002 C 
ATOM     10  C   UNL A   1      33.062  26.398  21.864  1.00  0.00     0.004 C 
ENDBRANCH   7   9
ENDBRANCH   6   7
BRANCH   6  11
ATOM     11  N   UNL A   1      33.455  23.984  24.852  1.00  0.00    -0.372 N 
ATOM     12  H   UNL A   1      33.221  23.096  25.208  1.00  0.00     0.161 HD
BRANCH  11  13
ATOM     13  C   UNL A   1      33.001  25.089  25.544  1.00  0.00     0.036 A 
ATOM     14  C   UNL A   1      31.672  25.234  25.946  1.00  0.00     0.027 A 
ATOM     15  C   UNL A   1      33.879  26.153  25.772  1.00  0.00     0.043 A 
ATOM     16  C   UNL A   1      31.209  26.432  26.498  1.00  0.00     0.024 A 
ATOM     17  C   UNL A   1      33.428  27.354  26.333  1.00  0.00     0.038 A 
ATOM     18  C   UNL A   1      32.083  27.502  26.679  1.00  0.00     0.055 A 
ATOM     19  Br  UNL A   1      34.704  28.744  26.554  1.00  0.00    -0.049 Br
ATOM     20  Cl  UNL A   1      31.435  28.971  27.315  1.00  0.00    -0.083 Cl
ENDBRANCH  11  13
ENDBRANCH   6  11
ENDBRANCH   4   6
ENDBRANCH   3   4
ENDBRANCH   2   3
ENDBRANCH   1   2
BRANCH   1  21
ATOM     21  O   UNL A   1      37.957  21.716  25.732  1.00  0.00    -0.458 OA
BRANCH  21  22
ATOM     22  C   UNL A   1      39.210  21.483  26.188  1.00  0.00     0.338 C 
ATOM     23  O   UNL A   1      39.845  20.446  26.106  1.00  0.00    -0.246 OA
BRANCH  22  24
ATOM     24  C   UNL A   1      39.759  22.733  26.736  1.00  0.00     0.060 A 
ATOM     25  C   UNL A   1      40.777  22.692  27.686  1.00  0.00     0.016 A 
ATOM     26  C   UNL A   1      39.296  23.958  26.245  1.00  0.00     0.016 A 
ATOM     27  C   UNL A   1      41.312  23.893  28.160  1.00  0.00     0.010 A 
ATOM     28  C   UNL A   1      39.835  25.152  26.708  1.00  0.00     0.010 A 
ATOM     29  C   UNL A   1      40.842  25.128  27.675  1.00  0.00    -0.014 A 
BRANCH  29  30
ATOM     30  C   UNL A   1      41.471  26.394  28.109  1.00  0.00     0.031 A 
ATOM     31  C   UNL A   1      42.889  26.716  27.749  1.00  0.00     0.074 A 
ATOM     32  C   UNL A   1      40.750  27.236  28.870  1.00  0.00     0.049 A 
ATOM     33  N   UNL A   1      43.534  27.842  27.904  1.00  0.00    -0.248 NA
ATOM     34  C   UNL A   1      43.693  25.636  27.154  1.00  0.00     0.031 C 
ATOM     35  C   UNL A   1      39.401  26.959  29.365  1.00  0.00     0.029 A 
ATOM     36  N   UNL A   1      41.038  28.485  29.353  1.00  0.00    -0.354 N 
ATOM     37  C   UNL A   1      44.808  27.622  27.398  1.00  0.00     0.074 A 
ATOM     38  C   UNL A   1      44.869  26.233  26.999  1.00  0.00     0.031 C 
ATOM     39  C   UNL A   1      38.961  28.025  30.049  1.00  0.00     0.029 A 
ATOM     40  C   UNL A   1      39.998  29.056  30.048  1.00  0.00     0.049 A 
ATOM     41  H   UNL A   1      41.905  28.931  29.217  1.00  0.00     0.167 HD
ATOM     42  C   UNL A   1      45.816  28.514  27.252  1.00  0.00     0.034 A 
ATOM     43  C   UNL A   1      39.879  30.284  30.592  1.00  0.00     0.034 A 
ATOM     44  C   UNL A   1      45.725  29.890  27.675  1.00  0.00     0.049 A 
ATOM     45  C   UNL A   1      41.000  31.272  30.392  1.00  0.00     0.074 A 
ATOM     46  C   UNL A   1      46.656  30.898  27.508  1.00  0.00     0.029 A 
ATOM     47  N   UNL A   1      44.652  30.446  28.357  1.00  0.00    -0.354 N 
ATOM     48  N   UNL A   1      42.139  31.106  29.762  1.00  0.00    -0.248 NA
ATOM     49  C   UNL A   1      40.814  32.619  30.949  1.00  0.00     0.031 C 
ATOM     50  C   UNL A   1      46.174  32.045  28.141  1.00  0.00     0.029 A 
ATOM     51  C   UNL A   1      44.910  31.776  28.644  1.00  0.00     0.049 A 
ATOM     52  H   UNL A   1      43.827  29.966  28.600  1.00  0.00     0.167 HD
ATOM     53  C   UNL A   1      42.797  32.331  29.826  1.00  0.00     0.074 A 
ATOM     54  C   UNL A   1      41.914  33.236  30.534  1.00  0.00     0.031 C 
ATOM     55  C   UNL A   1      44.020  32.672  29.345  1.00  0.00     0.034 A 
BRANCH  42  56
ATOM     56  C   UNL A   1      47.085  28.069  26.569  1.00  0.00     0.023 A 
ATOM     57  C   UNL A   1      47.207  28.146  25.169  1.00  0.00     0.031 A 
ATOM     58  C   UNL A   1      48.113  27.437  27.292  1.00  0.00     0.131 A 
ATOM     59  C   UNL A   1      48.317  27.570  24.535  1.00  0.00     0.055 A 
ATOM     60  C   UNL A   1      49.235  26.900  26.659  1.00  0.00     0.041 A 
ATOM     61  F   UNL A   1      48.041  27.331  28.629  1.00  0.00    -0.206 F 
ATOM     62  C   UNL A   1      49.334  26.954  25.272  1.00  0.00     0.022 A 
BRANCH  59  63
ATOM     63  S   UNL A   1      48.456  27.540  22.726  1.00  0.00     0.124 S 
ATOM     64  O   UNL A   1      49.725  28.234  22.513  1.00  0.00    -0.237 OA
ATOM     65  O   UNL A   1      48.476  26.107  22.446  1.00  0.00    -0.237 OA
ATOM     66  O   UNL A   1      47.272  28.258  22.270  1.00  0.00    -0.744 OA
ENDBRANCH  59  63
ENDBRANCH  42  56
BRANCH  43  67
ATOM     67  C   UNL A   1      38.596  30.653  31.255  1.00  0.00     0.023 A 
ATOM     68  C   UNL A   1      37.544  31.233  30.522  1.00  0.00     0.031 A 
ATOM     69  C   UNL A   1      38.459  30.563  32.650  1.00  0.00     0.131 A 
ATOM     70  C   UNL A   1      36.434  31.761  31.196  1.00  0.00     0.055 A 
ATOM     71  C   UNL A   1      37.322  31.029  33.312  1.00  0.00     0.041 A 
ATOM     72  F   UNL A   1      39.446  30.037  33.393  1.00  0.00    -0.206 F 
ATOM     73  C   UNL A   1      36.309  31.649  32.585  1.00  0.00     0.022 A 
BRANCH  70  74
ATOM     74  S   UNL A   1      35.185  32.736  30.311  1.00  0.00     0.124 S 
ATOM     75  O   UNL A   1      34.133  32.864  31.315  1.00  0.00    -0.237 OA
ATOM     76  O   UNL A   1      35.921  33.961  30.009  1.00  0.00    -0.237 OA
ATOM     77  O   UNL A   1      34.858  31.908  29.155  1.00  0.00    -0.744 OA
ENDBRANCH  70  74
ENDBRANCH  43  67
BRANCH  55  78
ATOM     78  C   UNL A   1      44.513  34.082  29.564  1.00  0.00     0.023 A 
ATOM     79  C   UNL A   1      44.199  35.091  28.633  1.00  0.00     0.031 A 
ATOM     80  C   UNL A   1      45.422  34.384  30.592  1.00  0.00     0.131 A 
ATOM     81  C   UNL A   1      44.825  36.340  28.723  1.00  0.00     0.055 A 
ATOM     82  C   UNL A   1      46.006  35.647  30.706  1.00  0.00     0.041 A 
ATOM     83  F   UNL A   1      45.763  33.452  31.497  1.00  0.00    -0.206 F 
ATOM     84  C   UNL A   1      45.720  36.627  29.759  1.00  0.00     0.022 A 
BRANCH  81  85
ATOM     85  S   UNL A   1      44.575  37.608  27.449  1.00  0.00     0.124 S 
ATOM     86  O   UNL A   1      45.773  37.449  26.627  1.00  0.00    -0.237 OA
ATOM     87  O   UNL A   1      43.328  37.174  26.823  1.00  0.00    -0.237 OA
ATOM     88  O   UNL A   1      44.499  38.855  28.201  1.00  0.00    -0.744 OA
ENDBRANCH  81  85
ENDBRANCH  55  78
ENDBRANCH  29  30
ENDBRANCH  22  24
ENDBRANCH  21  22
ENDBRANCH   1  21
TORSDOF 18
ENDMDL
MODEL 3
REMARK VINA RESULT:      -9.3      6.550     11.955
REMARK SMILES CC[C@H](C)[C@@H](Nc1ccc(Cl)c(Br)c1)C(=O)OCCOC(=O)c1ccc(-c2c3nc(c(-c4cc(S(=O)(=O)[O-])ccc4F)c4ccc([nH]4)c(-c4cc(S(=O)(=O)[O-])ccc4F)c4nc(c(-c5cc(S(=O)(=O)[O-])ccc5F)c5ccc2[nH]5)C=C4)C=C3)cc1
REMARK SMILES IDX 19 1 18 2 17 3 15 4 16 5 5 6 3 7 4 8 2 9 1 10 6 11 7 13 8 14
REMARK SMILES IDX 14 15 9 16 12 17 10 18 13 19 11 20 20 21 21 22 22 23 23 24
REMARK SMILES IDX 24 25 85 26 25 27 84 28 26 29 27 30 28 31 78 32 29 33 83 34
REMARK SMILES IDX 77 35 79 36 30 37 82 38 76 39 75 40 31 42 63 43 43 44 62 45
REMARK SMILES IDX 44 46 47 47 61 48 80 49 45 50 46 51 60 53 81 54 48 55 32 56
REMARK SMILES IDX 33 57 41 58 34 59 40 60 42 61 39 62 35 63 36 64 37 65 38 66
REMARK SMILES IDX 64 67 65 68 73 69 66 70 72 71 74 72 71 73 67 74 68 75 69 76
REMARK SMILES IDX 70 77 49 78 50 79 58 80 51 81 57 82 59 83 56 84 52 85 53 86
REMARK SMILES IDX 54 87 55 88
REMARK H PARENT 6 12 79 41 47 52
REMARK Flexibility Score: inf
ROOT
ATOM      1  C   UNL A   1      37.292  21.349  24.605  1.00  0.00     0.275 C 
ENDROOT
BRANCH   1   2
ATOM      2  C   UNL A   1      36.582  22.504  23.893  1.00  0.00     0.274 C 
BRANCH   2   3
ATOM      3  O   UNL A   1      35.827  23.347  24.786  1.00  0.00    -0.461 OA
BRANCH   3   4
ATOM      4  C   UNL A   1      34.720  23.925  24.239  1.00  0.00     0.328 C 
ATOM      5  O   UNL A   1      34.637  24.272  23.064  1.00  0.00    -0.250 OA
BRANCH   4   6
ATOM      6  C   UNL A   1      33.599  24.206  25.272  1.00  0.00     0.192 C 
BRANCH   6   7
ATOM      7  C   UNL A   1      32.902  25.597  25.076  1.00  0.00     0.019 C 
ATOM      8  C   UNL A   1      31.455  25.596  25.597  1.00  0.00     0.010 C 
BRANCH   7   9
ATOM      9  C   UNL A   1      33.728  26.772  25.669  1.00  0.00     0.002 C 
ATOM     10  C   UNL A   1      33.003  27.797  26.532  1.00  0.00     0.004 C 
ENDBRANCH   7   9
ENDBRANCH   6   7
BRANCH   6  11
ATOM     11  N   UNL A   1      32.577  23.124  25.301  1.00  0.00    -0.372 N 
ATOM     12  H   UNL A   1      31.834  23.216  25.941  1.00  0.00     0.161 HD
BRANCH  11  13
ATOM     13  C   UNL A   1      32.593  22.001  24.498  1.00  0.00     0.036 A 
ATOM     14  C   UNL A   1      32.233  22.033  23.149  1.00  0.00     0.027 A 
ATOM     15  C   UNL A   1      32.890  20.762  25.072  1.00  0.00     0.043 A 
ATOM     16  C   UNL A   1      32.103  20.856  22.406  1.00  0.00     0.024 A 
ATOM     17  C   UNL A   1      32.772  19.577  24.335  1.00  0.00     0.038 A 
ATOM     18  C   UNL A   1      32.358  19.622  23.002  1.00  0.00     0.055 A 
ATOM     19  Br  UNL A   1      33.159  17.950  25.236  1.00  0.00    -0.049 Br
ATOM     20  Cl  UNL A   1      32.126  18.204  22.045  1.00  0.00    -0.083 Cl
ENDBRANCH  11  13
ENDBRANCH   6  11
ENDBRANCH   4   6
ENDBRANCH   3   4
ENDBRANCH   2   3
ENDBRANCH   1   2
BRANCH   1  21
ATOM     21  O   UNL A   1      37.728  21.736  25.919  1.00  0.00    -0.458 OA
BRANCH  21  22
ATOM     22  C   UNL A   1      39.047  21.579  26.174  1.00  0.00     0.338 C 
ATOM     23  O   UNL A   1      39.736  20.604  25.928  1.00  0.00    -0.246 OA
BRANCH  22  24
ATOM     24  C   UNL A   1      39.580  22.834  26.727  1.00  0.00     0.060 A 
ATOM     25  C   UNL A   1      40.527  22.802  27.747  1.00  0.00     0.016 A 
ATOM     26  C   UNL A   1      39.176  24.052  26.171  1.00  0.00     0.016 A 
ATOM     27  C   UNL A   1      41.050  24.007  28.226  1.00  0.00     0.010 A 
ATOM     28  C   UNL A   1      39.702  25.250  26.640  1.00  0.00     0.010 A 
ATOM     29  C   UNL A   1      40.638  25.236  27.676  1.00  0.00    -0.014 A 
BRANCH  29  30
ATOM     30  C   UNL A   1      41.259  26.502  28.120  1.00  0.00     0.031 A 
ATOM     31  C   UNL A   1      42.687  26.818  27.798  1.00  0.00     0.074 A 
ATOM     32  C   UNL A   1      40.519  27.352  28.856  1.00  0.00     0.049 A 
ATOM     33  N   UNL A   1      43.330  27.943  27.964  1.00  0.00    -0.248 NA
ATOM     34  C   UNL A   1      43.504  25.733  27.233  1.00  0.00     0.031 C 
ATOM     35  C   UNL A   1      39.156  27.081  29.314  1.00  0.00     0.029 A 
ATOM     36  N   UNL A   1      40.797  28.603  29.339  1.00  0.00    -0.354 N 
ATOM     37  C   UNL A   1      44.618  27.717  27.495  1.00  0.00     0.074 A 
ATOM     38  C   UNL A   1      44.685  26.325  27.107  1.00  0.00     0.031 C 
ATOM     39  C   UNL A   1      38.700  28.153  29.979  1.00  0.00     0.029 A 
ATOM     40  C   UNL A   1      39.739  29.180  30.001  1.00  0.00     0.049 A 
ATOM     41  H   UNL A   1      41.669  29.045  29.225  1.00  0.00     0.167 HD
ATOM     42  C   UNL A   1      45.632  28.606  27.373  1.00  0.00     0.034 A 
ATOM     43  C   UNL A   1      39.609  30.412  30.534  1.00  0.00     0.034 A 
ATOM     44  C   UNL A   1      45.533  29.984  27.784  1.00  0.00     0.049 A 
ATOM     45  C   UNL A   1      40.738  31.396  30.360  1.00  0.00     0.074 A 
ATOM     46  C   UNL A   1      46.472  30.989  27.638  1.00  0.00     0.029 A 
ATOM     47  N   UNL A   1      44.443  30.547  28.433  1.00  0.00    -0.354 N 
ATOM     48  N   UNL A   1      41.894  31.222  29.763  1.00  0.00    -0.248 NA
ATOM     49  C   UNL A   1      40.541  32.746  30.903  1.00  0.00     0.031 C 
ATOM     50  C   UNL A   1      45.976  32.141  28.250  1.00  0.00     0.029 A 
ATOM     51  C   UNL A   1      44.697  31.878  28.719  1.00  0.00     0.049 A 
ATOM     52  H   UNL A   1      43.610  30.071  28.655  1.00  0.00     0.167 HD
ATOM     53  C   UNL A   1      42.554  32.446  29.838  1.00  0.00     0.074 A 
ATOM     54  C   UNL A   1      41.654  33.357  30.515  1.00  0.00     0.031 C 
ATOM     55  C   UNL A   1      43.790  32.781  29.390  1.00  0.00     0.034 A 
BRANCH  42  56
ATOM     56  C   UNL A   1      46.918  28.153  26.728  1.00  0.00     0.023 A 
ATOM     57  C   UNL A   1      47.067  28.187  25.329  1.00  0.00     0.031 A 
ATOM     58  C   UNL A   1      47.939  27.554  27.490  1.00  0.00     0.131 A 
ATOM     59  C   UNL A   1      48.194  27.604  24.734  1.00  0.00     0.055 A 
ATOM     60  C   UNL A   1      49.078  27.010  26.895  1.00  0.00     0.041 A 
ATOM     61  F   UNL A   1      47.842  27.489  28.828  1.00  0.00    -0.206 F 
ATOM     62  C   UNL A   1      49.203  27.022  25.510  1.00  0.00     0.022 A 
BRANCH  59  63
ATOM     63  S   UNL A   1      48.369  27.519  22.931  1.00  0.00     0.124 S 
ATOM     64  O   UNL A   1      49.666  28.162  22.725  1.00  0.00    -0.237 OA
ATOM     65  O   UNL A   1      48.343  26.079  22.689  1.00  0.00    -0.237 OA
ATOM     66  O   UNL A   1      47.221  28.265  22.431  1.00  0.00    -0.744 OA
ENDBRANCH  59  63
ENDBRANCH  42  56
BRANCH  43  67
ATOM     67  C   UNL A   1      38.309  30.789  31.159  1.00  0.00     0.023 A 
ATOM     68  C   UNL A   1      37.297  31.410  30.404  1.00  0.00     0.031 A 
ATOM     69  C   UNL A   1      38.117  30.663  32.545  1.00  0.00     0.131 A 
ATOM     70  C   UNL A   1      36.173  31.942  31.050  1.00  0.00     0.055 A 
ATOM     71  C   UNL A   1      36.965  31.133  33.176  1.00  0.00     0.041 A 
ATOM     72  F   UNL A   1      39.065  30.096  33.309  1.00  0.00    -0.206 F 
ATOM     73  C   UNL A   1      35.993  31.794  32.429  1.00  0.00     0.022 A 
BRANCH  70  74
ATOM     74  S   UNL A   1      34.978  32.966  30.147  1.00  0.00     0.124 S 
ATOM     75  O   UNL A   1      35.835  34.001  29.576  1.00  0.00    -0.237 OA
ATOM     76  O   UNL A   1      34.425  32.009  29.192  1.00  0.00    -0.237 OA
ATOM     77  O   UNL A   1      34.053  33.412  31.183  1.00  0.00    -0.744 OA
ENDBRANCH  70  74
ENDBRANCH  43  67
BRANCH  55  78
ATOM     78  C   UNL A   1      44.282  34.191  29.614  1.00  0.00     0.023 A 
ATOM     79  C   UNL A   1      43.962  35.204  28.689  1.00  0.00     0.031 A 
ATOM     80  C   UNL A   1      45.194  34.489  30.640  1.00  0.00     0.131 A 
ATOM     81  C   UNL A   1      44.585  36.454  28.784  1.00  0.00     0.055 A 
ATOM     82  C   UNL A   1      45.775  35.753  30.759  1.00  0.00     0.041 A 
ATOM     83  F   UNL A   1      45.540  33.554  31.539  1.00  0.00    -0.206 F 
ATOM     84  C   UNL A   1      45.483  36.737  29.817  1.00  0.00     0.022 A 
BRANCH  81  85
ATOM     85  S   UNL A   1      44.328  37.728  27.516  1.00  0.00     0.124 S 
ATOM     86  O   UNL A   1      43.303  37.112  26.675  1.00  0.00    -0.237 OA
ATOM     87  O   UNL A   1      43.879  38.867  28.312  1.00  0.00    -0.237 OA
ATOM     88  O   UNL A   1      45.638  37.875  26.893  1.00  0.00    -0.744 OA
ENDBRANCH  81  85
ENDBRANCH  55  78
ENDBRANCH  29  30
ENDBRANCH  22  24
ENDBRANCH  21  22
ENDBRANCH   1  21
TORSDOF 18
ENDMDL
