MODEL 1
REMARK VINA RESULT:     -12.2      0.000      0.000
REMARK SMILES O=C(Nc1ccc2c(c1)OCO2)N[C@H]1C=C[C@@H](C(=O)OCCOC(=O)c2ccc(-c3c4nc(c(-c5cc(S(=O)(=O)[O-])ccc5F)c5ccc([nH]5)c(-c5cc(S(=O)(=O)[O-])ccc5F)c5nc(c(-c6cc(S(=O)(=O)[O-])ccc6F)c6ccc3[nH]6)C=C5)C=C4)cc2)C1
REMARK SMILES IDX 22 1 21 2 20 3 18 4 19 5 17 6 14 7 15 8 89 9 16 10 13 11
REMARK SMILES IDX 1 12 2 13 3 14 4 17 5 18 9 19 6 20 8 21 7 22 10 23 12 24
REMARK SMILES IDX 11 25 23 26 24 27 25 28 26 29 27 30 88 31 28 32 87 33 29 34
REMARK SMILES IDX 30 35 31 36 81 37 32 38 86 39 80 40 82 41 33 42 85 43 79 44
REMARK SMILES IDX 78 45 34 47 66 48 46 49 65 50 47 51 50 52 64 53 83 54 48 55
REMARK SMILES IDX 49 56 63 58 84 59 51 60 35 61 36 62 44 63 37 64 43 65 45 66
REMARK SMILES IDX 42 67 38 68 39 69 40 70 41 71 67 72 68 73 76 74 69 75 75 76
REMARK SMILES IDX 77 77 74 78 70 79 71 80 72 81 73 82 52 83 53 84 61 85 54 86
REMARK SMILES IDX 60 87 62 88 59 89 55 90 56 91 57 92 58 93
REMARK H PARENT 3 15 13 16 82 46 50 57
REMARK Flexibility Score: inf
ROOT
ATOM      1  C   UNL A   1      38.260  19.634  25.173  1.00  0.00     0.275 C 
ENDROOT
BRANCH   1   2
ATOM      2  C   UNL A   1      36.797  20.049  25.015  1.00  0.00     0.274 C 
BRANCH   2   3
ATOM      3  O   UNL A   1      36.716  21.447  24.694  1.00  0.00    -0.462 OA
BRANCH   3   4
ATOM      4  C   UNL A   1      35.489  21.941  24.404  1.00  0.00     0.312 C 
ATOM      5  O   UNL A   1      35.277  22.854  23.611  1.00  0.00    -0.252 OA
BRANCH   4   6
ATOM      6  C   UNL A   1      34.370  21.271  25.189  1.00  0.00     0.124 C 
ATOM      7  C   UNL A   1      32.206  22.002  26.101  1.00  0.00     0.107 C 
ATOM      8  C   UNL A   1      32.060  21.312  24.782  1.00  0.00    -0.006 C 
ATOM      9  C   UNL A   1      33.719  22.066  26.337  1.00  0.00     0.048 C 
ATOM     10  C   UNL A   1      33.232  20.920  24.282  1.00  0.00    -0.014 C 
BRANCH   7  11
ATOM     11  N   UNL A   1      31.419  23.211  26.039  1.00  0.00    -0.332 N 
ATOM     12  O   UNL A   1      29.592  22.742  27.351  1.00  0.00    -0.248 OA
ATOM     13  C   UNL A   1      30.249  23.510  26.657  1.00  0.00     0.319 C 
ATOM     14  N   UNL A   1      29.835  24.813  26.588  1.00  0.00    -0.308 N 
ATOM     15  H   UNL A   1      29.046  25.015  27.142  1.00  0.00     0.171 HD
ATOM     16  H   UNL A   1      31.784  23.922  25.464  1.00  0.00     0.165 HD
BRANCH  14  17
ATOM     17  C   UNL A   1      30.329  25.916  25.872  1.00  0.00     0.046 A 
ATOM     18  C   UNL A   1      31.333  26.773  26.363  1.00  0.00     0.030 A 
ATOM     19  C   UNL A   1      29.760  26.156  24.616  1.00  0.00     0.076 A 
ATOM     20  C   UNL A   1      31.700  27.926  25.659  1.00  0.00     0.053 A 
ATOM     21  C   UNL A   1      30.125  27.309  23.955  1.00  0.00     0.167 A 
ATOM     22  C   UNL A   1      31.058  28.178  24.468  1.00  0.00     0.165 A 
ATOM     23  O   UNL A   1      29.607  27.742  22.773  1.00  0.00    -0.454 OA
ATOM     24  O   UNL A   1      31.244  29.266  23.676  1.00  0.00    -0.454 OA
ATOM     25  C   UNL A   1      30.271  29.016  22.641  1.00  0.00     0.468 C 
ENDBRANCH  14  17
ENDBRANCH   7  11
ENDBRANCH   4   6
ENDBRANCH   3   4
ENDBRANCH   2   3
ENDBRANCH   1   2
BRANCH   1  26
ATOM     26  O   UNL A   1      39.101  20.781  25.401  1.00  0.00    -0.458 OA
BRANCH  26  27
ATOM     27  C   UNL A   1      39.888  20.703  26.503  1.00  0.00     0.338 C 
ATOM     28  O   UNL A   1      40.314  19.699  27.043  1.00  0.00    -0.246 OA
BRANCH  27  29
ATOM     29  C   UNL A   1      40.276  22.055  26.928  1.00  0.00     0.060 A 
ATOM     30  C   UNL A   1      39.698  23.142  26.269  1.00  0.00     0.016 A 
ATOM     31  C   UNL A   1      41.269  22.252  27.888  1.00  0.00     0.016 A 
ATOM     32  C   UNL A   1      40.112  24.438  26.562  1.00  0.00     0.010 A 
ATOM     33  C   UNL A   1      41.687  23.554  28.181  1.00  0.00     0.010 A 
ATOM     34  C   UNL A   1      41.119  24.653  27.511  1.00  0.00    -0.014 A 
BRANCH  34  35
ATOM     35  C   UNL A   1      41.619  26.027  27.749  1.00  0.00     0.031 A 
ATOM     36  C   UNL A   1      42.971  26.427  27.229  1.00  0.00     0.074 A 
ATOM     37  C   UNL A   1      40.847  26.921  28.393  1.00  0.00     0.049 A 
ATOM     38  N   UNL A   1      43.628  27.544  27.400  1.00  0.00    -0.248 NA
ATOM     39  C   UNL A   1      43.673  25.431  26.407  1.00  0.00     0.031 C 
ATOM     40  C   UNL A   1      39.493  26.662  28.886  1.00  0.00     0.029 A 
ATOM     41  N   UNL A   1      41.089  28.225  28.742  1.00  0.00    -0.354 N 
ATOM     42  C   UNL A   1      44.828  27.386  26.715  1.00  0.00     0.074 A 
ATOM     43  C   UNL A   1      44.815  26.053  26.150  1.00  0.00     0.031 C 
ATOM     44  C   UNL A   1      39.023  27.776  29.473  1.00  0.00     0.029 A 
ATOM     45  C   UNL A   1      40.059  28.805  29.444  1.00  0.00     0.049 A 
ATOM     46  H   UNL A   1      41.920  28.699  28.514  1.00  0.00     0.167 HD
ATOM     47  C   UNL A   1      45.843  28.274  26.573  1.00  0.00     0.034 A 
ATOM     48  C   UNL A   1      39.973  30.018  30.024  1.00  0.00     0.034 A 
ATOM     49  C   UNL A   1      45.844  29.594  27.156  1.00  0.00     0.049 A 
ATOM     50  C   UNL A   1      41.146  30.958  29.924  1.00  0.00     0.074 A 
ATOM     51  C   UNL A   1      46.831  30.564  27.104  1.00  0.00     0.029 A 
ATOM     52  N   UNL A   1      44.802  30.132  27.904  1.00  0.00    -0.354 N 
ATOM     53  N   UNL A   1      42.300  30.776  29.325  1.00  0.00    -0.248 NA
ATOM     54  C   UNL A   1      41.005  32.263  30.581  1.00  0.00     0.031 C 
ATOM     55  C   UNL A   1      46.410  31.664  27.862  1.00  0.00     0.029 A 
ATOM     56  C   UNL A   1      45.132  31.409  28.333  1.00  0.00     0.049 A 
ATOM     57  H   UNL A   1      43.955  29.673  28.100  1.00  0.00     0.167 HD
ATOM     58  C   UNL A   1      43.018  31.953  29.521  1.00  0.00     0.074 A 
ATOM     59  C   UNL A   1      42.160  32.840  30.279  1.00  0.00     0.031 C 
ATOM     60  C   UNL A   1      44.271  32.272  29.109  1.00  0.00     0.034 A 
BRANCH  47  61
ATOM     61  C   UNL A   1      47.058  27.811  25.806  1.00  0.00     0.023 A 
ATOM     62  C   UNL A   1      47.221  28.095  24.439  1.00  0.00     0.031 A 
ATOM     63  C   UNL A   1      48.045  27.039  26.442  1.00  0.00     0.131 A 
ATOM     64  C   UNL A   1      48.311  27.554  23.738  1.00  0.00     0.055 A 
ATOM     65  C   UNL A   1      49.164  26.563  25.755  1.00  0.00     0.041 A 
ATOM     66  F   UNL A   1      47.930  26.718  27.741  1.00  0.00    -0.206 F 
ATOM     67  C   UNL A   1      49.295  26.808  24.392  1.00  0.00     0.022 A 
BRANCH  64  68
ATOM     68  S   UNL A   1      48.357  27.730  21.932  1.00  0.00     0.124 S 
ATOM     69  O   UNL A   1      49.444  28.690  21.756  1.00  0.00    -0.237 OA
ATOM     70  O   UNL A   1      48.629  26.368  21.489  1.00  0.00    -0.237 OA
ATOM     71  O   UNL A   1      47.027  28.239  21.604  1.00  0.00    -0.744 OA
ENDBRANCH  64  68
ENDBRANCH  47  61
BRANCH  48  72
ATOM     72  C   UNL A   1      38.758  30.393  30.798  1.00  0.00     0.023 A 
ATOM     73  C   UNL A   1      37.706  31.104  30.201  1.00  0.00     0.031 A 
ATOM     74  C   UNL A   1      38.647  30.063  32.161  1.00  0.00     0.131 A 
ATOM     75  C   UNL A   1      36.598  31.489  30.974  1.00  0.00     0.055 A 
ATOM     76  C   UNL A   1      37.524  30.410  32.913  1.00  0.00     0.041 A 
ATOM     77  F   UNL A   1      39.626  29.382  32.776  1.00  0.00    -0.206 F 
ATOM     78  C   UNL A   1      36.495  31.135  32.322  1.00  0.00     0.022 A 
BRANCH  75  79
ATOM     79  S   UNL A   1      35.312  32.510  30.203  1.00  0.00     0.124 S 
ATOM     80  O   UNL A   1      34.356  32.658  31.295  1.00  0.00    -0.237 OA
ATOM     81  O   UNL A   1      36.056  33.710  29.835  1.00  0.00    -0.237 OA
ATOM     82  O   UNL A   1      34.857  31.692  29.081  1.00  0.00    -0.744 OA
ENDBRANCH  75  79
ENDBRANCH  48  72
BRANCH  60  83
ATOM     83  C   UNL A   1      44.765  33.655  29.448  1.00  0.00     0.023 A 
ATOM     84  C   UNL A   1      44.488  34.760  28.624  1.00  0.00     0.031 A 
ATOM     85  C   UNL A   1      45.539  33.864  30.604  1.00  0.00     0.131 A 
ATOM     86  C   UNL A   1      45.023  36.018  28.941  1.00  0.00     0.055 A 
ATOM     87  C   UNL A   1      46.027  35.127  30.940  1.00  0.00     0.041 A 
ATOM     88  F   UNL A   1      45.833  32.842  31.422  1.00  0.00    -0.206 F 
ATOM     89  C   UNL A   1      45.780  36.210  30.100  1.00  0.00     0.022 A 
BRANCH  86  90
ATOM     90  S   UNL A   1      44.783  37.387  27.776  1.00  0.00     0.124 S 
ATOM     91  O   UNL A   1      46.028  37.360  27.015  1.00  0.00    -0.237 OA
ATOM     92  O   UNL A   1      43.584  36.974  27.053  1.00  0.00    -0.237 OA
ATOM     93  O   UNL A   1      44.612  38.550  28.644  1.00  0.00    -0.744 OA
ENDBRANCH  86  90
ENDBRANCH  60  83
ENDBRANCH  34  35
ENDBRANCH  27  29
ENDBRANCH  26  27
ENDBRANCH   1  26
TORSDOF 16
ENDMDL
MODEL 2
REMARK VINA RESULT:     -12.2      5.620      8.897
REMARK SMILES O=C(Nc1ccc2c(c1)OCO2)N[C@H]1C=C[C@@H](C(=O)OCCOC(=O)c2ccc(-c3c4nc(c(-c5cc(S(=O)(=O)[O-])ccc5F)c5ccc([nH]5)c(-c5cc(S(=O)(=O)[O-])ccc5F)c5nc(c(-c6cc(S(=O)(=O)[O-])ccc6F)c6ccc3[nH]6)C=C5)C=C4)cc2)C1
REMARK SMILES IDX 22 1 21 2 20 3 18 4 19 5 17 6 14 7 15 8 89 9 16 10 13 11
REMARK SMILES IDX 1 12 2 13 3 14 4 17 5 18 9 19 6 20 8 21 7 22 10 23 12 24
REMARK SMILES IDX 11 25 23 26 24 27 25 28 26 29 27 30 88 31 28 32 87 33 29 34
REMARK SMILES IDX 30 35 31 36 81 37 32 38 86 39 80 40 82 41 33 42 85 43 79 44
REMARK SMILES IDX 78 45 34 47 66 48 46 49 65 50 47 51 50 52 64 53 83 54 48 55
REMARK SMILES IDX 49 56 63 58 84 59 51 60 35 61 36 62 44 63 37 64 43 65 45 66
REMARK SMILES IDX 42 67 38 68 39 69 40 70 41 71 67 72 68 73 76 74 69 75 75 76
REMARK SMILES IDX 77 77 74 78 70 79 71 80 72 81 73 82 52 83 53 84 61 85 54 86
REMARK SMILES IDX 60 87 62 88 59 89 55 90 56 91 57 92 58 93
REMARK H PARENT 3 15 13 16 82 46 50 57
REMARK Flexibility Score: inf
ROOT
ATOM      1  C   UNL A   1      31.910  32.844  27.113  1.00  0.00     0.275 C 
ENDROOT
BRANCH   1   2
ATOM      2  C   UNL A   1      31.987  31.450  26.491  1.00  0.00     0.274 C 
BRANCH   2   3
ATOM      3  O   UNL A   1      32.451  30.503  27.466  1.00  0.00    -0.462 OA
BRANCH   3   4
ATOM      4  C   UNL A   1      33.609  29.857  27.193  1.00  0.00     0.312 C 
ATOM      5  O   UNL A   1      34.728  30.316  27.405  1.00  0.00    -0.252 OA
BRANCH   4   6
ATOM      6  C   UNL A   1      33.400  28.489  26.558  1.00  0.00     0.124 C 
ATOM      7  C   UNL A   1      31.785  27.541  24.965  1.00  0.00     0.107 C 
ATOM      8  C   UNL A   1      33.059  27.953  24.299  1.00  0.00    -0.006 C 
ATOM      9  C   UNL A   1      31.956  27.969  26.426  1.00  0.00     0.048 C 
ATOM     10  C   UNL A   1      33.935  28.474  25.160  1.00  0.00    -0.014 C 
BRANCH   7  11
ATOM     11  N   UNL A   1      30.700  28.061  24.167  1.00  0.00    -0.332 N 
ATOM     12  O   UNL A   1      29.345  26.236  23.830  1.00  0.00    -0.248 OA
ATOM     13  C   UNL A   1      29.591  27.430  23.703  1.00  0.00     0.319 C 
ATOM     14  N   UNL A   1      28.620  28.223  23.152  1.00  0.00    -0.308 N 
ATOM     15  H   UNL A   1      27.787  27.745  22.933  1.00  0.00     0.171 HD
ATOM     16  H   UNL A   1      30.775  29.011  23.923  1.00  0.00     0.165 HD
BRANCH  14  17
ATOM     17  C   UNL A   1      28.595  29.592  22.841  1.00  0.00     0.046 A 
ATOM     18  C   UNL A   1      28.930  30.603  23.763  1.00  0.00     0.030 A 
ATOM     19  C   UNL A   1      28.194  29.935  21.544  1.00  0.00     0.076 A 
ATOM     20  C   UNL A   1      28.770  31.955  23.436  1.00  0.00     0.053 A 
ATOM     21  C   UNL A   1      28.025  31.272  21.257  1.00  0.00     0.167 A 
ATOM     22  C   UNL A   1      28.291  32.255  22.181  1.00  0.00     0.165 A 
ATOM     23  O   UNL A   1      27.559  31.777  20.082  1.00  0.00    -0.454 OA
ATOM     24  O   UNL A   1      28.025  33.499  21.705  1.00  0.00    -0.454 OA
ATOM     25  C   UNL A   1      27.495  33.183  20.402  1.00  0.00     0.468 C 
ENDBRANCH  14  17
ENDBRANCH   7  11
ENDBRANCH   4   6
ENDBRANCH   3   4
ENDBRANCH   2   3
ENDBRANCH   1   2
BRANCH   1  26
ATOM     26  O   UNL A   1      33.227  33.376  27.353  1.00  0.00    -0.458 OA
BRANCH  26  27
ATOM     27  C   UNL A   1      33.326  34.194  28.429  1.00  0.00     0.338 C 
ATOM     28  O   UNL A   1      32.583  35.107  28.741  1.00  0.00    -0.246 OA
BRANCH  27  29
ATOM     29  C   UNL A   1      34.439  33.754  29.283  1.00  0.00     0.060 A 
ATOM     30  C   UNL A   1      35.720  34.223  28.986  1.00  0.00     0.016 A 
ATOM     31  C   UNL A   1      34.243  32.812  30.293  1.00  0.00     0.016 A 
ATOM     32  C   UNL A   1      36.819  33.753  29.697  1.00  0.00     0.010 A 
ATOM     33  C   UNL A   1      35.348  32.338  31.007  1.00  0.00     0.010 A 
ATOM     34  C   UNL A   1      36.643  32.797  30.705  1.00  0.00    -0.014 A 
BRANCH  34  35
ATOM     35  C   UNL A   1      37.828  32.231  31.392  1.00  0.00     0.031 A 
ATOM     36  C   UNL A   1      38.591  31.105  30.754  1.00  0.00     0.074 A 
ATOM     37  C   UNL A   1      38.237  32.753  32.563  1.00  0.00     0.049 A 
ATOM     38  N   UNL A   1      39.597  30.415  31.224  1.00  0.00    -0.248 NA
ATOM     39  C   UNL A   1      38.159  30.706  29.407  1.00  0.00     0.031 C 
ATOM     40  C   UNL A   1      37.611  33.888  33.243  1.00  0.00     0.029 A 
ATOM     41  N   UNL A   1      39.275  32.399  33.386  1.00  0.00    -0.354 N 
ATOM     42  C   UNL A   1      39.916  29.490  30.236  1.00  0.00     0.074 A 
ATOM     43  C   UNL A   1      38.977  29.695  29.152  1.00  0.00     0.031 C 
ATOM     44  C   UNL A   1      38.280  34.137  34.381  1.00  0.00     0.029 A 
ATOM     45  C   UNL A   1      39.346  33.151  34.534  1.00  0.00     0.049 A 
ATOM     46  H   UNL A   1      39.908  31.675  33.175  1.00  0.00     0.167 HD
ATOM     47  C   UNL A   1      40.904  28.560  30.234  1.00  0.00     0.034 A 
ATOM     48  C   UNL A   1      40.159  33.037  35.603  1.00  0.00     0.034 A 
ATOM     49  C   UNL A   1      41.822  28.362  31.330  1.00  0.00     0.049 A 
ATOM     50  C   UNL A   1      41.195  31.944  35.616  1.00  0.00     0.074 A 
ATOM     51  C   UNL A   1      42.839  27.430  31.451  1.00  0.00     0.029 A 
ATOM     52  N   UNL A   1      41.833  29.112  32.501  1.00  0.00    -0.354 N 
ATOM     53  N   UNL A   1      41.450  31.037  34.702  1.00  0.00    -0.248 NA
ATOM     54  C   UNL A   1      42.049  31.857  36.808  1.00  0.00     0.031 C 
ATOM     55  C   UNL A   1      43.428  27.581  32.712  1.00  0.00     0.029 A 
ATOM     56  C   UNL A   1      42.825  28.650  33.355  1.00  0.00     0.049 A 
ATOM     57  H   UNL A   1      41.226  29.861  32.697  1.00  0.00     0.167 HD
ATOM     58  C   UNL A   1      42.506  30.281  35.203  1.00  0.00     0.074 A 
ATOM     59  C   UNL A   1      42.848  30.848  36.491  1.00  0.00     0.031 C 
ATOM     60  C   UNL A   1      43.137  29.215  34.647  1.00  0.00     0.034 A 
BRANCH  47  61
ATOM     61  C   UNL A   1      40.990  27.652  29.032  1.00  0.00     0.023 A 
ATOM     62  C   UNL A   1      41.964  27.835  28.036  1.00  0.00     0.031 A 
ATOM     63  C   UNL A   1      40.057  26.615  28.860  1.00  0.00     0.131 A 
ATOM     64  C   UNL A   1      41.943  27.035  26.882  1.00  0.00     0.055 A 
ATOM     65  C   UNL A   1      40.084  25.777  27.743  1.00  0.00     0.041 A 
ATOM     66  F   UNL A   1      39.090  26.408  29.769  1.00  0.00    -0.206 F 
ATOM     67  C   UNL A   1      41.022  25.995  26.739  1.00  0.00     0.022 A 
BRANCH  64  68
ATOM     68  S   UNL A   1      43.052  27.460  25.510  1.00  0.00     0.124 S 
ATOM     69  O   UNL A   1      42.219  28.369  24.726  1.00  0.00    -0.237 OA
ATOM     70  O   UNL A   1      44.187  28.065  26.196  1.00  0.00    -0.237 OA
ATOM     71  O   UNL A   1      43.321  26.171  24.875  1.00  0.00    -0.744 OA
ENDBRANCH  64  68
ENDBRANCH  47  61
BRANCH  48  72
ATOM     72  C   UNL A   1      39.992  33.945  36.770  1.00  0.00     0.023 A 
ATOM     73  C   UNL A   1      39.364  33.511  37.947  1.00  0.00     0.031 A 
ATOM     74  C   UNL A   1      40.439  35.278  36.710  1.00  0.00     0.131 A 
ATOM     75  C   UNL A   1      39.174  34.410  39.009  1.00  0.00     0.055 A 
ATOM     76  C   UNL A   1      40.288  36.155  37.785  1.00  0.00     0.041 A 
ATOM     77  F   UNL A   1      41.046  35.741  35.606  1.00  0.00    -0.206 F 
ATOM     78  C   UNL A   1      39.643  35.725  38.940  1.00  0.00     0.022 A 
BRANCH  75  79
ATOM     79  S   UNL A   1      38.255  33.851  40.469  1.00  0.00     0.124 S 
ATOM     80  O   UNL A   1      39.201  32.926  41.081  1.00  0.00    -0.237 OA
ATOM     81  O   UNL A   1      38.027  35.103  41.183  1.00  0.00    -0.237 OA
ATOM     82  O   UNL A   1      37.057  33.234  39.901  1.00  0.00    -0.744 OA
ENDBRANCH  75  79
ENDBRANCH  48  72
BRANCH  60  83
ATOM     83  C   UNL A   1      44.284  28.624  35.426  1.00  0.00     0.023 A 
ATOM     84  C   UNL A   1      44.083  27.612  36.381  1.00  0.00     0.031 A 
ATOM     85  C   UNL A   1      45.594  29.096  35.221  1.00  0.00     0.131 A 
ATOM     86  C   UNL A   1      45.170  27.137  37.132  1.00  0.00     0.055 A 
ATOM     87  C   UNL A   1      46.676  28.585  35.936  1.00  0.00     0.041 A 
ATOM     88  F   UNL A   1      45.837  30.063  34.322  1.00  0.00    -0.206 F 
ATOM     89  C   UNL A   1      46.467  27.609  36.906  1.00  0.00     0.022 A 
BRANCH  86  90
ATOM     90  S   UNL A   1      44.855  25.949  38.465  1.00  0.00     0.124 S 
ATOM     91  O   UNL A   1      44.217  26.788  39.476  1.00  0.00    -0.237 OA
ATOM     92  O   UNL A   1      43.993  24.969  37.813  1.00  0.00    -0.237 OA
ATOM     93  O   UNL A   1      46.189  25.464  38.815  1.00  0.00    -0.744 OA
ENDBRANCH  86  90
ENDBRANCH  60  83
ENDBRANCH  34  35
ENDBRANCH  27  29
ENDBRANCH  26  27
ENDBRANCH   1  26
TORSDOF 16
ENDMDL
MODEL 3
REMARK VINA RESULT:     -12.1      2.085      7.930
REMARK SMILES O=C(Nc1ccc2c(c1)OCO2)N[C@H]1C=C[C@@H](C(=O)OCCOC(=O)c2ccc(-c3c4nc(c(-c5cc(S(=O)(=O)[O-])ccc5F)c5ccc([nH]5)c(-c5cc(S(=O)(=O)[O-])ccc5F)c5nc(c(-c6cc(S(=O)(=O)[O-])ccc6F)c6ccc3[nH]6)C=C5)C=C4)cc2)C1
REMARK SMILES IDX 22 1 21 2 20 3 18 4 19 5 17 6 14 7 15 8 89 9 16 10 13 11
REMARK SMILES IDX 1 12 2 13 3 14 4 17 5 18 9 19 6 20 8 21 7 22 10 23 12 24
REMARK SMILES IDX 11 25 23 26 24 27 25 28 26 29 27 30 88 31 28 32 87 33 29 34
REMARK SMILES IDX 30 35 31 36 81 37 32 38 86 39 80 40 82 41 33 42 85 43 79 44
REMARK SMILES IDX 78 45 34 47 66 48 46 49 65 50 47 51 50 52 64 53 83 54 48 55
REMARK SMILES IDX 49 56 63 58 84 59 51 60 35 61 36 62 44 63 37 64 43 65 45 66
REMARK SMILES IDX 42 67 38 68 39 69 40 70 41 71 67 72 68 73 76 74 69 75 75 76
REMARK SMILES IDX 77 77 74 78 70 79 71 80 72 81 73 82 52 83 53 84 61 85 54 86
REMARK SMILES IDX 60 87 62 88 59 89 55 90 56 91 57 92 58 93
REMARK H PARENT 3 15 13 16 82 46 50 57
REMARK Flexibility Score: inf
ROOT
ATOM      1  C   UNL A   1      36.343  20.666  25.308  1.00  0.00     0.275 C 
ENDROOT
BRANCH   1   2
ATOM      2  C   UNL A   1      35.205  21.343  26.071  1.00  0.00     0.274 C 
BRANCH   2   3
ATOM      3  O   UNL A   1      33.995  21.283  25.300  1.00  0.00    -0.462 OA
BRANCH   3   4
ATOM      4  C   UNL A   1      33.692  22.364  24.543  1.00  0.00     0.312 C 
ATOM      5  O   UNL A   1      33.150  22.314  23.443  1.00  0.00    -0.252 OA
BRANCH   4   6
ATOM      6  C   UNL A   1      34.119  23.681  25.178  1.00  0.00     0.124 C 
ATOM      7  C   UNL A   1      33.660  26.055  24.732  1.00  0.00     0.107 C 
ATOM      8  C   UNL A   1      32.789  25.505  25.817  1.00  0.00    -0.006 C 
ATOM      9  C   UNL A   1      34.471  24.851  24.240  1.00  0.00     0.048 C 
ATOM     10  C   UNL A   1      33.032  24.215  26.057  1.00  0.00    -0.014 C 
BRANCH   7  11
ATOM     11  N   UNL A   1      32.803  26.785  23.828  1.00  0.00    -0.332 N 
ATOM     12  O   UNL A   1      33.782  26.471  21.773  1.00  0.00    -0.248 OA
ATOM     13  C   UNL A   1      32.884  26.915  22.480  1.00  0.00     0.319 C 
ATOM     14  N   UNL A   1      31.811  27.492  21.854  1.00  0.00    -0.308 N 
ATOM     15  H   UNL A   1      31.856  27.464  20.871  1.00  0.00     0.171 HD
ATOM     16  H   UNL A   1      32.051  27.259  24.252  1.00  0.00     0.165 HD
BRANCH  14  17
ATOM     17  C   UNL A   1      30.658  28.115  22.358  1.00  0.00     0.046 A 
ATOM     18  C   UNL A   1      29.619  27.417  23.006  1.00  0.00     0.030 A 
ATOM     19  C   UNL A   1      30.559  29.499  22.174  1.00  0.00     0.076 A 
ATOM     20  C   UNL A   1      28.439  28.071  23.379  1.00  0.00     0.053 A 
ATOM     21  C   UNL A   1      29.378  30.113  22.531  1.00  0.00     0.167 A 
ATOM     22  C   UNL A   1      28.340  29.416  23.105  1.00  0.00     0.165 A 
ATOM     23  O   UNL A   1      29.078  31.426  22.341  1.00  0.00    -0.454 OA
ATOM     24  O   UNL A   1      27.259  30.203  23.346  1.00  0.00    -0.454 OA
ATOM     25  C   UNL A   1      27.709  31.457  22.794  1.00  0.00     0.468 C 
ENDBRANCH  14  17
ENDBRANCH   7  11
ENDBRANCH   4   6
ENDBRANCH   3   4
ENDBRANCH   2   3
ENDBRANCH   1   2
BRANCH   1  26
ATOM     26  O   UNL A   1      37.454  21.566  25.130  1.00  0.00    -0.458 OA
BRANCH  26  27
ATOM     27  C   UNL A   1      38.600  21.190  25.749  1.00  0.00     0.338 C 
ATOM     28  O   UNL A   1      39.111  20.085  25.761  1.00  0.00    -0.246 OA
BRANCH  27  29
ATOM     29  C   UNL A   1      39.246  22.367  26.346  1.00  0.00     0.060 A 
ATOM     30  C   UNL A   1      38.825  23.630  25.929  1.00  0.00     0.016 A 
ATOM     31  C   UNL A   1      40.321  22.230  27.225  1.00  0.00     0.016 A 
ATOM     32  C   UNL A   1      39.478  24.771  26.385  1.00  0.00     0.010 A 
ATOM     33  C   UNL A   1      40.978  23.376  27.683  1.00  0.00     0.010 A 
ATOM     34  C   UNL A   1      40.568  24.652  27.256  1.00  0.00    -0.014 A 
BRANCH  34  35
ATOM     35  C   UNL A   1      41.316  25.865  27.662  1.00  0.00     0.031 A 
ATOM     36  C   UNL A   1      40.636  26.915  28.493  1.00  0.00     0.074 A 
ATOM     37  C   UNL A   1      42.610  26.002  27.317  1.00  0.00     0.049 A 
ATOM     38  N   UNL A   1      41.081  28.082  28.881  1.00  0.00    -0.248 NA
ATOM     39  C   UNL A   1      39.273  26.605  28.947  1.00  0.00     0.031 C 
ATOM     40  C   UNL A   1      43.389  25.017  26.566  1.00  0.00     0.029 A 
ATOM     41  N   UNL A   1      43.495  27.022  27.555  1.00  0.00    -0.354 N 
ATOM     42  C   UNL A   1      40.050  28.655  29.617  1.00  0.00     0.074 A 
ATOM     43  C   UNL A   1      38.949  27.714  29.598  1.00  0.00     0.031 C 
ATOM     44  C   UNL A   1      44.640  25.481  26.406  1.00  0.00     0.029 A 
ATOM     45  C   UNL A   1      44.734  26.813  26.996  1.00  0.00     0.049 A 
ATOM     46  H   UNL A   1      43.266  27.825  28.075  1.00  0.00     0.167 HD
ATOM     47  C   UNL A   1      40.027  29.854  30.251  1.00  0.00     0.034 A 
ATOM     48  C   UNL A   1      45.812  27.620  26.940  1.00  0.00     0.034 A 
ATOM     49  C   UNL A   1      41.130  30.785  30.247  1.00  0.00     0.049 A 
ATOM     50  C   UNL A   1      45.738  28.981  27.581  1.00  0.00     0.074 A 
ATOM     51  C   UNL A   1      41.207  32.040  30.828  1.00  0.00     0.029 A 
ATOM     52  N   UNL A   1      42.355  30.562  29.628  1.00  0.00    -0.354 N 
ATOM     53  N   UNL A   1      44.737  29.538  28.223  1.00  0.00    -0.248 NA
ATOM     54  C   UNL A   1      46.936  29.824  27.483  1.00  0.00     0.031 C 
ATOM     55  C   UNL A   1      42.454  32.595  30.516  1.00  0.00     0.029 A 
ATOM     56  C   UNL A   1      43.183  31.662  29.796  1.00  0.00     0.049 A 
ATOM     57  H   UNL A   1      42.599  29.742  29.141  1.00  0.00     0.167 HD
ATOM     58  C   UNL A   1      45.192  30.791  28.621  1.00  0.00     0.074 A 
ATOM     59  C   UNL A   1      46.560  30.902  28.158  1.00  0.00     0.031 C 
ATOM     60  C   UNL A   1      44.539  31.763  29.308  1.00  0.00     0.034 A 
BRANCH  47  61
ATOM     61  C   UNL A   1      38.744  30.241  30.943  1.00  0.00     0.023 A 
ATOM     62  C   UNL A   1      37.710  30.909  30.265  1.00  0.00     0.031 A 
ATOM     63  C   UNL A   1      38.569  29.973  32.312  1.00  0.00     0.131 A 
ATOM     64  C   UNL A   1      36.578  31.347  30.971  1.00  0.00     0.055 A 
ATOM     65  C   UNL A   1      37.409  30.348  32.994  1.00  0.00     0.041 A 
ATOM     66  F   UNL A   1      39.532  29.357  33.016  1.00  0.00    -0.206 F 
ATOM     67  C   UNL A   1      36.412  31.052  32.326  1.00  0.00     0.022 A 
BRANCH  64  68
ATOM     68  S   UNL A   1      35.386  32.421  30.124  1.00  0.00     0.124 S 
ATOM     69  O   UNL A   1      34.359  32.589  31.148  1.00  0.00    -0.237 OA
ATOM     70  O   UNL A   1      36.185  33.603  29.820  1.00  0.00    -0.237 OA
ATOM     71  O   UNL A   1      34.976  31.630  28.964  1.00  0.00    -0.744 OA
ENDBRANCH  64  68
ENDBRANCH  47  61
BRANCH  48  72
ATOM     72  C   UNL A   1      47.033  27.186  26.207  1.00  0.00     0.023 A 
ATOM     73  C   UNL A   1      48.080  26.522  26.864  1.00  0.00     0.031 A 
ATOM     74  C   UNL A   1      47.178  27.457  24.835  1.00  0.00     0.131 A 
ATOM     75  C   UNL A   1      49.241  26.176  26.154  1.00  0.00     0.055 A 
ATOM     76  C   UNL A   1      48.315  27.071  24.123  1.00  0.00     0.041 A 
ATOM     77  F   UNL A   1      46.204  28.089  24.161  1.00  0.00    -0.206 F 
ATOM     78  C   UNL A   1      49.359  26.435  24.786  1.00  0.00     0.022 A 
BRANCH  75  79
ATOM     79  S   UNL A   1      50.623  25.427  27.058  1.00  0.00     0.124 S 
ATOM     80  O   UNL A   1      51.555  25.123  25.978  1.00  0.00    -0.237 OA
ATOM     81  O   UNL A   1      51.016  26.504  27.960  1.00  0.00    -0.237 OA
ATOM     82  O   UNL A   1      50.016  24.265  27.705  1.00  0.00    -0.744 OA
ENDBRANCH  75  79
ENDBRANCH  48  72
BRANCH  60  83
ATOM     83  C   UNL A   1      45.321  33.012  29.624  1.00  0.00     0.023 A 
ATOM     84  C   UNL A   1      45.316  34.123  28.763  1.00  0.00     0.031 A 
ATOM     85  C   UNL A   1      46.094  33.082  30.797  1.00  0.00     0.131 A 
ATOM     86  C   UNL A   1      46.111  35.240  29.062  1.00  0.00     0.055 A 
ATOM     87  C   UNL A   1      46.844  34.214  31.114  1.00  0.00     0.041 A 
ATOM     88  F   UNL A   1      46.133  32.047  31.652  1.00  0.00    -0.206 F 
ATOM     89  C   UNL A   1      46.865  35.297  30.238  1.00  0.00     0.022 A 
BRANCH  86  90
ATOM     90  S   UNL A   1      46.211  36.589  27.854  1.00  0.00     0.124 S 
ATOM     91  O   UNL A   1      47.460  36.285  27.161  1.00  0.00    -0.237 OA
ATOM     92  O   UNL A   1      44.990  36.403  27.077  1.00  0.00    -0.237 OA
ATOM     93  O   UNL A   1      46.239  37.792  28.683  1.00  0.00    -0.744 OA
ENDBRANCH  86  90
ENDBRANCH  60  83
ENDBRANCH  34  35
ENDBRANCH  27  29
ENDBRANCH  26  27
ENDBRANCH   1  26
TORSDOF 16
ENDMDL
