MODEL 1
REMARK VINA RESULT:     -13.2      0.000      0.000
REMARK SMILES O=C(OCCOC(=O)[C@@H]1CC2(CC[NH+](C(=O)C3(c4ccccc4F)CC3)CC2)C[NH2+]1)c1ccc(-c2c3nc(c(-c4cc(S(=O)(=O)[O-])ccc4F)c4ccc([nH]4)c(-c4cc(S(=O)(=O)[O-])ccc4F)c4nc(c(-c5cc(S(=O)(=O)[O-])ccc5F)c5ccc2[nH]5)C=C4)C=C3)cc1
REMARK SMILES IDX 4 1 3 2 2 3 1 4 31 5 32 6 93 7 33 8 92 9 34 10 35 11 36 12
REMARK SMILES IDX 86 13 37 14 91 15 85 16 87 17 38 18 90 19 84 20 83 21 39 23
REMARK SMILES IDX 71 24 51 25 70 26 52 27 55 28 69 29 88 30 53 31 54 32 68 34
REMARK SMILES IDX 89 35 56 36 40 37 41 38 49 39 42 40 48 41 50 42 47 43 43 44
REMARK SMILES IDX 44 45 45 46 46 47 72 48 73 49 81 50 74 51 80 52 82 53 79 54
REMARK SMILES IDX 75 55 76 56 77 57 78 58 57 59 58 60 66 61 59 62 65 63 67 64
REMARK SMILES IDX 64 65 60 66 61 67 62 68 63 69 5 70 6 71 7 72 8 73 9 74 10 75
REMARK SMILES IDX 30 76 11 77 29 78 12 81 28 82 13 83 27 84 14 85 15 87 16 88
REMARK SMILES IDX 17 89 25 90 26 91 18 92 19 93 23 94 20 95 22 96 24 97 21 98
REMARK H PARENT 87 22 55 33 30 79 30 80 14 86
REMARK Flexibility Score: inf
ROOT
ATOM      1  C   UNL A   1      36.825  21.346  25.681  1.00  0.00     0.275 C 
ENDROOT
BRANCH   1   2
ATOM      2  O   UNL A   1      38.156  21.622  25.219  1.00  0.00    -0.458 OA
BRANCH   2   3
ATOM      3  C   UNL A   1      39.211  21.482  26.043  1.00  0.00     0.338 C 
ATOM      4  O   UNL A   1      39.818  20.421  26.134  1.00  0.00    -0.246 OA
BRANCH   3   5
ATOM      5  C   UNL A   1      39.679  22.711  26.755  1.00  0.00     0.060 A 
ATOM      6  C   UNL A   1      40.777  22.799  27.613  1.00  0.00     0.016 A 
ATOM      7  C   UNL A   1      39.054  23.892  26.379  1.00  0.00     0.016 A 
ATOM      8  C   UNL A   1      41.317  24.049  27.963  1.00  0.00     0.010 A 
ATOM      9  C   UNL A   1      39.654  25.124  26.635  1.00  0.00     0.010 A 
ATOM     10  C   UNL A   1      40.813  25.231  27.410  1.00  0.00    -0.014 A 
BRANCH  10  11
ATOM     11  C   UNL A   1      41.420  26.583  27.631  1.00  0.00     0.031 A 
ATOM     12  C   UNL A   1      42.682  26.954  26.877  1.00  0.00     0.074 A 
ATOM     13  C   UNL A   1      40.930  27.449  28.547  1.00  0.00     0.049 A 
ATOM     14  N   UNL A   1      43.579  27.864  27.158  1.00  0.00    -0.248 NA
ATOM     15  C   UNL A   1      43.018  26.137  25.701  1.00  0.00     0.031 C 
ATOM     16  C   UNL A   1      39.751  27.250  29.397  1.00  0.00     0.029 A 
ATOM     17  N   UNL A   1      41.366  28.705  28.901  1.00  0.00    -0.354 N 
ATOM     18  C   UNL A   1      44.646  27.629  26.290  1.00  0.00     0.074 A 
ATOM     19  C   UNL A   1      44.264  26.516  25.454  1.00  0.00     0.031 C 
ATOM     20  C   UNL A   1      39.499  28.380  30.082  1.00  0.00     0.029 A 
ATOM     21  C   UNL A   1      40.529  29.364  29.773  1.00  0.00     0.049 A 
ATOM     22  H   UNL A   1      42.202  29.098  28.560  1.00  0.00     0.167 HD
ATOM     23  C   UNL A   1      45.832  28.285  26.225  1.00  0.00     0.034 A 
ATOM     24  C   UNL A   1      40.579  30.628  30.240  1.00  0.00     0.034 A 
ATOM     25  C   UNL A   1      46.071  29.532  26.908  1.00  0.00     0.049 A 
ATOM     26  C   UNL A   1      41.739  31.506  29.846  1.00  0.00     0.074 A 
ATOM     27  C   UNL A   1      47.212  30.318  26.920  1.00  0.00     0.029 A 
ATOM     28  N   UNL A   1      45.099  30.232  27.600  1.00  0.00    -0.354 N 
ATOM     29  N   UNL A   1      42.831  31.173  29.200  1.00  0.00    -0.248 NA
ATOM     30  C   UNL A   1      41.671  32.927  30.220  1.00  0.00     0.031 C 
ATOM     31  C   UNL A   1      46.916  31.511  27.588  1.00  0.00     0.029 A 
ATOM     32  C   UNL A   1      45.581  31.477  27.948  1.00  0.00     0.049 A 
ATOM     33  H   UNL A   1      44.199  29.894  27.812  1.00  0.00     0.167 HD
ATOM     34  C   UNL A   1      43.563  32.348  29.068  1.00  0.00     0.074 A 
ATOM     35  C   UNL A   1      42.784  33.402  29.680  1.00  0.00     0.031 C 
ATOM     36  C   UNL A   1      44.778  32.531  28.504  1.00  0.00     0.034 A 
BRANCH  23  37
ATOM     37  C   UNL A   1      46.961  27.705  25.409  1.00  0.00     0.023 A 
ATOM     38  C   UNL A   1      47.182  28.042  24.068  1.00  0.00     0.031 A 
ATOM     39  C   UNL A   1      47.874  26.820  26.022  1.00  0.00     0.131 A 
ATOM     40  C   UNL A   1      48.256  27.467  23.370  1.00  0.00     0.055 A 
ATOM     41  C   UNL A   1      48.969  26.291  25.339  1.00  0.00     0.041 A 
ATOM     42  F   UNL A   1      47.719  26.463  27.307  1.00  0.00    -0.206 F 
ATOM     43  C   UNL A   1      49.159  26.606  24.000  1.00  0.00     0.022 A 
BRANCH  40  44
ATOM     44  S   UNL A   1      48.372  27.739  21.582  1.00  0.00     0.124 S 
ATOM     45  O   UNL A   1      49.451  28.720  21.497  1.00  0.00    -0.237 OA
ATOM     46  O   UNL A   1      48.675  26.404  21.083  1.00  0.00    -0.237 OA
ATOM     47  O   UNL A   1      47.051  28.258  21.232  1.00  0.00    -0.744 OA
ENDBRANCH  40  44
ENDBRANCH  23  37
BRANCH  24  48
ATOM     48  C   UNL A   1      39.458  31.200  31.033  1.00  0.00     0.023 A 
ATOM     49  C   UNL A   1      39.528  31.177  32.436  1.00  0.00     0.031 A 
ATOM     50  C   UNL A   1      38.297  31.713  30.437  1.00  0.00     0.131 A 
ATOM     51  C   UNL A   1      38.433  31.597  33.202  1.00  0.00     0.055 A 
ATOM     52  C   UNL A   1      37.223  32.173  31.205  1.00  0.00     0.041 A 
ATOM     53  F   UNL A   1      38.190  31.774  29.100  1.00  0.00    -0.206 F 
ATOM     54  C   UNL A   1      37.281  32.102  32.596  1.00  0.00     0.022 A 
BRANCH  51  55
ATOM     55  S   UNL A   1      38.520  31.403  35.002  1.00  0.00     0.124 S 
ATOM     56  O   UNL A   1      39.787  32.055  35.309  1.00  0.00    -0.237 OA
ATOM     57  O   UNL A   1      37.315  32.100  35.440  1.00  0.00    -0.237 OA
ATOM     58  O   UNL A   1      38.500  29.953  35.188  1.00  0.00    -0.744 OA
ENDBRANCH  51  55
ENDBRANCH  24  48
BRANCH  36  59
ATOM     59  C   UNL A   1      45.321  33.926  28.427  1.00  0.00     0.023 A 
ATOM     60  C   UNL A   1      46.146  34.448  29.432  1.00  0.00     0.031 A 
ATOM     61  C   UNL A   1      45.049  34.718  27.298  1.00  0.00     0.131 A 
ATOM     62  C   UNL A   1      46.648  35.750  29.307  1.00  0.00     0.055 A 
ATOM     63  C   UNL A   1      45.581  35.999  27.162  1.00  0.00     0.041 A 
ATOM     64  F   UNL A   1      44.270  34.252  26.309  1.00  0.00    -0.206 F 
ATOM     65  C   UNL A   1      46.381  36.525  28.173  1.00  0.00     0.022 A 
BRANCH  62  66
ATOM     66  S   UNL A   1      47.631  36.431  30.668  1.00  0.00     0.124 S 
ATOM     67  O   UNL A   1      47.763  37.830  30.278  1.00  0.00    -0.237 OA
ATOM     68  O   UNL A   1      46.781  36.171  31.827  1.00  0.00    -0.237 OA
ATOM     69  O   UNL A   1      48.868  35.653  30.622  1.00  0.00    -0.744 OA
ENDBRANCH  62  66
ENDBRANCH  36  59
ENDBRANCH  10  11
ENDBRANCH   3   5
ENDBRANCH   2   3
ENDBRANCH   1   2
BRANCH   1  70
ATOM     70  C   UNL A   1      35.962  20.324  24.923  1.00  0.00     0.274 C 
BRANCH  70  71
ATOM     71  O   UNL A   1      34.727  20.830  24.374  1.00  0.00    -0.458 OA
BRANCH  71  72
ATOM     72  C   UNL A   1      33.622  20.059  24.623  1.00  0.00     0.364 C 
ATOM     73  O   UNL A   1      33.345  19.031  24.006  1.00  0.00    -0.245 OA
BRANCH  72  74
ATOM     74  C   UNL A   1      32.658  20.693  25.656  1.00  0.00     0.294 C 
ATOM     75  C   UNL A   1      32.214  22.128  25.388  1.00  0.00     0.090 C 
ATOM     76  N   UNL A   1      33.324  20.693  26.983  1.00  0.00    -0.334 N 
ATOM     77  C   UNL A   1      32.884  23.037  26.433  1.00  0.00     0.036 C 
ATOM     78  C   UNL A   1      33.301  22.046  27.531  1.00  0.00     0.268 C 
ATOM     79  H   UNL A   1      34.289  20.382  26.881  1.00  0.00     0.347 HD
ATOM     80  H   UNL A   1      32.831  20.060  27.613  1.00  0.00     0.347 HD
ATOM     81  C   UNL A   1      31.938  24.104  27.020  1.00  0.00     0.075 C 
ATOM     82  C   UNL A   1      34.116  23.784  25.888  1.00  0.00     0.075 C 
ATOM     83  C   UNL A   1      31.546  25.206  26.037  1.00  0.00     0.271 C 
ATOM     84  C   UNL A   1      33.808  24.995  25.010  1.00  0.00     0.271 C 
ATOM     85  N   UNL A   1      32.673  25.844  25.366  1.00  0.00    -0.271 N 
ATOM     86  H   UNL A   1      32.883  26.571  24.734  1.00  0.00     0.356 HD
BRANCH  85  87
ATOM     87  C   UNL A   1      32.395  26.834  24.385  1.00  0.00     0.322 C 
ATOM     88  O   UNL A   1      32.814  27.986  24.549  1.00  0.00    -0.230 OA
BRANCH  87  89
ATOM     89  C   UNL A   1      31.491  26.577  23.181  1.00  0.00     0.113 C 
ATOM     90  C   UNL A   1      32.065  26.264  21.803  1.00  0.00     0.028 C 
ATOM     91  C   UNL A   1      31.388  25.180  22.581  1.00  0.00     0.028 C 
BRANCH  89  92
ATOM     92  C   UNL A   1      30.220  27.464  23.176  1.00  0.00     0.007 A 
ATOM     93  C   UNL A   1      28.986  26.951  23.617  1.00  0.00     0.008 A 
ATOM     94  C   UNL A   1      30.198  28.757  22.637  1.00  0.00     0.127 A 
ATOM     95  C   UNL A   1      27.796  27.676  23.503  1.00  0.00     0.001 A 
ATOM     96  C   UNL A   1      29.017  29.499  22.529  1.00  0.00     0.039 A 
ATOM     97  F   UNL A   1      31.336  29.308  22.186  1.00  0.00    -0.207 F 
ATOM     98  C   UNL A   1      27.810  28.953  22.958  1.00  0.00     0.003 A 
ENDBRANCH  89  92
ENDBRANCH  87  89
ENDBRANCH  85  87
ENDBRANCH  72  74
ENDBRANCH  71  72
ENDBRANCH  70  71
ENDBRANCH   1  70
TORSDOF 17
ENDMDL
MODEL 2
REMARK VINA RESULT:     -13.2      1.873      2.194
REMARK SMILES O=C(OCCOC(=O)[C@@H]1CC2(CC[NH+](C(=O)C3(c4ccccc4F)CC3)CC2)C[NH2+]1)c1ccc(-c2c3nc(c(-c4cc(S(=O)(=O)[O-])ccc4F)c4ccc([nH]4)c(-c4cc(S(=O)(=O)[O-])ccc4F)c4nc(c(-c5cc(S(=O)(=O)[O-])ccc5F)c5ccc2[nH]5)C=C4)C=C3)cc1
REMARK SMILES IDX 4 1 3 2 2 3 1 4 31 5 32 6 93 7 33 8 92 9 34 10 35 11 36 12
REMARK SMILES IDX 86 13 37 14 91 15 85 16 87 17 38 18 90 19 84 20 83 21 39 23
REMARK SMILES IDX 71 24 51 25 70 26 52 27 55 28 69 29 88 30 53 31 54 32 68 34
REMARK SMILES IDX 89 35 56 36 40 37 41 38 49 39 42 40 48 41 50 42 47 43 43 44
REMARK SMILES IDX 44 45 45 46 46 47 72 48 73 49 81 50 74 51 80 52 82 53 79 54
REMARK SMILES IDX 75 55 76 56 77 57 78 58 57 59 58 60 66 61 59 62 65 63 67 64
REMARK SMILES IDX 64 65 60 66 61 67 62 68 63 69 5 70 6 71 7 72 8 73 9 74 10 75
REMARK SMILES IDX 30 76 11 77 29 78 12 81 28 82 13 83 27 84 14 85 15 87 16 88
REMARK SMILES IDX 17 89 25 90 26 91 18 92 19 93 23 94 20 95 22 96 24 97 21 98
REMARK H PARENT 87 22 55 33 30 79 30 80 14 86
REMARK Flexibility Score: inf
ROOT
ATOM      1  C   UNL A   1      36.449  21.241  25.528  1.00  0.00     0.275 C 
ENDROOT
BRANCH   1   2
ATOM      2  O   UNL A   1      37.765  21.379  24.971  1.00  0.00    -0.458 OA
BRANCH   2   3
ATOM      3  C   UNL A   1      38.857  21.189  25.736  1.00  0.00     0.338 C 
ATOM      4  O   UNL A   1      39.505  20.151  25.682  1.00  0.00    -0.246 OA
BRANCH   3   5
ATOM      5  C   UNL A   1      39.308  22.348  26.566  1.00  0.00     0.060 A 
ATOM      6  C   UNL A   1      40.393  22.359  27.445  1.00  0.00     0.016 A 
ATOM      7  C   UNL A   1      38.682  23.557  26.293  1.00  0.00     0.016 A 
ATOM      8  C   UNL A   1      40.922  23.574  27.918  1.00  0.00     0.010 A 
ATOM      9  C   UNL A   1      39.272  24.762  26.672  1.00  0.00     0.010 A 
ATOM     10  C   UNL A   1      40.420  24.800  27.471  1.00  0.00    -0.014 A 
BRANCH  10  11
ATOM     11  C   UNL A   1      41.017  26.127  27.827  1.00  0.00     0.031 A 
ATOM     12  C   UNL A   1      42.342  26.526  27.208  1.00  0.00     0.074 A 
ATOM     13  C   UNL A   1      40.456  26.943  28.748  1.00  0.00     0.049 A 
ATOM     14  N   UNL A   1      43.219  27.405  27.621  1.00  0.00    -0.248 NA
ATOM     15  C   UNL A   1      42.772  25.778  26.018  1.00  0.00     0.031 C 
ATOM     16  C   UNL A   1      39.206  26.709  29.479  1.00  0.00     0.029 A 
ATOM     17  N   UNL A   1      40.870  28.170  29.215  1.00  0.00    -0.354 N 
ATOM     18  C   UNL A   1      44.355  27.209  26.836  1.00  0.00     0.074 A 
ATOM     19  C   UNL A   1      44.038  26.154  25.902  1.00  0.00     0.031 C 
ATOM     20  C   UNL A   1      38.905  27.799  30.208  1.00  0.00     0.029 A 
ATOM     21  C   UNL A   1      39.966  28.786  30.051  1.00  0.00     0.049 A 
ATOM     22  H   UNL A   1      41.736  28.570  28.972  1.00  0.00     0.167 HD
ATOM     23  C   UNL A   1      45.549  27.851  26.914  1.00  0.00     0.034 A 
ATOM     24  C   UNL A   1      39.986  30.018  30.597  1.00  0.00     0.034 A 
ATOM     25  C   UNL A   1      45.738  29.050  27.690  1.00  0.00     0.049 A 
ATOM     26  C   UNL A   1      41.184  30.902  30.360  1.00  0.00     0.074 A 
ATOM     27  C   UNL A   1      46.880  29.819  27.850  1.00  0.00     0.029 A 
ATOM     28  N   UNL A   1      44.715  29.721  28.338  1.00  0.00    -0.354 N 
ATOM     29  N   UNL A   1      42.325  30.594  29.791  1.00  0.00    -0.248 NA
ATOM     30  C   UNL A   1      41.095  32.298  30.813  1.00  0.00     0.031 C 
ATOM     31  C   UNL A   1      46.537  30.973  28.562  1.00  0.00     0.029 A 
ATOM     32  C   UNL A   1      45.176  30.936  28.802  1.00  0.00     0.049 A 
ATOM     33  H   UNL A   1      43.798  29.382  28.450  1.00  0.00     0.167 HD
ATOM     34  C   UNL A   1      43.075  31.765  29.796  1.00  0.00     0.074 A 
ATOM     35  C   UNL A   1      42.255  32.790  30.402  1.00  0.00     0.031 C 
ATOM     36  C   UNL A   1      44.337  31.964  29.350  1.00  0.00     0.034 A 
BRANCH  23  37
ATOM     37  C   UNL A   1      46.739  27.306  26.164  1.00  0.00     0.023 A 
ATOM     38  C   UNL A   1      47.091  27.736  24.879  1.00  0.00     0.031 A 
ATOM     39  C   UNL A   1      47.575  26.356  26.790  1.00  0.00     0.131 A 
ATOM     40  C   UNL A   1      48.216  27.187  24.241  1.00  0.00     0.055 A 
ATOM     41  C   UNL A   1      48.721  25.854  26.174  1.00  0.00     0.041 A 
ATOM     42  F   UNL A   1      47.295  25.909  28.024  1.00  0.00    -0.206 F 
ATOM     43  C   UNL A   1      49.041  26.262  24.885  1.00  0.00     0.022 A 
BRANCH  40  44
ATOM     44  S   UNL A   1      48.503  27.588  22.497  1.00  0.00     0.124 S 
ATOM     45  O   UNL A   1      48.608  26.260  21.897  1.00  0.00    -0.237 OA
ATOM     46  O   UNL A   1      47.313  28.356  22.154  1.00  0.00    -0.237 OA
ATOM     47  O   UNL A   1      49.755  28.342  22.525  1.00  0.00    -0.744 OA
ENDBRANCH  40  44
ENDBRANCH  23  37
BRANCH  24  48
ATOM     48  C   UNL A   1      38.805  30.556  31.324  1.00  0.00     0.023 A 
ATOM     49  C   UNL A   1      37.744  31.114  30.592  1.00  0.00     0.031 A 
ATOM     50  C   UNL A   1      38.729  30.583  32.724  1.00  0.00     0.131 A 
ATOM     51  C   UNL A   1      36.680  31.735  31.258  1.00  0.00     0.055 A 
ATOM     52  C   UNL A   1      37.644  31.166  33.386  1.00  0.00     0.041 A 
ATOM     53  F   UNL A   1      39.709  30.046  33.468  1.00  0.00    -0.206 F 
ATOM     54  C   UNL A   1      36.618  31.760  32.652  1.00  0.00     0.022 A 
BRANCH  51  55
ATOM     55  S   UNL A   1      35.416  32.572  30.263  1.00  0.00     0.124 S 
ATOM     56  O   UNL A   1      36.094  33.814  29.909  1.00  0.00    -0.237 OA
ATOM     57  O   UNL A   1      35.208  31.621  29.176  1.00  0.00    -0.237 OA
ATOM     58  O   UNL A   1      34.294  32.712  31.189  1.00  0.00    -0.744 OA
ENDBRANCH  51  55
ENDBRANCH  24  48
BRANCH  36  59
ATOM     59  C   UNL A   1      44.896  33.354  29.407  1.00  0.00     0.023 A 
ATOM     60  C   UNL A   1      44.831  34.217  28.305  1.00  0.00     0.031 A 
ATOM     61  C   UNL A   1      45.449  33.833  30.607  1.00  0.00     0.131 A 
ATOM     62  C   UNL A   1      45.347  35.515  28.412  1.00  0.00     0.055 A 
ATOM     63  C   UNL A   1      45.928  35.138  30.719  1.00  0.00     0.041 A 
ATOM     64  F   UNL A   1      45.522  33.042  31.690  1.00  0.00    -0.206 F 
ATOM     65  C   UNL A   1      45.884  35.985  29.615  1.00  0.00     0.022 A 
BRANCH  62  66
ATOM     66  S   UNL A   1      45.337  36.572  26.940  1.00  0.00     0.124 S 
ATOM     67  O   UNL A   1      46.424  37.502  27.227  1.00  0.00    -0.237 OA
ATOM     68  O   UNL A   1      45.586  35.614  25.867  1.00  0.00    -0.237 OA
ATOM     69  O   UNL A   1      43.998  37.158  26.948  1.00  0.00    -0.744 OA
ENDBRANCH  62  66
ENDBRANCH  36  59
ENDBRANCH  10  11
ENDBRANCH   3   5
ENDBRANCH   2   3
ENDBRANCH   1   2
BRANCH   1  70
ATOM     70  C   UNL A   1      35.450  20.276  24.869  1.00  0.00     0.274 C 
BRANCH  70  71
ATOM     71  O   UNL A   1      34.290  20.889  24.268  1.00  0.00    -0.458 OA
BRANCH  71  72
ATOM     72  C   UNL A   1      33.104  20.244  24.505  1.00  0.00     0.364 C 
ATOM     73  O   UNL A   1      32.697  19.285  23.851  1.00  0.00    -0.245 OA
BRANCH  72  74
ATOM     74  C   UNL A   1      32.238  20.942  25.583  1.00  0.00     0.294 C 
ATOM     75  C   UNL A   1      31.854  22.394  25.318  1.00  0.00     0.090 C 
ATOM     76  N   UNL A   1      32.981  20.923  26.868  1.00  0.00    -0.334 N 
ATOM     77  C   UNL A   1      32.632  23.280  26.307  1.00  0.00     0.036 C 
ATOM     78  C   UNL A   1      33.061  22.283  27.394  1.00  0.00     0.268 C 
ATOM     79  H   UNL A   1      33.921  20.560  26.714  1.00  0.00     0.347 HD
ATOM     80  H   UNL A   1      32.495  20.326  27.536  1.00  0.00     0.347 HD
ATOM     81  C   UNL A   1      31.779  24.403  26.931  1.00  0.00     0.075 C 
ATOM     82  C   UNL A   1      33.866  23.954  25.678  1.00  0.00     0.075 C 
ATOM     83  C   UNL A   1      31.387  25.512  25.956  1.00  0.00     0.271 C 
ATOM     84  C   UNL A   1      33.570  25.167  24.801  1.00  0.00     0.271 C 
ATOM     85  N   UNL A   1      32.504  26.080  25.209  1.00  0.00    -0.271 N 
ATOM     86  H   UNL A   1      32.713  26.787  24.554  1.00  0.00     0.356 HD
BRANCH  85  87
ATOM     87  C   UNL A   1      32.220  27.071  24.230  1.00  0.00     0.322 C 
ATOM     88  O   UNL A   1      32.659  28.217  24.380  1.00  0.00    -0.230 OA
BRANCH  87  89
ATOM     89  C   UNL A   1      31.287  26.823  23.046  1.00  0.00     0.113 C 
ATOM     90  C   UNL A   1      31.825  26.458  21.667  1.00  0.00     0.028 C 
ATOM     91  C   UNL A   1      31.120  25.418  22.480  1.00  0.00     0.028 C 
BRANCH  89  92
ATOM     92  C   UNL A   1      30.051  27.758  23.042  1.00  0.00     0.007 A 
ATOM     93  C   UNL A   1      28.800  27.295  23.489  1.00  0.00     0.008 A 
ATOM     94  C   UNL A   1      30.077  29.049  22.498  1.00  0.00     0.127 A 
ATOM     95  C   UNL A   1      27.637  28.064  23.375  1.00  0.00     0.001 A 
ATOM     96  C   UNL A   1      28.925  29.835  22.390  1.00  0.00     0.039 A 
ATOM     97  F   UNL A   1      31.234  29.553  22.041  1.00  0.00    -0.207 F 
ATOM     98  C   UNL A   1      27.699  29.338  22.825  1.00  0.00     0.003 A 
ENDBRANCH  89  92
ENDBRANCH  87  89
ENDBRANCH  85  87
ENDBRANCH  72  74
ENDBRANCH  71  72
ENDBRANCH  70  71
ENDBRANCH   1  70
TORSDOF 17
ENDMDL
MODEL 3
REMARK VINA RESULT:     -13.1      5.033     10.372
REMARK SMILES O=C(OCCOC(=O)[C@@H]1CC2(CC[NH+](C(=O)C3(c4ccccc4F)CC3)CC2)C[NH2+]1)c1ccc(-c2c3nc(c(-c4cc(S(=O)(=O)[O-])ccc4F)c4ccc([nH]4)c(-c4cc(S(=O)(=O)[O-])ccc4F)c4nc(c(-c5cc(S(=O)(=O)[O-])ccc5F)c5ccc2[nH]5)C=C4)C=C3)cc1
REMARK SMILES IDX 4 1 3 2 2 3 1 4 31 5 32 6 93 7 33 8 92 9 34 10 35 11 36 12
REMARK SMILES IDX 86 13 37 14 91 15 85 16 87 17 38 18 90 19 84 20 83 21 39 23
REMARK SMILES IDX 71 24 51 25 70 26 52 27 55 28 69 29 88 30 53 31 54 32 68 34
REMARK SMILES IDX 89 35 56 36 40 37 41 38 49 39 42 40 48 41 50 42 47 43 43 44
REMARK SMILES IDX 44 45 45 46 46 47 72 48 73 49 81 50 74 51 80 52 82 53 79 54
REMARK SMILES IDX 75 55 76 56 77 57 78 58 57 59 58 60 66 61 59 62 65 63 67 64
REMARK SMILES IDX 64 65 60 66 61 67 62 68 63 69 5 70 6 71 7 72 8 73 9 74 10 75
REMARK SMILES IDX 30 76 11 77 29 78 12 81 28 82 13 83 27 84 14 85 15 87 16 88
REMARK SMILES IDX 17 89 25 90 26 91 18 92 19 93 23 94 20 95 22 96 24 97 21 98
REMARK H PARENT 87 22 55 33 30 79 30 80 14 86
REMARK Flexibility Score: inf
ROOT
ATOM      1  C   UNL A   1      31.414  30.828  25.919  1.00  0.00     0.275 C 
ENDROOT
BRANCH   1   2
ATOM      2  O   UNL A   1      32.235  30.824  27.097  1.00  0.00    -0.458 OA
BRANCH   2   3
ATOM      3  C   UNL A   1      33.060  31.854  27.361  1.00  0.00     0.338 C 
ATOM      4  O   UNL A   1      32.641  33.001  27.466  1.00  0.00    -0.246 OA
BRANCH   3   5
ATOM      5  C   UNL A   1      34.491  31.519  27.636  1.00  0.00     0.060 A 
ATOM      6  C   UNL A   1      35.493  32.420  28.002  1.00  0.00     0.016 A 
ATOM      7  C   UNL A   1      34.786  30.163  27.692  1.00  0.00     0.016 A 
ATOM      8  C   UNL A   1      36.706  31.963  28.548  1.00  0.00     0.010 A 
ATOM      9  C   UNL A   1      35.940  29.716  28.334  1.00  0.00     0.010 A 
ATOM     10  C   UNL A   1      36.914  30.603  28.801  1.00  0.00    -0.014 A 
BRANCH  10  11
ATOM     11  C   UNL A   1      38.122  30.059  29.500  1.00  0.00     0.031 A 
ATOM     12  C   UNL A   1      38.307  30.346  30.977  1.00  0.00     0.074 A 
ATOM     13  C   UNL A   1      39.097  29.395  28.839  1.00  0.00     0.049 A 
ATOM     14  N   UNL A   1      39.399  30.320  31.697  1.00  0.00    -0.248 NA
ATOM     15  C   UNL A   1      37.122  30.803  31.719  1.00  0.00     0.031 C 
ATOM     16  C   UNL A   1      39.115  29.061  27.410  1.00  0.00     0.029 A 
ATOM     17  N   UNL A   1      40.273  28.853  29.304  1.00  0.00    -0.354 N 
ATOM     18  C   UNL A   1      39.063  30.895  32.923  1.00  0.00     0.074 A 
ATOM     19  C   UNL A   1      37.658  31.223  32.856  1.00  0.00     0.031 C 
ATOM     20  C   UNL A   1      40.180  28.284  27.147  1.00  0.00     0.029 A 
ATOM     21  C   UNL A   1      40.958  28.113  28.367  1.00  0.00     0.049 A 
ATOM     22  H   UNL A   1      40.595  28.983  30.225  1.00  0.00     0.167 HD
ATOM     23  C   UNL A   1      39.871  31.131  33.987  1.00  0.00     0.034 A 
ATOM     24  C   UNL A   1      42.070  27.360  28.496  1.00  0.00     0.034 A 
ATOM     25  C   UNL A   1      41.195  30.572  34.099  1.00  0.00     0.049 A 
ATOM     26  C   UNL A   1      42.774  27.321  29.829  1.00  0.00     0.074 A 
ATOM     27  C   UNL A   1      42.119  30.708  35.123  1.00  0.00     0.029 A 
ATOM     28  N   UNL A   1      41.728  29.664  33.201  1.00  0.00    -0.354 N 
ATOM     29  N   UNL A   1      42.542  28.049  30.895  1.00  0.00    -0.248 NA
ATOM     30  C   UNL A   1      43.870  26.354  29.987  1.00  0.00     0.031 C 
ATOM     31  C   UNL A   1      43.194  29.852  34.860  1.00  0.00     0.029 A 
ATOM     32  C   UNL A   1      42.912  29.157  33.697  1.00  0.00     0.049 A 
ATOM     33  H   UNL A   1      41.325  29.418  32.337  1.00  0.00     0.167 HD
ATOM     34  C   UNL A   1      43.444  27.606  31.855  1.00  0.00     0.074 A 
ATOM     35  C   UNL A   1      44.211  26.537  31.255  1.00  0.00     0.031 C 
ATOM     36  C   UNL A   1      43.629  28.058  33.117  1.00  0.00     0.034 A 
BRANCH  23  37
ATOM     37  C   UNL A   1      39.385  32.011  35.112  1.00  0.00     0.023 A 
ATOM     38  C   UNL A   1      38.740  31.507  36.248  1.00  0.00     0.031 A 
ATOM     39  C   UNL A   1      39.625  33.401  35.057  1.00  0.00     0.131 A 
ATOM     40  C   UNL A   1      38.318  32.385  37.260  1.00  0.00     0.055 A 
ATOM     41  C   UNL A   1      39.251  34.262  36.088  1.00  0.00     0.041 A 
ATOM     42  F   UNL A   1      40.245  33.944  33.997  1.00  0.00    -0.206 F 
ATOM     43  C   UNL A   1      38.582  33.755  37.195  1.00  0.00     0.022 A 
BRANCH  40  44
ATOM     44  S   UNL A   1      37.282  31.731  38.596  1.00  0.00     0.124 S 
ATOM     45  O   UNL A   1      38.151  31.897  39.759  1.00  0.00    -0.237 OA
ATOM     46  O   UNL A   1      36.114  32.601  38.538  1.00  0.00    -0.237 OA
ATOM     47  O   UNL A   1      37.055  30.342  38.201  1.00  0.00    -0.744 OA
ENDBRANCH  40  44
ENDBRANCH  23  37
BRANCH  24  48
ATOM     48  C   UNL A   1      42.538  26.484  27.389  1.00  0.00     0.023 A 
ATOM     49  C   UNL A   1      42.078  25.159  27.321  1.00  0.00     0.031 A 
ATOM     50  C   UNL A   1      43.472  26.910  26.433  1.00  0.00     0.131 A 
ATOM     51  C   UNL A   1      42.598  24.281  26.360  1.00  0.00     0.055 A 
ATOM     52  C   UNL A   1      43.956  26.044  25.448  1.00  0.00     0.041 A 
ATOM     53  F   UNL A   1      43.926  28.173  26.444  1.00  0.00    -0.206 F 
ATOM     54  C   UNL A   1      43.531  24.717  25.417  1.00  0.00     0.022 A 
BRANCH  51  55
ATOM     55  S   UNL A   1      42.084  22.544  26.416  1.00  0.00     0.124 S 
ATOM     56  O   UNL A   1      42.556  22.138  27.735  1.00  0.00    -0.237 OA
ATOM     57  O   UNL A   1      40.637  22.652  26.257  1.00  0.00    -0.237 OA
ATOM     58  O   UNL A   1      42.789  21.945  25.285  1.00  0.00    -0.744 OA
ENDBRANCH  51  55
ENDBRANCH  24  48
BRANCH  36  59
ATOM     59  C   UNL A   1      44.631  27.354  33.981  1.00  0.00     0.023 A 
ATOM     60  C   UNL A   1      44.278  26.246  34.762  1.00  0.00     0.031 A 
ATOM     61  C   UNL A   1      45.974  27.771  33.972  1.00  0.00     0.131 A 
ATOM     62  C   UNL A   1      45.253  25.606  35.537  1.00  0.00     0.055 A 
ATOM     63  C   UNL A   1      46.948  27.109  34.717  1.00  0.00     0.041 A 
ATOM     64  F   UNL A   1      46.357  28.823  33.230  1.00  0.00    -0.206 F 
ATOM     65  C   UNL A   1      46.588  26.023  35.511  1.00  0.00     0.022 A 
BRANCH  62  66
ATOM     66  S   UNL A   1      44.743  24.239  36.612  1.00  0.00     0.124 S 
ATOM     67  O   UNL A   1      46.019  23.792  37.162  1.00  0.00    -0.237 OA
ATOM     68  O   UNL A   1      43.842  24.900  37.551  1.00  0.00    -0.237 OA
ATOM     69  O   UNL A   1      44.100  23.302  35.692  1.00  0.00    -0.744 OA
ENDBRANCH  62  66
ENDBRANCH  36  59
ENDBRANCH  10  11
ENDBRANCH   3   5
ENDBRANCH   2   3
ENDBRANCH   1   2
BRANCH   1  70
ATOM     70  C   UNL A   1      31.221  29.522  25.131  1.00  0.00     0.274 C 
BRANCH  70  71
ATOM     71  O   UNL A   1      30.638  29.660  23.819  1.00  0.00    -0.458 OA
BRANCH  71  72
ATOM     72  C   UNL A   1      30.121  28.506  23.289  1.00  0.00     0.364 C 
ATOM     73  O   UNL A   1      29.075  27.981  23.666  1.00  0.00    -0.245 OA
BRANCH  72  74
ATOM     74  C   UNL A   1      31.070  27.830  22.268  1.00  0.00     0.294 C 
ATOM     75  C   UNL A   1      31.603  26.449  22.638  1.00  0.00     0.090 C 
ATOM     76  N   UNL A   1      32.252  28.706  22.071  1.00  0.00    -0.334 N 
ATOM     77  C   UNL A   1      33.103  26.587  22.951  1.00  0.00     0.036 C 
ATOM     78  C   UNL A   1      33.467  27.929  22.298  1.00  0.00     0.268 C 
ATOM     79  H   UNL A   1      32.215  29.483  22.730  1.00  0.00     0.347 HD
ATOM     80  H   UNL A   1      32.253  29.072  21.119  1.00  0.00     0.347 HD
ATOM     81  C   UNL A   1      33.965  25.458  22.348  1.00  0.00     0.075 C 
ATOM     82  C   UNL A   1      33.409  26.623  24.460  1.00  0.00     0.075 C 
ATOM     83  C   UNL A   1      33.761  24.093  23.003  1.00  0.00     0.271 C 
ATOM     84  C   UNL A   1      33.370  25.271  25.166  1.00  0.00     0.271 C 
ATOM     85  N   UNL A   1      33.880  24.098  24.457  1.00  0.00    -0.271 N 
ATOM     86  H   UNL A   1      33.868  23.492  25.234  1.00  0.00     0.356 HD
BRANCH  85  87
ATOM     87  C   UNL A   1      33.639  22.883  25.154  1.00  0.00     0.322 C 
ATOM     88  O   UNL A   1      34.581  22.301  25.704  1.00  0.00    -0.230 OA
BRANCH  87  89
ATOM     89  C   UNL A   1      32.280  22.185  25.156  1.00  0.00     0.113 C 
ATOM     90  C   UNL A   1      31.261  22.424  26.266  1.00  0.00     0.028 C 
ATOM     91  C   UNL A   1      31.006  22.982  24.900  1.00  0.00     0.028 C 
BRANCH  89  92
ATOM     92  C   UNL A   1      32.344  20.730  24.627  1.00  0.00     0.007 A 
ATOM     93  C   UNL A   1      32.658  19.666  25.492  1.00  0.00     0.008 A 
ATOM     94  C   UNL A   1      32.213  20.409  23.269  1.00  0.00     0.127 A 
ATOM     95  C   UNL A   1      32.857  18.362  25.026  1.00  0.00     0.001 A 
ATOM     96  C   UNL A   1      32.395  19.107  22.791  1.00  0.00     0.039 A 
ATOM     97  F   UNL A   1      31.925  21.376  22.383  1.00  0.00    -0.207 F 
ATOM     98  C   UNL A   1      32.725  18.081  23.673  1.00  0.00     0.003 A 
ENDBRANCH  89  92
ENDBRANCH  87  89
ENDBRANCH  85  87
ENDBRANCH  72  74
ENDBRANCH  71  72
ENDBRANCH  70  71
ENDBRANCH   1  70
TORSDOF 17
ENDMDL
