MODEL 1
REMARK VINA RESULT:      -9.2      0.000      0.000
REMARK SMILES CC/C=C/C/C=C/C/C=C/C/C=C/CC/C=C/COCC(=O)OCCOC(=O)c1ccc(-c2c3nc(c(-c4cc(S(=O)(=O)[O-])ccc4F)c4ccc([nH]4)c(-c4cc(S(=O)(=O)[O-])ccc4F)c4nc(c(-c5cc(S(=O)(=O)[O-])ccc5F)c5ccc2[nH]5)C=C4)C=C3)cc1
REMARK SMILES IDX 18 1 17 2 16 3 15 4 14 5 13 6 12 7 11 8 10 9 9 10 8 11 7 12
REMARK SMILES IDX 6 13 5 14 4 15 3 16 2 17 1 18 19 19 20 20 21 21 22 22 23 23
REMARK SMILES IDX 24 24 25 25 26 26 27 27 28 28 29 29 30 30 91 31 31 32 90 33
REMARK SMILES IDX 32 34 33 35 34 36 84 37 35 38 89 39 83 40 85 41 36 42 88 43
REMARK SMILES IDX 82 44 81 45 37 47 69 48 49 49 68 50 50 51 53 52 67 53 86 54
REMARK SMILES IDX 51 55 52 56 66 58 87 59 54 60 38 61 39 62 47 63 40 64 46 65
REMARK SMILES IDX 48 66 45 67 41 68 42 69 43 70 44 71 70 72 71 73 79 74 72 75
REMARK SMILES IDX 78 76 80 77 77 78 73 79 74 80 75 81 76 82 55 83 56 84 64 85
REMARK SMILES IDX 57 86 63 87 65 88 62 89 58 90 59 91 60 92 61 93
REMARK H PARENT 85 46 53 57
REMARK Flexibility Score: inf
ROOT
ATOM      1  C   UNL A   1      31.860  22.046  26.047  1.00  0.00     0.188 C 
ENDROOT
BRANCH   1   2
ATOM      2  C   UNL A   1      33.288  21.904  25.614  1.00  0.00    -0.003 C 
ATOM      3  C   UNL A   1      34.316  22.386  26.331  1.00  0.00    -0.029 C 
BRANCH   3   4
ATOM      4  C   UNL A   1      35.706  22.569  25.775  1.00  0.00     0.031 C 
BRANCH   4   5
ATOM      5  C   UNL A   1      35.769  23.695  24.441  1.00  0.00     0.031 C 
BRANCH   5   6
ATOM      6  C   UNL A   1      34.370  24.591  23.066  1.00  0.00    -0.031 C 
ATOM      7  C   UNL A   1      33.803  25.817  22.696  1.00  0.00    -0.027 C 
BRANCH   7   8
ATOM      8  C   UNL A   1      32.556  26.019  21.868  1.00  0.00     0.054 C 
BRANCH   8   9
ATOM      9  C   UNL A   1      31.414  26.202  22.837  1.00  0.00    -0.027 C 
ATOM     10  C   UNL A   1      30.245  25.543  22.780  1.00  0.00    -0.027 C 
BRANCH  10  11
ATOM     11  C   UNL A   1      29.056  25.891  23.631  1.00  0.00     0.054 C 
BRANCH  11  12
ATOM     12  C   UNL A   1      28.522  27.255  23.295  1.00  0.00    -0.027 C 
ATOM     13  C   UNL A   1      27.278  27.666  23.592  1.00  0.00    -0.027 C 
BRANCH  13  14
ATOM     14  C   UNL A   1      26.720  29.017  23.241  1.00  0.00     0.054 C 
BRANCH  14  15
ATOM     15  C   UNL A   1      27.809  30.051  23.220  1.00  0.00    -0.027 C 
ATOM     16  C   UNL A   1      27.657  31.327  23.611  1.00  0.00    -0.031 C 
BRANCH  16  17
ATOM     17  C   UNL A   1      28.770  32.336  23.605  1.00  0.00     0.023 C 
ATOM     18  C   UNL A   1      28.914  32.991  22.239  1.00  0.00     0.008 C 
ENDBRANCH  16  17
ENDBRANCH  14  15
ENDBRANCH  13  14
ENDBRANCH  11  12
ENDBRANCH  10  11
ENDBRANCH   8   9
ENDBRANCH   7   8
ENDBRANCH   5   6
ENDBRANCH   4   5
ENDBRANCH   3   4
ENDBRANCH   1   2
BRANCH   1  19
ATOM     19  O   UNL A   1      31.134  23.002  25.269  1.00  0.00    -0.366 OA
BRANCH  19  20
ATOM     20  C   UNL A   1      30.701  24.178  25.925  1.00  0.00     0.283 C 
BRANCH  20  21
ATOM     21  C   UNL A   1      31.649  25.256  26.460  1.00  0.00     0.332 C 
ATOM     22  O   UNL A   1      32.243  25.117  27.527  1.00  0.00    -0.250 OA
BRANCH  21  23
ATOM     23  O   UNL A   1      31.717  26.368  25.681  1.00  0.00    -0.460 OA
BRANCH  23  24
ATOM     24  C   UNL A   1      31.574  27.621  26.389  1.00  0.00     0.274 C 
BRANCH  24  25
ATOM     25  C   UNL A   1      31.228  28.738  25.411  1.00  0.00     0.275 C 
BRANCH  25  26
ATOM     26  O   UNL A   1      32.320  29.666  25.370  1.00  0.00    -0.458 OA
BRANCH  26  27
ATOM     27  C   UNL A   1      32.244  30.689  26.249  1.00  0.00     0.338 C 
ATOM     28  O   UNL A   1      31.381  31.546  26.327  1.00  0.00    -0.246 OA
BRANCH  27  29
ATOM     29  C   UNL A   1      33.416  30.626  27.122  1.00  0.00     0.060 A 
ATOM     30  C   UNL A   1      34.143  29.027  27.590  1.00  0.00     0.016 A 
ATOM     31  C   UNL A   1      34.262  32.175  27.547  1.00  0.00     0.016 A 
ATOM     32  C   UNL A   1      35.663  28.992  28.575  1.00  0.00     0.010 A 
ATOM     33  C   UNL A   1      35.787  32.135  28.550  1.00  0.00     0.010 A 
ATOM     34  C   UNL A   1      36.530  30.529  29.049  1.00  0.00    -0.014 A 
BRANCH  34  35
ATOM     35  C   UNL A   1      37.862  30.498  29.731  1.00  0.00     0.031 A 
ATOM     36  C   UNL A   1      39.004  29.768  29.080  1.00  0.00     0.074 A 
ATOM     37  C   UNL A   1      37.992  30.996  30.980  1.00  0.00     0.049 A 
ATOM     38  N   UNL A   1      40.090  29.272  29.614  1.00  0.00    -0.248 NA
ATOM     39  C   UNL A   1      38.873  29.491  27.644  1.00  0.00     0.031 C 
ATOM     40  C   UNL A   1      36.943  31.662  31.752  1.00  0.00     0.029 A 
ATOM     41  N   UNL A   1      39.059  30.993  31.847  1.00  0.00    -0.354 N 
ATOM     42  C   UNL A   1      40.714  28.546  28.602  1.00  0.00     0.074 A 
ATOM     43  C   UNL A   1      39.854  28.624  27.443  1.00  0.00     0.031 C 
ATOM     44  C   UNL A   1      37.430  32.085  32.923  1.00  0.00     0.029 A 
ATOM     45  C   UNL A   1      38.778  31.575  33.066  1.00  0.00     0.049 A 
ATOM     46  H   UNL A   1      39.939  30.614  31.620  1.00  0.00     0.167 HD
ATOM     47  C   UNL A   1      41.904  27.892  28.642  1.00  0.00     0.034 A 
ATOM     48  C   UNL A   1      39.485  31.626  34.211  1.00  0.00     0.034 A 
ATOM     49  C   UNL A   1      42.763  27.923  29.803  1.00  0.00     0.049 A 
ATOM     50  C   UNL A   1      40.804  30.917  34.234  1.00  0.00     0.074 A 
ATOM     51  C   UNL A   1      44.022  27.376  29.969  1.00  0.00     0.029 A 
ATOM     52  N   UNL A   1      42.447  28.563  31.000  1.00  0.00    -0.354 N 
ATOM     53  N   UNL A   1      41.370  30.211  33.281  1.00  0.00    -0.248 NA
ATOM     54  C   UNL A   1      41.568  30.989  35.480  1.00  0.00     0.031 C 
ATOM     55  C   UNL A   1      44.444  27.641  31.278  1.00  0.00     0.029 A 
ATOM     56  C   UNL A   1      43.477  28.407  31.913  1.00  0.00     0.049 A 
ATOM     57  H   UNL A   1      41.611  29.054  31.172  1.00  0.00     0.167 HD
ATOM     58  C   UNL A   1      42.564  29.750  33.813  1.00  0.00     0.074 A 
ATOM     59  C   UNL A   1      42.647  30.287  35.161  1.00  0.00     0.031 C 
ATOM     60  C   UNL A   1      43.504  28.948  33.251  1.00  0.00     0.034 A 
BRANCH  47  61
ATOM     61  C   UNL A   1      42.311  27.088  27.421  1.00  0.00     0.023 A 
ATOM     62  C   UNL A   1      41.997  25.723  27.286  1.00  0.00     0.031 A 
ATOM     63  C   UNL A   1      43.091  27.674  26.406  1.00  0.00     0.131 A 
ATOM     64  C   UNL A   1      42.557  24.968  26.242  1.00  0.00     0.055 A 
ATOM     65  C   UNL A   1      43.558  26.939  25.311  1.00  0.00     0.041 A 
ATOM     66  F   UNL A   1      43.441  28.968  26.470  1.00  0.00    -0.206 F 
ATOM     67  C   UNL A   1      43.314  25.571  25.238  1.00  0.00     0.022 A 
BRANCH  64  68
ATOM     68  S   UNL A   1      42.442  23.158  26.330  1.00  0.00     0.124 S 
ATOM     69  O   UNL A   1      42.861  22.773  24.984  1.00  0.00    -0.237 OA
ATOM     70  O   UNL A   1      43.374  22.834  27.404  1.00  0.00    -0.237 OA
ATOM     71  O   UNL A   1      41.033  22.917  26.631  1.00  0.00    -0.744 OA
ENDBRANCH  64  68
ENDBRANCH  47  61
BRANCH  48  72
ATOM     72  C   UNL A   1      38.928  32.325  35.407  1.00  0.00     0.023 A 
ATOM     73  C   UNL A   1      38.350  31.596  36.459  1.00  0.00     0.031 A 
ATOM     74  C   UNL A   1      39.022  33.724  35.553  1.00  0.00     0.131 A 
ATOM     75  C   UNL A   1      37.892  32.264  37.607  1.00  0.00     0.055 A 
ATOM     76  C   UNL A   1      38.612  34.377  36.719  1.00  0.00     0.041 A 
ATOM     77  F   UNL A   1      39.572  34.473  34.585  1.00  0.00    -0.206 F 
ATOM     78  C   UNL A   1      38.038  33.645  37.753  1.00  0.00     0.022 A 
BRANCH  75  79
ATOM     79  S   UNL A   1      37.062  31.299  38.899  1.00  0.00     0.124 S 
ATOM     80  O   UNL A   1      36.937  29.992  38.264  1.00  0.00    -0.237 OA
ATOM     81  O   UNL A   1      38.013  31.389  40.003  1.00  0.00    -0.237 OA
ATOM     82  O   UNL A   1      35.805  32.016  39.104  1.00  0.00    -0.744 OA
ENDBRANCH  75  79
ENDBRANCH  48  72
BRANCH  60  83
ATOM     83  C   UNL A   1      44.698  28.640  34.108  1.00  0.00     0.023 A 
ATOM     84  C   UNL A   1      45.828  29.472  34.100  1.00  0.00     0.031 A 
ATOM     85  C   UNL A   1      44.712  27.494  34.920  1.00  0.00     0.131 A 
ATOM     86  C   UNL A   1      46.956  29.114  34.849  1.00  0.00     0.055 A 
ATOM     87  C   UNL A   1      45.814  27.178  35.713  1.00  0.00     0.041 A 
ATOM     88  F   UNL A   1      43.655  26.667  34.953  1.00  0.00    -0.206 F 
ATOM     89  C   UNL A   1      46.949  27.983  35.671  1.00  0.00     0.022 A 
BRANCH  86  90
ATOM     90  S   UNL A   1      48.464  30.102  34.664  1.00  0.00     0.124 S 
ATOM     91  O   UNL A   1      49.095  29.472  33.510  1.00  0.00    -0.237 OA
ATOM     92  O   UNL A   1      47.936  31.446  34.448  1.00  0.00    -0.237 OA
ATOM     93  O   UNL A   1      49.157  29.907  35.936  1.00  0.00    -0.744 OA
ENDBRANCH  86  90
ENDBRANCH  60  83
ENDBRANCH  34  35
ENDBRANCH  27  29
ENDBRANCH  26  27
ENDBRANCH  25  26
ENDBRANCH  24  25
ENDBRANCH  23  24
ENDBRANCH  21  23
ENDBRANCH  20  21
ENDBRANCH  19  20
ENDBRANCH   1  19
TORSDOF 27
ENDMDL
MODEL 2
REMARK VINA RESULT:      -9.1      3.177      7.020
REMARK SMILES CC/C=C/C/C=C/C/C=C/C/C=C/CC/C=C/COCC(=O)OCCOC(=O)c1ccc(-c2c3nc(c(-c4cc(S(=O)(=O)[O-])ccc4F)c4ccc([nH]4)c(-c4cc(S(=O)(=O)[O-])ccc4F)c4nc(c(-c5cc(S(=O)(=O)[O-])ccc5F)c5ccc2[nH]5)C=C4)C=C3)cc1
REMARK SMILES IDX 18 1 17 2 16 3 15 4 14 5 13 6 12 7 11 8 10 9 9 10 8 11 7 12
REMARK SMILES IDX 6 13 5 14 4 15 3 16 2 17 1 18 19 19 20 20 21 21 22 22 23 23
REMARK SMILES IDX 24 24 25 25 26 26 27 27 28 28 29 29 30 30 91 31 31 32 90 33
REMARK SMILES IDX 32 34 33 35 34 36 84 37 35 38 89 39 83 40 85 41 36 42 88 43
REMARK SMILES IDX 82 44 81 45 37 47 69 48 49 49 68 50 50 51 53 52 67 53 86 54
REMARK SMILES IDX 51 55 52 56 66 58 87 59 54 60 38 61 39 62 47 63 40 64 46 65
REMARK SMILES IDX 48 66 45 67 41 68 42 69 43 70 44 71 70 72 71 73 79 74 72 75
REMARK SMILES IDX 78 76 80 77 77 78 73 79 74 80 75 81 76 82 55 83 56 84 64 85
REMARK SMILES IDX 57 86 63 87 65 88 62 89 58 90 59 91 60 92 61 93
REMARK H PARENT 85 46 53 57
REMARK Flexibility Score: inf
ROOT
ATOM      1  C   UNL A   1      33.489  22.855  25.137  1.00  0.00     0.188 C 
ENDROOT
BRANCH   1   2
ATOM      2  C   UNL A   1      34.934  22.634  24.807  1.00  0.00    -0.003 C 
ATOM      3  C   UNL A   1      35.919  22.793  25.707  1.00  0.00    -0.029 C 
BRANCH   3   4
ATOM      4  C   UNL A   1      37.374  22.920  25.334  1.00  0.00     0.031 C 
BRANCH   4   5
ATOM      5  C   UNL A   1      38.298  23.860  26.479  1.00  0.00     0.031 C 
BRANCH   5   6
ATOM      6  C   UNL A   1      40.344  24.502  26.708  1.00  0.00    -0.031 C 
ATOM      7  C   UNL A   1      41.652  24.215  26.301  1.00  0.00    -0.027 C 
BRANCH   7   8
ATOM      8  C   UNL A   1      42.925  24.696  26.956  1.00  0.00     0.054 C 
BRANCH   8   9
ATOM      9  C   UNL A   1      44.056  23.909  26.342  1.00  0.00    -0.027 C 
ATOM     10  C   UNL A   1      44.572  24.130  25.121  1.00  0.00    -0.027 C 
BRANCH  10  11
ATOM     11  C   UNL A   1      45.555  23.206  24.458  1.00  0.00     0.054 C 
BRANCH  11  12
ATOM     12  C   UNL A   1      45.474  21.818  25.030  1.00  0.00    -0.027 C 
ATOM     13  C   UNL A   1      45.114  20.736  24.320  1.00  0.00    -0.027 C 
BRANCH  13  14
ATOM     14  C   UNL A   1      45.002  19.347  24.881  1.00  0.00     0.054 C 
BRANCH  14  15
ATOM     15  C   UNL A   1      43.578  19.033  25.241  1.00  0.00    -0.027 C 
ATOM     16  C   UNL A   1      42.798  19.807  26.012  1.00  0.00    -0.031 C 
BRANCH  16  17
ATOM     17  C   UNL A   1      41.367  19.483  26.336  1.00  0.00     0.023 C 
ATOM     18  C   UNL A   1      40.471  20.699  26.156  1.00  0.00     0.008 C 
ENDBRANCH  16  17
ENDBRANCH  14  15
ENDBRANCH  13  14
ENDBRANCH  11  12
ENDBRANCH  10  11
ENDBRANCH   8   9
ENDBRANCH   7   8
ENDBRANCH   5   6
ENDBRANCH   4   5
ENDBRANCH   3   4
ENDBRANCH   1   2
BRANCH   1  19
ATOM     19  O   UNL A   1      32.815  23.672  24.176  1.00  0.00    -0.366 OA
BRANCH  19  20
ATOM     20  C   UNL A   1      33.319  24.977  23.966  1.00  0.00     0.283 C 
BRANCH  20  21
ATOM     21  C   UNL A   1      32.650  26.247  24.502  1.00  0.00     0.332 C 
ATOM     22  O   UNL A   1      31.525  26.222  24.995  1.00  0.00    -0.250 OA
BRANCH  21  23
ATOM     23  O   UNL A   1      33.389  27.375  24.329  1.00  0.00    -0.460 OA
BRANCH  23  24
ATOM     24  C   UNL A   1      32.881  28.548  25.003  1.00  0.00     0.274 C 
BRANCH  24  25
ATOM     25  C   UNL A   1      33.590  28.731  26.342  1.00  0.00     0.275 C 
BRANCH  25  26
ATOM     26  O   UNL A   1      34.356  29.942  26.294  1.00  0.00    -0.458 OA
BRANCH  26  27
ATOM     27  C   UNL A   1      34.198  30.769  27.350  1.00  0.00     0.338 C 
ATOM     28  O   UNL A   1      33.192  31.369  27.686  1.00  0.00    -0.246 OA
BRANCH  27  29
ATOM     29  C   UNL A   1      35.478  30.860  28.051  1.00  0.00     0.060 A 
ATOM     30  C   UNL A   1      36.352  32.448  28.190  1.00  0.00     0.016 A 
ATOM     31  C   UNL A   1      36.068  29.408  28.967  1.00  0.00     0.016 A 
ATOM     32  C   UNL A   1      37.876  32.545  29.166  1.00  0.00     0.010 A 
ATOM     33  C   UNL A   1      37.610  29.508  29.939  1.00  0.00     0.010 A 
ATOM     34  C   UNL A   1      38.519  31.099  30.080  1.00  0.00    -0.014 A 
BRANCH  34  35
ATOM     35  C   UNL A   1      39.690  31.215  31.005  1.00  0.00     0.031 A 
ATOM     36  C   UNL A   1      41.034  30.712  30.557  1.00  0.00     0.074 A 
ATOM     37  C   UNL A   1      39.506  31.633  32.276  1.00  0.00     0.049 A 
ATOM     38  N   UNL A   1      42.067  30.344  31.269  1.00  0.00    -0.248 NA
ATOM     39  C   UNL A   1      41.216  30.524  29.112  1.00  0.00     0.031 C 
ATOM     40  C   UNL A   1      38.240  32.079  32.859  1.00  0.00     0.029 A 
ATOM     41  N   UNL A   1      40.380  31.724  33.333  1.00  0.00    -0.354 N 
ATOM     42  C   UNL A   1      42.975  29.794  30.366  1.00  0.00     0.074 A 
ATOM     43  C   UNL A   1      42.342  29.830  29.067  1.00  0.00     0.031 C 
ATOM     44  C   UNL A   1      38.428  32.481  34.119  1.00  0.00     0.029 A 
ATOM     45  C   UNL A   1      39.790  32.167  34.499  1.00  0.00     0.049 A 
ATOM     46  H   UNL A   1      41.336  31.497  33.265  1.00  0.00     0.167 HD
ATOM     47  C   UNL A   1      44.226  29.323  30.607  1.00  0.00     0.034 A 
ATOM     48  C   UNL A   1      40.256  32.238  35.760  1.00  0.00     0.034 A 
ATOM     49  C   UNL A   1      44.839  29.394  31.913  1.00  0.00     0.049 A 
ATOM     50  C   UNL A   1      41.644  31.732  36.007  1.00  0.00     0.074 A 
ATOM     51  C   UNL A   1      46.117  29.028  32.296  1.00  0.00     0.029 A 
ATOM     52  N   UNL A   1      44.209  29.890  33.053  1.00  0.00    -0.354 N 
ATOM     53  N   UNL A   1      42.481  31.189  35.152  1.00  0.00    -0.248 NA
ATOM     54  C   UNL A   1      42.144  31.824  37.380  1.00  0.00     0.031 C 
ATOM     55  C   UNL A   1      46.241  29.256  33.672  1.00  0.00     0.029 A 
ATOM     56  C   UNL A   1      45.065  29.821  34.140  1.00  0.00     0.049 A 
ATOM     57  H   UNL A   1      43.289  30.238  33.081  1.00  0.00     0.167 HD
ATOM     58  C   UNL A   1      43.614  30.871  35.885  1.00  0.00     0.074 A 
ATOM     59  C   UNL A   1      43.360  31.314  37.245  1.00  0.00     0.031 C 
ATOM     60  C   UNL A   1      44.758  30.261  35.481  1.00  0.00     0.034 A 
BRANCH  47  61
ATOM     61  C   UNL A   1      44.974  28.679  29.455  1.00  0.00     0.023 A 
ATOM     62  C   UNL A   1      45.650  29.440  28.484  1.00  0.00     0.031 A 
ATOM     63  C   UNL A   1      44.951  27.283  29.278  1.00  0.00     0.131 A 
ATOM     64  C   UNL A   1      46.161  28.823  27.329  1.00  0.00     0.055 A 
ATOM     65  C   UNL A   1      45.555  26.663  28.179  1.00  0.00     0.041 A 
ATOM     66  F   UNL A   1      44.316  26.490  30.156  1.00  0.00    -0.206 F 
ATOM     67  C   UNL A   1      46.142  27.436  27.182  1.00  0.00     0.022 A 
BRANCH  64  68
ATOM     68  S   UNL A   1      46.670  29.877  25.942  1.00  0.00     0.124 S 
ATOM     69  O   UNL A   1      46.629  28.934  24.827  1.00  0.00    -0.237 OA
ATOM     70  O   UNL A   1      45.643  30.913  25.939  1.00  0.00    -0.237 OA
ATOM     71  O   UNL A   1      48.008  30.324  26.323  1.00  0.00    -0.744 OA
ENDBRANCH  64  68
ENDBRANCH  47  61
BRANCH  48  72
ATOM     72  C   UNL A   1      39.384  32.756  36.855  1.00  0.00     0.023 A 
ATOM     73  C   UNL A   1      38.518  31.897  37.550  1.00  0.00     0.031 A 
ATOM     74  C   UNL A   1      39.447  34.101  37.273  1.00  0.00     0.131 A 
ATOM     75  C   UNL A   1      37.754  32.387  38.622  1.00  0.00     0.055 A 
ATOM     76  C   UNL A   1      38.723  34.571  38.372  1.00  0.00     0.041 A 
ATOM     77  F   UNL A   1      40.262  34.969  36.652  1.00  0.00    -0.206 F 
ATOM     78  C   UNL A   1      37.867  33.711  39.051  1.00  0.00     0.022 A 
BRANCH  75  79
ATOM     79  S   UNL A   1      36.574  31.271  39.430  1.00  0.00     0.124 S 
ATOM     80  O   UNL A   1      36.740  30.048  38.654  1.00  0.00    -0.237 OA
ATOM     81  O   UNL A   1      37.078  31.236  40.799  1.00  0.00    -0.237 OA
ATOM     82  O   UNL A   1      35.291  31.950  39.259  1.00  0.00    -0.744 OA
ENDBRANCH  75  79
ENDBRANCH  48  72
BRANCH  60  83
ATOM     83  C   UNL A   1      45.806  30.070  36.539  1.00  0.00     0.023 A 
ATOM     84  C   UNL A   1      45.883  28.876  37.273  1.00  0.00     0.031 A 
ATOM     85  C   UNL A   1      46.718  31.097  36.828  1.00  0.00     0.131 A 
ATOM     86  C   UNL A   1      46.820  28.759  38.307  1.00  0.00     0.055 A 
ATOM     87  C   UNL A   1      47.691  30.950  37.815  1.00  0.00     0.041 A 
ATOM     88  F   UNL A   1      46.676  32.258  36.155  1.00  0.00    -0.206 F 
ATOM     89  C   UNL A   1      47.738  29.780  38.569  1.00  0.00     0.022 A 
BRANCH  86  90
ATOM     90  S   UNL A   1      46.763  27.286  39.361  1.00  0.00     0.124 S 
ATOM     91  O   UNL A   1      45.887  27.724  40.441  1.00  0.00    -0.237 OA
ATOM     92  O   UNL A   1      46.213  26.276  38.462  1.00  0.00    -0.237 OA
ATOM     93  O   UNL A   1      48.161  27.083  39.738  1.00  0.00    -0.744 OA
ENDBRANCH  86  90
ENDBRANCH  60  83
ENDBRANCH  34  35
ENDBRANCH  27  29
ENDBRANCH  26  27
ENDBRANCH  25  26
ENDBRANCH  24  25
ENDBRANCH  23  24
ENDBRANCH  21  23
ENDBRANCH  20  21
ENDBRANCH  19  20
ENDBRANCH   1  19
TORSDOF 27
ENDMDL
MODEL 3
REMARK VINA RESULT:      -9.1      3.007      6.484
REMARK SMILES CC/C=C/C/C=C/C/C=C/C/C=C/CC/C=C/COCC(=O)OCCOC(=O)c1ccc(-c2c3nc(c(-c4cc(S(=O)(=O)[O-])ccc4F)c4ccc([nH]4)c(-c4cc(S(=O)(=O)[O-])ccc4F)c4nc(c(-c5cc(S(=O)(=O)[O-])ccc5F)c5ccc2[nH]5)C=C4)C=C3)cc1
REMARK SMILES IDX 18 1 17 2 16 3 15 4 14 5 13 6 12 7 11 8 10 9 9 10 8 11 7 12
REMARK SMILES IDX 6 13 5 14 4 15 3 16 2 17 1 18 19 19 20 20 21 21 22 22 23 23
REMARK SMILES IDX 24 24 25 25 26 26 27 27 28 28 29 29 30 30 91 31 31 32 90 33
REMARK SMILES IDX 32 34 33 35 34 36 84 37 35 38 89 39 83 40 85 41 36 42 88 43
REMARK SMILES IDX 82 44 81 45 37 47 69 48 49 49 68 50 50 51 53 52 67 53 86 54
REMARK SMILES IDX 51 55 52 56 66 58 87 59 54 60 38 61 39 62 47 63 40 64 46 65
REMARK SMILES IDX 48 66 45 67 41 68 42 69 43 70 44 71 70 72 71 73 79 74 72 75
REMARK SMILES IDX 78 76 80 77 77 78 73 79 74 80 75 81 76 82 55 83 56 84 64 85
REMARK SMILES IDX 57 86 63 87 65 88 62 89 58 90 59 91 60 92 61 93
REMARK H PARENT 85 46 53 57
REMARK Flexibility Score: inf
ROOT
ATOM      1  C   UNL A   1      32.515  24.884  25.971  1.00  0.00     0.188 C 
ENDROOT
BRANCH   1   2
ATOM      2  C   UNL A   1      33.710  24.634  25.101  1.00  0.00    -0.003 C 
ATOM      3  C   UNL A   1      34.428  23.500  25.159  1.00  0.00    -0.029 C 
BRANCH   3   4
ATOM      4  C   UNL A   1      35.807  23.357  24.567  1.00  0.00     0.031 C 
BRANCH   4   5
ATOM      5  C   UNL A   1      37.072  23.332  25.771  1.00  0.00     0.031 C 
BRANCH   5   6
ATOM      6  C   UNL A   1      38.582  24.687  26.502  1.00  0.00    -0.031 C 
ATOM      7  C   UNL A   1      39.953  24.786  26.770  1.00  0.00    -0.027 C 
BRANCH   7   8
ATOM      8  C   UNL A   1      40.630  25.832  27.624  1.00  0.00     0.054 C 
BRANCH   8   9
ATOM      9  C   UNL A   1      39.699  26.127  28.773  1.00  0.00    -0.027 C 
ATOM     10  C   UNL A   1      39.288  27.354  29.134  1.00  0.00    -0.027 C 
BRANCH  10  11
ATOM     11  C   UNL A   1      38.528  27.635  30.400  1.00  0.00     0.054 C 
BRANCH  11  12
ATOM     12  C   UNL A   1      39.410  28.269  31.438  1.00  0.00    -0.027 C 
ATOM     13  C   UNL A   1      39.529  27.815  32.698  1.00  0.00    -0.027 C 
BRANCH  13  14
ATOM     14  C   UNL A   1      40.386  28.452  33.755  1.00  0.00     0.054 C 
BRANCH  14  15
ATOM     15  C   UNL A   1      41.541  27.560  34.109  1.00  0.00    -0.027 C 
ATOM     16  C   UNL A   1      41.834  27.147  35.353  1.00  0.00    -0.031 C 
BRANCH  16  17
ATOM     17  C   UNL A   1      42.981  26.234  35.677  1.00  0.00     0.023 C 
ATOM     18  C   UNL A   1      43.182  25.192  34.587  1.00  0.00     0.008 C 
ENDBRANCH  16  17
ENDBRANCH  14  15
ENDBRANCH  13  14
ENDBRANCH  11  12
ENDBRANCH  10  11
ENDBRANCH   8   9
ENDBRANCH   7   8
ENDBRANCH   5   6
ENDBRANCH   4   5
ENDBRANCH   3   4
ENDBRANCH   1   2
BRANCH   1  19
ATOM     19  O   UNL A   1      31.759  26.027  25.564  1.00  0.00    -0.366 OA
BRANCH  19  20
ATOM     20  C   UNL A   1      32.428  27.273  25.538  1.00  0.00     0.283 C 
BRANCH  20  21
ATOM     21  C   UNL A   1      32.069  28.455  26.444  1.00  0.00     0.332 C 
ATOM     22  O   UNL A   1      31.439  28.297  27.488  1.00  0.00    -0.250 OA
BRANCH  21  23
ATOM     23  O   UNL A   1      32.460  29.663  25.956  1.00  0.00    -0.460 OA
BRANCH  23  24
ATOM     24  C   UNL A   1      32.257  30.779  26.853  1.00  0.00     0.274 C 
BRANCH  24  25
ATOM     25  C   UNL A   1      33.578  31.176  27.501  1.00  0.00     0.275 C 
BRANCH  25  26
ATOM     26  O   UNL A   1      33.759  32.590  27.346  1.00  0.00    -0.458 OA
BRANCH  26  27
ATOM     27  C   UNL A   1      33.813  33.297  28.496  1.00  0.00     0.338 C 
ATOM     28  O   UNL A   1      32.974  34.056  28.948  1.00  0.00    -0.246 OA
BRANCH  27  29
ATOM     29  C   UNL A   1      35.095  33.017  29.140  1.00  0.00     0.060 A 
ATOM     30  C   UNL A   1      36.516  34.129  28.907  1.00  0.00     0.016 A 
ATOM     31  C   UNL A   1      35.180  31.668  30.351  1.00  0.00     0.016 A 
ATOM     32  C   UNL A   1      38.053  33.815  29.814  1.00  0.00     0.010 A 
ATOM     33  C   UNL A   1      36.735  31.349  31.253  1.00  0.00     0.010 A 
ATOM     34  C   UNL A   1      38.189  32.449  31.020  1.00  0.00    -0.014 A 
BRANCH  34  35
ATOM     35  C   UNL A   1      39.403  32.281  31.878  1.00  0.00     0.031 A 
ATOM     36  C   UNL A   1      40.591  31.538  31.333  1.00  0.00     0.074 A 
ATOM     37  C   UNL A   1      39.373  32.667  33.172  1.00  0.00     0.049 A 
ATOM     38  N   UNL A   1      41.561  30.934  31.970  1.00  0.00    -0.248 NA
ATOM     39  C   UNL A   1      40.658  31.386  29.874  1.00  0.00     0.031 C 
ATOM     40  C   UNL A   1      38.257  33.332  33.844  1.00  0.00     0.029 A 
ATOM     41  N   UNL A   1      40.300  32.529  34.178  1.00  0.00    -0.354 N 
ATOM     42  C   UNL A   1      42.290  30.255  30.996  1.00  0.00     0.074 A 
ATOM     43  C   UNL A   1      41.614  30.480  29.738  1.00  0.00     0.031 C 
ATOM     44  C   UNL A   1      38.586  33.628  35.105  1.00  0.00     0.029 A 
ATOM     45  C   UNL A   1      39.872  33.026  35.392  1.00  0.00     0.049 A 
ATOM     46  H   UNL A   1      41.184  32.115  34.046  1.00  0.00     0.167 HD
ATOM     47  C   UNL A   1      43.428  29.528  31.145  1.00  0.00     0.034 A 
ATOM     48  C   UNL A   1      40.405  32.941  36.626  1.00  0.00     0.034 A 
ATOM     49  C   UNL A   1      44.108  29.412  32.415  1.00  0.00     0.049 A 
ATOM     50  C   UNL A   1      41.670  32.152  36.772  1.00  0.00     0.074 A 
ATOM     51  C   UNL A   1      45.301  28.776  32.708  1.00  0.00     0.029 A 
ATOM     52  N   UNL A   1      43.652  29.970  33.607  1.00  0.00    -0.354 N 
ATOM     53  N   UNL A   1      42.334  31.492  35.849  1.00  0.00    -0.248 NA
ATOM     54  C   UNL A   1      42.247  32.075  38.115  1.00  0.00     0.031 C 
ATOM     55  C   UNL A   1      45.538  28.908  34.082  1.00  0.00     0.029 A 
ATOM     56  C   UNL A   1      44.528  29.678  34.639  1.00  0.00     0.049 A 
ATOM     57  H   UNL A   1      42.825  30.496  33.701  1.00  0.00     0.167 HD
ATOM     58  C   UNL A   1      43.414  30.917  36.503  1.00  0.00     0.074 A 
ATOM     59  C   UNL A   1      43.324  31.337  37.891  1.00  0.00     0.031 C 
ATOM     60  C   UNL A   1      44.385  30.107  36.011  1.00  0.00     0.034 A 
BRANCH  47  61
ATOM     61  C   UNL A   1      43.969  28.802  29.928  1.00  0.00     0.023 A 
ATOM     62  C   UNL A   1      43.844  27.409  29.771  1.00  0.00     0.031 A 
ATOM     63  C   UNL A   1      44.688  29.500  28.940  1.00  0.00     0.131 A 
ATOM     64  C   UNL A   1      44.526  26.749  28.735  1.00  0.00     0.055 A 
ATOM     65  C   UNL A   1      45.277  28.849  27.850  1.00  0.00     0.041 A 
ATOM     66  F   UNL A   1      44.861  30.828  29.026  1.00  0.00    -0.206 F 
ATOM     67  C   UNL A   1      45.221  27.461  27.757  1.00  0.00     0.022 A 
BRANCH  64  68
ATOM     68  S   UNL A   1      44.652  24.940  28.802  1.00  0.00     0.124 S 
ATOM     69  O   UNL A   1      43.252  24.555  28.960  1.00  0.00    -0.237 OA
ATOM     70  O   UNL A   1      45.261  24.617  27.516  1.00  0.00    -0.237 OA
ATOM     71  O   UNL A   1      45.495  24.697  29.971  1.00  0.00    -0.744 OA
ENDBRANCH  64  68
ENDBRANCH  47  61
BRANCH  48  72
ATOM     72  C   UNL A   1      39.715  33.573  37.788  1.00  0.00     0.023 A 
ATOM     73  C   UNL A   1      38.805  32.840  38.567  1.00  0.00     0.031 A 
ATOM     74  C   UNL A   1      39.998  34.896  38.183  1.00  0.00     0.131 A 
ATOM     75  C   UNL A   1      38.215  33.429  39.697  1.00  0.00     0.055 A 
ATOM     76  C   UNL A   1      39.448  35.460  39.337  1.00  0.00     0.041 A 
ATOM     77  F   UNL A   1      40.866  35.644  37.483  1.00  0.00    -0.206 F 
ATOM     78  C   UNL A   1      38.546  34.725  40.100  1.00  0.00     0.022 A 
BRANCH  75  79
ATOM     79  S   UNL A   1      36.971  32.486  40.619  1.00  0.00     0.124 S 
ATOM     80  O   UNL A   1      36.958  33.179  41.902  1.00  0.00    -0.237 OA
ATOM     81  O   UNL A   1      35.784  32.653  39.786  1.00  0.00    -0.237 OA
ATOM     82  O   UNL A   1      37.522  31.132  40.648  1.00  0.00    -0.744 OA
ENDBRANCH  75  79
ENDBRANCH  48  72
BRANCH  60  83
ATOM     83  C   UNL A   1      45.424  29.657  36.997  1.00  0.00     0.023 A 
ATOM     84  C   UNL A   1      45.252  28.478  37.741  1.00  0.00     0.031 A 
ATOM     85  C   UNL A   1      46.581  30.423  37.209  1.00  0.00     0.131 A 
ATOM     86  C   UNL A   1      46.200  28.128  38.710  1.00  0.00     0.055 A 
ATOM     87  C   UNL A   1      47.553  30.035  38.130  1.00  0.00     0.041 A 
ATOM     88  F   UNL A   1      46.783  31.561  36.525  1.00  0.00    -0.206 F 
ATOM     89  C   UNL A   1      47.359  28.887  38.896  1.00  0.00     0.022 A 
BRANCH  86  90
ATOM     90  S   UNL A   1      45.852  26.712  39.785  1.00  0.00     0.124 S 
ATOM     91  O   UNL A   1      44.878  25.967  38.994  1.00  0.00    -0.237 OA
ATOM     92  O   UNL A   1      47.166  26.093  39.927  1.00  0.00    -0.237 OA
ATOM     93  O   UNL A   1      45.324  27.328  41.001  1.00  0.00    -0.744 OA
ENDBRANCH  86  90
ENDBRANCH  60  83
ENDBRANCH  34  35
ENDBRANCH  27  29
ENDBRANCH  26  27
ENDBRANCH  25  26
ENDBRANCH  24  25
ENDBRANCH  23  24
ENDBRANCH  21  23
ENDBRANCH  20  21
ENDBRANCH  19  20
ENDBRANCH   1  19
TORSDOF 27
ENDMDL
