MODEL 1
REMARK VINA RESULT:     -13.7      0.000      0.000
REMARK SMILES O=C(OCCOC(=O)c1ccc([C@@H]2CC(O)=Nc3c2ncn3-c2cccc(Cl)c2)cc1)c1ccc(-c2c3nc(c(-c4cc(S(=O)(=O)[O-])ccc4F)c4ccc([nH]4)c(-c4cc(S(=O)(=O)[O-])ccc4F)c4nc(c(-c5cc(S(=O)(=O)[O-])ccc5F)c5ccc2[nH]5)C=C4)C=C3)cc1
REMARK SMILES IDX 4 1 3 2 2 3 1 4 32 5 33 6 94 7 34 8 93 9 35 10 36 11 37 12
REMARK SMILES IDX 87 13 38 14 92 15 86 16 88 17 39 18 91 19 85 20 84 21 40 23
REMARK SMILES IDX 72 24 52 25 71 26 53 27 56 28 70 29 89 30 54 31 55 32 69 34
REMARK SMILES IDX 90 35 57 36 41 37 42 38 50 39 43 40 49 41 51 42 48 43 44 44
REMARK SMILES IDX 45 45 46 46 47 47 73 48 74 49 82 50 75 51 81 52 83 53 80 54
REMARK SMILES IDX 76 55 77 56 78 57 79 58 58 59 59 60 67 61 60 62 66 63 68 64
REMARK SMILES IDX 65 65 61 66 62 67 63 68 64 69 5 70 6 71 7 72 8 73 9 74 10 75
REMARK SMILES IDX 31 76 11 77 30 78 12 79 13 80 14 81 19 82 15 83 18 84 20 85
REMARK SMILES IDX 17 86 22 87 21 88 16 89 23 91 24 92 29 93 25 94 27 95 26 96
REMARK SMILES IDX 28 97
REMARK H PARENT 88 22 56 33 16 90
REMARK Flexibility Score: inf
ROOT
ATOM      1  C   UNL A   1      35.362  31.853  28.618  1.00  0.00     0.275 C 
ENDROOT
BRANCH   1   2
ATOM      2  O   UNL A   1      36.295  31.105  27.814  1.00  0.00    -0.458 OA
BRANCH   2   3
ATOM      3  C   UNL A   1      36.407  29.768  27.977  1.00  0.00     0.338 C 
ATOM      4  O   UNL A   1      35.475  28.991  27.819  1.00  0.00    -0.246 OA
BRANCH   3   5
ATOM      5  C   UNL A   1      37.813  29.301  28.041  1.00  0.00     0.060 A 
ATOM      6  C   UNL A   1      38.774  29.617  27.078  1.00  0.00     0.016 A 
ATOM      7  C   UNL A   1      38.169  28.515  29.146  1.00  0.00     0.016 A 
ATOM      8  C   UNL A   1      40.050  29.068  27.171  1.00  0.00     0.010 A 
ATOM      9  C   UNL A   1      39.446  27.978  29.246  1.00  0.00     0.010 A 
ATOM     10  C   UNL A   1      40.376  28.216  28.236  1.00  0.00    -0.014 A 
BRANCH  10  11
ATOM     11  C   UNL A   1      41.752  27.730  28.363  1.00  0.00     0.031 A 
ATOM     12  C   UNL A   1      42.064  26.558  27.493  1.00  0.00     0.074 A 
ATOM     13  C   UNL A   1      42.737  28.346  29.052  1.00  0.00     0.049 A 
ATOM     14  N   UNL A   1      42.330  25.349  27.860  1.00  0.00    -0.248 NA
ATOM     15  C   UNL A   1      41.943  26.720  26.037  1.00  0.00     0.031 C 
ATOM     16  C   UNL A   1      42.715  29.641  29.734  1.00  0.00     0.029 A 
ATOM     17  N   UNL A   1      44.034  27.952  29.215  1.00  0.00    -0.354 N 
ATOM     18  C   UNL A   1      42.611  24.632  26.697  1.00  0.00     0.074 A 
ATOM     19  C   UNL A   1      42.219  25.487  25.609  1.00  0.00     0.031 C 
ATOM     20  C   UNL A   1      43.984  30.021  30.027  1.00  0.00     0.029 A 
ATOM     21  C   UNL A   1      44.898  28.938  29.691  1.00  0.00     0.049 A 
ATOM     22  H   UNL A   1      44.336  27.039  29.010  1.00  0.00     0.167 HD
ATOM     23  C   UNL A   1      43.314  23.464  26.734  1.00  0.00     0.034 A 
ATOM     24  C   UNL A   1      46.261  28.872  29.777  1.00  0.00     0.034 A 
ATOM     25  C   UNL A   1      43.373  22.943  28.081  1.00  0.00     0.049 A 
ATOM     26  C   UNL A   1      46.613  27.430  29.791  1.00  0.00     0.074 A 
ATOM     27  C   UNL A   1      42.426  22.550  29.009  1.00  0.00     0.029 A 
ATOM     28  N   UNL A   1      44.527  23.148  28.807  1.00  0.00    -0.354 N 
ATOM     29  N   UNL A   1      46.288  26.633  30.772  1.00  0.00    -0.248 NA
ATOM     30  C   UNL A   1      46.846  26.776  28.510  1.00  0.00     0.031 C 
ATOM     31  C   UNL A   1      42.892  23.095  30.243  1.00  0.00     0.029 A 
ATOM     32  C   UNL A   1      44.137  23.683  30.011  1.00  0.00     0.049 A 
ATOM     33  H   UNL A   1      45.448  22.952  28.518  1.00  0.00     0.167 HD
ATOM     34  C   UNL A   1      45.844  25.473  30.157  1.00  0.00     0.074 A 
ATOM     35  C   UNL A   1      46.281  25.591  28.764  1.00  0.00     0.031 C 
ATOM     36  C   UNL A   1      44.918  24.658  30.745  1.00  0.00     0.034 A 
BRANCH  23  37
ATOM     37  C   UNL A   1      44.242  22.950  25.655  1.00  0.00     0.023 A 
ATOM     38  C   UNL A   1      44.234  21.560  25.411  1.00  0.00     0.031 A 
ATOM     39  C   UNL A   1      45.322  23.663  25.091  1.00  0.00     0.131 A 
ATOM     40  C   UNL A   1      45.311  20.929  24.767  1.00  0.00     0.055 A 
ATOM     41  C   UNL A   1      46.355  23.038  24.383  1.00  0.00     0.041 A 
ATOM     42  F   UNL A   1      45.495  24.977  25.272  1.00  0.00    -0.206 F 
ATOM     43  C   UNL A   1      46.375  21.660  24.250  1.00  0.00     0.022 A 
BRANCH  40  44
ATOM     44  S   UNL A   1      45.388  19.118  24.803  1.00  0.00     0.124 S 
ATOM     45  O   UNL A   1      44.259  18.795  25.669  1.00  0.00    -0.237 OA
ATOM     46  O   UNL A   1      45.233  18.782  23.392  1.00  0.00    -0.237 OA
ATOM     47  O   UNL A   1      46.708  18.845  25.367  1.00  0.00    -0.744 OA
ENDBRANCH  40  44
ENDBRANCH  23  37
BRANCH  24  48
ATOM     48  C   UNL A   1      47.265  29.950  29.497  1.00  0.00     0.023 A 
ATOM     49  C   UNL A   1      47.250  30.763  28.335  1.00  0.00     0.031 A 
ATOM     50  C   UNL A   1      48.123  30.366  30.538  1.00  0.00     0.131 A 
ATOM     51  C   UNL A   1      48.066  31.924  28.257  1.00  0.00     0.055 A 
ATOM     52  C   UNL A   1      48.916  31.514  30.460  1.00  0.00     0.041 A 
ATOM     53  F   UNL A   1      48.153  29.716  31.713  1.00  0.00    -0.206 F 
ATOM     54  C   UNL A   1      48.886  32.303  29.323  1.00  0.00     0.022 A 
BRANCH  51  55
ATOM     55  S   UNL A   1      48.030  33.020  26.793  1.00  0.00     0.124 S 
ATOM     56  O   UNL A   1      49.292  32.704  26.134  1.00  0.00    -0.237 OA
ATOM     57  O   UNL A   1      46.816  32.595  26.108  1.00  0.00    -0.237 OA
ATOM     58  O   UNL A   1      47.964  34.364  27.371  1.00  0.00    -0.744 OA
ENDBRANCH  51  55
ENDBRANCH  24  48
BRANCH  36  59
ATOM     59  C   UNL A   1      44.533  24.899  32.190  1.00  0.00     0.023 A 
ATOM     60  C   UNL A   1      43.862  26.046  32.679  1.00  0.00     0.031 A 
ATOM     61  C   UNL A   1      44.747  23.839  33.090  1.00  0.00     0.131 A 
ATOM     62  C   UNL A   1      43.446  26.097  34.026  1.00  0.00     0.055 A 
ATOM     63  C   UNL A   1      44.311  23.885  34.412  1.00  0.00     0.041 A 
ATOM     64  F   UNL A   1      45.357  22.713  32.683  1.00  0.00    -0.206 F 
ATOM     65  C   UNL A   1      43.664  25.017  34.887  1.00  0.00     0.022 A 
BRANCH  62  66
ATOM     66  S   UNL A   1      42.633  27.584  34.702  1.00  0.00     0.124 S 
ATOM     67  O   UNL A   1      43.126  28.662  33.853  1.00  0.00    -0.237 OA
ATOM     68  O   UNL A   1      41.216  27.260  34.567  1.00  0.00    -0.237 OA
ATOM     69  O   UNL A   1      43.114  27.633  36.086  1.00  0.00    -0.744 OA
ENDBRANCH  62  66
ENDBRANCH  36  59
ENDBRANCH  10  11
ENDBRANCH   3   5
ENDBRANCH   2   3
ENDBRANCH   1   2
BRANCH   1  70
ATOM     70  C   UNL A   1      34.004  32.162  27.992  1.00  0.00     0.275 C 
BRANCH  70  71
ATOM     71  O   UNL A   1      33.339  30.945  27.623  1.00  0.00    -0.458 OA
BRANCH  71  72
ATOM     72  C   UNL A   1      32.180  31.083  26.935  1.00  0.00     0.338 C 
ATOM     73  O   UNL A   1      31.511  32.092  26.772  1.00  0.00    -0.246 OA
BRANCH  72  74
ATOM     74  C   UNL A   1      31.828  29.765  26.401  1.00  0.00     0.060 A 
ATOM     75  C   UNL A   1      31.874  28.640  27.225  1.00  0.00     0.016 A 
ATOM     76  C   UNL A   1      31.452  29.658  25.063  1.00  0.00     0.016 A 
ATOM     77  C   UNL A   1      31.496  27.399  26.711  1.00  0.00     0.005 A 
ATOM     78  C   UNL A   1      31.112  28.410  24.543  1.00  0.00     0.005 A 
ATOM     79  C   UNL A   1      31.106  27.267  25.364  1.00  0.00    -0.038 A 
BRANCH  79  80
ATOM     80  C   UNL A   1      30.776  25.878  24.838  1.00  0.00     0.081 C 
ATOM     81  C   UNL A   1      29.995  25.059  25.883  1.00  0.00     0.111 C 
ATOM     82  C   UNL A   1      32.044  25.208  24.461  1.00  0.00     0.093 A 
ATOM     83  C   UNL A   1      30.727  23.846  26.438  1.00  0.00     0.188 C 
ATOM     84  C   UNL A   1      32.425  24.005  25.012  1.00  0.00     0.164 A 
ATOM     85  N   UNL A   1      32.988  25.696  23.605  1.00  0.00    -0.238 NA
ATOM     86  N   UNL A   1      31.826  23.311  26.012  1.00  0.00    -0.198 NA
ATOM     87  N   UNL A   1      33.650  23.717  24.435  1.00  0.00    -0.283 N 
ATOM     88  C   UNL A   1      33.947  24.794  23.624  1.00  0.00     0.206 A 
BRANCH  83  89
ATOM     89  O   UNL A   1      30.097  23.269  27.483  1.00  0.00    -0.496 OA
ATOM     90  H   UNL A   1      29.230  23.539  27.715  1.00  0.00     0.294 HD
ENDBRANCH  83  89
BRANCH  87  91
ATOM     91  C   UNL A   1      34.455  22.570  24.626  1.00  0.00     0.050 A 
ATOM     92  C   UNL A   1      33.874  21.295  24.566  1.00  0.00     0.027 A 
ATOM     93  C   UNL A   1      35.819  22.715  24.901  1.00  0.00     0.047 A 
ATOM     94  C   UNL A   1      34.671  20.164  24.757  1.00  0.00     0.004 A 
ATOM     95  C   UNL A   1      36.591  21.579  25.140  1.00  0.00     0.043 A 
ATOM     96  C   UNL A   1      36.026  20.306  25.056  1.00  0.00     0.020 A 
ATOM     97  Cl  UNL A   1      38.252  21.745  25.562  1.00  0.00    -0.084 Cl
ENDBRANCH  87  91
ENDBRANCH  79  80
ENDBRANCH  72  74
ENDBRANCH  71  72
ENDBRANCH  70  71
ENDBRANCH   1  70
TORSDOF 17
ENDMDL
MODEL 2
REMARK VINA RESULT:     -13.6      2.744      7.401
REMARK SMILES O=C(OCCOC(=O)c1ccc([C@@H]2CC(O)=Nc3c2ncn3-c2cccc(Cl)c2)cc1)c1ccc(-c2c3nc(c(-c4cc(S(=O)(=O)[O-])ccc4F)c4ccc([nH]4)c(-c4cc(S(=O)(=O)[O-])ccc4F)c4nc(c(-c5cc(S(=O)(=O)[O-])ccc5F)c5ccc2[nH]5)C=C4)C=C3)cc1
REMARK SMILES IDX 4 1 3 2 2 3 1 4 32 5 33 6 94 7 34 8 93 9 35 10 36 11 37 12
REMARK SMILES IDX 87 13 38 14 92 15 86 16 88 17 39 18 91 19 85 20 84 21 40 23
REMARK SMILES IDX 72 24 52 25 71 26 53 27 56 28 70 29 89 30 54 31 55 32 69 34
REMARK SMILES IDX 90 35 57 36 41 37 42 38 50 39 43 40 49 41 51 42 48 43 44 44
REMARK SMILES IDX 45 45 46 46 47 47 73 48 74 49 82 50 75 51 81 52 83 53 80 54
REMARK SMILES IDX 76 55 77 56 78 57 79 58 58 59 59 60 67 61 60 62 66 63 68 64
REMARK SMILES IDX 65 65 61 66 62 67 63 68 64 69 5 70 6 71 7 72 8 73 9 74 10 75
REMARK SMILES IDX 31 76 11 77 30 78 12 79 13 80 14 81 19 82 15 83 18 84 20 85
REMARK SMILES IDX 17 86 22 87 21 88 16 89 23 91 24 92 29 93 25 94 27 95 26 96
REMARK SMILES IDX 28 97
REMARK H PARENT 88 22 56 33 16 90
REMARK Flexibility Score: inf
ROOT
ATOM      1  C   UNL A   1      32.610  31.601  26.993  1.00  0.00     0.275 C 
ENDROOT
BRANCH   1   2
ATOM      2  O   UNL A   1      33.966  31.146  27.171  1.00  0.00    -0.458 OA
BRANCH   2   3
ATOM      3  C   UNL A   1      34.756  31.726  28.101  1.00  0.00     0.338 C 
ATOM      4  O   UNL A   1      34.375  32.619  28.845  1.00  0.00    -0.246 OA
BRANCH   3   5
ATOM      5  C   UNL A   1      36.005  30.970  28.362  1.00  0.00     0.060 A 
ATOM      6  C   UNL A   1      36.132  29.595  28.153  1.00  0.00     0.016 A 
ATOM      7  C   UNL A   1      37.104  31.706  28.827  1.00  0.00     0.016 A 
ATOM      8  C   UNL A   1      37.315  28.950  28.503  1.00  0.00     0.010 A 
ATOM      9  C   UNL A   1      38.289  31.065  29.164  1.00  0.00     0.010 A 
ATOM     10  C   UNL A   1      38.382  29.679  29.045  1.00  0.00    -0.014 A 
BRANCH  10  11
ATOM     11  C   UNL A   1      39.649  28.995  29.314  1.00  0.00     0.031 A 
ATOM     12  C   UNL A   1      39.967  28.855  30.766  1.00  0.00     0.074 A 
ATOM     13  C   UNL A   1      40.413  28.372  28.389  1.00  0.00     0.049 A 
ATOM     14  N   UNL A   1      40.923  29.422  31.423  1.00  0.00    -0.248 NA
ATOM     15  C   UNL A   1      39.037  28.097  31.613  1.00  0.00     0.031 C 
ATOM     16  C   UNL A   1      40.141  28.148  26.969  1.00  0.00     0.029 A 
ATOM     17  N   UNL A   1      41.598  27.720  28.566  1.00  0.00    -0.354 N 
ATOM     18  C   UNL A   1      40.849  28.939  32.730  1.00  0.00     0.074 A 
ATOM     19  C   UNL A   1      39.592  28.246  32.817  1.00  0.00     0.031 C 
ATOM     20  C   UNL A   1      41.007  27.225  26.482  1.00  0.00     0.029 A 
ATOM     21  C   UNL A   1      41.988  26.900  27.507  1.00  0.00     0.049 A 
ATOM     22  H   UNL A   1      42.138  27.820  29.383  1.00  0.00     0.167 HD
ATOM     23  C   UNL A   1      41.919  29.000  33.573  1.00  0.00     0.034 A 
ATOM     24  C   UNL A   1      43.023  26.007  27.490  1.00  0.00     0.034 A 
ATOM     25  C   UNL A   1      42.919  29.913  33.067  1.00  0.00     0.049 A 
ATOM     26  C   UNL A   1      43.965  26.433  28.556  1.00  0.00     0.074 A 
ATOM     27  C   UNL A   1      42.930  31.258  32.750  1.00  0.00     0.029 A 
ATOM     28  N   UNL A   1      44.016  29.381  32.423  1.00  0.00    -0.354 N 
ATOM     29  N   UNL A   1      44.634  27.553  28.501  1.00  0.00    -0.248 NA
ATOM     30  C   UNL A   1      43.764  25.893  29.894  1.00  0.00     0.031 C 
ATOM     31  C   UNL A   1      43.650  31.328  31.520  1.00  0.00     0.029 A 
ATOM     32  C   UNL A   1      44.123  30.047  31.226  1.00  0.00     0.049 A 
ATOM     33  H   UNL A   1      44.605  28.665  32.755  1.00  0.00     0.167 HD
ATOM     34  C   UNL A   1      44.549  28.081  29.780  1.00  0.00     0.074 A 
ATOM     35  C   UNL A   1      44.064  26.979  30.614  1.00  0.00     0.031 C 
ATOM     36  C   UNL A   1      44.596  29.428  30.005  1.00  0.00     0.034 A 
BRANCH  23  37
ATOM     37  C   UNL A   1      42.247  28.008  34.668  1.00  0.00     0.023 A 
ATOM     38  C   UNL A   1      43.013  26.881  34.303  1.00  0.00     0.031 A 
ATOM     39  C   UNL A   1      41.614  27.935  35.927  1.00  0.00     0.131 A 
ATOM     40  C   UNL A   1      43.019  25.719  35.093  1.00  0.00     0.055 A 
ATOM     41  C   UNL A   1      41.684  26.802  36.746  1.00  0.00     0.041 A 
ATOM     42  F   UNL A   1      40.816  28.902  36.394  1.00  0.00    -0.206 F 
ATOM     43  C   UNL A   1      42.358  25.671  36.315  1.00  0.00     0.022 A 
BRANCH  40  44
ATOM     44  S   UNL A   1      43.736  24.210  34.390  1.00  0.00     0.124 S 
ATOM     45  O   UNL A   1      42.613  23.285  34.475  1.00  0.00    -0.237 OA
ATOM     46  O   UNL A   1      44.108  24.650  33.049  1.00  0.00    -0.237 OA
ATOM     47  O   UNL A   1      44.856  23.919  35.282  1.00  0.00    -0.744 OA
ENDBRANCH  40  44
ENDBRANCH  23  37
BRANCH  24  48
ATOM     48  C   UNL A   1      43.068  24.646  26.864  1.00  0.00     0.023 A 
ATOM     49  C   UNL A   1      44.048  24.239  25.922  1.00  0.00     0.031 A 
ATOM     50  C   UNL A   1      42.265  23.621  27.408  1.00  0.00     0.131 A 
ATOM     51  C   UNL A   1      44.185  22.870  25.570  1.00  0.00     0.055 A 
ATOM     52  C   UNL A   1      42.410  22.274  27.065  1.00  0.00     0.041 A 
ATOM     53  F   UNL A   1      41.364  23.883  28.368  1.00  0.00    -0.206 F 
ATOM     54  C   UNL A   1      43.377  21.890  26.150  1.00  0.00     0.022 A 
BRANCH  51  55
ATOM     55  S   UNL A   1      45.473  22.309  24.397  1.00  0.00     0.124 S 
ATOM     56  O   UNL A   1      45.951  23.566  23.833  1.00  0.00    -0.237 OA
ATOM     57  O   UNL A   1      46.400  21.592  25.264  1.00  0.00    -0.237 OA
ATOM     58  O   UNL A   1      44.738  21.460  23.459  1.00  0.00    -0.744 OA
ENDBRANCH  51  55
ENDBRANCH  24  48
BRANCH  36  59
ATOM     59  C   UNL A   1      44.973  30.354  28.867  1.00  0.00     0.023 A 
ATOM     60  C   UNL A   1      46.289  30.765  28.547  1.00  0.00     0.031 A 
ATOM     61  C   UNL A   1      43.943  30.729  27.985  1.00  0.00     0.131 A 
ATOM     62  C   UNL A   1      46.525  31.531  27.385  1.00  0.00     0.055 A 
ATOM     63  C   UNL A   1      44.185  31.463  26.826  1.00  0.00     0.041 A 
ATOM     64  F   UNL A   1      42.675  30.352  28.219  1.00  0.00    -0.206 F 
ATOM     65  C   UNL A   1      45.477  31.871  26.525  1.00  0.00     0.022 A 
BRANCH  62  66
ATOM     66  S   UNL A   1      48.200  32.127  26.976  1.00  0.00     0.124 S 
ATOM     67  O   UNL A   1      47.973  33.072  25.889  1.00  0.00    -0.237 OA
ATOM     68  O   UNL A   1      48.649  32.703  28.241  1.00  0.00    -0.237 OA
ATOM     69  O   UNL A   1      48.907  30.906  26.582  1.00  0.00    -0.744 OA
ENDBRANCH  62  66
ENDBRANCH  36  59
ENDBRANCH  10  11
ENDBRANCH   3   5
ENDBRANCH   2   3
ENDBRANCH   1   2
BRANCH   1  70
ATOM     70  C   UNL A   1      31.628  30.617  26.360  1.00  0.00     0.275 C 
BRANCH  70  71
ATOM     71  O   UNL A   1      32.188  30.058  25.162  1.00  0.00    -0.458 OA
BRANCH  71  72
ATOM     72  C   UNL A   1      31.538  28.990  24.642  1.00  0.00     0.338 C 
ATOM     73  O   UNL A   1      30.508  28.975  23.986  1.00  0.00    -0.246 OA
BRANCH  72  74
ATOM     74  C   UNL A   1      32.293  27.792  25.020  1.00  0.00     0.060 A 
ATOM     75  C   UNL A   1      33.260  27.273  24.158  1.00  0.00     0.016 A 
ATOM     76  C   UNL A   1      32.024  27.184  26.245  1.00  0.00     0.016 A 
ATOM     77  C   UNL A   1      33.998  26.156  24.552  1.00  0.00     0.005 A 
ATOM     78  C   UNL A   1      32.736  26.045  26.617  1.00  0.00     0.005 A 
ATOM     79  C   UNL A   1      33.750  25.528  25.787  1.00  0.00    -0.038 A 
BRANCH  79  80
ATOM     80  C   UNL A   1      34.531  24.269  26.131  1.00  0.00     0.081 C 
ATOM     81  C   UNL A   1      35.880  24.232  25.387  1.00  0.00     0.111 C 
ATOM     82  C   UNL A   1      33.694  23.093  25.795  1.00  0.00     0.093 A 
ATOM     83  C   UNL A   1      36.022  23.124  24.354  1.00  0.00     0.188 C 
ATOM     84  C   UNL A   1      34.121  22.121  24.917  1.00  0.00     0.164 A 
ATOM     85  N   UNL A   1      32.427  22.854  26.240  1.00  0.00    -0.238 NA
ATOM     86  N   UNL A   1      35.245  22.107  24.158  1.00  0.00    -0.198 NA
ATOM     87  N   UNL A   1      33.076  21.215  24.849  1.00  0.00    -0.283 N 
ATOM     88  C   UNL A   1      32.073  21.736  25.642  1.00  0.00     0.206 A 
BRANCH  83  89
ATOM     89  O   UNL A   1      37.130  23.240  23.591  1.00  0.00    -0.496 OA
ATOM     90  H   UNL A   1      37.891  23.667  23.931  1.00  0.00     0.294 HD
ENDBRANCH  83  89
BRANCH  87  91
ATOM     91  C   UNL A   1      33.019  20.005  24.119  1.00  0.00     0.050 A 
ATOM     92  C   UNL A   1      32.307  19.951  22.914  1.00  0.00     0.027 A 
ATOM     93  C   UNL A   1      33.649  18.860  24.621  1.00  0.00     0.047 A 
ATOM     94  C   UNL A   1      32.250  18.754  22.197  1.00  0.00     0.004 A 
ATOM     95  C   UNL A   1      33.542  17.660  23.921  1.00  0.00     0.043 A 
ATOM     96  C   UNL A   1      32.857  17.605  22.706  1.00  0.00     0.020 A 
ATOM     97  Cl  UNL A   1      34.241  16.225  24.567  1.00  0.00    -0.084 Cl
ENDBRANCH  87  91
ENDBRANCH  79  80
ENDBRANCH  72  74
ENDBRANCH  71  72
ENDBRANCH  70  71
ENDBRANCH   1  70
TORSDOF 17
ENDMDL
MODEL 3
REMARK VINA RESULT:     -13.6      4.202      9.438
REMARK SMILES O=C(OCCOC(=O)c1ccc([C@@H]2CC(O)=Nc3c2ncn3-c2cccc(Cl)c2)cc1)c1ccc(-c2c3nc(c(-c4cc(S(=O)(=O)[O-])ccc4F)c4ccc([nH]4)c(-c4cc(S(=O)(=O)[O-])ccc4F)c4nc(c(-c5cc(S(=O)(=O)[O-])ccc5F)c5ccc2[nH]5)C=C4)C=C3)cc1
REMARK SMILES IDX 4 1 3 2 2 3 1 4 32 5 33 6 94 7 34 8 93 9 35 10 36 11 37 12
REMARK SMILES IDX 87 13 38 14 92 15 86 16 88 17 39 18 91 19 85 20 84 21 40 23
REMARK SMILES IDX 72 24 52 25 71 26 53 27 56 28 70 29 89 30 54 31 55 32 69 34
REMARK SMILES IDX 90 35 57 36 41 37 42 38 50 39 43 40 49 41 51 42 48 43 44 44
REMARK SMILES IDX 45 45 46 46 47 47 73 48 74 49 82 50 75 51 81 52 83 53 80 54
REMARK SMILES IDX 76 55 77 56 78 57 79 58 58 59 59 60 67 61 60 62 66 63 68 64
REMARK SMILES IDX 65 65 61 66 62 67 63 68 64 69 5 70 6 71 7 72 8 73 9 74 10 75
REMARK SMILES IDX 31 76 11 77 30 78 12 79 13 80 14 81 19 82 15 83 18 84 20 85
REMARK SMILES IDX 17 86 22 87 21 88 16 89 23 91 24 92 29 93 25 94 27 95 26 96
REMARK SMILES IDX 28 97
REMARK H PARENT 88 22 56 33 16 90
REMARK Flexibility Score: inf
ROOT
ATOM      1  C   UNL A   1      41.109  21.375  25.879  1.00  0.00     0.275 C 
ENDROOT
BRANCH   1   2
ATOM      2  O   UNL A   1      41.839  22.533  26.333  1.00  0.00    -0.458 OA
BRANCH   2   3
ATOM      3  C   UNL A   1      42.047  22.723  27.655  1.00  0.00     0.338 C 
ATOM      4  O   UNL A   1      42.551  21.880  28.384  1.00  0.00    -0.246 OA
BRANCH   3   5
ATOM      5  C   UNL A   1      41.918  24.141  28.070  1.00  0.00     0.060 A 
ATOM      6  C   UNL A   1      42.904  24.828  28.782  1.00  0.00     0.016 A 
ATOM      7  C   UNL A   1      40.739  24.804  27.700  1.00  0.00     0.016 A 
ATOM      8  C   UNL A   1      42.667  26.133  29.204  1.00  0.00     0.010 A 
ATOM      9  C   UNL A   1      40.508  26.110  28.110  1.00  0.00     0.010 A 
ATOM     10  C   UNL A   1      41.452  26.763  28.901  1.00  0.00    -0.014 A 
BRANCH  10  11
ATOM     11  C   UNL A   1      41.266  28.167  29.273  1.00  0.00     0.031 A 
ATOM     12  C   UNL A   1      42.230  29.101  28.620  1.00  0.00     0.074 A 
ATOM     13  C   UNL A   1      40.231  28.654  29.993  1.00  0.00     0.049 A 
ATOM     14  N   UNL A   1      43.168  29.789  29.182  1.00  0.00    -0.248 NA
ATOM     15  C   UNL A   1      42.236  29.183  27.153  1.00  0.00     0.031 C 
ATOM     16  C   UNL A   1      39.040  27.959  30.482  1.00  0.00     0.029 A 
ATOM     17  N   UNL A   1      39.995  29.943  30.376  1.00  0.00    -0.354 N 
ATOM     18  C   UNL A   1      43.759  30.552  28.175  1.00  0.00     0.074 A 
ATOM     19  C   UNL A   1      43.242  30.032  26.938  1.00  0.00     0.031 C 
ATOM     20  C   UNL A   1      38.116  28.868  30.882  1.00  0.00     0.029 A 
ATOM     21  C   UNL A   1      38.698  30.201  30.821  1.00  0.00     0.049 A 
ATOM     22  H   UNL A   1      40.690  30.639  30.340  1.00  0.00     0.167 HD
ATOM     23  C   UNL A   1      44.487  31.669  28.464  1.00  0.00     0.034 A 
ATOM     24  C   UNL A   1      38.145  31.421  31.092  1.00  0.00     0.034 A 
ATOM     25  C   UNL A   1      44.837  31.705  29.866  1.00  0.00     0.049 A 
ATOM     26  C   UNL A   1      39.276  32.349  31.350  1.00  0.00     0.074 A 
ATOM     27  C   UNL A   1      45.548  30.870  30.707  1.00  0.00     0.029 A 
ATOM     28  N   UNL A   1      44.092  32.510  30.701  1.00  0.00    -0.354 N 
ATOM     29  N   UNL A   1      40.067  32.228  32.381  1.00  0.00    -0.248 NA
ATOM     30  C   UNL A   1      39.840  33.063  30.213  1.00  0.00     0.031 C 
ATOM     31  C   UNL A   1      44.773  30.829  31.905  1.00  0.00     0.029 A 
ATOM     32  C   UNL A   1      43.709  31.721  31.758  1.00  0.00     0.049 A 
ATOM     33  H   UNL A   1      43.877  33.461  30.565  1.00  0.00     0.167 HD
ATOM     34  C   UNL A   1      41.341  32.441  31.879  1.00  0.00     0.074 A 
ATOM     35  C   UNL A   1      41.133  33.025  30.551  1.00  0.00     0.031 C 
ATOM     36  C   UNL A   1      42.442  31.866  32.447  1.00  0.00     0.034 A 
BRANCH  23  37
ATOM     37  C   UNL A   1      44.604  32.903  27.596  1.00  0.00     0.023 A 
ATOM     38  C   UNL A   1      43.907  34.054  28.021  1.00  0.00     0.031 A 
ATOM     39  C   UNL A   1      45.076  32.931  26.266  1.00  0.00     0.131 A 
ATOM     40  C   UNL A   1      43.594  35.088  27.122  1.00  0.00     0.055 A 
ATOM     41  C   UNL A   1      44.827  33.998  25.396  1.00  0.00     0.041 A 
ATOM     42  F   UNL A   1      45.713  31.899  25.703  1.00  0.00    -0.206 F 
ATOM     43  C   UNL A   1      44.050  35.068  25.810  1.00  0.00     0.022 A 
BRANCH  40  44
ATOM     44  S   UNL A   1      42.409  36.353  27.652  1.00  0.00     0.124 S 
ATOM     45  O   UNL A   1      43.017  36.824  28.890  1.00  0.00    -0.237 OA
ATOM     46  O   UNL A   1      42.437  37.282  26.526  1.00  0.00    -0.237 OA
ATOM     47  O   UNL A   1      41.164  35.605  27.811  1.00  0.00    -0.744 OA
ENDBRANCH  40  44
ENDBRANCH  23  37
BRANCH  24  48
ATOM     48  C   UNL A   1      36.755  31.899  30.800  1.00  0.00     0.023 A 
ATOM     49  C   UNL A   1      36.002  32.727  31.671  1.00  0.00     0.031 A 
ATOM     50  C   UNL A   1      36.243  31.744  29.493  1.00  0.00     0.131 A 
ATOM     51  C   UNL A   1      34.806  33.348  31.222  1.00  0.00     0.055 A 
ATOM     52  C   UNL A   1      35.071  32.365  29.053  1.00  0.00     0.041 A 
ATOM     53  F   UNL A   1      36.919  31.050  28.563  1.00  0.00    -0.206 F 
ATOM     54  C   UNL A   1      34.351  33.177  29.913  1.00  0.00     0.022 A 
BRANCH  51  55
ATOM     55  S   UNL A   1      33.841  34.462  32.308  1.00  0.00     0.124 S 
ATOM     56  O   UNL A   1      34.866  35.364  32.820  1.00  0.00    -0.237 OA
ATOM     57  O   UNL A   1      32.869  35.038  31.387  1.00  0.00    -0.237 OA
ATOM     58  O   UNL A   1      33.270  33.557  33.307  1.00  0.00    -0.744 OA
ENDBRANCH  51  55
ENDBRANCH  24  48
BRANCH  36  59
ATOM     59  C   UNL A   1      42.303  31.164  33.783  1.00  0.00     0.023 A 
ATOM     60  C   UNL A   1      42.095  29.775  33.960  1.00  0.00     0.031 A 
ATOM     61  C   UNL A   1      42.527  31.940  34.934  1.00  0.00     0.131 A 
ATOM     62  C   UNL A   1      42.108  29.222  35.259  1.00  0.00     0.055 A 
ATOM     63  C   UNL A   1      42.564  31.385  36.211  1.00  0.00     0.041 A 
ATOM     64  F   UNL A   1      42.754  33.260  34.832  1.00  0.00    -0.206 F 
ATOM     65  C   UNL A   1      42.349  30.024  36.379  1.00  0.00     0.022 A 
BRANCH  62  66
ATOM     66  S   UNL A   1      41.783  27.447  35.527  1.00  0.00     0.124 S 
ATOM     67  O   UNL A   1      41.211  27.401  36.867  1.00  0.00    -0.237 OA
ATOM     68  O   UNL A   1      40.875  27.122  34.432  1.00  0.00    -0.237 OA
ATOM     69  O   UNL A   1      43.112  26.839  35.413  1.00  0.00    -0.744 OA
ENDBRANCH  62  66
ENDBRANCH  36  59
ENDBRANCH  10  11
ENDBRANCH   3   5
ENDBRANCH   2   3
ENDBRANCH   1   2
BRANCH   1  70
ATOM     70  C   UNL A   1      39.681  21.213  26.394  1.00  0.00     0.275 C 
BRANCH  70  71
ATOM     71  O   UNL A   1      38.742  21.658  25.404  1.00  0.00    -0.458 OA
BRANCH  71  72
ATOM     72  C   UNL A   1      37.877  20.724  24.942  1.00  0.00     0.338 C 
ATOM     73  O   UNL A   1      38.047  19.519  24.836  1.00  0.00    -0.246 OA
BRANCH  72  74
ATOM     74  C   UNL A   1      36.646  21.421  24.555  1.00  0.00     0.060 A 
ATOM     75  C   UNL A   1      35.403  20.876  24.874  1.00  0.00     0.016 A 
ATOM     76  C   UNL A   1      36.744  22.627  23.863  1.00  0.00     0.016 A 
ATOM     77  C   UNL A   1      34.243  21.573  24.534  1.00  0.00     0.005 A 
ATOM     78  C   UNL A   1      35.582  23.301  23.491  1.00  0.00     0.005 A 
ATOM     79  C   UNL A   1      34.315  22.796  23.841  1.00  0.00    -0.038 A 
BRANCH  79  80
ATOM     80  C   UNL A   1      33.018  23.475  23.430  1.00  0.00     0.081 C 
ATOM     81  C   UNL A   1      33.111  24.027  21.994  1.00  0.00     0.111 C 
ATOM     82  C   UNL A   1      32.723  24.551  24.406  1.00  0.00     0.093 A 
ATOM     83  C   UNL A   1      33.055  25.543  21.876  1.00  0.00     0.188 C 
ATOM     84  C   UNL A   1      32.564  25.863  24.020  1.00  0.00     0.164 A 
ATOM     85  N   UNL A   1      32.632  24.405  25.759  1.00  0.00    -0.238 NA
ATOM     86  N   UNL A   1      32.749  26.406  22.790  1.00  0.00    -0.198 NA
ATOM     87  N   UNL A   1      32.324  26.557  25.194  1.00  0.00    -0.283 N 
ATOM     88  C   UNL A   1      32.413  25.624  26.208  1.00  0.00     0.206 A 
BRANCH  83  89
ATOM     89  O   UNL A   1      33.332  25.996  20.634  1.00  0.00    -0.496 OA
ATOM     90  H   UNL A   1      32.666  26.419  20.130  1.00  0.00     0.294 HD
ENDBRANCH  83  89
BRANCH  87  91
ATOM     91  C   UNL A   1      32.048  27.935  25.350  1.00  0.00     0.050 A 
ATOM     92  C   UNL A   1      32.716  28.670  26.339  1.00  0.00     0.027 A 
ATOM     93  C   UNL A   1      31.089  28.549  24.537  1.00  0.00     0.047 A 
ATOM     94  C   UNL A   1      32.440  30.030  26.493  1.00  0.00     0.004 A 
ATOM     95  C   UNL A   1      30.788  29.895  24.736  1.00  0.00     0.043 A 
ATOM     96  C   UNL A   1      31.467  30.640  25.700  1.00  0.00     0.020 A 
ATOM     97  Cl  UNL A   1      29.552  30.644  23.799  1.00  0.00    -0.084 Cl
ENDBRANCH  87  91
ENDBRANCH  79  80
ENDBRANCH  72  74
ENDBRANCH  71  72
ENDBRANCH  70  71
ENDBRANCH   1  70
TORSDOF 17
ENDMDL
