MODEL 1
REMARK VINA RESULT:     -11.5      0.000      0.000
REMARK SMILES COc1cc(OC)cc(-c2ccc([C@@H](C)C(=O)OCCOC(=O)c3ccc(-c4c5nc(c(-c6cc(S(=O)(=O)[O-])ccc6F)c6ccc([nH]6)c(-c6cc(S(=O)(=O)[O-])ccc6F)c6nc(c(-c7cc(S(=O)(=O)[O-])ccc7F)c7ccc4[nH]7)C=C6)C=C5)cc3)cc2F)c1
REMARK SMILES IDX 19 1 18 2 16 3 17 4 14 5 15 6 13 7 10 8 11 9 88 10 12 11
REMARK SMILES IDX 87 12 89 13 9 14 3 15 4 16 90 17 5 18 8 19 2 20 1 21 6 22
REMARK SMILES IDX 7 23 20 24 21 25 22 26 23 27 24 28 25 29 86 30 26 31 85 32
REMARK SMILES IDX 27 33 28 34 29 35 79 36 30 37 84 38 78 39 80 40 31 41 83 42
REMARK SMILES IDX 77 43 76 44 32 46 64 47 44 48 63 49 45 50 48 51 62 52 81 53
REMARK SMILES IDX 46 54 47 55 61 57 82 58 49 59 33 60 34 61 42 62 35 63 41 64
REMARK SMILES IDX 43 65 40 66 36 67 37 68 38 69 39 70 65 71 66 72 74 73 67 74
REMARK SMILES IDX 73 75 75 76 72 77 68 78 69 79 70 80 71 81 50 82 51 83 59 84
REMARK SMILES IDX 52 85 58 86 60 87 57 88 53 89 54 90 55 91 56 92
REMARK H PARENT 80 45 48 56
REMARK Flexibility Score: inf
ROOT
ATOM      1  C   UNL A   1      35.994  20.489  24.906  1.00  0.00     0.274 C 
ENDROOT
BRANCH   1   2
ATOM      2  O   UNL A   1      34.631  20.343  25.350  1.00  0.00    -0.462 OA
BRANCH   2   3
ATOM      3  C   UNL A   1      33.855  19.458  24.669  1.00  0.00     0.313 C 
ATOM      4  O   UNL A   1      34.192  18.308  24.406  1.00  0.00    -0.252 OA
BRANCH   3   5
ATOM      5  C   UNL A   1      32.530  20.046  24.192  1.00  0.00     0.126 C 
ATOM      6  C   UNL A   1      32.155  19.435  22.842  1.00  0.00     0.025 C 
BRANCH   5   7
ATOM      7  C   UNL A   1      32.440  21.566  24.184  1.00  0.00    -0.031 A 
ATOM      8  C   UNL A   1      32.183  24.402  24.184  1.00  0.00     0.018 A 
ATOM      9  C   UNL A   1      32.784  23.725  23.110  1.00  0.00     0.012 A 
ATOM     10  C   UNL A   1      31.744  23.634  25.266  1.00  0.00     0.131 A 
ATOM     11  C   UNL A   1      32.908  22.331  23.107  1.00  0.00     0.005 A 
ATOM     12  C   UNL A   1      31.856  22.243  25.266  1.00  0.00     0.044 A 
ATOM     13  F   UNL A   1      31.151  24.223  26.315  1.00  0.00    -0.206 F 
BRANCH   8  14
ATOM     14  C   UNL A   1      31.943  25.850  24.112  1.00  0.00    -0.008 A 
ATOM     15  C   UNL A   1      32.306  28.128  24.883  1.00  0.00     0.123 A 
ATOM     16  C   UNL A   1      31.400  28.589  23.923  1.00  0.00     0.092 A 
ATOM     17  C   UNL A   1      32.565  26.759  24.986  1.00  0.00     0.055 A 
ATOM     18  C   UNL A   1      30.763  27.705  23.054  1.00  0.00     0.123 A 
ATOM     19  C   UNL A   1      31.046  26.345  23.146  1.00  0.00     0.055 A 
BRANCH  15  20
ATOM     20  O   UNL A   1      32.853  29.114  25.659  1.00  0.00    -0.497 OA
ATOM     21  C   UNL A   1      34.029  28.778  26.387  1.00  0.00     0.278 C 
ENDBRANCH  15  20
BRANCH  18  22
ATOM     22  O   UNL A   1      29.901  28.279  22.159  1.00  0.00    -0.497 OA
ATOM     23  C   UNL A   1      30.005  29.690  22.001  1.00  0.00     0.278 C 
ENDBRANCH  18  22
ENDBRANCH   8  14
ENDBRANCH   5   7
ENDBRANCH   3   5
ENDBRANCH   2   3
ENDBRANCH   1   2
BRANCH   1  24
ATOM     24  C   UNL A   1      36.736  21.527  25.748  1.00  0.00     0.275 C 
BRANCH  24  25
ATOM     25  O   UNL A   1      38.057  21.764  25.228  1.00  0.00    -0.458 OA
BRANCH  25  26
ATOM     26  C   UNL A   1      39.067  21.480  26.084  1.00  0.00     0.338 C 
ATOM     27  O   UNL A   1      39.574  20.392  26.289  1.00  0.00    -0.246 OA
BRANCH  26  28
ATOM     28  C   UNL A   1      39.590  22.731  26.653  1.00  0.00     0.060 A 
ATOM     29  C   UNL A   1      39.123  23.930  26.116  1.00  0.00     0.016 A 
ATOM     30  C   UNL A   1      40.576  22.736  27.642  1.00  0.00     0.016 A 
ATOM     31  C   UNL A   1      39.654  25.143  26.538  1.00  0.00     0.010 A 
ATOM     32  C   UNL A   1      41.097  23.959  28.082  1.00  0.00     0.010 A 
ATOM     33  C   UNL A   1      40.649  25.170  27.522  1.00  0.00    -0.014 A 
BRANCH  33  34
ATOM     34  C   UNL A   1      41.230  26.477  27.916  1.00  0.00     0.031 A 
ATOM     35  C   UNL A   1      42.645  26.817  27.540  1.00  0.00     0.074 A 
ATOM     36  C   UNL A   1      40.460  27.380  28.552  1.00  0.00     0.049 A 
ATOM     37  N   UNL A   1      43.326  27.908  27.780  1.00  0.00    -0.248 NA
ATOM     38  C   UNL A   1      43.391  25.789  26.800  1.00  0.00     0.031 C 
ATOM     39  C   UNL A   1      39.062  27.171  28.936  1.00  0.00     0.029 A 
ATOM     40  N   UNL A   1      40.734  28.655  28.973  1.00  0.00    -0.354 N 
ATOM     41  C   UNL A   1      44.586  27.699  27.229  1.00  0.00     0.074 A 
ATOM     42  C   UNL A   1      44.580  26.361  26.672  1.00  0.00     0.031 C 
ATOM     43  C   UNL A   1      38.598  28.287  29.520  1.00  0.00     0.029 A 
ATOM     44  C   UNL A   1      39.672  29.273  29.590  1.00  0.00     0.049 A 
ATOM     45  H   UNL A   1      41.609  29.088  28.845  1.00  0.00     0.167 HD
ATOM     46  C   UNL A   1      45.645  28.547  27.189  1.00  0.00     0.034 A 
ATOM     47  C   UNL A   1      39.580  30.489  30.161  1.00  0.00     0.034 A 
ATOM     48  C   UNL A   1      45.634  29.877  27.750  1.00  0.00     0.049 A 
ATOM     49  C   UNL A   1      40.784  31.394  30.142  1.00  0.00     0.074 A 
ATOM     50  C   UNL A   1      46.647  30.820  27.758  1.00  0.00     0.029 A 
ATOM     51  N   UNL A   1      44.556  30.453  28.411  1.00  0.00    -0.354 N 
ATOM     52  N   UNL A   1      41.973  31.179  29.626  1.00  0.00    -0.248 NA
ATOM     53  C   UNL A   1      40.629  32.709  30.777  1.00  0.00     0.031 C 
ATOM     54  C   UNL A   1      46.203  31.940  28.473  1.00  0.00     0.029 A 
ATOM     55  C   UNL A   1      44.888  31.725  28.856  1.00  0.00     0.049 A 
ATOM     56  H   UNL A   1      43.681  30.021  28.545  1.00  0.00     0.167 HD
ATOM     57  C   UNL A   1      42.705  32.337  29.868  1.00  0.00     0.074 A 
ATOM     58  C   UNL A   1      41.813  33.257  30.546  1.00  0.00     0.031 C 
ATOM     59  C   UNL A   1      43.998  32.617  29.562  1.00  0.00     0.034 A 
BRANCH  46  60
ATOM     60  C   UNL A   1      46.918  28.029  26.564  1.00  0.00     0.023 A 
ATOM     61  C   UNL A   1      47.164  28.129  25.183  1.00  0.00     0.031 A 
ATOM     62  C   UNL A   1      47.885  27.388  27.360  1.00  0.00     0.131 A 
ATOM     63  C   UNL A   1      48.311  27.537  24.631  1.00  0.00     0.055 A 
ATOM     64  C   UNL A   1      49.060  26.867  26.814  1.00  0.00     0.041 A 
ATOM     65  F   UNL A   1      47.695  27.243  28.681  1.00  0.00    -0.206 F 
ATOM     66  C   UNL A   1      49.272  26.928  25.440  1.00  0.00     0.022 A 
BRANCH  63  67
ATOM     67  S   UNL A   1      48.466  27.455  22.826  1.00  0.00     0.124 S 
ATOM     68  O   UNL A   1      47.286  28.202  22.394  1.00  0.00    -0.237 OA
ATOM     69  O   UNL A   1      49.754  28.099  22.591  1.00  0.00    -0.237 OA
ATOM     70  O   UNL A   1      48.425  26.022  22.542  1.00  0.00    -0.744 OA
ENDBRANCH  63  67
ENDBRANCH  46  60
BRANCH  47  71
ATOM     71  C   UNL A   1      38.321  30.912  30.835  1.00  0.00     0.023 A 
ATOM     72  C   UNL A   1      37.299  31.567  30.130  1.00  0.00     0.031 A 
ATOM     73  C   UNL A   1      38.142  30.701  32.215  1.00  0.00     0.131 A 
ATOM     74  C   UNL A   1      36.162  32.023  30.814  1.00  0.00     0.055 A 
ATOM     75  C   UNL A   1      36.989  31.115  32.881  1.00  0.00     0.041 A 
ATOM     76  F   UNL A   1      39.089  30.078  32.935  1.00  0.00    -0.206 F 
ATOM     77  C   UNL A   1      35.994  31.792  32.182  1.00  0.00     0.022 A 
BRANCH  74  78
ATOM     78  S   UNL A   1      34.928  32.993  29.902  1.00  0.00     0.124 S 
ATOM     79  O   UNL A   1      34.400  32.003  28.970  1.00  0.00    -0.237 OA
ATOM     80  O   UNL A   1      34.027  33.416  30.969  1.00  0.00    -0.237 OA
ATOM     81  O   UNL A   1      35.717  34.063  29.295  1.00  0.00    -0.744 OA
ENDBRANCH  74  78
ENDBRANCH  47  71
BRANCH  59  82
ATOM     82  C   UNL A   1      44.502  33.984  29.955  1.00  0.00     0.023 A 
ATOM     83  C   UNL A   1      44.388  35.085  29.088  1.00  0.00     0.031 A 
ATOM     84  C   UNL A   1      45.148  34.177  31.189  1.00  0.00     0.131 A 
ATOM     85  C   UNL A   1      44.974  36.312  29.434  1.00  0.00     0.055 A 
ATOM     86  C   UNL A   1      45.676  35.417  31.554  1.00  0.00     0.041 A 
ATOM     87  F   UNL A   1      45.286  33.160  32.054  1.00  0.00    -0.206 F 
ATOM     88  C   UNL A   1      45.607  36.488  30.667  1.00  0.00     0.022 A 
BRANCH  85  89
ATOM     89  S   UNL A   1      45.001  37.642  28.200  1.00  0.00     0.124 S 
ATOM     90  O   UNL A   1      44.048  37.157  27.208  1.00  0.00    -0.237 OA
ATOM     91  O   UNL A   1      44.577  38.799  28.981  1.00  0.00    -0.237 OA
ATOM     92  O   UNL A   1      46.395  37.671  27.758  1.00  0.00    -0.744 OA
ENDBRANCH  85  89
ENDBRANCH  59  82
ENDBRANCH  33  34
ENDBRANCH  26  28
ENDBRANCH  25  26
ENDBRANCH  24  25
ENDBRANCH   1  24
TORSDOF 18
ENDMDL
MODEL 2
REMARK VINA RESULT:     -11.4      5.090     11.513
REMARK SMILES COc1cc(OC)cc(-c2ccc([C@@H](C)C(=O)OCCOC(=O)c3ccc(-c4c5nc(c(-c6cc(S(=O)(=O)[O-])ccc6F)c6ccc([nH]6)c(-c6cc(S(=O)(=O)[O-])ccc6F)c6nc(c(-c7cc(S(=O)(=O)[O-])ccc7F)c7ccc4[nH]7)C=C6)C=C5)cc3)cc2F)c1
REMARK SMILES IDX 19 1 18 2 16 3 17 4 14 5 15 6 13 7 10 8 11 9 88 10 12 11
REMARK SMILES IDX 87 12 89 13 9 14 3 15 4 16 90 17 5 18 8 19 2 20 1 21 6 22
REMARK SMILES IDX 7 23 20 24 21 25 22 26 23 27 24 28 25 29 86 30 26 31 85 32
REMARK SMILES IDX 27 33 28 34 29 35 79 36 30 37 84 38 78 39 80 40 31 41 83 42
REMARK SMILES IDX 77 43 76 44 32 46 64 47 44 48 63 49 45 50 48 51 62 52 81 53
REMARK SMILES IDX 46 54 47 55 61 57 82 58 49 59 33 60 34 61 42 62 35 63 41 64
REMARK SMILES IDX 43 65 40 66 36 67 37 68 38 69 39 70 65 71 66 72 74 73 67 74
REMARK SMILES IDX 73 75 75 76 72 77 68 78 69 79 70 80 71 81 50 82 51 83 59 84
REMARK SMILES IDX 52 85 58 86 60 87 57 88 53 89 54 90 55 91 56 92
REMARK H PARENT 80 45 48 56
REMARK Flexibility Score: inf
ROOT
ATOM      1  C   UNL A   1      33.740  34.447  28.684  1.00  0.00     0.274 C 
ENDROOT
BRANCH   1   2
ATOM      2  O   UNL A   1      33.180  34.593  30.003  1.00  0.00    -0.462 OA
BRANCH   2   3
ATOM      3  C   UNL A   1      34.059  34.714  31.033  1.00  0.00     0.313 C 
ATOM      4  O   UNL A   1      34.189  35.729  31.710  1.00  0.00    -0.252 OA
BRANCH   3   5
ATOM      5  C   UNL A   1      34.934  33.481  31.240  1.00  0.00     0.126 C 
ATOM      6  C   UNL A   1      34.719  32.931  32.651  1.00  0.00     0.025 C 
BRANCH   5   7
ATOM      7  C   UNL A   1      36.409  33.645  30.903  1.00  0.00    -0.031 A 
ATOM      8  C   UNL A   1      39.164  34.036  30.299  1.00  0.00     0.018 A 
ATOM      9  C   UNL A   1      38.270  33.540  29.335  1.00  0.00     0.012 A 
ATOM     10  C   UNL A   1      38.657  34.301  31.574  1.00  0.00     0.131 A 
ATOM     11  C   UNL A   1      36.915  33.350  29.629  1.00  0.00     0.005 A 
ATOM     12  C   UNL A   1      37.305  34.123  31.872  1.00  0.00     0.044 A 
ATOM     13  F   UNL A   1      39.459  34.788  32.532  1.00  0.00    -0.206 F 
BRANCH   8  14
ATOM     14  C   UNL A   1      40.552  34.352  29.934  1.00  0.00    -0.008 A 
ATOM     15  C   UNL A   1      42.953  34.013  30.127  1.00  0.00     0.123 A 
ATOM     16  C   UNL A   1      43.164  35.044  29.206  1.00  0.00     0.092 A 
ATOM     17  C   UNL A   1      41.649  33.679  30.501  1.00  0.00     0.055 A 
ATOM     18  C   UNL A   1      42.092  35.733  28.641  1.00  0.00     0.123 A 
ATOM     19  C   UNL A   1      40.795  35.376  29.000  1.00  0.00     0.055 A 
BRANCH  15  20
ATOM     20  O   UNL A   1      44.101  33.429  30.590  1.00  0.00    -0.497 OA
ATOM     21  C   UNL A   1      44.080  32.016  30.754  1.00  0.00     0.278 C 
ENDBRANCH  15  20
BRANCH  18  22
ATOM     22  O   UNL A   1      42.429  36.719  27.753  1.00  0.00    -0.497 OA
ATOM     23  C   UNL A   1      43.424  36.386  26.791  1.00  0.00     0.278 C 
ENDBRANCH  18  22
ENDBRANCH   8  14
ENDBRANCH   5   7
ENDBRANCH   3   5
ENDBRANCH   2   3
ENDBRANCH   1   2
BRANCH   1  24
ATOM     24  C   UNL A   1      33.259  33.154  28.024  1.00  0.00     0.275 C 
BRANCH  24  25
ATOM     25  O   UNL A   1      34.372  32.338  27.616  1.00  0.00    -0.458 OA
BRANCH  25  26
ATOM     26  C   UNL A   1      34.196  31.006  27.784  1.00  0.00     0.338 C 
ATOM     27  O   UNL A   1      33.186  30.363  27.563  1.00  0.00    -0.246 OA
BRANCH  26  28
ATOM     28  C   UNL A   1      35.480  30.389  28.149  1.00  0.00     0.060 A 
ATOM     29  C   UNL A   1      35.601  29.861  29.434  1.00  0.00     0.016 A 
ATOM     30  C   UNL A   1      36.573  30.394  27.280  1.00  0.00     0.016 A 
ATOM     31  C   UNL A   1      36.820  29.358  29.874  1.00  0.00     0.010 A 
ATOM     32  C   UNL A   1      37.796  29.869  27.717  1.00  0.00     0.010 A 
ATOM     33  C   UNL A   1      37.931  29.361  29.023  1.00  0.00    -0.014 A 
BRANCH  33  34
ATOM     34  C   UNL A   1      39.229  28.863  29.539  1.00  0.00     0.031 A 
ATOM     35  C   UNL A   1      39.850  29.494  30.754  1.00  0.00     0.074 A 
ATOM     36  C   UNL A   1      39.811  27.799  28.953  1.00  0.00     0.049 A 
ATOM     37  N   UNL A   1      40.968  29.193  31.363  1.00  0.00    -0.248 NA
ATOM     38  C   UNL A   1      39.115  30.615  31.357  1.00  0.00     0.031 C 
ATOM     39  C   UNL A   1      39.280  27.085  27.790  1.00  0.00     0.029 A 
ATOM     40  N   UNL A   1      40.963  27.124  29.261  1.00  0.00    -0.354 N 
ATOM     41  C   UNL A   1      41.079  30.092  32.419  1.00  0.00     0.074 A 
ATOM     42  C   UNL A   1      39.928  30.968  32.343  1.00  0.00     0.031 C 
ATOM     43  C   UNL A   1      40.098  26.061  27.495  1.00  0.00     0.029 A 
ATOM     44  C   UNL A   1      41.228  26.071  28.418  1.00  0.00     0.049 A 
ATOM     45  H   UNL A   1      41.547  27.370  30.015  1.00  0.00     0.167 HD
ATOM     46  C   UNL A   1      42.049  30.173  33.364  1.00  0.00     0.034 A 
ATOM     47  C   UNL A   1      42.271  25.220  28.383  1.00  0.00     0.034 A 
ATOM     48  C   UNL A   1      43.191  29.291  33.425  1.00  0.00     0.049 A 
ATOM     49  C   UNL A   1      43.358  25.359  29.418  1.00  0.00     0.074 A 
ATOM     50  C   UNL A   1      44.227  29.280  34.343  1.00  0.00     0.029 A 
ATOM     51  N   UNL A   1      43.453  28.265  32.524  1.00  0.00    -0.354 N 
ATOM     52  N   UNL A   1      43.455  26.220  30.405  1.00  0.00    -0.248 NA
ATOM     53  C   UNL A   1      44.472  24.406  29.335  1.00  0.00     0.031 C 
ATOM     54  C   UNL A   1      45.143  28.290  33.965  1.00  0.00     0.029 A 
ATOM     55  C   UNL A   1      44.647  27.635  32.848  1.00  0.00     0.049 A 
ATOM     56  H   UNL A   1      42.875  28.020  31.766  1.00  0.00     0.167 HD
ATOM     57  C   UNL A   1      44.637  25.906  31.066  1.00  0.00     0.074 A 
ATOM     58  C   UNL A   1      45.200  24.756  30.385  1.00  0.00     0.031 C 
ATOM     59  C   UNL A   1      45.212  26.511  32.137  1.00  0.00     0.034 A 
BRANCH  46  60
ATOM     60  C   UNL A   1      41.938  31.293  34.371  1.00  0.00     0.023 A 
ATOM     61  C   UNL A   1      42.399  32.592  34.093  1.00  0.00     0.031 A 
ATOM     62  C   UNL A   1      41.396  31.045  35.645  1.00  0.00     0.131 A 
ATOM     63  C   UNL A   1      42.374  33.573  35.096  1.00  0.00     0.055 A 
ATOM     64  C   UNL A   1      41.306  32.046  36.615  1.00  0.00     0.041 A 
ATOM     65  F   UNL A   1      40.961  29.819  35.975  1.00  0.00    -0.206 F 
ATOM     66  C   UNL A   1      41.810  33.316  36.348  1.00  0.00     0.022 A 
BRANCH  63  67
ATOM     67  S   UNL A   1      43.213  35.153  34.792  1.00  0.00     0.124 S 
ATOM     68  O   UNL A   1      43.871  35.389  36.075  1.00  0.00    -0.237 OA
ATOM     69  O   UNL A   1      44.089  34.832  33.671  1.00  0.00    -0.237 OA
ATOM     70  O   UNL A   1      42.117  36.069  34.485  1.00  0.00    -0.744 OA
ENDBRANCH  63  67
ENDBRANCH  46  60
BRANCH  47  71
ATOM     71  C   UNL A   1      42.367  24.187  27.314  1.00  0.00     0.023 A 
ATOM     72  C   UNL A   1      41.652  22.982  27.397  1.00  0.00     0.031 A 
ATOM     73  C   UNL A   1      43.215  24.378  26.208  1.00  0.00     0.131 A 
ATOM     74  C   UNL A   1      41.829  21.997  26.412  1.00  0.00     0.055 A 
ATOM     75  C   UNL A   1      43.351  23.415  25.208  1.00  0.00     0.041 A 
ATOM     76  F   UNL A   1      43.920  25.513  26.081  1.00  0.00    -0.206 F 
ATOM     77  C   UNL A   1      42.664  22.210  25.313  1.00  0.00     0.022 A 
BRANCH  74  78
ATOM     78  S   UNL A   1      41.002  20.395  26.626  1.00  0.00     0.124 S 
ATOM     79  O   UNL A   1      41.906  19.496  25.917  1.00  0.00    -0.237 OA
ATOM     80  O   UNL A   1      40.974  20.262  28.079  1.00  0.00    -0.237 OA
ATOM     81  O   UNL A   1      39.700  20.597  25.995  1.00  0.00    -0.744 OA
ENDBRANCH  74  78
ENDBRANCH  47  71
BRANCH  59  82
ATOM     82  C   UNL A   1      46.508  25.918  32.631  1.00  0.00     0.023 A 
ATOM     83  C   UNL A   1      47.729  26.185  31.987  1.00  0.00     0.031 A 
ATOM     84  C   UNL A   1      46.516  25.034  33.725  1.00  0.00     0.131 A 
ATOM     85  C   UNL A   1      48.896  25.523  32.396  1.00  0.00     0.055 A 
ATOM     86  C   UNL A   1      47.691  24.424  34.166  1.00  0.00     0.041 A 
ATOM     87  F   UNL A   1      45.379  24.741  34.375  1.00  0.00    -0.206 F 
ATOM     88  C   UNL A   1      48.887  24.652  33.490  1.00  0.00     0.022 A 
BRANCH  85  89
ATOM     89  S   UNL A   1      50.403  25.721  31.406  1.00  0.00     0.124 S 
ATOM     90  O   UNL A   1      51.149  24.513  31.739  1.00  0.00    -0.237 OA
ATOM     91  O   UNL A   1      49.875  25.791  30.047  1.00  0.00    -0.237 OA
ATOM     92  O   UNL A   1      50.983  26.966  31.909  1.00  0.00    -0.744 OA
ENDBRANCH  85  89
ENDBRANCH  59  82
ENDBRANCH  33  34
ENDBRANCH  26  28
ENDBRANCH  25  26
ENDBRANCH  24  25
ENDBRANCH   1  24
TORSDOF 18
ENDMDL
MODEL 3
REMARK VINA RESULT:     -11.3      4.561      7.551
REMARK SMILES COc1cc(OC)cc(-c2ccc([C@@H](C)C(=O)OCCOC(=O)c3ccc(-c4c5nc(c(-c6cc(S(=O)(=O)[O-])ccc6F)c6ccc([nH]6)c(-c6cc(S(=O)(=O)[O-])ccc6F)c6nc(c(-c7cc(S(=O)(=O)[O-])ccc7F)c7ccc4[nH]7)C=C6)C=C5)cc3)cc2F)c1
REMARK SMILES IDX 19 1 18 2 16 3 17 4 14 5 15 6 13 7 10 8 11 9 88 10 12 11
REMARK SMILES IDX 87 12 89 13 9 14 3 15 4 16 90 17 5 18 8 19 2 20 1 21 6 22
REMARK SMILES IDX 7 23 20 24 21 25 22 26 23 27 24 28 25 29 86 30 26 31 85 32
REMARK SMILES IDX 27 33 28 34 29 35 79 36 30 37 84 38 78 39 80 40 31 41 83 42
REMARK SMILES IDX 77 43 76 44 32 46 64 47 44 48 63 49 45 50 48 51 62 52 81 53
REMARK SMILES IDX 46 54 47 55 61 57 82 58 49 59 33 60 34 61 42 62 35 63 41 64
REMARK SMILES IDX 43 65 40 66 36 67 37 68 38 69 39 70 65 71 66 72 74 73 67 74
REMARK SMILES IDX 73 75 75 76 72 77 68 78 69 79 70 80 71 81 50 82 51 83 59 84
REMARK SMILES IDX 52 85 58 86 60 87 57 88 53 89 54 90 55 91 56 92
REMARK H PARENT 80 45 48 56
REMARK Flexibility Score: inf
ROOT
ATOM      1  C   UNL A   1      41.953  19.667  26.213  1.00  0.00     0.274 C 
ENDROOT
BRANCH   1   2
ATOM      2  O   UNL A   1      42.667  20.322  25.147  1.00  0.00    -0.462 OA
BRANCH   2   3
ATOM      3  C   UNL A   1      43.943  20.709  25.410  1.00  0.00     0.313 C 
ATOM      4  O   UNL A   1      44.870  19.930  25.611  1.00  0.00    -0.252 OA
BRANCH   3   5
ATOM      5  C   UNL A   1      44.118  22.222  25.500  1.00  0.00     0.126 C 
ATOM      6  C   UNL A   1      45.335  22.647  24.677  1.00  0.00     0.025 C 
BRANCH   5   7
ATOM      7  C   UNL A   1      44.137  22.809  26.904  1.00  0.00    -0.031 A 
ATOM      8  C   UNL A   1      44.248  23.863  29.547  1.00  0.00     0.018 A 
ATOM      9  C   UNL A   1      43.103  23.200  29.074  1.00  0.00     0.012 A 
ATOM     10  C   UNL A   1      45.319  24.012  28.662  1.00  0.00     0.131 A 
ATOM     11  C   UNL A   1      43.048  22.678  27.777  1.00  0.00     0.005 A 
ATOM     12  C   UNL A   1      45.275  23.487  27.369  1.00  0.00     0.044 A 
ATOM     13  F   UNL A   1      46.443  24.625  29.059  1.00  0.00    -0.206 F 
BRANCH   8  14
ATOM     14  C   UNL A   1      44.337  24.287  30.951  1.00  0.00    -0.008 A 
ATOM     15  C   UNL A   1      44.341  23.823  33.339  1.00  0.00     0.123 A 
ATOM     16  C   UNL A   1      44.481  25.190  33.596  1.00  0.00     0.092 A 
ATOM     17  C   UNL A   1      44.254  23.375  32.018  1.00  0.00     0.055 A 
ATOM     18  C   UNL A   1      44.553  26.113  32.555  1.00  0.00     0.123 A 
ATOM     19  C   UNL A   1      44.492  25.656  31.241  1.00  0.00     0.055 A 
BRANCH  15  20
ATOM     20  O   UNL A   1      44.288  23.041  34.461  1.00  0.00    -0.497 OA
ATOM     21  C   UNL A   1      43.966  23.695  35.683  1.00  0.00     0.278 C 
ENDBRANCH  15  20
BRANCH  18  22
ATOM     22  O   UNL A   1      44.692  27.420  32.937  1.00  0.00    -0.497 OA
ATOM     23  C   UNL A   1      44.431  28.399  31.938  1.00  0.00     0.278 C 
ENDBRANCH  18  22
ENDBRANCH   8  14
ENDBRANCH   5   7
ENDBRANCH   3   5
ENDBRANCH   2   3
ENDBRANCH   1   2
BRANCH   1  24
ATOM     24  C   UNL A   1      40.569  20.288  26.408  1.00  0.00     0.275 C 
BRANCH  24  25
ATOM     25  O   UNL A   1      40.545  21.651  25.947  1.00  0.00    -0.458 OA
BRANCH  25  26
ATOM     26  C   UNL A   1      39.376  22.303  26.151  1.00  0.00     0.338 C 
ATOM     27  O   UNL A   1      38.251  21.858  26.014  1.00  0.00    -0.246 OA
BRANCH  26  28
ATOM     28  C   UNL A   1      39.653  23.631  26.719  1.00  0.00     0.060 A 
ATOM     29  C   UNL A   1      40.028  24.645  25.839  1.00  0.00     0.016 A 
ATOM     30  C   UNL A   1      39.622  23.865  28.095  1.00  0.00     0.016 A 
ATOM     31  C   UNL A   1      40.403  25.892  26.323  1.00  0.00     0.010 A 
ATOM     32  C   UNL A   1      39.980  25.129  28.582  1.00  0.00     0.010 A 
ATOM     33  C   UNL A   1      40.388  26.146  27.700  1.00  0.00    -0.014 A 
BRANCH  33  34
ATOM     34  C   UNL A   1      40.840  27.471  28.189  1.00  0.00     0.031 A 
ATOM     35  C   UNL A   1      42.300  27.828  28.159  1.00  0.00     0.074 A 
ATOM     36  C   UNL A   1      39.927  28.375  28.594  1.00  0.00     0.049 A 
ATOM     37  N   UNL A   1      42.889  28.936  28.528  1.00  0.00    -0.248 NA
ATOM     38  C   UNL A   1      43.216  26.797  27.650  1.00  0.00     0.031 C 
ATOM     39  C   UNL A   1      38.481  28.150  28.632  1.00  0.00     0.029 A 
ATOM     40  N   UNL A   1      40.076  29.664  29.035  1.00  0.00    -0.354 N 
ATOM     41  C   UNL A   1      44.248  28.736  28.306  1.00  0.00     0.074 A 
ATOM     42  C   UNL A   1      44.393  27.387  27.799  1.00  0.00     0.031 C 
ATOM     43  C   UNL A   1      37.876  29.271  29.057  1.00  0.00     0.029 A 
ATOM     44  C   UNL A   1      38.889  30.277  29.359  1.00  0.00     0.049 A 
ATOM     45  H   UNL A   1      40.951  30.110  29.113  1.00  0.00     0.167 HD
ATOM     46  C   UNL A   1      45.275  29.602  28.501  1.00  0.00     0.034 A 
ATOM     47  C   UNL A   1      38.647  31.504  29.858  1.00  0.00     0.034 A 
ATOM     48  C   UNL A   1      45.112  30.944  29.008  1.00  0.00     0.049 A 
ATOM     49  C   UNL A   1      39.809  32.429  30.108  1.00  0.00     0.074 A 
ATOM     50  C   UNL A   1      46.082  31.905  29.236  1.00  0.00     0.029 A 
ATOM     51  N   UNL A   1      43.898  31.516  29.372  1.00  0.00    -0.354 N 
ATOM     52  N   UNL A   1      41.089  32.224  29.903  1.00  0.00    -0.248 NA
ATOM     53  C   UNL A   1      39.489  33.756  30.652  1.00  0.00     0.031 C 
ATOM     54  C   UNL A   1      45.464  33.033  29.793  1.00  0.00     0.029 A 
ATOM     55  C   UNL A   1      44.098  32.804  29.850  1.00  0.00     0.049 A 
ATOM     56  H   UNL A   1      43.023  31.072  29.300  1.00  0.00     0.167 HD
ATOM     57  C   UNL A   1      41.727  33.400  30.284  1.00  0.00     0.074 A 
ATOM     58  C   UNL A   1      40.687  34.319  30.701  1.00  0.00     0.031 C 
ATOM     59  C   UNL A   1      43.053  33.696  30.295  1.00  0.00     0.034 A 
BRANCH  46  60
ATOM     60  C   UNL A   1      46.668  29.092  28.219  1.00  0.00     0.023 A 
ATOM     61  C   UNL A   1      47.392  28.343  29.163  1.00  0.00     0.031 A 
ATOM     62  C   UNL A   1      47.296  29.397  26.998  1.00  0.00     0.131 A 
ATOM     63  C   UNL A   1      48.723  27.983  28.899  1.00  0.00     0.055 A 
ATOM     64  C   UNL A   1      48.595  28.972  26.712  1.00  0.00     0.041 A 
ATOM     65  F   UNL A   1      46.663  30.128  26.067  1.00  0.00    -0.206 F 
ATOM     66  C   UNL A   1      49.322  28.273  27.671  1.00  0.00     0.022 A 
BRANCH  63  67
ATOM     67  S   UNL A   1      49.709  27.251  30.234  1.00  0.00     0.124 S 
ATOM     68  O   UNL A   1      49.118  27.878  31.414  1.00  0.00    -0.237 OA
ATOM     69  O   UNL A   1      49.451  25.824  30.069  1.00  0.00    -0.237 OA
ATOM     70  O   UNL A   1      51.072  27.678  29.928  1.00  0.00    -0.744 OA
ENDBRANCH  63  67
ENDBRANCH  46  60
BRANCH  47  71
ATOM     71  C   UNL A   1      37.257  31.920  30.195  1.00  0.00     0.023 A 
ATOM     72  C   UNL A   1      36.403  32.468  29.225  1.00  0.00     0.031 A 
ATOM     73  C   UNL A   1      36.777  31.812  31.513  1.00  0.00     0.131 A 
ATOM     74  C   UNL A   1      35.128  32.923  29.596  1.00  0.00     0.055 A 
ATOM     75  C   UNL A   1      35.492  32.223  31.866  1.00  0.00     0.041 A 
ATOM     76  F   UNL A   1      37.553  31.294  32.478  1.00  0.00    -0.206 F 
ATOM     77  C   UNL A   1      34.662  32.795  30.906  1.00  0.00     0.022 A 
BRANCH  74  78
ATOM     78  S   UNL A   1      34.106  33.758  28.349  1.00  0.00     0.124 S 
ATOM     79  O   UNL A   1      33.286  32.659  27.851  1.00  0.00    -0.237 OA
ATOM     80  O   UNL A   1      33.414  34.763  29.150  1.00  0.00    -0.237 OA
ATOM     81  O   UNL A   1      35.086  34.285  27.403  1.00  0.00    -0.744 OA
ENDBRANCH  74  78
ENDBRANCH  47  71
BRANCH  59  82
ATOM     82  C   UNL A   1      43.430  35.080  30.762  1.00  0.00     0.023 A 
ATOM     83  C   UNL A   1      43.376  35.434  32.122  1.00  0.00     0.031 A 
ATOM     84  C   UNL A   1      43.797  36.070  29.834  1.00  0.00     0.131 A 
ATOM     85  C   UNL A   1      43.614  36.761  32.509  1.00  0.00     0.055 A 
ATOM     86  C   UNL A   1      44.093  37.375  30.232  1.00  0.00     0.041 A 
ATOM     87  F   UNL A   1      43.863  35.787  28.524  1.00  0.00    -0.206 F 
ATOM     88  C   UNL A   1      43.985  37.732  31.574  1.00  0.00     0.022 A 
BRANCH  85  89
ATOM     89  S   UNL A   1      43.319  37.231  34.237  1.00  0.00     0.124 S 
ATOM     90  O   UNL A   1      42.420  36.175  34.690  1.00  0.00    -0.237 OA
ATOM     91  O   UNL A   1      44.665  37.208  34.800  1.00  0.00    -0.237 OA
ATOM     92  O   UNL A   1      42.714  38.558  34.133  1.00  0.00    -0.744 OA
ENDBRANCH  85  89
ENDBRANCH  59  82
ENDBRANCH  33  34
ENDBRANCH  26  28
ENDBRANCH  25  26
ENDBRANCH  24  25
ENDBRANCH   1  24
TORSDOF 18
ENDMDL
