MODEL 1
REMARK VINA RESULT:     -10.9      0.000      0.000
REMARK SMILES CC(C)OCCS(=O)(=O)Nc1ccc(O)c(C(=O)OCCOC(=O)c2ccc(-c3c4nc(c(-c5cc(S(=O)(=O)[O-])ccc5F)c5ccc([nH]5)c(-c5cc(S(=O)(=O)[O-])ccc5F)c5nc(c(-c6cc(S(=O)(=O)[O-])ccc6F)c6ccc3[nH]6)C=C5)C=C4)cc2)c1
REMARK SMILES IDX 19 1 17 2 18 3 16 4 11 5 12 6 88 7 13 8 14 9 10 10 7 12 8 13
REMARK SMILES IDX 9 14 6 15 5 16 4 17 2 18 1 19 3 20 15 21 20 23 21 24 22 25
REMARK SMILES IDX 23 26 24 27 25 28 26 29 87 30 27 31 86 32 28 33 29 34 30 35
REMARK SMILES IDX 80 36 31 37 85 38 79 39 81 40 32 41 84 42 78 43 77 44 33 46
REMARK SMILES IDX 65 47 45 48 64 49 46 50 49 51 63 52 82 53 47 54 48 55 62 57
REMARK SMILES IDX 83 58 50 59 34 60 35 61 43 62 36 63 42 64 44 65 41 66 37 67
REMARK SMILES IDX 38 68 39 69 40 70 66 71 67 72 75 73 68 74 74 75 76 76 73 77
REMARK SMILES IDX 69 78 70 79 71 80 72 81 51 82 52 83 60 84 53 85 59 86 61 87
REMARK SMILES IDX 58 88 54 89 55 90 56 91 57 92
REMARK H PARENT 10 11 15 22 81 45 49 56
REMARK Flexibility Score: inf
ROOT
ATOM      1  O   UNL A   1      35.496  21.437  26.102  1.00  0.00    -0.458 OA
ENDROOT
BRANCH   1   2
ATOM      2  C   UNL A   1      34.197  21.490  26.481  1.00  0.00     0.342 C 
ATOM      3  O   UNL A   1      33.765  21.446  27.621  1.00  0.00    -0.246 OA
BRANCH   2   4
ATOM      4  C   UNL A   1      33.400  21.870  25.290  1.00  0.00     0.103 A 
ATOM      5  C   UNL A   1      33.384  23.224  23.303  1.00  0.00     0.050 A 
ATOM      6  C   UNL A   1      32.612  22.253  22.669  1.00  0.00     0.030 A 
ATOM      7  C   UNL A   1      33.752  23.059  24.633  1.00  0.00     0.046 A 
ATOM      8  C   UNL A   1      32.114  21.163  23.372  1.00  0.00     0.049 A 
ATOM      9  C   UNL A   1      32.499  20.979  24.692  1.00  0.00     0.130 A 
BRANCH   5  10
ATOM     10  N   UNL A   1      33.889  24.297  22.536  1.00  0.00    -0.283 N 
ATOM     11  H   UNL A   1      34.830  24.275  22.251  1.00  0.00     0.180 HD
BRANCH  10  12
ATOM     12  S   UNL A   1      32.949  25.597  22.097  1.00  0.00     0.235 S 
ATOM     13  O   UNL A   1      31.637  25.339  22.650  1.00  0.00    -0.207 OA
ATOM     14  O   UNL A   1      33.125  25.787  20.672  1.00  0.00    -0.207 OA
BRANCH  12  15
ATOM     15  C   UNL A   1      33.635  27.037  22.914  1.00  0.00     0.188 C 
BRANCH  15  16
ATOM     16  C   UNL A   1      32.880  28.339  22.685  1.00  0.00     0.178 C 
BRANCH  16  17
ATOM     17  O   UNL A   1      33.187  29.276  23.719  1.00  0.00    -0.378 OA
BRANCH  17  18
ATOM     18  C   UNL A   1      32.782  28.954  25.055  1.00  0.00     0.112 C 
ATOM     19  C   UNL A   1      33.948  28.733  26.005  1.00  0.00     0.038 C 
ATOM     20  C   UNL A   1      31.772  29.939  25.629  1.00  0.00     0.038 C 
ENDBRANCH  17  18
ENDBRANCH  16  17
ENDBRANCH  15  16
ENDBRANCH  12  15
ENDBRANCH  10  12
ENDBRANCH   5  10
BRANCH   9  21
ATOM     21  O   UNL A   1      31.993  19.920  25.393  1.00  0.00    -0.507 OA
ATOM     22  H   UNL A   1      31.343  19.368  25.003  1.00  0.00     0.293 HD
ENDBRANCH   9  21
ENDBRANCH   2   4
ENDBRANCH   1   2
BRANCH   1  23
ATOM     23  C   UNL A   1      35.910  20.409  25.192  1.00  0.00     0.275 C 
BRANCH  23  24
ATOM     24  C   UNL A   1      37.392  20.608  24.866  1.00  0.00     0.275 C 
BRANCH  24  25
ATOM     25  O   UNL A   1      37.954  21.664  25.674  1.00  0.00    -0.458 OA
BRANCH  25  26
ATOM     26  C   UNL A   1      39.180  21.415  26.192  1.00  0.00     0.338 C 
ATOM     27  O   UNL A   1      39.816  20.376  26.132  1.00  0.00    -0.246 OA
BRANCH  26  28
ATOM     28  C   UNL A   1      39.729  22.644  26.789  1.00  0.00     0.060 A 
ATOM     29  C   UNL A   1      39.235  23.859  26.327  1.00  0.00     0.016 A 
ATOM     30  C   UNL A   1      40.799  22.624  27.680  1.00  0.00     0.016 A 
ATOM     31  C   UNL A   1      39.835  25.060  26.699  1.00  0.00     0.010 A 
ATOM     32  C   UNL A   1      41.361  23.839  28.109  1.00  0.00     0.010 A 
ATOM     33  C   UNL A   1      40.903  25.074  27.606  1.00  0.00    -0.014 A 
BRANCH  33  34
ATOM     34  C   UNL A   1      41.557  26.367  27.982  1.00  0.00     0.031 A 
ATOM     35  C   UNL A   1      40.793  27.408  28.766  1.00  0.00     0.074 A 
ATOM     36  C   UNL A   1      42.848  26.606  27.663  1.00  0.00     0.049 A 
ATOM     37  N   UNL A   1      41.118  28.646  29.045  1.00  0.00    -0.248 NA
ATOM     38  C   UNL A   1      39.483  27.003  29.299  1.00  0.00     0.031 C 
ATOM     39  C   UNL A   1      43.738  25.671  26.971  1.00  0.00     0.029 A 
ATOM     40  N   UNL A   1      43.645  27.706  27.888  1.00  0.00    -0.354 N 
ATOM     41  C   UNL A   1      40.041  29.181  29.746  1.00  0.00     0.074 A 
ATOM     42  C   UNL A   1      39.043  28.134  29.830  1.00  0.00     0.031 C 
ATOM     43  C   UNL A   1      44.960  26.215  26.869  1.00  0.00     0.029 A 
ATOM     44  C   UNL A   1      44.923  27.577  27.387  1.00  0.00     0.049 A 
ATOM     45  H   UNL A   1      43.332  28.510  28.364  1.00  0.00     0.167 HD
ATOM     46  C   UNL A   1      39.899  30.424  30.271  1.00  0.00     0.034 A 
ATOM     47  C   UNL A   1      45.936  28.464  27.301  1.00  0.00     0.034 A 
ATOM     48  C   UNL A   1      40.916  31.448  30.213  1.00  0.00     0.049 A 
ATOM     49  C   UNL A   1      45.722  29.866  27.817  1.00  0.00     0.074 A 
ATOM     50  C   UNL A   1      40.867  32.742  30.706  1.00  0.00     0.029 A 
ATOM     51  N   UNL A   1      42.173  31.294  29.641  1.00  0.00    -0.354 N 
ATOM     52  N   UNL A   1      44.666  30.379  28.407  1.00  0.00    -0.248 NA
ATOM     53  C   UNL A   1      46.832  30.813  27.645  1.00  0.00     0.031 C 
ATOM     54  C   UNL A   1      42.063  33.388  30.376  1.00  0.00     0.029 A 
ATOM     55  C   UNL A   1      42.894  32.475  29.749  1.00  0.00     0.049 A 
ATOM     56  H   UNL A   1      42.503  30.468  29.220  1.00  0.00     0.167 HD
ATOM     57  C   UNL A   1      45.000  31.699  28.699  1.00  0.00     0.074 A 
ATOM     58  C   UNL A   1      46.359  31.897  28.243  1.00  0.00     0.031 C 
ATOM     59  C   UNL A   1      44.249  32.663  29.289  1.00  0.00     0.034 A 
BRANCH  46  60
ATOM     60  C   UNL A   1      38.574  30.769  30.910  1.00  0.00     0.023 A 
ATOM     61  C   UNL A   1      37.522  31.353  30.183  1.00  0.00     0.031 A 
ATOM     62  C   UNL A   1      38.359  30.502  32.276  1.00  0.00     0.131 A 
ATOM     63  C   UNL A   1      36.330  31.706  30.836  1.00  0.00     0.055 A 
ATOM     64  C   UNL A   1      37.143  30.783  32.901  1.00  0.00     0.041 A 
ATOM     65  F   UNL A   1      39.332  29.964  33.028  1.00  0.00    -0.206 F 
ATOM     66  C   UNL A   1      36.123  31.400  32.183  1.00  0.00     0.022 A 
BRANCH  63  67
ATOM     67  S   UNL A   1      35.100  32.684  29.930  1.00  0.00     0.124 S 
ATOM     68  O   UNL A   1      34.672  31.740  28.900  1.00  0.00    -0.237 OA
ATOM     69  O   UNL A   1      34.117  32.990  30.962  1.00  0.00    -0.237 OA
ATOM     70  O   UNL A   1      35.866  33.827  29.438  1.00  0.00    -0.744 OA
ENDBRANCH  63  67
ENDBRANCH  46  60
BRANCH  47  71
ATOM     71  C   UNL A   1      47.221  28.097  26.630  1.00  0.00     0.023 A 
ATOM     72  C   UNL A   1      47.348  28.134  25.232  1.00  0.00     0.031 A 
ATOM     73  C   UNL A   1      48.317  27.622  27.375  1.00  0.00     0.131 A 
ATOM     74  C   UNL A   1      48.516  27.648  24.621  1.00  0.00     0.055 A 
ATOM     75  C   UNL A   1      49.504  27.213  26.766  1.00  0.00     0.041 A 
ATOM     76  F   UNL A   1      48.249  27.545  28.713  1.00  0.00    -0.206 F 
ATOM     77  C   UNL A   1      49.603  27.208  25.379  1.00  0.00     0.022 A 
BRANCH  74  78
ATOM     78  S   UNL A   1      48.544  27.469  22.815  1.00  0.00     0.124 S 
ATOM     79  O   UNL A   1      47.342  28.198  22.427  1.00  0.00    -0.237 OA
ATOM     80  O   UNL A   1      49.815  28.094  22.466  1.00  0.00    -0.237 OA
ATOM     81  O   UNL A   1      48.487  26.022  22.616  1.00  0.00    -0.744 OA
ENDBRANCH  74  78
ENDBRANCH  47  71
BRANCH  59  82
ATOM     82  C   UNL A   1      44.912  33.999  29.525  1.00  0.00     0.023 A 
ATOM     83  C   UNL A   1      44.872  35.028  28.566  1.00  0.00     0.031 A 
ATOM     84  C   UNL A   1      45.614  34.237  30.721  1.00  0.00     0.131 A 
ATOM     85  C   UNL A   1      45.574  36.222  28.794  1.00  0.00     0.055 A 
ATOM     86  C   UNL A   1      46.258  35.450  30.967  1.00  0.00     0.041 A 
ATOM     87  F   UNL A   1      45.687  33.290  31.670  1.00  0.00    -0.206 F 
ATOM     88  C   UNL A   1      46.253  36.446  29.994  1.00  0.00     0.022 A 
BRANCH  85  89
ATOM     89  S   UNL A   1      45.668  37.445  27.457  1.00  0.00     0.124 S 
ATOM     90  O   UNL A   1      44.270  37.570  27.060  1.00  0.00    -0.237 OA
ATOM     91  O   UNL A   1      46.244  38.603  28.134  1.00  0.00    -0.237 OA
ATOM     92  O   UNL A   1      46.540  36.809  26.471  1.00  0.00    -0.744 OA
ENDBRANCH  85  89
ENDBRANCH  59  82
ENDBRANCH  33  34
ENDBRANCH  26  28
ENDBRANCH  25  26
ENDBRANCH  24  25
ENDBRANCH  23  24
ENDBRANCH   1  23
TORSDOF 21
ENDMDL
MODEL 2
REMARK VINA RESULT:     -10.7      1.896      2.267
REMARK SMILES CC(C)OCCS(=O)(=O)Nc1ccc(O)c(C(=O)OCCOC(=O)c2ccc(-c3c4nc(c(-c5cc(S(=O)(=O)[O-])ccc5F)c5ccc([nH]5)c(-c5cc(S(=O)(=O)[O-])ccc5F)c5nc(c(-c6cc(S(=O)(=O)[O-])ccc6F)c6ccc3[nH]6)C=C5)C=C4)cc2)c1
REMARK SMILES IDX 19 1 17 2 18 3 16 4 11 5 12 6 88 7 13 8 14 9 10 10 7 12 8 13
REMARK SMILES IDX 9 14 6 15 5 16 4 17 2 18 1 19 3 20 15 21 20 23 21 24 22 25
REMARK SMILES IDX 23 26 24 27 25 28 26 29 87 30 27 31 86 32 28 33 29 34 30 35
REMARK SMILES IDX 80 36 31 37 85 38 79 39 81 40 32 41 84 42 78 43 77 44 33 46
REMARK SMILES IDX 65 47 45 48 64 49 46 50 49 51 63 52 82 53 47 54 48 55 62 57
REMARK SMILES IDX 83 58 50 59 34 60 35 61 43 62 36 63 42 64 44 65 41 66 37 67
REMARK SMILES IDX 38 68 39 69 40 70 66 71 67 72 75 73 68 74 74 75 76 76 73 77
REMARK SMILES IDX 69 78 70 79 71 80 72 81 51 82 52 83 60 84 53 85 59 86 61 87
REMARK SMILES IDX 58 88 54 89 55 90 56 91 57 92
REMARK H PARENT 10 11 15 22 81 45 49 56
REMARK Flexibility Score: inf
ROOT
ATOM      1  O   UNL A   1      34.544  22.000  26.461  1.00  0.00    -0.458 OA
ENDROOT
BRANCH   1   2
ATOM      2  C   UNL A   1      33.396  22.419  27.045  1.00  0.00     0.342 C 
ATOM      3  O   UNL A   1      33.096  22.317  28.223  1.00  0.00    -0.246 OA
BRANCH   2   4
ATOM      4  C   UNL A   1      32.673  23.257  26.058  1.00  0.00     0.103 A 
ATOM      5  C   UNL A   1      32.944  24.884  24.309  1.00  0.00     0.050 A 
ATOM      6  C   UNL A   1      31.820  24.361  23.673  1.00  0.00     0.030 A 
ATOM      7  C   UNL A   1      33.357  24.362  25.529  1.00  0.00     0.046 A 
ATOM      8  C   UNL A   1      31.041  23.387  24.284  1.00  0.00     0.049 A 
ATOM      9  C   UNL A   1      31.462  22.843  25.489  1.00  0.00     0.130 A 
BRANCH   5  10
ATOM     10  N   UNL A   1      33.718  25.852  23.632  1.00  0.00    -0.283 N 
ATOM     11  H   UNL A   1      34.605  26.085  23.988  1.00  0.00     0.180 HD
BRANCH  10  12
ATOM     12  S   UNL A   1      33.182  26.616  22.254  1.00  0.00     0.235 S 
ATOM     13  O   UNL A   1      33.290  25.636  21.195  1.00  0.00    -0.207 OA
ATOM     14  O   UNL A   1      33.885  27.878  22.168  1.00  0.00    -0.207 OA
BRANCH  12  15
ATOM     15  C   UNL A   1      31.447  26.989  22.505  1.00  0.00     0.188 C 
BRANCH  15  16
ATOM     16  C   UNL A   1      31.093  28.470  22.519  1.00  0.00     0.178 C 
BRANCH  16  17
ATOM     17  O   UNL A   1      29.871  28.691  21.811  1.00  0.00    -0.378 OA
BRANCH  17  18
ATOM     18  C   UNL A   1      28.960  29.663  22.338  1.00  0.00     0.112 C 
ATOM     19  C   UNL A   1      29.467  30.349  23.596  1.00  0.00     0.038 C 
ATOM     20  C   UNL A   1      28.495  30.673  21.299  1.00  0.00     0.038 C 
ENDBRANCH  17  18
ENDBRANCH  16  17
ENDBRANCH  15  16
ENDBRANCH  12  15
ENDBRANCH  10  12
ENDBRANCH   5  10
BRANCH   9  21
ATOM     21  O   UNL A   1      30.685  21.901  26.103  1.00  0.00    -0.507 OA
ATOM     22  H   UNL A   1      30.193  22.127  26.868  1.00  0.00     0.293 HD
ENDBRANCH   9  21
ENDBRANCH   2   4
ENDBRANCH   1   2
BRANCH   1  23
ATOM     23  C   UNL A   1      34.508  20.843  25.615  1.00  0.00     0.275 C 
BRANCH  23  24
ATOM     24  C   UNL A   1      35.894  20.639  25.000  1.00  0.00     0.275 C 
BRANCH  24  25
ATOM     25  O   UNL A   1      36.797  21.684  25.421  1.00  0.00    -0.458 OA
BRANCH  25  26
ATOM     26  C   UNL A   1      38.068  21.292  25.673  1.00  0.00     0.338 C 
ATOM     27  O   UNL A   1      38.597  20.238  25.362  1.00  0.00    -0.246 OA
BRANCH  26  28
ATOM     28  C   UNL A   1      38.809  22.388  26.320  1.00  0.00     0.060 A 
ATOM     29  C   UNL A   1      38.313  23.678  26.167  1.00  0.00     0.016 A 
ATOM     30  C   UNL A   1      40.036  22.186  26.947  1.00  0.00     0.016 A 
ATOM     31  C   UNL A   1      39.055  24.781  26.581  1.00  0.00     0.010 A 
ATOM     32  C   UNL A   1      40.755  23.296  27.426  1.00  0.00     0.010 A 
ATOM     33  C   UNL A   1      40.286  24.611  27.229  1.00  0.00    -0.014 A 
BRANCH  33  34
ATOM     34  C   UNL A   1      41.089  25.803  27.650  1.00  0.00     0.031 A 
ATOM     35  C   UNL A   1      40.467  26.874  28.515  1.00  0.00     0.074 A 
ATOM     36  C   UNL A   1      42.388  25.919  27.299  1.00  0.00     0.049 A 
ATOM     37  N   UNL A   1      40.933  28.051  28.848  1.00  0.00    -0.248 NA
ATOM     38  C   UNL A   1      39.136  26.582  29.072  1.00  0.00     0.031 C 
ATOM     39  C   UNL A   1      43.149  24.934  26.527  1.00  0.00     0.029 A 
ATOM     40  N   UNL A   1      43.307  26.912  27.554  1.00  0.00    -0.354 N 
ATOM     41  C   UNL A   1      39.942  28.658  29.614  1.00  0.00     0.074 A 
ATOM     42  C   UNL A   1      38.839  27.722  29.678  1.00  0.00     0.031 C 
ATOM     43  C   UNL A   1      44.421  25.348  26.411  1.00  0.00     0.029 A 
ATOM     44  C   UNL A   1      44.547  26.675  27.002  1.00  0.00     0.049 A 
ATOM     45  H   UNL A   1      43.098  27.716  28.083  1.00  0.00     0.167 HD
ATOM     46  C   UNL A   1      39.953  29.878  30.210  1.00  0.00     0.034 A 
ATOM     47  C   UNL A   1      45.649  27.451  26.928  1.00  0.00     0.034 A 
ATOM     48  C   UNL A   1      41.074  30.788  30.170  1.00  0.00     0.049 A 
ATOM     49  C   UNL A   1      45.605  28.837  27.525  1.00  0.00     0.074 A 
ATOM     50  C   UNL A   1      41.181  32.050  30.733  1.00  0.00     0.029 A 
ATOM     51  N   UNL A   1      42.289  30.532  29.547  1.00  0.00    -0.354 N 
ATOM     52  N   UNL A   1      44.629  29.426  28.178  1.00  0.00    -0.248 NA
ATOM     53  C   UNL A   1      46.806  29.666  27.364  1.00  0.00     0.031 C 
ATOM     54  C   UNL A   1      42.431  32.580  30.397  1.00  0.00     0.029 A 
ATOM     55  C   UNL A   1      43.137  31.620  29.692  1.00  0.00     0.049 A 
ATOM     56  H   UNL A   1      42.514  29.701  29.071  1.00  0.00     0.167 HD
ATOM     57  C   UNL A   1      45.115  30.683  28.529  1.00  0.00     0.074 A 
ATOM     58  C   UNL A   1      46.473  30.759  28.036  1.00  0.00     0.031 C 
ATOM     59  C   UNL A   1      44.491  31.687  29.196  1.00  0.00     0.034 A 
BRANCH  46  60
ATOM     60  C   UNL A   1      38.693  30.326  30.913  1.00  0.00     0.023 A 
ATOM     61  C   UNL A   1      37.664  31.010  30.241  1.00  0.00     0.031 A 
ATOM     62  C   UNL A   1      38.516  30.059  32.284  1.00  0.00     0.131 A 
ATOM     63  C   UNL A   1      36.538  31.455  30.952  1.00  0.00     0.055 A 
ATOM     64  C   UNL A   1      37.359  30.434  32.967  1.00  0.00     0.041 A 
ATOM     65  F   UNL A   1      39.471  29.427  32.985  1.00  0.00    -0.206 F 
ATOM     66  C   UNL A   1      36.366  31.148  32.304  1.00  0.00     0.022 A 
BRANCH  63  67
ATOM     67  S   UNL A   1      35.359  32.549  30.115  1.00  0.00     0.124 S 
ATOM     68  O   UNL A   1      36.206  33.689  29.771  1.00  0.00    -0.237 OA
ATOM     69  O   UNL A   1      34.907  31.732  28.996  1.00  0.00    -0.237 OA
ATOM     70  O   UNL A   1      34.352  32.818  31.139  1.00  0.00    -0.744 OA
ENDBRANCH  63  67
ENDBRANCH  46  60
BRANCH  47  71
ATOM     71  C   UNL A   1      46.866  26.987  26.193  1.00  0.00     0.023 A 
ATOM     72  C   UNL A   1      47.892  26.289  26.850  1.00  0.00     0.031 A 
ATOM     73  C   UNL A   1      47.059  27.310  24.836  1.00  0.00     0.131 A 
ATOM     74  C   UNL A   1      49.085  25.992  26.171  1.00  0.00     0.055 A 
ATOM     75  C   UNL A   1      48.215  26.943  24.145  1.00  0.00     0.041 A 
ATOM     76  F   UNL A   1      46.122  27.992  24.158  1.00  0.00    -0.206 F 
ATOM     77  C   UNL A   1      49.245  26.295  24.818  1.00  0.00     0.022 A 
BRANCH  74  78
ATOM     78  S   UNL A   1      50.483  25.326  27.118  1.00  0.00     0.124 S 
ATOM     79  O   UNL A   1      50.864  26.476  27.931  1.00  0.00    -0.237 OA
ATOM     80  O   UNL A   1      49.867  24.212  27.830  1.00  0.00    -0.237 OA
ATOM     81  O   UNL A   1      51.445  24.948  26.084  1.00  0.00    -0.744 OA
ENDBRANCH  74  78
ENDBRANCH  47  71
BRANCH  59  82
ATOM     82  C   UNL A   1      45.303  32.928  29.479  1.00  0.00     0.023 A 
ATOM     83  C   UNL A   1      45.322  34.022  28.594  1.00  0.00     0.031 A 
ATOM     84  C   UNL A   1      46.088  33.007  30.644  1.00  0.00     0.131 A 
ATOM     85  C   UNL A   1      46.158  35.118  28.857  1.00  0.00     0.055 A 
ATOM     86  C   UNL A   1      46.868  34.128  30.930  1.00  0.00     0.041 A 
ATOM     87  F   UNL A   1      46.109  31.993  31.523  1.00  0.00    -0.206 F 
ATOM     88  C   UNL A   1      46.918  35.186  30.027  1.00  0.00     0.022 A 
BRANCH  85  89
ATOM     89  S   UNL A   1      46.311  36.418  27.600  1.00  0.00     0.124 S 
ATOM     90  O   UNL A   1      47.716  36.790  27.717  1.00  0.00    -0.237 OA
ATOM     91  O   UNL A   1      45.936  35.716  26.376  1.00  0.00    -0.237 OA
ATOM     92  O   UNL A   1      45.359  37.436  28.043  1.00  0.00    -0.744 OA
ENDBRANCH  85  89
ENDBRANCH  59  82
ENDBRANCH  33  34
ENDBRANCH  26  28
ENDBRANCH  25  26
ENDBRANCH  24  25
ENDBRANCH  23  24
ENDBRANCH   1  23
TORSDOF 21
ENDMDL
MODEL 3
REMARK VINA RESULT:     -10.6      2.014      2.579
REMARK SMILES CC(C)OCCS(=O)(=O)Nc1ccc(O)c(C(=O)OCCOC(=O)c2ccc(-c3c4nc(c(-c5cc(S(=O)(=O)[O-])ccc5F)c5ccc([nH]5)c(-c5cc(S(=O)(=O)[O-])ccc5F)c5nc(c(-c6cc(S(=O)(=O)[O-])ccc6F)c6ccc3[nH]6)C=C5)C=C4)cc2)c1
REMARK SMILES IDX 19 1 17 2 18 3 16 4 11 5 12 6 88 7 13 8 14 9 10 10 7 12 8 13
REMARK SMILES IDX 9 14 6 15 5 16 4 17 2 18 1 19 3 20 15 21 20 23 21 24 22 25
REMARK SMILES IDX 23 26 24 27 25 28 26 29 87 30 27 31 86 32 28 33 29 34 30 35
REMARK SMILES IDX 80 36 31 37 85 38 79 39 81 40 32 41 84 42 78 43 77 44 33 46
REMARK SMILES IDX 65 47 45 48 64 49 46 50 49 51 63 52 82 53 47 54 48 55 62 57
REMARK SMILES IDX 83 58 50 59 34 60 35 61 43 62 36 63 42 64 44 65 41 66 37 67
REMARK SMILES IDX 38 68 39 69 40 70 66 71 67 72 75 73 68 74 74 75 76 76 73 77
REMARK SMILES IDX 69 78 70 79 71 80 72 81 51 82 52 83 60 84 53 85 59 86 61 87
REMARK SMILES IDX 58 88 54 89 55 90 56 91 57 92
REMARK H PARENT 10 11 15 22 81 45 49 56
REMARK Flexibility Score: inf
ROOT
ATOM      1  O   UNL A   1      35.054  22.531  23.268  1.00  0.00    -0.458 OA
ENDROOT
BRANCH   1   2
ATOM      2  C   UNL A   1      33.987  22.660  24.091  1.00  0.00     0.342 C 
ATOM      3  O   UNL A   1      33.717  21.959  25.053  1.00  0.00    -0.246 OA
BRANCH   2   4
ATOM      4  C   UNL A   1      33.339  23.958  23.783  1.00  0.00     0.103 A 
ATOM      5  C   UNL A   1      33.220  26.277  24.405  1.00  0.00     0.050 A 
ATOM      6  C   UNL A   1      32.959  26.602  23.076  1.00  0.00     0.030 A 
ATOM      7  C   UNL A   1      33.374  24.947  24.777  1.00  0.00     0.046 A 
ATOM      8  C   UNL A   1      32.748  25.611  22.125  1.00  0.00     0.049 A 
ATOM      9  C   UNL A   1      32.925  24.283  22.485  1.00  0.00     0.130 A 
BRANCH   5  10
ATOM     10  N   UNL A   1      33.455  27.322  25.325  1.00  0.00    -0.283 N 
ATOM     11  H   UNL A   1      34.383  27.594  25.509  1.00  0.00     0.180 HD
BRANCH  10  12
ATOM     12  S   UNL A   1      32.220  28.112  26.111  1.00  0.00     0.235 S 
ATOM     13  O   UNL A   1      32.779  28.567  27.365  1.00  0.00    -0.207 OA
ATOM     14  O   UNL A   1      31.072  27.230  26.091  1.00  0.00    -0.207 OA
BRANCH  12  15
ATOM     15  C   UNL A   1      31.805  29.548  25.121  1.00  0.00     0.188 C 
BRANCH  15  16
ATOM     16  C   UNL A   1      30.753  29.317  24.046  1.00  0.00     0.178 C 
BRANCH  16  17
ATOM     17  O   UNL A   1      29.890  30.452  23.948  1.00  0.00    -0.378 OA
BRANCH  17  18
ATOM     18  C   UNL A   1      28.746  30.351  23.092  1.00  0.00     0.112 C 
ATOM     19  C   UNL A   1      28.272  28.922  22.880  1.00  0.00     0.038 C 
ATOM     20  C   UNL A   1      27.602  31.264  23.510  1.00  0.00     0.038 C 
ENDBRANCH  17  18
ENDBRANCH  16  17
ENDBRANCH  15  16
ENDBRANCH  12  15
ENDBRANCH  10  12
ENDBRANCH   5  10
BRANCH   9  21
ATOM     21  O   UNL A   1      32.696  23.305  21.558  1.00  0.00    -0.507 OA
ATOM     22  H   UNL A   1      31.955  22.738  21.649  1.00  0.00     0.293 HD
ENDBRANCH   9  21
ENDBRANCH   2   4
ENDBRANCH   1   2
BRANCH   1  23
ATOM     23  C   UNL A   1      36.348  22.927  23.744  1.00  0.00     0.275 C 
BRANCH  23  24
ATOM     24  C   UNL A   1      37.072  21.691  24.284  1.00  0.00     0.275 C 
BRANCH  24  25
ATOM     25  O   UNL A   1      37.417  21.869  25.674  1.00  0.00    -0.458 OA
BRANCH  25  26
ATOM     26  C   UNL A   1      38.707  21.613  25.994  1.00  0.00     0.338 C 
ATOM     27  O   UNL A   1      39.350  20.607  25.745  1.00  0.00    -0.246 OA
BRANCH  26  28
ATOM     28  C   UNL A   1      39.308  22.797  26.631  1.00  0.00     0.060 A 
ATOM     29  C   UNL A   1      38.886  24.047  26.191  1.00  0.00     0.016 A 
ATOM     30  C   UNL A   1      40.359  22.699  27.539  1.00  0.00     0.016 A 
ATOM     31  C   UNL A   1      39.541  25.206  26.603  1.00  0.00     0.010 A 
ATOM     32  C   UNL A   1      40.976  23.873  28.007  1.00  0.00     0.010 A 
ATOM     33  C   UNL A   1      40.592  25.142  27.527  1.00  0.00    -0.014 A 
BRANCH  33  34
ATOM     34  C   UNL A   1      41.305  26.390  27.947  1.00  0.00     0.031 A 
ATOM     35  C   UNL A   1      40.583  27.449  28.746  1.00  0.00     0.074 A 
ATOM     36  C   UNL A   1      42.611  26.570  27.654  1.00  0.00     0.049 A 
ATOM     37  N   UNL A   1      40.966  28.661  29.061  1.00  0.00    -0.248 NA
ATOM     38  C   UNL A   1      39.245  27.099  29.248  1.00  0.00     0.031 C 
ATOM     39  C   UNL A   1      43.463  25.607  26.951  1.00  0.00     0.029 A 
ATOM     40  N   UNL A   1      43.460  27.621  27.919  1.00  0.00    -0.354 N 
ATOM     41  C   UNL A   1      39.906  29.233  29.759  1.00  0.00     0.074 A 
ATOM     42  C   UNL A   1      38.855  28.238  29.802  1.00  0.00     0.031 C 
ATOM     43  C   UNL A   1      44.714  26.090  26.882  1.00  0.00     0.029 A 
ATOM     44  C   UNL A   1      44.737  27.439  27.434  1.00  0.00     0.049 A 
ATOM     45  H   UNL A   1      43.181  28.428  28.410  1.00  0.00     0.167 HD
ATOM     46  C   UNL A   1      39.820  30.469  30.315  1.00  0.00     0.034 A 
ATOM     47  C   UNL A   1      45.796  28.275  27.387  1.00  0.00     0.034 A 
ATOM     48  C   UNL A   1      40.889  31.440  30.298  1.00  0.00     0.049 A 
ATOM     49  C   UNL A   1      45.645  29.672  27.935  1.00  0.00     0.074 A 
ATOM     50  C   UNL A   1      40.898  32.722  30.824  1.00  0.00     0.029 A 
ATOM     51  N   UNL A   1      42.145  31.236  29.742  1.00  0.00    -0.354 N 
ATOM     52  N   UNL A   1      44.607  30.224  28.522  1.00  0.00    -0.248 NA
ATOM     53  C   UNL A   1      46.805  30.564  27.804  1.00  0.00     0.031 C 
ATOM     54  C   UNL A   1      42.131  33.313  30.529  1.00  0.00     0.029 A 
ATOM     55  C   UNL A   1      42.923  32.374  29.891  1.00  0.00     0.049 A 
ATOM     56  H   UNL A   1      42.439  30.404  29.304  1.00  0.00     0.167 HD
ATOM     57  C   UNL A   1      45.004  31.517  28.853  1.00  0.00     0.074 A 
ATOM     58  C   UNL A   1      46.379  31.656  28.423  1.00  0.00     0.031 C 
ATOM     59  C   UNL A   1      44.294  32.503  29.457  1.00  0.00     0.034 A 
BRANCH  46  60
ATOM     60  C   UNL A   1      38.503  30.865  30.942  1.00  0.00     0.023 A 
ATOM     61  C   UNL A   1      37.471  31.463  30.200  1.00  0.00     0.031 A 
ATOM     62  C   UNL A   1      38.277  30.634  32.312  1.00  0.00     0.131 A 
ATOM     63  C   UNL A   1      36.288  31.865  30.841  1.00  0.00     0.055 A 
ATOM     64  C   UNL A   1      37.068  30.963  32.928  1.00  0.00     0.041 A 
ATOM     65  F   UNL A   1      39.232  30.084  33.079  1.00  0.00    -0.206 F 
ATOM     66  C   UNL A   1      36.069  31.594  32.194  1.00  0.00     0.022 A 
BRANCH  63  67
ATOM     67  S   UNL A   1      35.089  32.858  29.911  1.00  0.00     0.124 S 
ATOM     68  O   UNL A   1      34.524  31.865  29.002  1.00  0.00    -0.237 OA
ATOM     69  O   UNL A   1      34.198  33.343  30.959  1.00  0.00    -0.237 OA
ATOM     70  O   UNL A   1      35.914  33.880  29.271  1.00  0.00    -0.744 OA
ENDBRANCH  63  67
ENDBRANCH  46  60
BRANCH  47  71
ATOM     71  C   UNL A   1      47.071  27.859  26.725  1.00  0.00     0.023 A 
ATOM     72  C   UNL A   1      47.266  28.032  25.346  1.00  0.00     0.031 A 
ATOM     73  C   UNL A   1      48.082  27.202  27.452  1.00  0.00     0.131 A 
ATOM     74  C   UNL A   1      48.412  27.503  24.727  1.00  0.00     0.055 A 
ATOM     75  C   UNL A   1      49.254  26.747  26.845  1.00  0.00     0.041 A 
ATOM     76  F   UNL A   1      47.946  26.989  28.771  1.00  0.00    -0.206 F 
ATOM     77  C   UNL A   1      49.416  26.881  25.471  1.00  0.00     0.022 A 
BRANCH  74  78
ATOM     78  S   UNL A   1      48.507  27.517  22.915  1.00  0.00     0.124 S 
ATOM     79  O   UNL A   1      47.272  28.208  22.559  1.00  0.00    -0.237 OA
ATOM     80  O   UNL A   1      49.744  28.252  22.679  1.00  0.00    -0.237 OA
ATOM     81  O   UNL A   1      48.550  26.098  22.566  1.00  0.00    -0.744 OA
ENDBRANCH  74  78
ENDBRANCH  47  71
BRANCH  59  82
ATOM     82  C   UNL A   1      45.021  33.797  29.737  1.00  0.00     0.023 A 
ATOM     83  C   UNL A   1      45.592  34.072  30.993  1.00  0.00     0.031 A 
ATOM     84  C   UNL A   1      45.122  34.780  28.735  1.00  0.00     0.131 A 
ATOM     85  C   UNL A   1      46.183  35.322  31.233  1.00  0.00     0.055 A 
ATOM     86  C   UNL A   1      45.767  35.997  28.962  1.00  0.00     0.041 A 
ATOM     87  F   UNL A   1      44.594  34.573  27.518  1.00  0.00    -0.206 F 
ATOM     88  C   UNL A   1      46.289  36.279  30.221  1.00  0.00     0.022 A 
BRANCH  85  89
ATOM     89  S   UNL A   1      46.730  35.718  32.917  1.00  0.00     0.124 S 
ATOM     90  O   UNL A   1      45.509  35.514  33.689  1.00  0.00    -0.237 OA
ATOM     91  O   UNL A   1      47.794  34.744  33.137  1.00  0.00    -0.237 OA
ATOM     92  O   UNL A   1      47.176  37.106  32.815  1.00  0.00    -0.744 OA
ENDBRANCH  85  89
ENDBRANCH  59  82
ENDBRANCH  33  34
ENDBRANCH  26  28
ENDBRANCH  25  26
ENDBRANCH  24  25
ENDBRANCH  23  24
ENDBRANCH   1  23
TORSDOF 21
ENDMDL
