MODEL 1
REMARK VINA RESULT:     -11.1      0.000      0.000
REMARK SMILES O=C(C[C@@H]1C[N@@H+](CCSc2ccccc2F)CCO1)OCCOC(=O)c1ccc(-c2c3nc(c(-c4cc(S(=O)(=O)[O-])ccc4F)c4ccc([nH]4)c(-c4cc(S(=O)(=O)[O-])ccc4F)c4nc(c(-c5cc(S(=O)(=O)[O-])ccc5F)c5ccc2[nH]5)C=C4)C=C3)cc1
REMARK SMILES IDX 21 1 20 2 2 3 1 4 3 5 4 6 5 7 19 8 6 9 18 10 17 11 7 13 8 14
REMARK SMILES IDX 9 15 10 16 11 17 15 18 12 19 14 20 16 21 13 22 22 23 23 24
REMARK SMILES IDX 24 25 25 26 26 27 27 28 88 29 28 30 87 31 29 32 30 33 31 34
REMARK SMILES IDX 81 35 32 36 86 37 80 38 82 39 33 40 85 41 79 42 78 43 34 45
REMARK SMILES IDX 66 46 46 47 65 48 47 49 50 50 64 51 83 52 48 53 49 54 63 56
REMARK SMILES IDX 84 57 51 58 35 59 36 60 44 61 37 62 43 63 45 64 42 65 38 66
REMARK SMILES IDX 39 67 40 68 41 69 67 70 68 71 76 72 69 73 75 74 77 75 74 76
REMARK SMILES IDX 70 77 71 78 72 79 73 80 52 81 53 82 61 83 54 84 60 85 62 86
REMARK SMILES IDX 59 87 55 88 56 89 57 90 58 91
REMARK H PARENT 6 12 82 44 50 55
REMARK Flexibility Score: inf
ROOT
ATOM      1  C   UNL A   1      31.466  29.992  24.630  1.00  0.00     0.274 C 
ENDROOT
BRANCH   1   2
ATOM      2  O   UNL A   1      30.187  29.652  24.086  1.00  0.00    -0.462 OA
BRANCH   2   3
ATOM      3  C   UNL A   1      30.020  28.663  23.185  1.00  0.00     0.308 C 
ATOM      4  O   UNL A   1      29.783  28.931  22.008  1.00  0.00    -0.252 OA
BRANCH   3   5
ATOM      5  C   UNL A   1      29.906  27.251  23.670  1.00  0.00     0.160 C 
BRANCH   5   6
ATOM      6  C   UNL A   1      30.772  26.106  23.116  1.00  0.00     0.184 C 
ATOM      7  C   UNL A   1      30.408  24.629  23.493  1.00  0.00     0.295 C 
ATOM      8  O   UNL A   1      32.118  26.363  23.543  1.00  0.00    -0.366 OA
ATOM      9  N   UNL A   1      31.003  24.110  24.760  1.00  0.00    -0.330 N 
ATOM     10  C   UNL A   1      32.213  26.281  24.973  1.00  0.00     0.222 C 
ATOM     11  C   UNL A   1      31.191  25.273  25.600  1.00  0.00     0.291 C 
ATOM     12  H   UNL A   1      30.375  23.392  25.122  1.00  0.00     0.348 HD
BRANCH   9  13
ATOM     13  C   UNL A   1      32.335  23.467  24.621  1.00  0.00     0.273 C 
BRANCH  13  14
ATOM     14  C   UNL A   1      32.847  22.333  25.648  1.00  0.00     0.136 C 
BRANCH  14  15
ATOM     15  S   UNL A   1      34.260  20.998  25.557  1.00  0.00    -0.117 SA
BRANCH  15  16
ATOM     16  C   UNL A   1      33.794  19.505  24.626  1.00  0.00     0.043 A 
ATOM     17  C   UNL A   1      34.676  18.405  24.585  1.00  0.00     0.018 A 
ATOM     18  C   UNL A   1      32.722  19.441  23.733  1.00  0.00     0.136 A 
ATOM     19  C   UNL A   1      34.389  17.212  23.911  1.00  0.00     0.001 A 
ATOM     20  C   UNL A   1      32.487  18.295  22.947  1.00  0.00     0.040 A 
ATOM     21  F   UNL A   1      31.916  20.498  23.558  1.00  0.00    -0.206 F 
ATOM     22  C   UNL A   1      33.289  17.160  23.074  1.00  0.00     0.003 A 
ENDBRANCH  15  16
ENDBRANCH  14  15
ENDBRANCH  13  14
ENDBRANCH   9  13
ENDBRANCH   5   6
ENDBRANCH   3   5
ENDBRANCH   2   3
ENDBRANCH   1   2
BRANCH   1  23
ATOM     23  C   UNL A   1      31.413  30.824  25.916  1.00  0.00     0.275 C 
BRANCH  23  24
ATOM     24  O   UNL A   1      32.488  30.599  26.846  1.00  0.00    -0.458 OA
BRANCH  24  25
ATOM     25  C   UNL A   1      33.157  31.724  27.252  1.00  0.00     0.338 C 
ATOM     26  O   UNL A   1      32.722  32.844  27.253  1.00  0.00    -0.246 OA
BRANCH  25  27
ATOM     27  C   UNL A   1      34.481  31.350  27.831  1.00  0.00     0.060 A 
ATOM     28  C   UNL A   1      34.680  30.029  28.258  1.00  0.00     0.016 A 
ATOM     29  C   UNL A   1      35.504  32.289  27.984  1.00  0.00     0.016 A 
ATOM     30  C   UNL A   1      35.895  29.649  28.845  1.00  0.00     0.010 A 
ATOM     31  C   UNL A   1      36.711  31.911  28.588  1.00  0.00     0.010 A 
ATOM     32  C   UNL A   1      36.913  30.594  29.035  1.00  0.00    -0.014 A 
BRANCH  32  33
ATOM     33  C   UNL A   1      38.152  30.253  29.786  1.00  0.00     0.031 A 
ATOM     34  C   UNL A   1      39.142  29.293  29.185  1.00  0.00     0.074 A 
ATOM     35  C   UNL A   1      38.399  30.776  31.001  1.00  0.00     0.049 A 
ATOM     36  N   UNL A   1      40.219  28.768  29.713  1.00  0.00    -0.248 NA
ATOM     37  C   UNL A   1      38.878  28.872  27.803  1.00  0.00     0.031 C 
ATOM     38  C   UNL A   1      37.571  31.773  31.676  1.00  0.00     0.029 A 
ATOM     39  N   UNL A   1      39.422  30.532  31.885  1.00  0.00    -0.354 N 
ATOM     40  C   UNL A   1      40.772  27.962  28.724  1.00  0.00     0.074 A 
ATOM     41  C   UNL A   1      39.885  28.040  27.580  1.00  0.00     0.031 C 
ATOM     42  C   UNL A   1      38.120  32.057  32.870  1.00  0.00     0.029 A 
ATOM     43  C   UNL A   1      39.311  31.228  33.065  1.00  0.00     0.049 A 
ATOM     44  H   UNL A   1      40.165  29.915  31.692  1.00  0.00     0.167 HD
ATOM     45  C   UNL A   1      41.914  27.230  28.760  1.00  0.00     0.034 A 
ATOM     46  C   UNL A   1      40.065  31.186  34.183  1.00  0.00     0.034 A 
ATOM     47  C   UNL A   1      42.775  27.119  29.913  1.00  0.00     0.049 A 
ATOM     48  C   UNL A   1      41.248  30.254  34.261  1.00  0.00     0.074 A 
ATOM     49  C   UNL A   1      43.929  26.366  30.057  1.00  0.00     0.029 A 
ATOM     50  N   UNL A   1      42.576  27.767  31.124  1.00  0.00    -0.354 N 
ATOM     51  N   UNL A   1      41.719  29.436  33.349  1.00  0.00    -0.248 NA
ATOM     52  C   UNL A   1      41.996  30.235  35.528  1.00  0.00     0.031 C 
ATOM     53  C   UNL A   1      44.389  26.508  31.371  1.00  0.00     0.029 A 
ATOM     54  C   UNL A   1      43.570  27.413  32.026  1.00  0.00     0.049 A 
ATOM     55  H   UNL A   1      41.837  28.389  31.315  1.00  0.00     0.167 HD
ATOM     56  C   UNL A   1      42.838  28.833  33.919  1.00  0.00     0.074 A 
ATOM     57  C   UNL A   1      42.966  29.372  35.258  1.00  0.00     0.031 C 
ATOM     58  C   UNL A   1      43.691  27.930  33.370  1.00  0.00     0.034 A 
BRANCH  45  59
ATOM     59  C   UNL A   1      42.262  26.451  27.516  1.00  0.00     0.023 A 
ATOM     60  C   UNL A   1      41.886  25.104  27.366  1.00  0.00     0.031 A 
ATOM     61  C   UNL A   1      43.007  27.048  26.484  1.00  0.00     0.131 A 
ATOM     62  C   UNL A   1      42.313  24.381  26.242  1.00  0.00     0.055 A 
ATOM     63  C   UNL A   1      43.364  26.344  25.334  1.00  0.00     0.041 A 
ATOM     64  F   UNL A   1      43.412  28.324  26.584  1.00  0.00    -0.206 F 
ATOM     65  C   UNL A   1      43.029  24.997  25.214  1.00  0.00     0.022 A 
BRANCH  62  66
ATOM     66  S   UNL A   1      42.033  22.590  26.207  1.00  0.00     0.124 S 
ATOM     67  O   UNL A   1      40.579  22.522  26.078  1.00  0.00    -0.237 OA
ATOM     68  O   UNL A   1      42.799  22.171  25.040  1.00  0.00    -0.237 OA
ATOM     69  O   UNL A   1      42.559  22.137  27.494  1.00  0.00    -0.744 OA
ENDBRANCH  62  66
ENDBRANCH  45  59
BRANCH  46  70
ATOM     70  C   UNL A   1      39.710  32.053  35.339  1.00  0.00     0.023 A 
ATOM     71  C   UNL A   1      38.825  31.600  36.328  1.00  0.00     0.031 A 
ATOM     72  C   UNL A   1      40.265  33.337  35.476  1.00  0.00     0.131 A 
ATOM     73  C   UNL A   1      38.513  32.431  37.416  1.00  0.00     0.055 A 
ATOM     74  C   UNL A   1      39.976  34.147  36.575  1.00  0.00     0.041 A 
ATOM     75  F   UNL A   1      41.115  33.811  34.552  1.00  0.00    -0.206 F 
ATOM     76  C   UNL A   1      39.094  33.694  37.553  1.00  0.00     0.022 A 
BRANCH  73  77
ATOM     77  S   UNL A   1      37.331  31.835  38.656  1.00  0.00     0.124 S 
ATOM     78  O   UNL A   1      37.096  30.467  38.209  1.00  0.00    -0.237 OA
ATOM     79  O   UNL A   1      38.084  31.983  39.897  1.00  0.00    -0.237 OA
ATOM     80  O   UNL A   1      36.196  32.745  38.511  1.00  0.00    -0.744 OA
ENDBRANCH  73  77
ENDBRANCH  46  70
BRANCH  58  81
ATOM     81  C   UNL A   1      44.878  27.491  34.196  1.00  0.00     0.023 A 
ATOM     82  C   UNL A   1      44.840  26.352  35.018  1.00  0.00     0.031 A 
ATOM     83  C   UNL A   1      46.082  28.218  34.134  1.00  0.00     0.131 A 
ATOM     84  C   UNL A   1      45.971  25.993  35.771  1.00  0.00     0.055 A 
ATOM     85  C   UNL A   1      47.218  27.829  34.845  1.00  0.00     0.041 A 
ATOM     86  F   UNL A   1      46.177  29.315  33.365  1.00  0.00    -0.206 F 
ATOM     87  C   UNL A   1      47.164  26.715  35.676  1.00  0.00     0.022 A 
BRANCH  84  88
ATOM     88  S   UNL A   1      45.852  24.597  36.924  1.00  0.00     0.124 S 
ATOM     89  O   UNL A   1      44.911  25.104  37.918  1.00  0.00    -0.237 OA
ATOM     90  O   UNL A   1      45.358  23.522  36.069  1.00  0.00    -0.237 OA
ATOM     91  O   UNL A   1      47.224  24.425  37.401  1.00  0.00    -0.744 OA
ENDBRANCH  84  88
ENDBRANCH  58  81
ENDBRANCH  32  33
ENDBRANCH  25  27
ENDBRANCH  24  25
ENDBRANCH  23  24
ENDBRANCH   1  23
TORSDOF 19
ENDMDL
MODEL 2
REMARK VINA RESULT:     -11.0      5.077     10.431
REMARK SMILES O=C(C[C@@H]1C[N@@H+](CCSc2ccccc2F)CCO1)OCCOC(=O)c1ccc(-c2c3nc(c(-c4cc(S(=O)(=O)[O-])ccc4F)c4ccc([nH]4)c(-c4cc(S(=O)(=O)[O-])ccc4F)c4nc(c(-c5cc(S(=O)(=O)[O-])ccc5F)c5ccc2[nH]5)C=C4)C=C3)cc1
REMARK SMILES IDX 21 1 20 2 2 3 1 4 3 5 4 6 5 7 19 8 6 9 18 10 17 11 7 13 8 14
REMARK SMILES IDX 9 15 10 16 11 17 15 18 12 19 14 20 16 21 13 22 22 23 23 24
REMARK SMILES IDX 24 25 25 26 26 27 27 28 88 29 28 30 87 31 29 32 30 33 31 34
REMARK SMILES IDX 81 35 32 36 86 37 80 38 82 39 33 40 85 41 79 42 78 43 34 45
REMARK SMILES IDX 66 46 46 47 65 48 47 49 50 50 64 51 83 52 48 53 49 54 63 56
REMARK SMILES IDX 84 57 51 58 35 59 36 60 44 61 37 62 43 63 45 64 42 65 38 66
REMARK SMILES IDX 39 67 40 68 41 69 67 70 68 71 76 72 69 73 75 74 77 75 74 76
REMARK SMILES IDX 70 77 71 78 72 79 73 80 52 81 53 82 61 83 54 84 60 85 62 86
REMARK SMILES IDX 59 87 55 88 56 89 57 90 58 91
REMARK H PARENT 6 12 82 44 50 55
REMARK Flexibility Score: inf
ROOT
ATOM      1  C   UNL A   1      35.332  20.611  24.603  1.00  0.00     0.274 C 
ENDROOT
BRANCH   1   2
ATOM      2  O   UNL A   1      34.320  19.902  25.325  1.00  0.00    -0.462 OA
BRANCH   2   3
ATOM      3  C   UNL A   1      33.075  20.390  25.499  1.00  0.00     0.308 C 
ATOM      4  O   UNL A   1      32.113  19.830  24.976  1.00  0.00    -0.252 OA
BRANCH   3   5
ATOM      5  C   UNL A   1      32.905  21.731  26.143  1.00  0.00     0.160 C 
BRANCH   5   6
ATOM      6  C   UNL A   1      32.775  23.033  25.334  1.00  0.00     0.184 C 
ATOM      7  C   UNL A   1      32.866  24.405  26.086  1.00  0.00     0.295 C 
ATOM      8  O   UNL A   1      31.512  22.973  24.653  1.00  0.00    -0.366 OA
ATOM      9  N   UNL A   1      31.584  24.935  26.639  1.00  0.00    -0.330 N 
ATOM     10  C   UNL A   1      30.434  22.981  25.600  1.00  0.00     0.222 C 
ATOM     11  C   UNL A   1      30.773  23.769  26.912  1.00  0.00     0.291 C 
ATOM     12  H   UNL A   1      31.816  25.518  27.444  1.00  0.00     0.348 HD
BRANCH   9  13
ATOM     13  C   UNL A   1      30.798  25.794  25.717  1.00  0.00     0.273 C 
BRANCH  13  14
ATOM     14  C   UNL A   1      31.508  26.796  24.670  1.00  0.00     0.136 C 
BRANCH  14  15
ATOM     15  S   UNL A   1      31.142  27.257  22.815  1.00  0.00    -0.117 SA
BRANCH  15  16
ATOM     16  C   UNL A   1      29.752  28.413  22.612  1.00  0.00     0.043 A 
ATOM     17  C   UNL A   1      29.995  29.724  22.152  1.00  0.00     0.018 A 
ATOM     18  C   UNL A   1      28.465  28.186  23.106  1.00  0.00     0.136 A 
ATOM     19  C   UNL A   1      28.984  30.669  21.947  1.00  0.00     0.001 A 
ATOM     20  C   UNL A   1      27.462  29.173  23.026  1.00  0.00     0.040 A 
ATOM     21  F   UNL A   1      28.166  27.035  23.725  1.00  0.00    -0.206 F 
ATOM     22  C   UNL A   1      27.706  30.396  22.399  1.00  0.00     0.003 A 
ENDBRANCH  15  16
ENDBRANCH  14  15
ENDBRANCH  13  14
ENDBRANCH   9  13
ENDBRANCH   5   6
ENDBRANCH   3   5
ENDBRANCH   2   3
ENDBRANCH   1   2
BRANCH   1  23
ATOM     23  C   UNL A   1      36.767  20.309  25.050  1.00  0.00     0.275 C 
BRANCH  23  24
ATOM     24  O   UNL A   1      37.514  21.435  25.544  1.00  0.00    -0.458 OA
BRANCH  24  25
ATOM     25  C   UNL A   1      38.781  21.151  25.981  1.00  0.00     0.338 C 
ATOM     26  O   UNL A   1      39.345  20.094  25.879  1.00  0.00    -0.246 OA
BRANCH  25  27
ATOM     27  C   UNL A   1      39.435  22.391  26.494  1.00  0.00     0.060 A 
ATOM     28  C   UNL A   1      38.895  23.635  26.133  1.00  0.00     0.016 A 
ATOM     29  C   UNL A   1      40.582  22.338  27.289  1.00  0.00     0.016 A 
ATOM     30  C   UNL A   1      39.505  24.823  26.561  1.00  0.00     0.010 A 
ATOM     31  C   UNL A   1      41.200  23.528  27.699  1.00  0.00     0.010 A 
ATOM     32  C   UNL A   1      40.676  24.778  27.329  1.00  0.00    -0.014 A 
BRANCH  32  33
ATOM     33  C   UNL A   1      41.423  26.020  27.671  1.00  0.00     0.031 A 
ATOM     34  C   UNL A   1      40.750  27.087  28.489  1.00  0.00     0.074 A 
ATOM     35  C   UNL A   1      42.685  26.214  27.248  1.00  0.00     0.049 A 
ATOM     36  N   UNL A   1      41.169  28.288  28.798  1.00  0.00    -0.248 NA
ATOM     37  C   UNL A   1      39.428  26.749  29.032  1.00  0.00     0.031 C 
ATOM     38  C   UNL A   1      43.489  25.241  26.512  1.00  0.00     0.029 A 
ATOM     39  N   UNL A   1      43.510  27.306  27.377  1.00  0.00    -0.354 N 
ATOM     40  C   UNL A   1      40.169  28.850  29.583  1.00  0.00     0.074 A 
ATOM     41  C   UNL A   1      39.106  27.867  29.667  1.00  0.00     0.031 C 
ATOM     42  C   UNL A   1      44.695  25.779  26.254  1.00  0.00     0.029 A 
ATOM     43  C   UNL A   1      44.731  27.151  26.765  1.00  0.00     0.049 A 
ATOM     44  H   UNL A   1      43.251  28.122  27.862  1.00  0.00     0.167 HD
ATOM     45  C   UNL A   1      40.137  30.066  30.184  1.00  0.00     0.034 A 
ATOM     46  C   UNL A   1      45.752  28.020  26.610  1.00  0.00     0.034 A 
ATOM     47  C   UNL A   1      41.176  31.061  30.067  1.00  0.00     0.049 A 
ATOM     48  C   UNL A   1      45.639  29.421  27.157  1.00  0.00     0.074 A 
ATOM     49  C   UNL A   1      41.212  32.338  30.603  1.00  0.00     0.029 A 
ATOM     50  N   UNL A   1      42.358  30.901  29.356  1.00  0.00    -0.354 N 
ATOM     51  N   UNL A   1      44.656  29.970  27.832  1.00  0.00    -0.248 NA
ATOM     52  C   UNL A   1      46.776  30.323  26.914  1.00  0.00     0.031 C 
ATOM     53  C   UNL A   1      42.381  32.969  30.166  1.00  0.00     0.029 A 
ATOM     54  C   UNL A   1      43.117  32.061  29.422  1.00  0.00     0.049 A 
ATOM     55  H   UNL A   1      42.621  30.082  28.877  1.00  0.00     0.167 HD
ATOM     56  C   UNL A   1      45.071  31.268  28.122  1.00  0.00     0.074 A 
ATOM     57  C   UNL A   1      46.389  31.425  27.542  1.00  0.00     0.031 C 
ATOM     58  C   UNL A   1      44.422  32.232  28.825  1.00  0.00     0.034 A 
BRANCH  45  59
ATOM     59  C   UNL A   1      38.903  30.397  30.985  1.00  0.00     0.023 A 
ATOM     60  C   UNL A   1      37.794  31.030  30.395  1.00  0.00     0.031 A 
ATOM     61  C   UNL A   1      38.844  30.110  32.360  1.00  0.00     0.131 A 
ATOM     62  C   UNL A   1      36.704  31.414  31.190  1.00  0.00     0.055 A 
ATOM     63  C   UNL A   1      37.725  30.427  33.130  1.00  0.00     0.041 A 
ATOM     64  F   UNL A   1      39.882  29.527  32.980  1.00  0.00    -0.206 F 
ATOM     65  C   UNL A   1      36.651  31.097  32.549  1.00  0.00     0.022 A 
BRANCH  62  66
ATOM     66  S   UNL A   1      35.415  32.454  30.449  1.00  0.00     0.124 S 
ATOM     67  O   UNL A   1      34.373  32.403  31.471  1.00  0.00    -0.237 OA
ATOM     68  O   UNL A   1      36.093  33.734  30.291  1.00  0.00    -0.237 OA
ATOM     69  O   UNL A   1      35.092  31.760  29.203  1.00  0.00    -0.744 OA
ENDBRANCH  62  66
ENDBRANCH  45  59
BRANCH  46  70
ATOM     70  C   UNL A   1      46.977  27.590  25.884  1.00  0.00     0.023 A 
ATOM     71  C   UNL A   1      47.102  27.802  24.503  1.00  0.00     0.031 A 
ATOM     72  C   UNL A   1      48.043  26.978  26.565  1.00  0.00     0.131 A 
ATOM     73  C   UNL A   1      48.271  27.397  23.840  1.00  0.00     0.055 A 
ATOM     74  C   UNL A   1      49.216  26.606  25.908  1.00  0.00     0.041 A 
ATOM     75  F   UNL A   1      47.964  26.755  27.887  1.00  0.00    -0.206 F 
ATOM     76  C   UNL A   1      49.334  26.815  24.536  1.00  0.00     0.022 A 
BRANCH  73  77
ATOM     77  S   UNL A   1      48.386  27.644  22.047  1.00  0.00     0.124 S 
ATOM     78  O   UNL A   1      49.543  28.527  21.943  1.00  0.00    -0.237 OA
ATOM     79  O   UNL A   1      48.573  26.282  21.559  1.00  0.00    -0.237 OA
ATOM     80  O   UNL A   1      47.103  28.253  21.704  1.00  0.00    -0.744 OA
ENDBRANCH  73  77
ENDBRANCH  46  70
BRANCH  58  81
ATOM     81  C   UNL A   1      45.143  33.541  29.055  1.00  0.00     0.023 A 
ATOM     82  C   UNL A   1      45.979  33.750  30.165  1.00  0.00     0.031 A 
ATOM     83  C   UNL A   1      45.007  34.588  28.125  1.00  0.00     0.131 A 
ATOM     84  C   UNL A   1      46.620  34.990  30.335  1.00  0.00     0.055 A 
ATOM     85  C   UNL A   1      45.685  35.800  28.272  1.00  0.00     0.041 A 
ATOM     86  F   UNL A   1      44.221  34.445  27.046  1.00  0.00    -0.206 F 
ATOM     87  C   UNL A   1      46.491  36.008  29.387  1.00  0.00     0.022 A 
BRANCH  84  88
ATOM     88  S   UNL A   1      47.587  35.279  31.843  1.00  0.00     0.124 S 
ATOM     89  O   UNL A   1      48.167  33.963  32.089  1.00  0.00    -0.237 OA
ATOM     90  O   UNL A   1      48.522  36.319  31.424  1.00  0.00    -0.237 OA
ATOM     91  O   UNL A   1      46.585  35.707  32.818  1.00  0.00    -0.744 OA
ENDBRANCH  84  88
ENDBRANCH  58  81
ENDBRANCH  32  33
ENDBRANCH  25  27
ENDBRANCH  24  25
ENDBRANCH  23  24
ENDBRANCH   1  23
TORSDOF 19
ENDMDL
MODEL 3
REMARK VINA RESULT:     -11.0      2.067      2.472
REMARK SMILES O=C(C[C@@H]1C[N@@H+](CCSc2ccccc2F)CCO1)OCCOC(=O)c1ccc(-c2c3nc(c(-c4cc(S(=O)(=O)[O-])ccc4F)c4ccc([nH]4)c(-c4cc(S(=O)(=O)[O-])ccc4F)c4nc(c(-c5cc(S(=O)(=O)[O-])ccc5F)c5ccc2[nH]5)C=C4)C=C3)cc1
REMARK SMILES IDX 21 1 20 2 2 3 1 4 3 5 4 6 5 7 19 8 6 9 18 10 17 11 7 13 8 14
REMARK SMILES IDX 9 15 10 16 11 17 15 18 12 19 14 20 16 21 13 22 22 23 23 24
REMARK SMILES IDX 24 25 25 26 26 27 27 28 88 29 28 30 87 31 29 32 30 33 31 34
REMARK SMILES IDX 81 35 32 36 86 37 80 38 82 39 33 40 85 41 79 42 78 43 34 45
REMARK SMILES IDX 66 46 46 47 65 48 47 49 50 50 64 51 83 52 48 53 49 54 63 56
REMARK SMILES IDX 84 57 51 58 35 59 36 60 44 61 37 62 43 63 45 64 42 65 38 66
REMARK SMILES IDX 39 67 40 68 41 69 67 70 68 71 76 72 69 73 75 74 77 75 74 76
REMARK SMILES IDX 70 77 71 78 72 79 73 80 52 81 53 82 61 83 54 84 60 85 62 86
REMARK SMILES IDX 59 87 55 88 56 89 57 90 58 91
REMARK H PARENT 6 12 82 44 50 55
REMARK Flexibility Score: inf
ROOT
ATOM      1  C   UNL A   1      31.405  28.196  25.414  1.00  0.00     0.274 C 
ENDROOT
BRANCH   1   2
ATOM      2  O   UNL A   1      31.041  27.074  26.225  1.00  0.00    -0.462 OA
BRANCH   2   3
ATOM      3  C   UNL A   1      30.424  25.985  25.724  1.00  0.00     0.308 C 
ATOM      4  O   UNL A   1      29.757  25.259  26.460  1.00  0.00    -0.252 OA
BRANCH   3   5
ATOM      5  C   UNL A   1      30.740  25.550  24.326  1.00  0.00     0.160 C 
BRANCH   5   6
ATOM      6  C   UNL A   1      31.569  24.293  24.012  1.00  0.00     0.184 C 
ATOM      7  C   UNL A   1      32.703  23.864  25.007  1.00  0.00     0.295 C 
ATOM      8  O   UNL A   1      32.158  24.498  22.719  1.00  0.00    -0.366 OA
ATOM      9  N   UNL A   1      34.043  24.482  24.779  1.00  0.00    -0.330 N 
ATOM     10  C   UNL A   1      33.087  25.592  22.760  1.00  0.00     0.222 C 
ATOM     11  C   UNL A   1      33.776  25.760  24.157  1.00  0.00     0.291 C 
ATOM     12  H   UNL A   1      34.524  24.512  25.678  1.00  0.00     0.348 HD
BRANCH   9  13
ATOM     13  C   UNL A   1      34.938  23.738  23.855  1.00  0.00     0.273 C 
BRANCH  13  14
ATOM     14  C   UNL A   1      35.374  22.211  24.133  1.00  0.00     0.136 C 
BRANCH  14  15
ATOM     15  S   UNL A   1      34.788  20.875  25.421  1.00  0.00    -0.117 SA
BRANCH  15  16
ATOM     16  C   UNL A   1      34.099  19.375  24.653  1.00  0.00     0.043 A 
ATOM     17  C   UNL A   1      34.871  18.195  24.612  1.00  0.00     0.018 A 
ATOM     18  C   UNL A   1      32.941  19.355  23.873  1.00  0.00     0.136 A 
ATOM     19  C   UNL A   1      34.411  16.993  24.061  1.00  0.00     0.001 A 
ATOM     20  C   UNL A   1      32.526  18.187  23.202  1.00  0.00     0.040 A 
ATOM     21  F   UNL A   1      32.219  20.471  23.696  1.00  0.00    -0.206 F 
ATOM     22  C   UNL A   1      33.232  16.991  23.338  1.00  0.00     0.003 A 
ENDBRANCH  15  16
ENDBRANCH  14  15
ENDBRANCH  13  14
ENDBRANCH   9  13
ENDBRANCH   5   6
ENDBRANCH   3   5
ENDBRANCH   2   3
ENDBRANCH   1   2
BRANCH   1  23
ATOM     23  C   UNL A   1      31.570  29.513  26.181  1.00  0.00     0.275 C 
BRANCH  23  24
ATOM     24  O   UNL A   1      32.813  30.204  25.969  1.00  0.00    -0.458 OA
BRANCH  24  25
ATOM     25  C   UNL A   1      33.100  31.188  26.880  1.00  0.00     0.338 C 
ATOM     26  O   UNL A   1      32.368  32.083  27.208  1.00  0.00    -0.246 OA
BRANCH  25  27
ATOM     27  C   UNL A   1      34.418  30.917  27.525  1.00  0.00     0.060 A 
ATOM     28  C   UNL A   1      34.760  29.591  27.828  1.00  0.00     0.016 A 
ATOM     29  C   UNL A   1      35.294  31.952  27.861  1.00  0.00     0.016 A 
ATOM     30  C   UNL A   1      35.971  29.300  28.471  1.00  0.00     0.010 A 
ATOM     31  C   UNL A   1      36.496  31.660  28.521  1.00  0.00     0.010 A 
ATOM     32  C   UNL A   1      36.839  30.336  28.844  1.00  0.00    -0.014 A 
BRANCH  32  33
ATOM     33  C   UNL A   1      38.057  30.069  29.656  1.00  0.00     0.031 A 
ATOM     34  C   UNL A   1      39.118  29.149  29.119  1.00  0.00     0.074 A 
ATOM     35  C   UNL A   1      38.222  30.622  30.872  1.00  0.00     0.049 A 
ATOM     36  N   UNL A   1      40.194  28.686  29.704  1.00  0.00    -0.248 NA
ATOM     37  C   UNL A   1      38.939  28.694  27.733  1.00  0.00     0.031 C 
ATOM     38  C   UNL A   1      37.316  31.587  31.490  1.00  0.00     0.029 A 
ATOM     39  N   UNL A   1      39.213  30.442  31.806  1.00  0.00    -0.354 N 
ATOM     40  C   UNL A   1      40.831  27.893  28.756  1.00  0.00     0.074 A 
ATOM     41  C   UNL A   1      39.995  27.909  27.571  1.00  0.00     0.031 C 
ATOM     42  C   UNL A   1      37.795  31.917  32.703  1.00  0.00     0.029 A 
ATOM     43  C   UNL A   1      39.015  31.151  32.966  1.00  0.00     0.049 A 
ATOM     44  H   UNL A   1      39.994  29.860  31.657  1.00  0.00     0.167 HD
ATOM     45  C   UNL A   1      42.004  27.218  28.857  1.00  0.00     0.034 A 
ATOM     46  C   UNL A   1      39.717  31.164  34.118  1.00  0.00     0.034 A 
ATOM     47  C   UNL A   1      42.815  27.167  30.049  1.00  0.00     0.049 A 
ATOM     48  C   UNL A   1      40.939  30.292  34.267  1.00  0.00     0.074 A 
ATOM     49  C   UNL A   1      43.996  26.474  30.260  1.00  0.00     0.029 A 
ATOM     50  N   UNL A   1      42.529  27.824  31.238  1.00  0.00    -0.354 N 
ATOM     51  N   UNL A   1      41.491  29.484  33.392  1.00  0.00    -0.248 NA
ATOM     52  C   UNL A   1      41.628  30.329  35.566  1.00  0.00     0.031 C 
ATOM     53  C   UNL A   1      44.388  26.660  31.590  1.00  0.00     0.029 A 
ATOM     54  C   UNL A   1      43.496  27.533  32.190  1.00  0.00     0.049 A 
ATOM     55  H   UNL A   1      41.753  28.411  31.384  1.00  0.00     0.167 HD
ATOM     56  C   UNL A   1      42.610  28.945  34.023  1.00  0.00     0.074 A 
ATOM     57  C   UNL A   1      42.650  29.511  35.356  1.00  0.00     0.031 C 
ATOM     58  C   UNL A   1      43.530  28.076  33.530  1.00  0.00     0.034 A 
BRANCH  45  59
ATOM     59  C   UNL A   1      42.446  26.438  27.644  1.00  0.00     0.023 A 
ATOM     60  C   UNL A   1      42.030  25.110  27.435  1.00  0.00     0.031 A 
ATOM     61  C   UNL A   1      43.320  27.011  26.704  1.00  0.00     0.131 A 
ATOM     62  C   UNL A   1      42.541  24.381  26.351  1.00  0.00     0.055 A 
ATOM     63  C   UNL A   1      43.765  26.305  25.587  1.00  0.00     0.041 A 
ATOM     64  F   UNL A   1      43.767  28.267  26.866  1.00  0.00    -0.206 F 
ATOM     65  C   UNL A   1      43.387  24.976  25.412  1.00  0.00     0.022 A 
BRANCH  62  66
ATOM     66  S   UNL A   1      42.189  22.604  26.260  1.00  0.00     0.124 S 
ATOM     67  O   UNL A   1      42.855  22.110  27.462  1.00  0.00    -0.237 OA
ATOM     68  O   UNL A   1      40.731  22.569  26.276  1.00  0.00    -0.237 OA
ATOM     69  O   UNL A   1      42.809  22.197  25.000  1.00  0.00    -0.744 OA
ENDBRANCH  62  66
ENDBRANCH  45  59
BRANCH  46  70
ATOM     70  C   UNL A   1      39.268  32.030  35.241  1.00  0.00     0.023 A 
ATOM     71  C   UNL A   1      39.800  33.317  35.409  1.00  0.00     0.031 A 
ATOM     72  C   UNL A   1      38.290  31.587  36.149  1.00  0.00     0.131 A 
ATOM     73  C   UNL A   1      39.353  34.121  36.470  1.00  0.00     0.055 A 
ATOM     74  C   UNL A   1      37.827  32.402  37.183  1.00  0.00     0.041 A 
ATOM     75  F   UNL A   1      37.756  30.362  36.025  1.00  0.00    -0.206 F 
ATOM     76  C   UNL A   1      38.361  33.677  37.348  1.00  0.00     0.022 A 
BRANCH  73  77
ATOM     77  S   UNL A   1      40.091  35.763  36.689  1.00  0.00     0.124 S 
ATOM     78  O   UNL A   1      41.512  35.442  36.763  1.00  0.00    -0.237 OA
ATOM     79  O   UNL A   1      39.654  36.462  35.485  1.00  0.00    -0.237 OA
ATOM     80  O   UNL A   1      39.493  36.243  37.933  1.00  0.00    -0.744 OA
ENDBRANCH  73  77
ENDBRANCH  46  70
BRANCH  58  81
ATOM     81  C   UNL A   1      44.698  27.710  34.416  1.00  0.00     0.023 A 
ATOM     82  C   UNL A   1      45.884  28.465  34.442  1.00  0.00     0.031 A 
ATOM     83  C   UNL A   1      44.607  26.596  35.271  1.00  0.00     0.131 A 
ATOM     84  C   UNL A   1      46.943  28.075  35.280  1.00  0.00     0.055 A 
ATOM     85  C   UNL A   1      45.642  26.243  36.138  1.00  0.00     0.041 A 
ATOM     86  F   UNL A   1      43.498  25.838  35.289  1.00  0.00    -0.206 F 
ATOM     87  C   UNL A   1      46.822  26.980  36.139  1.00  0.00     0.022 A 
BRANCH  84  88
ATOM     88  S   UNL A   1      48.509  28.987  35.197  1.00  0.00     0.124 S 
ATOM     89  O   UNL A   1      48.073  30.296  34.719  1.00  0.00    -0.237 OA
ATOM     90  O   UNL A   1      48.978  28.937  36.579  1.00  0.00    -0.237 OA
ATOM     91  O   UNL A   1      49.308  28.216  34.246  1.00  0.00    -0.744 OA
ENDBRANCH  84  88
ENDBRANCH  58  81
ENDBRANCH  32  33
ENDBRANCH  25  27
ENDBRANCH  24  25
ENDBRANCH  23  24
ENDBRANCH   1  23
TORSDOF 19
ENDMDL
