MODEL 1
REMARK VINA RESULT:     -10.5      0.000      0.000
REMARK SMILES CC(C)Cn1c([C@@H](O)[C@@H](O)C(=O)OCCOC(=O)c2ccc(-c3c4nc(c(-c5cc(S(=O)(=O)[O-])ccc5F)c5ccc([nH]5)c(-c5cc(S(=O)(=O)[O-])ccc5F)c5nc(c(-c6cc(S(=O)(=O)[O-])ccc6F)c6ccc3[nH]6)C=C5)C=C4)cc2)nc2cc(Cl)ccc21
REMARK SMILES IDX 14 1 13 2 11 3 12 4 9 5 7 6 6 7 5 8 89 9 82 10 83 11 88 12
REMARK SMILES IDX 84 13 87 14 85 15 86 16 4 17 2 18 1 19 3 20 8 21 10 23 15 25
REMARK SMILES IDX 16 26 17 27 18 28 19 29 20 30 81 31 21 32 80 33 22 34 23 35
REMARK SMILES IDX 24 36 74 37 25 38 79 39 73 40 75 41 26 42 78 43 72 44 71 45
REMARK SMILES IDX 27 47 59 48 39 49 58 50 40 51 43 52 57 53 76 54 41 55 42 56
REMARK SMILES IDX 56 58 77 59 44 60 28 61 29 62 37 63 30 64 36 65 38 66 35 67
REMARK SMILES IDX 31 68 32 69 33 70 34 71 60 72 61 73 69 74 62 75 68 76 70 77
REMARK SMILES IDX 67 78 63 79 64 80 65 81 66 82 45 83 46 84 54 85 47 86 53 87
REMARK SMILES IDX 55 88 52 89 48 90 49 91 50 92 51 93
REMARK H PARENT 8 22 10 24 75 46 43 57
REMARK Flexibility Score: inf
ROOT
ATOM      1  C   UNL A   1      34.249  35.024  29.586  1.00  0.00     0.274 C 
ENDROOT
BRANCH   1   2
ATOM      2  O   UNL A   1      33.625  34.195  30.587  1.00  0.00    -0.460 OA
BRANCH   2   3
ATOM      3  C   UNL A   1      33.667  34.625  31.878  1.00  0.00     0.338 C 
ATOM      4  O   UNL A   1      33.415  35.772  32.231  1.00  0.00    -0.249 OA
BRANCH   3   5
ATOM      5  C   UNL A   1      34.143  33.535  32.846  1.00  0.00     0.260 C 
BRANCH   5   6
ATOM      6  C   UNL A   1      35.209  34.003  33.831  1.00  0.00     0.220 C 
BRANCH   6   7
ATOM      7  C   UNL A   1      36.556  34.080  33.163  1.00  0.00     0.142 A 
ATOM      8  N   UNL A   1      37.711  33.558  33.694  1.00  0.00    -0.325 N 
ATOM      9  C   UNL A   1      38.699  33.673  32.741  1.00  0.00     0.068 A 
ATOM     10  N   UNL A   1      36.804  34.719  32.035  1.00  0.00    -0.230 NA
ATOM     11  C   UNL A   1      38.111  34.425  31.724  1.00  0.00     0.090 A 
ATOM     12  C   UNL A   1      40.012  33.193  32.652  1.00  0.00     0.030 A 
ATOM     13  C   UNL A   1      38.855  34.764  30.582  1.00  0.00     0.051 A 
ATOM     14  C   UNL A   1      40.733  33.514  31.495  1.00  0.00     0.023 A 
ATOM     15  C   UNL A   1      40.170  34.300  30.489  1.00  0.00     0.043 A 
ATOM     16  Cl  UNL A   1      41.133  34.740  29.128  1.00  0.00    -0.084 Cl
BRANCH   8  17
ATOM     17  C   UNL A   1      37.815  32.898  34.979  1.00  0.00     0.127 C 
BRANCH  17  18
ATOM     18  C   UNL A   1      37.863  31.350  34.954  1.00  0.00     0.003 C 
ATOM     19  C   UNL A   1      37.533  30.667  33.621  1.00  0.00     0.009 C 
ATOM     20  C   UNL A   1      39.267  30.908  35.375  1.00  0.00     0.009 C 
ENDBRANCH  17  18
ENDBRANCH   8  17
ENDBRANCH   6   7
BRANCH   6  21
ATOM     21  O   UNL A   1      34.984  35.300  34.378  1.00  0.00    -0.382 OA
ATOM     22  H   UNL A   1      35.474  35.389  35.210  1.00  0.00     0.211 HD
ENDBRANCH   6  21
ENDBRANCH   5   6
BRANCH   5  23
ATOM     23  O   UNL A   1      33.029  33.003  33.585  1.00  0.00    -0.379 OA
ATOM     24  H   UNL A   1      32.261  33.586  33.476  1.00  0.00     0.211 HD
ENDBRANCH   5  23
ENDBRANCH   3   5
ENDBRANCH   2   3
ENDBRANCH   1   2
BRANCH   1  25
ATOM     25  C   UNL A   1      34.783  34.155  28.443  1.00  0.00     0.275 C 
BRANCH  25  26
ATOM     26  O   UNL A   1      35.300  32.943  29.004  1.00  0.00    -0.458 OA
BRANCH  26  27
ATOM     27  C   UNL A   1      35.021  31.796  28.339  1.00  0.00     0.338 C 
ATOM     28  O   UNL A   1      34.015  31.542  27.697  1.00  0.00    -0.246 OA
BRANCH  27  29
ATOM     29  C   UNL A   1      36.306  31.072  28.261  1.00  0.00     0.060 A 
ATOM     30  C   UNL A   1      36.348  29.715  27.929  1.00  0.00     0.016 A 
ATOM     31  C   UNL A   1      37.426  31.707  28.798  1.00  0.00     0.016 A 
ATOM     32  C   UNL A   1      37.463  28.966  28.281  1.00  0.00     0.010 A 
ATOM     33  C   UNL A   1      38.517  30.948  29.198  1.00  0.00     0.010 A 
ATOM     34  C   UNL A   1      38.515  29.568  28.986  1.00  0.00    -0.014 A 
BRANCH  34  35
ATOM     35  C   UNL A   1      39.723  28.783  29.230  1.00  0.00     0.031 A 
ATOM     36  C   UNL A   1      40.091  28.772  30.658  1.00  0.00     0.074 A 
ATOM     37  C   UNL A   1      40.456  28.041  28.378  1.00  0.00     0.049 A 
ATOM     38  N   UNL A   1      40.972  29.524  31.225  1.00  0.00    -0.248 NA
ATOM     39  C   UNL A   1      39.280  27.969  31.580  1.00  0.00     0.031 C 
ATOM     40  C   UNL A   1      40.141  27.636  27.013  1.00  0.00     0.029 A 
ATOM     41  N   UNL A   1      41.648  27.412  28.612  1.00  0.00    -0.354 N 
ATOM     42  C   UNL A   1      40.978  29.134  32.555  1.00  0.00     0.074 A 
ATOM     43  C   UNL A   1      39.776  28.362  32.753  1.00  0.00     0.031 C 
ATOM     44  C   UNL A   1      40.968  26.632  26.633  1.00  0.00     0.029 A 
ATOM     45  C   UNL A   1      42.012  26.500  27.637  1.00  0.00     0.049 A 
ATOM     46  H   UNL A   1      42.200  27.593  29.407  1.00  0.00     0.167 HD
ATOM     47  C   UNL A   1      42.106  29.237  33.309  1.00  0.00     0.034 A 
ATOM     48  C   UNL A   1      43.120  25.724  27.613  1.00  0.00     0.034 A 
ATOM     49  C   UNL A   1      43.142  29.952  32.612  1.00  0.00     0.049 A 
ATOM     50  C   UNL A   1      44.172  26.360  28.437  1.00  0.00     0.074 A 
ATOM     51  C   UNL A   1      43.504  31.263  32.405  1.00  0.00     0.029 A 
ATOM     52  N   UNL A   1      43.834  29.189  31.709  1.00  0.00    -0.354 N 
ATOM     53  N   UNL A   1      44.759  27.482  28.125  1.00  0.00    -0.248 NA
ATOM     54  C   UNL A   1      44.413  25.884  29.796  1.00  0.00     0.031 C 
ATOM     55  C   UNL A   1      44.362  31.271  31.265  1.00  0.00     0.029 A 
ATOM     56  C   UNL A   1      44.510  29.966  30.802  1.00  0.00     0.049 A 
ATOM     57  H   UNL A   1      43.844  28.205  31.709  1.00  0.00     0.167 HD
ATOM     58  C   UNL A   1      45.050  28.054  29.344  1.00  0.00     0.074 A 
ATOM     59  C   UNL A   1      45.005  26.965  30.308  1.00  0.00     0.031 C 
ATOM     60  C   UNL A   1      44.955  29.400  29.541  1.00  0.00     0.034 A 
BRANCH  47  61
ATOM     61  C   UNL A   1      42.433  28.343  34.479  1.00  0.00     0.023 A 
ATOM     62  C   UNL A   1      42.637  26.958  34.352  1.00  0.00     0.031 A 
ATOM     63  C   UNL A   1      42.770  28.903  35.726  1.00  0.00     0.131 A 
ATOM     64  C   UNL A   1      43.101  26.180  35.419  1.00  0.00     0.055 A 
ATOM     65  C   UNL A   1      43.306  28.140  36.772  1.00  0.00     0.041 A 
ATOM     66  F   UNL A   1      42.628  30.218  35.956  1.00  0.00    -0.206 F 
ATOM     67  C   UNL A   1      43.469  26.768  36.623  1.00  0.00     0.022 A 
BRANCH  64  68
ATOM     68  S   UNL A   1      43.227  24.380  35.244  1.00  0.00     0.124 S 
ATOM     69  O   UNL A   1      44.174  24.042  36.301  1.00  0.00    -0.237 OA
ATOM     70  O   UNL A   1      41.846  23.963  35.473  1.00  0.00    -0.237 OA
ATOM     71  O   UNL A   1      43.706  24.204  33.876  1.00  0.00    -0.744 OA
ENDBRANCH  64  68
ENDBRANCH  47  61
BRANCH  48  72
ATOM     72  C   UNL A   1      43.244  24.324  27.161  1.00  0.00     0.023 A 
ATOM     73  C   UNL A   1      44.187  24.006  26.167  1.00  0.00     0.031 A 
ATOM     74  C   UNL A   1      42.241  23.379  27.438  1.00  0.00     0.131 A 
ATOM     75  C   UNL A   1      44.070  22.811  25.443  1.00  0.00     0.055 A 
ATOM     76  C   UNL A   1      42.139  22.180  26.727  1.00  0.00     0.041 A 
ATOM     77  F   UNL A   1      41.300  23.636  28.359  1.00  0.00    -0.206 F 
ATOM     78  C   UNL A   1      43.046  21.899  25.710  1.00  0.00     0.022 A 
BRANCH  75  79
ATOM     79  S   UNL A   1      45.200  22.448  24.070  1.00  0.00     0.124 S 
ATOM     80  O   UNL A   1      45.928  21.283  24.572  1.00  0.00    -0.237 OA
ATOM     81  O   UNL A   1      44.266  22.182  22.983  1.00  0.00    -0.237 OA
ATOM     82  O   UNL A   1      45.994  23.666  23.955  1.00  0.00    -0.744 OA
ENDBRANCH  75  79
ENDBRANCH  48  72
BRANCH  60  83
ATOM     83  C   UNL A   1      45.126  30.325  28.369  1.00  0.00     0.023 A 
ATOM     84  C   UNL A   1      46.432  30.784  28.112  1.00  0.00     0.031 A 
ATOM     85  C   UNL A   1      44.081  30.868  27.604  1.00  0.00     0.131 A 
ATOM     86  C   UNL A   1      46.660  31.783  27.161  1.00  0.00     0.055 A 
ATOM     87  C   UNL A   1      44.322  31.817  26.603  1.00  0.00     0.041 A 
ATOM     88  F   UNL A   1      42.800  30.550  27.841  1.00  0.00    -0.206 F 
ATOM     89  C   UNL A   1      45.614  32.292  26.390  1.00  0.00     0.022 A 
BRANCH  86  90
ATOM     90  S   UNL A   1      48.299  32.542  27.013  1.00  0.00     0.124 S 
ATOM     91  O   UNL A   1      49.124  31.415  26.588  1.00  0.00    -0.237 OA
ATOM     92  O   UNL A   1      48.074  33.571  26.000  1.00  0.00    -0.237 OA
ATOM     93  O   UNL A   1      48.576  33.049  28.353  1.00  0.00    -0.744 OA
ENDBRANCH  86  90
ENDBRANCH  60  83
ENDBRANCH  34  35
ENDBRANCH  27  29
ENDBRANCH  26  27
ENDBRANCH  25  26
ENDBRANCH   1  25
TORSDOF 20
ENDMDL
MODEL 2
REMARK VINA RESULT:     -10.2      4.962      9.575
REMARK SMILES CC(C)Cn1c([C@@H](O)[C@@H](O)C(=O)OCCOC(=O)c2ccc(-c3c4nc(c(-c5cc(S(=O)(=O)[O-])ccc5F)c5ccc([nH]5)c(-c5cc(S(=O)(=O)[O-])ccc5F)c5nc(c(-c6cc(S(=O)(=O)[O-])ccc6F)c6ccc3[nH]6)C=C5)C=C4)cc2)nc2cc(Cl)ccc21
REMARK SMILES IDX 14 1 13 2 11 3 12 4 9 5 7 6 6 7 5 8 89 9 82 10 83 11 88 12
REMARK SMILES IDX 84 13 87 14 85 15 86 16 4 17 2 18 1 19 3 20 8 21 10 23 15 25
REMARK SMILES IDX 16 26 17 27 18 28 19 29 20 30 81 31 21 32 80 33 22 34 23 35
REMARK SMILES IDX 24 36 74 37 25 38 79 39 73 40 75 41 26 42 78 43 72 44 71 45
REMARK SMILES IDX 27 47 59 48 39 49 58 50 40 51 43 52 57 53 76 54 41 55 42 56
REMARK SMILES IDX 56 58 77 59 44 60 28 61 29 62 37 63 30 64 36 65 38 66 35 67
REMARK SMILES IDX 31 68 32 69 33 70 34 71 60 72 61 73 69 74 62 75 68 76 70 77
REMARK SMILES IDX 67 78 63 79 64 80 65 81 66 82 45 83 46 84 54 85 47 86 53 87
REMARK SMILES IDX 55 88 52 89 48 90 49 91 50 92 51 93
REMARK H PARENT 8 22 10 24 75 46 43 57
REMARK Flexibility Score: inf
ROOT
ATOM      1  C   UNL A   1      34.681  21.444  25.474  1.00  0.00     0.274 C 
ENDROOT
BRANCH   1   2
ATOM      2  O   UNL A   1      34.060  22.049  24.322  1.00  0.00    -0.460 OA
BRANCH   2   3
ATOM      3  C   UNL A   1      33.153  23.041  24.544  1.00  0.00     0.338 C 
ATOM      4  O   UNL A   1      32.143  22.912  25.227  1.00  0.00    -0.249 OA
BRANCH   3   5
ATOM      5  C   UNL A   1      33.489  24.327  23.779  1.00  0.00     0.260 C 
BRANCH   5   6
ATOM      6  C   UNL A   1      33.576  25.568  24.661  1.00  0.00     0.220 C 
BRANCH   6   7
ATOM      7  C   UNL A   1      32.385  26.462  24.442  1.00  0.00     0.142 A 
ATOM      8  N   UNL A   1      32.420  27.832  24.552  1.00  0.00    -0.325 N 
ATOM      9  C   UNL A   1      31.201  28.316  24.128  1.00  0.00     0.068 A 
ATOM     10  N   UNL A   1      31.159  26.041  24.199  1.00  0.00    -0.230 NA
ATOM     11  C   UNL A   1      30.424  27.173  23.937  1.00  0.00     0.090 A 
ATOM     12  C   UNL A   1      30.710  29.603  23.877  1.00  0.00     0.030 A 
ATOM     13  C   UNL A   1      29.087  27.295  23.524  1.00  0.00     0.051 A 
ATOM     14  C   UNL A   1      29.384  29.709  23.437  1.00  0.00     0.023 A 
ATOM     15  C   UNL A   1      28.584  28.576  23.283  1.00  0.00     0.043 A 
ATOM     16  Cl  UNL A   1      26.933  28.770  22.826  1.00  0.00    -0.084 Cl
BRANCH   8  17
ATOM     17  C   UNL A   1      33.581  28.611  24.927  1.00  0.00     0.127 C 
BRANCH  17  18
ATOM     18  C   UNL A   1      33.553  29.247  26.340  1.00  0.00     0.003 C 
ATOM     19  C   UNL A   1      32.341  28.924  27.222  1.00  0.00     0.009 C 
ATOM     20  C   UNL A   1      34.813  28.805  27.089  1.00  0.00     0.009 C 
ENDBRANCH  17  18
ENDBRANCH   8  17
ENDBRANCH   6   7
BRANCH   6  21
ATOM     21  O   UNL A   1      33.597  25.302  26.060  1.00  0.00    -0.382 OA
ATOM     22  H   UNL A   1      32.817  25.700  26.477  1.00  0.00     0.211 HD
ENDBRANCH   6  21
ENDBRANCH   5   6
BRANCH   5  23
ATOM     23  O   UNL A   1      34.730  24.175  23.068  1.00  0.00    -0.379 OA
ATOM     24  H   UNL A   1      34.567  24.242  22.114  1.00  0.00     0.211 HD
ENDBRANCH   5  23
ENDBRANCH   3   5
ENDBRANCH   2   3
ENDBRANCH   1   2
BRANCH   1  25
ATOM     25  C   UNL A   1      35.709  20.400  25.026  1.00  0.00     0.275 C 
BRANCH  25  26
ATOM     26  O   UNL A   1      36.975  21.053  24.873  1.00  0.00    -0.458 OA
BRANCH  26  27
ATOM     27  C   UNL A   1      38.066  20.373  25.302  1.00  0.00     0.338 C 
ATOM     28  O   UNL A   1      38.334  19.201  25.095  1.00  0.00    -0.246 OA
BRANCH  27  29
ATOM     29  C   UNL A   1      39.012  21.411  25.760  1.00  0.00     0.060 A 
ATOM     30  C   UNL A   1      40.248  21.065  26.313  1.00  0.00     0.016 A 
ATOM     31  C   UNL A   1      38.518  22.710  25.880  1.00  0.00     0.016 A 
ATOM     32  C   UNL A   1      40.910  21.983  27.118  1.00  0.00     0.010 A 
ATOM     33  C   UNL A   1      39.153  23.608  26.728  1.00  0.00     0.010 A 
ATOM     34  C   UNL A   1      40.324  23.228  27.388  1.00  0.00    -0.014 A 
BRANCH  34  35
ATOM     35  C   UNL A   1      41.103  24.212  28.134  1.00  0.00     0.031 A 
ATOM     36  C   UNL A   1      40.393  25.499  28.252  1.00  0.00     0.074 A 
ATOM     37  C   UNL A   1      42.285  24.078  28.765  1.00  0.00     0.049 A 
ATOM     38  N   UNL A   1      40.571  26.540  27.512  1.00  0.00    -0.248 NA
ATOM     39  C   UNL A   1      39.250  25.582  29.168  1.00  0.00     0.031 C 
ATOM     40  C   UNL A   1      43.030  22.861  29.063  1.00  0.00     0.029 A 
ATOM     41  N   UNL A   1      43.046  25.050  29.356  1.00  0.00    -0.354 N 
ATOM     42  C   UNL A   1      39.701  27.495  28.016  1.00  0.00     0.074 A 
ATOM     43  C   UNL A   1      38.769  26.786  28.856  1.00  0.00     0.031 C 
ATOM     44  C   UNL A   1      43.982  23.124  29.992  1.00  0.00     0.029 A 
ATOM     45  C   UNL A   1      44.062  24.566  30.162  1.00  0.00     0.049 A 
ATOM     46  H   UNL A   1      42.884  26.011  29.219  1.00  0.00     0.167 HD
ATOM     47  C   UNL A   1      39.991  28.821  27.926  1.00  0.00     0.034 A 
ATOM     48  C   UNL A   1      44.951  25.289  30.881  1.00  0.00     0.034 A 
ATOM     49  C   UNL A   1      41.151  29.054  27.106  1.00  0.00     0.049 A 
ATOM     50  C   UNL A   1      45.089  26.630  30.271  1.00  0.00     0.074 A 
ATOM     51  C   UNL A   1      41.432  29.194  25.767  1.00  0.00     0.029 A 
ATOM     52  N   UNL A   1      42.341  28.853  27.755  1.00  0.00    -0.354 N 
ATOM     53  N   UNL A   1      45.622  26.844  29.100  1.00  0.00    -0.248 NA
ATOM     54  C   UNL A   1      44.376  27.765  30.851  1.00  0.00     0.031 C 
ATOM     55  C   UNL A   1      42.832  28.961  25.620  1.00  0.00     0.029 A 
ATOM     56  C   UNL A   1      43.377  28.687  26.872  1.00  0.00     0.049 A 
ATOM     57  H   UNL A   1      42.439  28.830  28.734  1.00  0.00     0.167 HD
ATOM     58  C   UNL A   1      44.944  27.945  28.623  1.00  0.00     0.074 A 
ATOM     59  C   UNL A   1      44.353  28.577  29.793  1.00  0.00     0.031 C 
ATOM     60  C   UNL A   1      44.615  28.064  27.306  1.00  0.00     0.034 A 
BRANCH  47  61
ATOM     61  C   UNL A   1      39.510  29.866  28.902  1.00  0.00     0.023 A 
ATOM     62  C   UNL A   1      38.397  30.690  28.657  1.00  0.00     0.031 A 
ATOM     63  C   UNL A   1      40.031  29.908  30.210  1.00  0.00     0.131 A 
ATOM     64  C   UNL A   1      37.873  31.533  29.644  1.00  0.00     0.055 A 
ATOM     65  C   UNL A   1      39.460  30.693  31.220  1.00  0.00     0.041 A 
ATOM     66  F   UNL A   1      41.084  29.153  30.560  1.00  0.00    -0.206 F 
ATOM     67  C   UNL A   1      38.379  31.517  30.938  1.00  0.00     0.022 A 
BRANCH  64  68
ATOM     68  S   UNL A   1      36.517  32.668  29.242  1.00  0.00     0.124 S 
ATOM     69  O   UNL A   1      35.690  32.583  30.441  1.00  0.00    -0.237 OA
ATOM     70  O   UNL A   1      37.232  33.928  29.054  1.00  0.00    -0.237 OA
ATOM     71  O   UNL A   1      35.943  32.096  28.027  1.00  0.00    -0.744 OA
ENDBRANCH  64  68
ENDBRANCH  47  61
BRANCH  48  72
ATOM     72  C   UNL A   1      45.481  25.004  32.229  1.00  0.00     0.023 A 
ATOM     73  C   UNL A   1      44.581  24.703  33.269  1.00  0.00     0.031 A 
ATOM     74  C   UNL A   1      46.797  25.348  32.582  1.00  0.00     0.131 A 
ATOM     75  C   UNL A   1      44.989  24.816  34.606  1.00  0.00     0.055 A 
ATOM     76  C   UNL A   1      47.205  25.442  33.916  1.00  0.00     0.041 A 
ATOM     77  F   UNL A   1      47.693  25.668  31.636  1.00  0.00    -0.206 F 
ATOM     78  C   UNL A   1      46.293  25.194  34.937  1.00  0.00     0.022 A 
BRANCH  75  79
ATOM     79  S   UNL A   1      43.805  24.560  35.957  1.00  0.00     0.124 S 
ATOM     80  O   UNL A   1      43.399  25.928  36.273  1.00  0.00    -0.237 OA
ATOM     81  O   UNL A   1      42.790  23.739  35.307  1.00  0.00    -0.237 OA
ATOM     82  O   UNL A   1      44.604  23.903  36.986  1.00  0.00    -0.744 OA
ENDBRANCH  75  79
ENDBRANCH  48  72
BRANCH  60  83
ATOM     83  C   UNL A   1      45.455  27.363  26.275  1.00  0.00     0.023 A 
ATOM     84  C   UNL A   1      45.137  26.018  26.010  1.00  0.00     0.031 A 
ATOM     85  C   UNL A   1      46.603  27.895  25.664  1.00  0.00     0.131 A 
ATOM     86  C   UNL A   1      45.971  25.235  25.205  1.00  0.00     0.055 A 
ATOM     87  C   UNL A   1      47.396  27.129  24.801  1.00  0.00     0.041 A 
ATOM     88  F   UNL A   1      47.024  29.140  25.929  1.00  0.00    -0.206 F 
ATOM     89  C   UNL A   1      47.091  25.787  24.583  1.00  0.00     0.022 A 
BRANCH  86  90
ATOM     90  S   UNL A   1      45.693  23.450  25.071  1.00  0.00     0.124 S 
ATOM     91  O   UNL A   1      46.358  23.126  23.812  1.00  0.00    -0.237 OA
ATOM     92  O   UNL A   1      46.348  22.942  26.275  1.00  0.00    -0.237 OA
ATOM     93  O   UNL A   1      44.239  23.318  25.061  1.00  0.00    -0.744 OA
ENDBRANCH  86  90
ENDBRANCH  60  83
ENDBRANCH  34  35
ENDBRANCH  27  29
ENDBRANCH  26  27
ENDBRANCH  25  26
ENDBRANCH   1  25
TORSDOF 20
ENDMDL
MODEL 3
REMARK VINA RESULT:     -10.1      4.826      9.467
REMARK SMILES CC(C)Cn1c([C@@H](O)[C@@H](O)C(=O)OCCOC(=O)c2ccc(-c3c4nc(c(-c5cc(S(=O)(=O)[O-])ccc5F)c5ccc([nH]5)c(-c5cc(S(=O)(=O)[O-])ccc5F)c5nc(c(-c6cc(S(=O)(=O)[O-])ccc6F)c6ccc3[nH]6)C=C5)C=C4)cc2)nc2cc(Cl)ccc21
REMARK SMILES IDX 14 1 13 2 11 3 12 4 9 5 7 6 6 7 5 8 89 9 82 10 83 11 88 12
REMARK SMILES IDX 84 13 87 14 85 15 86 16 4 17 2 18 1 19 3 20 8 21 10 23 15 25
REMARK SMILES IDX 16 26 17 27 18 28 19 29 20 30 81 31 21 32 80 33 22 34 23 35
REMARK SMILES IDX 24 36 74 37 25 38 79 39 73 40 75 41 26 42 78 43 72 44 71 45
REMARK SMILES IDX 27 47 59 48 39 49 58 50 40 51 43 52 57 53 76 54 41 55 42 56
REMARK SMILES IDX 56 58 77 59 44 60 28 61 29 62 37 63 30 64 36 65 38 66 35 67
REMARK SMILES IDX 31 68 32 69 33 70 34 71 60 72 61 73 69 74 62 75 68 76 70 77
REMARK SMILES IDX 67 78 63 79 64 80 65 81 66 82 45 83 46 84 54 85 47 86 53 87
REMARK SMILES IDX 55 88 52 89 48 90 49 91 50 92 51 93
REMARK H PARENT 8 22 10 24 75 46 43 57
REMARK Flexibility Score: inf
ROOT
ATOM      1  C   UNL A   1      34.160  21.747  25.567  1.00  0.00     0.274 C 
ENDROOT
BRANCH   1   2
ATOM      2  O   UNL A   1      33.553  22.514  24.508  1.00  0.00    -0.460 OA
BRANCH   2   3
ATOM      3  C   UNL A   1      32.405  23.189  24.797  1.00  0.00     0.338 C 
ATOM      4  O   UNL A   1      31.976  23.364  25.932  1.00  0.00    -0.249 OA
BRANCH   3   5
ATOM      5  C   UNL A   1      31.657  23.644  23.538  1.00  0.00     0.260 C 
BRANCH   5   6
ATOM      6  C   UNL A   1      32.275  24.860  22.855  1.00  0.00     0.220 C 
BRANCH   6   7
ATOM      7  C   UNL A   1      32.585  25.935  23.862  1.00  0.00     0.142 A 
ATOM      8  N   UNL A   1      31.647  26.786  24.395  1.00  0.00    -0.325 N 
ATOM      9  C   UNL A   1      32.262  27.518  25.387  1.00  0.00     0.068 A 
ATOM     10  N   UNL A   1      33.795  26.242  24.290  1.00  0.00    -0.230 NA
ATOM     11  C   UNL A   1      33.611  27.175  25.282  1.00  0.00     0.090 A 
ATOM     12  C   UNL A   1      31.792  28.410  26.359  1.00  0.00     0.030 A 
ATOM     13  C   UNL A   1      34.553  27.767  26.139  1.00  0.00     0.051 A 
ATOM     14  C   UNL A   1      32.738  28.970  27.226  1.00  0.00     0.023 A 
ATOM     15  C   UNL A   1      34.095  28.668  27.104  1.00  0.00     0.043 A 
ATOM     16  Cl  UNL A   1      35.227  29.455  28.139  1.00  0.00    -0.084 Cl
BRANCH   8  17
ATOM     17  C   UNL A   1      30.242  26.803  24.047  1.00  0.00     0.127 C 
BRANCH  17  18
ATOM     18  C   UNL A   1      29.679  28.150  23.529  1.00  0.00     0.003 C 
ATOM     19  C   UNL A   1      30.415  28.804  22.353  1.00  0.00     0.009 C 
ATOM     20  C   UNL A   1      28.222  27.931  23.111  1.00  0.00     0.009 C 
ENDBRANCH  17  18
ENDBRANCH   8  17
ENDBRANCH   6   7
BRANCH   6  21
ATOM     21  O   UNL A   1      33.504  24.603  22.184  1.00  0.00    -0.382 OA
ATOM     22  H   UNL A   1      33.718  25.350  21.603  1.00  0.00     0.211 HD
ENDBRANCH   6  21
ENDBRANCH   5   6
BRANCH   5  23
ATOM     23  O   UNL A   1      31.580  22.567  22.587  1.00  0.00    -0.379 OA
ATOM     24  H   UNL A   1      31.590  21.719  23.058  1.00  0.00     0.211 HD
ENDBRANCH   5  23
ENDBRANCH   3   5
ENDBRANCH   2   3
ENDBRANCH   1   2
BRANCH   1  25
ATOM     25  C   UNL A   1      35.185  20.769  24.984  1.00  0.00     0.275 C 
BRANCH  25  26
ATOM     26  O   UNL A   1      36.453  21.431  24.923  1.00  0.00    -0.458 OA
BRANCH  26  27
ATOM     27  C   UNL A   1      37.543  20.690  25.239  1.00  0.00     0.338 C 
ATOM     28  O   UNL A   1      37.752  19.524  24.945  1.00  0.00    -0.246 OA
BRANCH  27  29
ATOM     29  C   UNL A   1      38.554  21.664  25.695  1.00  0.00     0.060 A 
ATOM     30  C   UNL A   1      39.764  21.239  26.251  1.00  0.00     0.016 A 
ATOM     31  C   UNL A   1      38.148  22.994  25.809  1.00  0.00     0.016 A 
ATOM     32  C   UNL A   1      40.484  22.114  27.054  1.00  0.00     0.010 A 
ATOM     33  C   UNL A   1      38.840  23.850  26.654  1.00  0.00     0.010 A 
ATOM     34  C   UNL A   1      39.982  23.396  27.318  1.00  0.00    -0.014 A 
BRANCH  34  35
ATOM     35  C   UNL A   1      40.823  24.330  28.062  1.00  0.00     0.031 A 
ATOM     36  C   UNL A   1      40.168  25.639  28.236  1.00  0.00     0.074 A 
ATOM     37  C   UNL A   1      42.019  24.133  28.649  1.00  0.00     0.049 A 
ATOM     38  N   UNL A   1      40.364  26.692  27.517  1.00  0.00    -0.248 NA
ATOM     39  C   UNL A   1      39.061  25.743  29.193  1.00  0.00     0.031 C 
ATOM     40  C   UNL A   1      42.725  22.881  28.892  1.00  0.00     0.029 A 
ATOM     41  N   UNL A   1      42.837  25.059  29.239  1.00  0.00    -0.354 N 
ATOM     42  C   UNL A   1      39.549  27.666  28.074  1.00  0.00     0.074 A 
ATOM     43  C   UNL A   1      38.618  26.972  28.927  1.00  0.00     0.031 C 
ATOM     44  C   UNL A   1      43.716  23.083  29.793  1.00  0.00     0.029 A 
ATOM     45  C   UNL A   1      43.859  24.515  29.997  1.00  0.00     0.049 A 
ATOM     46  H   UNL A   1      42.708  26.029  29.131  1.00  0.00     0.167 HD
ATOM     47  C   UNL A   1      39.888  28.982  28.008  1.00  0.00     0.034 A 
ATOM     48  C   UNL A   1      44.799  25.183  30.704  1.00  0.00     0.034 A 
ATOM     49  C   UNL A   1      41.029  29.191  27.155  1.00  0.00     0.049 A 
ATOM     50  C   UNL A   1      44.969  26.534  30.124  1.00  0.00     0.074 A 
ATOM     51  C   UNL A   1      41.271  29.356  25.812  1.00  0.00     0.029 A 
ATOM     52  N   UNL A   1      42.230  28.928  27.758  1.00  0.00    -0.354 N 
ATOM     53  N   UNL A   1      45.472  26.758  28.941  1.00  0.00    -0.248 NA
ATOM     54  C   UNL A   1      44.322  27.680  30.756  1.00  0.00     0.031 C 
ATOM     55  C   UNL A   1      42.655  29.072  25.612  1.00  0.00     0.029 A 
ATOM     56  C   UNL A   1      43.230  28.745  26.837  1.00  0.00     0.049 A 
ATOM     57  H   UNL A   1      42.360  28.875  28.733  1.00  0.00     0.167 HD
ATOM     58  C   UNL A   1      44.823  27.896  28.515  1.00  0.00     0.074 A 
ATOM     59  C   UNL A   1      44.296  28.520  29.720  1.00  0.00     0.031 C 
ATOM     60  C   UNL A   1      44.455  28.063  27.213  1.00  0.00     0.034 A 
BRANCH  47  61
ATOM     61  C   UNL A   1      39.481  30.018  29.025  1.00  0.00     0.023 A 
ATOM     62  C   UNL A   1      38.481  30.978  28.786  1.00  0.00     0.031 A 
ATOM     63  C   UNL A   1      39.940  29.926  30.354  1.00  0.00     0.131 A 
ATOM     64  C   UNL A   1      38.008  31.818  29.800  1.00  0.00     0.055 A 
ATOM     65  C   UNL A   1      39.414  30.714  31.386  1.00  0.00     0.041 A 
ATOM     66  F   UNL A   1      40.884  29.038  30.700  1.00  0.00    -0.206 F 
ATOM     67  C   UNL A   1      38.445  31.671  31.111  1.00  0.00     0.022 A 
BRANCH  64  68
ATOM     68  S   UNL A   1      36.808  33.122  29.413  1.00  0.00     0.124 S 
ATOM     69  O   UNL A   1      35.915  33.057  30.564  1.00  0.00    -0.237 OA
ATOM     70  O   UNL A   1      37.667  34.302  29.342  1.00  0.00    -0.237 OA
ATOM     71  O   UNL A   1      36.240  32.694  28.138  1.00  0.00    -0.744 OA
ENDBRANCH  64  68
ENDBRANCH  47  61
BRANCH  48  72
ATOM     72  C   UNL A   1      45.361  24.842  32.026  1.00  0.00     0.023 A 
ATOM     73  C   UNL A   1      44.504  24.350  33.028  1.00  0.00     0.031 A 
ATOM     74  C   UNL A   1      46.629  25.302  32.418  1.00  0.00     0.131 A 
ATOM     75  C   UNL A   1      44.899  24.391  34.373  1.00  0.00     0.055 A 
ATOM     76  C   UNL A   1      47.027  25.324  33.758  1.00  0.00     0.041 A 
ATOM     77  F   UNL A   1      47.481  25.805  31.511  1.00  0.00    -0.206 F 
ATOM     78  C   UNL A   1      46.151  24.884  34.746  1.00  0.00     0.022 A 
BRANCH  75  79
ATOM     79  S   UNL A   1      43.755  23.882  35.687  1.00  0.00     0.124 S 
ATOM     80  O   UNL A   1      44.505  22.816  36.349  1.00  0.00    -0.237 OA
ATOM     81  O   UNL A   1      43.615  25.117  36.449  1.00  0.00    -0.237 OA
ATOM     82  O   UNL A   1      42.574  23.439  34.954  1.00  0.00    -0.744 OA
ENDBRANCH  75  79
ENDBRANCH  48  72
BRANCH  60  83
ATOM     83  C   UNL A   1      45.233  27.357  26.137  1.00  0.00     0.023 A 
ATOM     84  C   UNL A   1      44.934  25.997  25.931  1.00  0.00     0.031 A 
ATOM     85  C   UNL A   1      46.314  27.903  25.425  1.00  0.00     0.131 A 
ATOM     86  C   UNL A   1      45.725  25.217  25.082  1.00  0.00     0.055 A 
ATOM     87  C   UNL A   1      47.060  27.136  24.522  1.00  0.00     0.041 A 
ATOM     88  F   UNL A   1      46.718  29.166  25.625  1.00  0.00    -0.206 F 
ATOM     89  C   UNL A   1      46.778  25.781  24.361  1.00  0.00     0.022 A 
BRANCH  86  90
ATOM     90  S   UNL A   1      45.490  23.421  25.015  1.00  0.00     0.124 S 
ATOM     91  O   UNL A   1      44.189  23.255  25.658  1.00  0.00    -0.237 OA
ATOM     92  O   UNL A   1      45.516  23.159  23.577  1.00  0.00    -0.237 OA
ATOM     93  O   UNL A   1      46.627  22.887  25.758  1.00  0.00    -0.744 OA
ENDBRANCH  86  90
ENDBRANCH  60  83
ENDBRANCH  34  35
ENDBRANCH  27  29
ENDBRANCH  26  27
ENDBRANCH  25  26
ENDBRANCH   1  25
TORSDOF 20
ENDMDL
