MODEL 1
REMARK VINA RESULT:     -11.5      0.000      0.000
REMARK SMILES COc1cccc(NC(=O)c2nccnc2C(=O)OCCOC(=O)c2ccc(-c3c4nc(c(-c5cc(S(=O)(=O)[O-])ccc5F)c5ccc([nH]5)c(-c5cc(S(=O)(=O)[O-])ccc5F)c5nc(c(-c6cc(S(=O)(=O)[O-])ccc6F)c6ccc3[nH]6)C=C5)C=C4)cc2)c1
REMARK SMILES IDX 20 1 19 2 17 3 18 4 16 5 11 6 12 7 13 8 15 9 14 10 9 11 8 12
REMARK SMILES IDX 10 14 7 15 3 16 4 17 88 18 5 19 6 20 2 21 1 22 21 23 22 24
REMARK SMILES IDX 23 25 24 26 25 27 26 28 87 29 27 30 86 31 28 32 29 33 30 34
REMARK SMILES IDX 80 35 31 36 85 37 79 38 81 39 32 40 84 41 78 42 77 43 33 45
REMARK SMILES IDX 65 46 45 47 64 48 46 49 49 50 63 51 82 52 47 53 48 54 62 56
REMARK SMILES IDX 83 57 50 58 34 59 35 60 43 61 36 62 42 63 44 64 41 65 37 66
REMARK SMILES IDX 38 67 39 68 40 69 66 70 67 71 75 72 68 73 74 74 76 75 73 76
REMARK SMILES IDX 69 77 70 78 71 79 72 80 51 81 52 82 60 83 53 84 59 85 61 86
REMARK SMILES IDX 58 87 54 88 55 89 56 90 57 91
REMARK H PARENT 8 13 81 44 49 55
REMARK Flexibility Score: inf
ROOT
ATOM      1  C   UNL A   1      31.784  28.820  27.002  1.00  0.00     0.275 C 
ENDROOT
BRANCH   1   2
ATOM      2  O   UNL A   1      31.746  28.166  25.718  1.00  0.00    -0.457 OA
BRANCH   2   3
ATOM      3  C   UNL A   1      32.640  27.159  25.536  1.00  0.00     0.359 C 
ATOM      4  O   UNL A   1      33.787  27.150  25.949  1.00  0.00    -0.244 OA
BRANCH   3   5
ATOM      5  C   UNL A   1      32.021  25.987  24.858  1.00  0.00     0.179 A 
ATOM      6  C   UNL A   1      31.962  25.804  23.485  1.00  0.00     0.161 A 
ATOM      7  N   UNL A   1      31.449  24.657  22.930  1.00  0.00    -0.247 NA
ATOM      8  C   UNL A   1      30.931  23.754  23.792  1.00  0.00     0.132 A 
ATOM      9  N   UNL A   1      31.510  25.046  25.717  1.00  0.00    -0.245 NA
ATOM     10  C   UNL A   1      30.953  23.949  25.157  1.00  0.00     0.132 A 
BRANCH   6  11
ATOM     11  C   UNL A   1      32.533  26.771  22.523  1.00  0.00     0.276 C 
ATOM     12  N   UNL A   1      31.792  27.818  22.006  1.00  0.00    -0.320 N 
ATOM     13  H   UNL A   1      32.232  28.281  21.257  1.00  0.00     0.170 HD
ATOM     14  O   UNL A   1      33.670  26.577  22.085  1.00  0.00    -0.267 OA
BRANCH  12  15
ATOM     15  C   UNL A   1      30.529  28.355  22.339  1.00  0.00     0.045 A 
ATOM     16  C   UNL A   1      29.077  30.315  22.249  1.00  0.00     0.120 A 
ATOM     17  C   UNL A   1      28.047  29.571  22.821  1.00  0.00     0.046 A 
ATOM     18  C   UNL A   1      30.315  29.706  22.018  1.00  0.00     0.072 A 
ATOM     19  C   UNL A   1      28.261  28.246  23.190  1.00  0.00     0.006 A 
ATOM     20  C   UNL A   1      29.505  27.648  22.972  1.00  0.00     0.026 A 
BRANCH  16  21
ATOM     21  O   UNL A   1      28.750  31.612  21.963  1.00  0.00    -0.497 OA
ATOM     22  C   UNL A   1      28.030  31.847  20.762  1.00  0.00     0.278 C 
ENDBRANCH  16  21
ENDBRANCH  12  15
ENDBRANCH   6  11
ENDBRANCH   3   5
ENDBRANCH   2   3
ENDBRANCH   1   2
BRANCH   1  23
ATOM     23  C   UNL A   1      31.730  30.342  26.847  1.00  0.00     0.275 C 
BRANCH  23  24
ATOM     24  O   UNL A   1      33.001  30.884  26.442  1.00  0.00    -0.458 OA
BRANCH  24  25
ATOM     25  C   UNL A   1      33.472  31.864  27.250  1.00  0.00     0.338 C 
ATOM     26  O   UNL A   1      32.877  32.871  27.606  1.00  0.00    -0.246 OA
BRANCH  25  27
ATOM     27  C   UNL A   1      34.787  31.491  27.796  1.00  0.00     0.060 A 
ATOM     28  C   UNL A   1      34.969  30.151  28.138  1.00  0.00     0.016 A 
ATOM     29  C   UNL A   1      35.787  32.429  28.057  1.00  0.00     0.016 A 
ATOM     30  C   UNL A   1      36.141  29.740  28.759  1.00  0.00     0.010 A 
ATOM     31  C   UNL A   1      36.973  32.013  28.682  1.00  0.00     0.010 A 
ATOM     32  C   UNL A   1      37.151  30.667  29.051  1.00  0.00    -0.014 A 
BRANCH  32  33
ATOM     33  C   UNL A   1      38.346  30.207  29.805  1.00  0.00     0.031 A 
ATOM     34  C   UNL A   1      38.568  30.673  31.219  1.00  0.00     0.074 A 
ATOM     35  C   UNL A   1      39.174  29.295  29.257  1.00  0.00     0.049 A 
ATOM     36  N   UNL A   1      39.540  30.383  32.045  1.00  0.00    -0.248 NA
ATOM     37  C   UNL A   1      37.556  31.583  31.777  1.00  0.00     0.031 C 
ATOM     38  C   UNL A   1      39.025  28.722  27.919  1.00  0.00     0.029 A 
ATOM     39  N   UNL A   1      40.289  28.674  29.762  1.00  0.00    -0.354 N 
ATOM     40  C   UNL A   1      39.263  31.074  33.219  1.00  0.00     0.074 A 
ATOM     41  C   UNL A   1      38.047  31.825  32.984  1.00  0.00     0.031 C 
ATOM     42  C   UNL A   1      39.996  27.815  27.720  1.00  0.00     0.029 A 
ATOM     43  C   UNL A   1      40.867  27.779  28.891  1.00  0.00     0.049 A 
ATOM     44  H   UNL A   1      40.642  28.853  30.664  1.00  0.00     0.167 HD
ATOM     45  C   UNL A   1      39.952  31.074  34.388  1.00  0.00     0.034 A 
ATOM     46  C   UNL A   1      41.983  27.033  29.014  1.00  0.00     0.034 A 
ATOM     47  C   UNL A   1      41.164  30.323  34.611  1.00  0.00     0.049 A 
ATOM     48  C   UNL A   1      42.775  27.118  30.297  1.00  0.00     0.074 A 
ATOM     49  C   UNL A   1      41.960  30.280  35.743  1.00  0.00     0.029 A 
ATOM     50  N   UNL A   1      41.757  29.477  33.681  1.00  0.00    -0.354 N 
ATOM     51  N   UNL A   1      42.521  27.810  31.383  1.00  0.00    -0.248 NA
ATOM     52  C   UNL A   1      44.005  26.317  30.367  1.00  0.00     0.031 C 
ATOM     53  C   UNL A   1      43.058  29.452  35.481  1.00  0.00     0.029 A 
ATOM     54  C   UNL A   1      42.914  28.924  34.209  1.00  0.00     0.049 A 
ATOM     55  H   UNL A   1      41.407  29.296  32.779  1.00  0.00     0.167 HD
ATOM     56  C   UNL A   1      43.547  27.506  32.274  1.00  0.00     0.074 A 
ATOM     57  C   UNL A   1      44.405  26.549  31.608  1.00  0.00     0.031 C 
ATOM     58  C   UNL A   1      43.764  27.976  33.529  1.00  0.00     0.034 A 
BRANCH  45  59
ATOM     59  C   UNL A   1      39.431  31.952  35.498  1.00  0.00     0.023 A 
ATOM     60  C   UNL A   1      39.859  33.283  35.651  1.00  0.00     0.031 A 
ATOM     61  C   UNL A   1      38.502  31.448  36.426  1.00  0.00     0.131 A 
ATOM     62  C   UNL A   1      39.403  34.044  36.739  1.00  0.00     0.055 A 
ATOM     63  C   UNL A   1      37.999  32.232  37.466  1.00  0.00     0.041 A 
ATOM     64  F   UNL A   1      38.074  30.178  36.341  1.00  0.00    -0.206 F 
ATOM     65  C   UNL A   1      38.458  33.535  37.633  1.00  0.00     0.022 A 
BRANCH  62  66
ATOM     66  S   UNL A   1      40.149  35.670  37.036  1.00  0.00     0.124 S 
ATOM     67  O   UNL A   1      41.573  35.349  37.020  1.00  0.00    -0.237 OA
ATOM     68  O   UNL A   1      39.658  36.454  35.908  1.00  0.00    -0.237 OA
ATOM     69  O   UNL A   1      39.618  36.058  38.341  1.00  0.00    -0.744 OA
ENDBRANCH  62  66
ENDBRANCH  45  59
BRANCH  46  70
ATOM     70  C   UNL A   1      42.458  26.174  27.889  1.00  0.00     0.023 A 
ATOM     71  C   UNL A   1      41.922  24.894  27.677  1.00  0.00     0.031 A 
ATOM     72  C   UNL A   1      43.517  26.591  27.063  1.00  0.00     0.131 A 
ATOM     73  C   UNL A   1      42.486  24.052  26.704  1.00  0.00     0.055 A 
ATOM     74  C   UNL A   1      44.031  25.774  26.055  1.00  0.00     0.041 A 
ATOM     75  F   UNL A   1      44.071  27.802  27.226  1.00  0.00    -0.206 F 
ATOM     76  C   UNL A   1      43.528  24.489  25.883  1.00  0.00     0.022 A 
BRANCH  73  77
ATOM     77  S   UNL A   1      41.917  22.332  26.609  1.00  0.00     0.124 S 
ATOM     78  O   UNL A   1      42.471  21.767  27.835  1.00  0.00    -0.237 OA
ATOM     79  O   UNL A   1      40.468  22.495  26.575  1.00  0.00    -0.237 OA
ATOM     80  O   UNL A   1      42.519  21.843  25.370  1.00  0.00    -0.744 OA
ENDBRANCH  73  77
ENDBRANCH  46  70
BRANCH  58  81
ATOM     81  C   UNL A   1      44.956  27.417  34.266  1.00  0.00     0.023 A 
ATOM     82  C   UNL A   1      44.867  26.231  35.019  1.00  0.00     0.031 A 
ATOM     83  C   UNL A   1      46.184  28.099  34.247  1.00  0.00     0.131 A 
ATOM     84  C   UNL A   1      45.967  25.800  35.775  1.00  0.00     0.055 A 
ATOM     85  C   UNL A   1      47.294  27.632  34.955  1.00  0.00     0.041 A 
ATOM     86  F   UNL A   1      46.324  29.234  33.545  1.00  0.00    -0.206 F 
ATOM     87  C   UNL A   1      47.183  26.487  35.737  1.00  0.00     0.022 A 
BRANCH  84  88
ATOM     88  S   UNL A   1      45.755  24.387  36.892  1.00  0.00     0.124 S 
ATOM     89  O   UNL A   1      46.769  23.458  36.404  1.00  0.00    -0.237 OA
ATOM     90  O   UNL A   1      46.014  24.982  38.200  1.00  0.00    -0.237 OA
ATOM     91  O   UNL A   1      44.373  23.973  36.663  1.00  0.00    -0.744 OA
ENDBRANCH  84  88
ENDBRANCH  58  81
ENDBRANCH  32  33
ENDBRANCH  25  27
ENDBRANCH  24  25
ENDBRANCH  23  24
ENDBRANCH   1  23
TORSDOF 17
ENDMDL
MODEL 2
REMARK VINA RESULT:     -11.4      1.383      7.690
REMARK SMILES COc1cccc(NC(=O)c2nccnc2C(=O)OCCOC(=O)c2ccc(-c3c4nc(c(-c5cc(S(=O)(=O)[O-])ccc5F)c5ccc([nH]5)c(-c5cc(S(=O)(=O)[O-])ccc5F)c5nc(c(-c6cc(S(=O)(=O)[O-])ccc6F)c6ccc3[nH]6)C=C5)C=C4)cc2)c1
REMARK SMILES IDX 20 1 19 2 17 3 18 4 16 5 11 6 12 7 13 8 15 9 14 10 9 11 8 12
REMARK SMILES IDX 10 14 7 15 3 16 4 17 88 18 5 19 6 20 2 21 1 22 21 23 22 24
REMARK SMILES IDX 23 25 24 26 25 27 26 28 87 29 27 30 86 31 28 32 29 33 30 34
REMARK SMILES IDX 80 35 31 36 85 37 79 38 81 39 32 40 84 41 78 42 77 43 33 45
REMARK SMILES IDX 65 46 45 47 64 48 46 49 49 50 63 51 82 52 47 53 48 54 62 56
REMARK SMILES IDX 83 57 50 58 34 59 35 60 43 61 36 62 42 63 44 64 41 65 37 66
REMARK SMILES IDX 38 67 39 68 40 69 66 70 67 71 75 72 68 73 74 74 76 75 73 76
REMARK SMILES IDX 69 77 70 78 71 79 72 80 51 81 52 82 60 83 53 84 59 85 61 86
REMARK SMILES IDX 58 87 54 88 55 89 56 90 57 91
REMARK H PARENT 8 13 81 44 49 55
REMARK Flexibility Score: inf
ROOT
ATOM      1  C   UNL A   1      31.824  28.956  27.198  1.00  0.00     0.275 C 
ENDROOT
BRANCH   1   2
ATOM      2  O   UNL A   1      31.668  28.100  26.049  1.00  0.00    -0.457 OA
BRANCH   2   3
ATOM      3  C   UNL A   1      32.790  27.461  25.627  1.00  0.00     0.359 C 
ATOM      4  O   UNL A   1      33.878  27.507  26.177  1.00  0.00    -0.244 OA
BRANCH   3   5
ATOM      5  C   UNL A   1      32.518  26.583  24.456  1.00  0.00     0.179 A 
ATOM      6  C   UNL A   1      32.511  27.002  23.134  1.00  0.00     0.161 A 
ATOM      7  N   UNL A   1      32.334  26.120  22.097  1.00  0.00    -0.247 NA
ATOM      8  C   UNL A   1      32.085  24.835  22.439  1.00  0.00     0.132 A 
ATOM      9  N   UNL A   1      32.286  25.269  24.780  1.00  0.00    -0.245 NA
ATOM     10  C   UNL A   1      32.053  24.421  23.754  1.00  0.00     0.132 A 
BRANCH   6  11
ATOM     11  C   UNL A   1      32.793  28.398  22.735  1.00  0.00     0.276 C 
ATOM     12  N   UNL A   1      31.787  29.277  22.379  1.00  0.00    -0.320 N 
ATOM     13  H   UNL A   1      32.118  30.113  21.977  1.00  0.00     0.170 HD
ATOM     14  O   UNL A   1      33.967  28.758  22.612  1.00  0.00    -0.267 OA
BRANCH  12  15
ATOM     15  C   UNL A   1      30.380  29.216  22.478  1.00  0.00     0.045 A 
ATOM     16  C   UNL A   1      28.260  30.243  21.837  1.00  0.00     0.120 A 
ATOM     17  C   UNL A   1      27.575  29.208  22.470  1.00  0.00     0.046 A 
ATOM     18  C   UNL A   1      29.659  30.247  21.851  1.00  0.00     0.072 A 
ATOM     19  C   UNL A   1      28.275  28.208  23.137  1.00  0.00     0.006 A 
ATOM     20  C   UNL A   1      29.672  28.226  23.161  1.00  0.00     0.026 A 
BRANCH  16  21
ATOM     21  O   UNL A   1      27.458  31.180  21.246  1.00  0.00    -0.497 OA
ATOM     22  C   UNL A   1      28.102  32.236  20.550  1.00  0.00     0.278 C 
ENDBRANCH  16  21
ENDBRANCH  12  15
ENDBRANCH   6  11
ENDBRANCH   3   5
ENDBRANCH   2   3
ENDBRANCH   1   2
BRANCH   1  23
ATOM     23  C   UNL A   1      31.912  30.427  26.782  1.00  0.00     0.275 C 
BRANCH  23  24
ATOM     24  O   UNL A   1      33.270  30.826  26.514  1.00  0.00    -0.458 OA
BRANCH  24  25
ATOM     25  C   UNL A   1      33.742  31.789  27.341  1.00  0.00     0.338 C 
ATOM     26  O   UNL A   1      33.157  32.802  27.697  1.00  0.00    -0.246 OA
BRANCH  25  27
ATOM     27  C   UNL A   1      35.040  31.389  27.907  1.00  0.00     0.060 A 
ATOM     28  C   UNL A   1      35.151  30.072  28.356  1.00  0.00     0.016 A 
ATOM     29  C   UNL A   1      36.093  32.287  28.085  1.00  0.00     0.016 A 
ATOM     30  C   UNL A   1      36.306  29.648  29.002  1.00  0.00     0.010 A 
ATOM     31  C   UNL A   1      37.261  31.857  28.734  1.00  0.00     0.010 A 
ATOM     32  C   UNL A   1      37.368  30.538  29.211  1.00  0.00    -0.014 A 
BRANCH  32  33
ATOM     33  C   UNL A   1      38.544  30.074  29.992  1.00  0.00     0.031 A 
ATOM     34  C   UNL A   1      39.505  29.087  29.386  1.00  0.00     0.074 A 
ATOM     35  C   UNL A   1      38.802  30.613  31.201  1.00  0.00     0.049 A 
ATOM     36  N   UNL A   1      40.590  28.565  29.899  1.00  0.00    -0.248 NA
ATOM     37  C   UNL A   1      39.207  28.632  28.020  1.00  0.00     0.031 C 
ATOM     38  C   UNL A   1      37.977  31.625  31.862  1.00  0.00     0.029 A 
ATOM     39  N   UNL A   1      39.838  30.404  32.076  1.00  0.00    -0.354 N 
ATOM     40  C   UNL A   1      41.105  27.718  28.923  1.00  0.00     0.074 A 
ATOM     41  C   UNL A   1      40.191  27.772  27.800  1.00  0.00     0.031 C 
ATOM     42  C   UNL A   1      38.553  31.967  33.026  1.00  0.00     0.029 A 
ATOM     43  C   UNL A   1      39.757  31.164  33.221  1.00  0.00     0.049 A 
ATOM     44  H   UNL A   1      40.571  29.770  31.901  1.00  0.00     0.167 HD
ATOM     45  C   UNL A   1      42.238  26.973  28.955  1.00  0.00     0.034 A 
ATOM     46  C   UNL A   1      40.549  31.193  34.310  1.00  0.00     0.034 A 
ATOM     47  C   UNL A   1      43.140  26.925  30.081  1.00  0.00     0.049 A 
ATOM     48  C   UNL A   1      41.759  30.290  34.353  1.00  0.00     0.074 A 
ATOM     49  C   UNL A   1      44.295  26.177  30.233  1.00  0.00     0.029 A 
ATOM     50  N   UNL A   1      42.991  27.659  31.252  1.00  0.00    -0.354 N 
ATOM     51  N   UNL A   1      42.208  29.463  33.437  1.00  0.00    -0.248 NA
ATOM     52  C   UNL A   1      42.569  30.328  35.578  1.00  0.00     0.031 C 
ATOM     53  C   UNL A   1      44.814  26.418  31.510  1.00  0.00     0.029 A 
ATOM     54  C   UNL A   1      44.021  27.368  32.133  1.00  0.00     0.049 A 
ATOM     55  H   UNL A   1      42.259  28.293  31.431  1.00  0.00     0.167 HD
ATOM     56  C   UNL A   1      43.367  28.904  33.968  1.00  0.00     0.074 A 
ATOM     57  C   UNL A   1      43.561  29.508  35.269  1.00  0.00     0.031 C 
ATOM     58  C   UNL A   1      44.196  27.973  33.431  1.00  0.00     0.034 A 
BRANCH  45  59
ATOM     59  C   UNL A   1      42.536  26.114  27.752  1.00  0.00     0.023 A 
ATOM     60  C   UNL A   1      42.026  24.810  27.630  1.00  0.00     0.031 A 
ATOM     61  C   UNL A   1      43.355  26.601  26.718  1.00  0.00     0.131 A 
ATOM     62  C   UNL A   1      42.385  24.018  26.527  1.00  0.00     0.055 A 
ATOM     63  C   UNL A   1      43.652  25.834  25.589  1.00  0.00     0.041 A 
ATOM     64  F   UNL A   1      43.887  27.832  26.791  1.00  0.00    -0.206 F 
ATOM     65  C   UNL A   1      43.175  24.530  25.495  1.00  0.00     0.022 A 
BRANCH  62  66
ATOM     66  S   UNL A   1      41.899  22.271  26.516  1.00  0.00     0.124 S 
ATOM     67  O   UNL A   1      42.398  21.835  25.214  1.00  0.00    -0.237 OA
ATOM     68  O   UNL A   1      42.599  21.740  27.680  1.00  0.00    -0.237 OA
ATOM     69  O   UNL A   1      40.443  22.320  26.633  1.00  0.00    -0.744 OA
ENDBRANCH  62  66
ENDBRANCH  45  59
BRANCH  46  70
ATOM     70  C   UNL A   1      40.216  32.063  35.477  1.00  0.00     0.023 A 
ATOM     71  C   UNL A   1      39.221  31.697  36.396  1.00  0.00     0.031 A 
ATOM     72  C   UNL A   1      40.833  33.317  35.639  1.00  0.00     0.131 A 
ATOM     73  C   UNL A   1      38.828  32.599  37.399  1.00  0.00     0.055 A 
ATOM     74  C   UNL A   1      40.483  34.183  36.675  1.00  0.00     0.041 A 
ATOM     75  F   UNL A   1      41.787  33.722  34.785  1.00  0.00    -0.206 F 
ATOM     76  C   UNL A   1      39.462  33.833  37.553  1.00  0.00     0.022 A 
BRANCH  73  77
ATOM     77  S   UNL A   1      37.391  32.183  38.425  1.00  0.00     0.124 S 
ATOM     78  O   UNL A   1      37.824  32.637  39.742  1.00  0.00    -0.237 OA
ATOM     79  O   UNL A   1      36.333  32.964  37.794  1.00  0.00    -0.237 OA
ATOM     80  O   UNL A   1      37.272  30.735  38.272  1.00  0.00    -0.744 OA
ENDBRANCH  73  77
ENDBRANCH  46  70
BRANCH  58  81
ATOM     81  C   UNL A   1      45.410  27.595  34.246  1.00  0.00     0.023 A 
ATOM     82  C   UNL A   1      45.380  26.528  35.162  1.00  0.00     0.031 A 
ATOM     83  C   UNL A   1      46.598  28.337  34.131  1.00  0.00     0.131 A 
ATOM     84  C   UNL A   1      46.494  26.275  35.976  1.00  0.00     0.055 A 
ATOM     85  C   UNL A   1      47.724  28.043  34.903  1.00  0.00     0.041 A 
ATOM     86  F   UNL A   1      46.681  29.365  33.273  1.00  0.00    -0.206 F 
ATOM     87  C   UNL A   1      47.670  27.018  35.843  1.00  0.00     0.022 A 
BRANCH  84  88
ATOM     88  S   UNL A   1      46.350  25.028  37.286  1.00  0.00     0.124 S 
ATOM     89  O   UNL A   1      47.642  24.354  37.208  1.00  0.00    -0.237 OA
ATOM     90  O   UNL A   1      46.130  25.848  38.473  1.00  0.00    -0.237 OA
ATOM     91  O   UNL A   1      45.204  24.223  36.868  1.00  0.00    -0.744 OA
ENDBRANCH  84  88
ENDBRANCH  58  81
ENDBRANCH  32  33
ENDBRANCH  25  27
ENDBRANCH  24  25
ENDBRANCH  23  24
ENDBRANCH   1  23
TORSDOF 17
ENDMDL
MODEL 3
REMARK VINA RESULT:     -11.2      1.679      3.368
REMARK SMILES COc1cccc(NC(=O)c2nccnc2C(=O)OCCOC(=O)c2ccc(-c3c4nc(c(-c5cc(S(=O)(=O)[O-])ccc5F)c5ccc([nH]5)c(-c5cc(S(=O)(=O)[O-])ccc5F)c5nc(c(-c6cc(S(=O)(=O)[O-])ccc6F)c6ccc3[nH]6)C=C5)C=C4)cc2)c1
REMARK SMILES IDX 20 1 19 2 17 3 18 4 16 5 11 6 12 7 13 8 15 9 14 10 9 11 8 12
REMARK SMILES IDX 10 14 7 15 3 16 4 17 88 18 5 19 6 20 2 21 1 22 21 23 22 24
REMARK SMILES IDX 23 25 24 26 25 27 26 28 87 29 27 30 86 31 28 32 29 33 30 34
REMARK SMILES IDX 80 35 31 36 85 37 79 38 81 39 32 40 84 41 78 42 77 43 33 45
REMARK SMILES IDX 65 46 45 47 64 48 46 49 49 50 63 51 82 52 47 53 48 54 62 56
REMARK SMILES IDX 83 57 50 58 34 59 35 60 43 61 36 62 42 63 44 64 41 65 37 66
REMARK SMILES IDX 38 67 39 68 40 69 66 70 67 71 75 72 68 73 74 74 76 75 73 76
REMARK SMILES IDX 69 77 70 78 71 79 72 80 51 81 52 82 60 83 53 84 59 85 61 86
REMARK SMILES IDX 58 87 54 88 55 89 56 90 57 91
REMARK H PARENT 8 13 81 44 49 55
REMARK Flexibility Score: inf
ROOT
ATOM      1  C   UNL A   1      31.782  28.738  26.657  1.00  0.00     0.275 C 
ENDROOT
BRANCH   1   2
ATOM      2  O   UNL A   1      32.706  28.434  25.593  1.00  0.00    -0.457 OA
BRANCH   2   3
ATOM      3  C   UNL A   1      33.111  27.140  25.508  1.00  0.00     0.359 C 
ATOM      4  O   UNL A   1      33.633  26.504  26.407  1.00  0.00    -0.244 OA
BRANCH   3   5
ATOM      5  C   UNL A   1      32.739  26.530  24.202  1.00  0.00     0.179 A 
ATOM      6  C   UNL A   1      31.702  25.630  24.012  1.00  0.00     0.161 A 
ATOM      7  N   UNL A   1      31.362  25.170  22.764  1.00  0.00    -0.247 NA
ATOM      8  C   UNL A   1      32.146  25.580  21.741  1.00  0.00     0.132 A 
ATOM      9  N   UNL A   1      33.509  26.951  23.146  1.00  0.00    -0.245 NA
ATOM     10  C   UNL A   1      33.203  26.445  21.930  1.00  0.00     0.132 A 
BRANCH   6  11
ATOM     11  C   UNL A   1      30.823  25.178  25.113  1.00  0.00     0.276 C 
ATOM     12  N   UNL A   1      30.963  23.935  25.702  1.00  0.00    -0.320 N 
ATOM     13  H   UNL A   1      30.217  23.694  26.298  1.00  0.00     0.170 HD
ATOM     14  O   UNL A   1      29.868  25.887  25.443  1.00  0.00    -0.267 OA
BRANCH  12  15
ATOM     15  C   UNL A   1      31.963  22.941  25.618  1.00  0.00     0.045 A 
ATOM     16  C   UNL A   1      32.455  20.605  25.112  1.00  0.00     0.120 A 
ATOM     17  C   UNL A   1      33.813  20.858  25.295  1.00  0.00     0.046 A 
ATOM     18  C   UNL A   1      31.536  21.645  25.282  1.00  0.00     0.072 A 
ATOM     19  C   UNL A   1      34.245  22.125  25.677  1.00  0.00     0.006 A 
ATOM     20  C   UNL A   1      33.321  23.155  25.861  1.00  0.00     0.026 A 
BRANCH  16  21
ATOM     21  O   UNL A   1      32.158  19.314  24.770  1.00  0.00    -0.497 OA
ATOM     22  C   UNL A   1      32.684  18.289  25.599  1.00  0.00     0.278 C 
ENDBRANCH  16  21
ENDBRANCH  12  15
ENDBRANCH   6  11
ENDBRANCH   3   5
ENDBRANCH   2   3
ENDBRANCH   1   2
BRANCH   1  23
ATOM     23  C   UNL A   1      31.736  30.242  26.935  1.00  0.00     0.275 C 
BRANCH  23  24
ATOM     24  O   UNL A   1      32.898  30.917  26.417  1.00  0.00    -0.458 OA
BRANCH  24  25
ATOM     25  C   UNL A   1      33.360  31.917  27.207  1.00  0.00     0.338 C 
ATOM     26  O   UNL A   1      32.759  32.929  27.537  1.00  0.00    -0.246 OA
BRANCH  25  27
ATOM     27  C   UNL A   1      34.672  31.560  27.771  1.00  0.00     0.060 A 
ATOM     28  C   UNL A   1      34.925  30.202  27.964  1.00  0.00     0.016 A 
ATOM     29  C   UNL A   1      35.598  32.519  28.188  1.00  0.00     0.016 A 
ATOM     30  C   UNL A   1      36.095  29.790  28.591  1.00  0.00     0.010 A 
ATOM     31  C   UNL A   1      36.780  32.102  28.818  1.00  0.00     0.010 A 
ATOM     32  C   UNL A   1      37.029  30.735  29.038  1.00  0.00    -0.014 A 
BRANCH  32  33
ATOM     33  C   UNL A   1      38.219  30.260  29.792  1.00  0.00     0.031 A 
ATOM     34  C   UNL A   1      38.445  30.722  31.206  1.00  0.00     0.074 A 
ATOM     35  C   UNL A   1      39.037  29.340  29.243  1.00  0.00     0.049 A 
ATOM     36  N   UNL A   1      39.413  30.420  32.032  1.00  0.00    -0.248 NA
ATOM     37  C   UNL A   1      37.444  31.643  31.765  1.00  0.00     0.031 C 
ATOM     38  C   UNL A   1      38.881  28.769  27.904  1.00  0.00     0.029 A 
ATOM     39  N   UNL A   1      40.144  28.705  29.748  1.00  0.00    -0.354 N 
ATOM     40  C   UNL A   1      39.144  31.113  33.208  1.00  0.00     0.074 A 
ATOM     41  C   UNL A   1      37.937  31.879  32.973  1.00  0.00     0.031 C 
ATOM     42  C   UNL A   1      39.841  27.852  27.705  1.00  0.00     0.029 A 
ATOM     43  C   UNL A   1      40.712  27.805  28.876  1.00  0.00     0.049 A 
ATOM     44  H   UNL A   1      40.499  28.879  30.650  1.00  0.00     0.167 HD
ATOM     45  C   UNL A   1      39.832  31.104  34.377  1.00  0.00     0.034 A 
ATOM     46  C   UNL A   1      41.819  27.046  28.999  1.00  0.00     0.034 A 
ATOM     47  C   UNL A   1      41.036  30.339  34.599  1.00  0.00     0.049 A 
ATOM     48  C   UNL A   1      42.612  27.120  30.282  1.00  0.00     0.074 A 
ATOM     49  C   UNL A   1      41.831  30.286  35.731  1.00  0.00     0.029 A 
ATOM     50  N   UNL A   1      41.620  29.487  33.668  1.00  0.00    -0.354 N 
ATOM     51  N   UNL A   1      42.365  27.814  31.369  1.00  0.00    -0.248 NA
ATOM     52  C   UNL A   1      43.832  26.305  30.352  1.00  0.00     0.031 C 
ATOM     53  C   UNL A   1      42.919  29.446  35.469  1.00  0.00     0.029 A 
ATOM     54  C   UNL A   1      42.770  28.920  34.196  1.00  0.00     0.049 A 
ATOM     55  H   UNL A   1      41.268  29.311  32.766  1.00  0.00     0.167 HD
ATOM     56  C   UNL A   1      43.387  27.497  32.260  1.00  0.00     0.074 A 
ATOM     57  C   UNL A   1      44.234  26.531  31.593  1.00  0.00     0.031 C 
ATOM     58  C   UNL A   1      43.609  27.964  33.515  1.00  0.00     0.034 A 
BRANCH  45  59
ATOM     59  C   UNL A   1      39.321  31.987  35.487  1.00  0.00     0.023 A 
ATOM     60  C   UNL A   1      39.735  33.324  35.619  1.00  0.00     0.031 A 
ATOM     61  C   UNL A   1      38.416  31.480  36.437  1.00  0.00     0.131 A 
ATOM     62  C   UNL A   1      39.290  34.090  36.708  1.00  0.00     0.055 A 
ATOM     63  C   UNL A   1      37.922  32.269  37.479  1.00  0.00     0.041 A 
ATOM     64  F   UNL A   1      38.002  30.205  36.373  1.00  0.00    -0.206 F 
ATOM     65  C   UNL A   1      38.368  33.579  37.625  1.00  0.00     0.022 A 
BRANCH  62  66
ATOM     66  S   UNL A   1      40.021  35.729  36.975  1.00  0.00     0.124 S 
ATOM     67  O   UNL A   1      41.436  35.400  37.122  1.00  0.00    -0.237 OA
ATOM     68  O   UNL A   1      39.653  36.441  35.756  1.00  0.00    -0.237 OA
ATOM     69  O   UNL A   1      39.367  36.201  38.193  1.00  0.00    -0.744 OA
ENDBRANCH  62  66
ENDBRANCH  45  59
BRANCH  46  70
ATOM     70  C   UNL A   1      42.285  26.183  27.873  1.00  0.00     0.023 A 
ATOM     71  C   UNL A   1      41.799  24.875  27.712  1.00  0.00     0.031 A 
ATOM     72  C   UNL A   1      43.288  26.626  26.993  1.00  0.00     0.131 A 
ATOM     73  C   UNL A   1      42.359  24.037  26.734  1.00  0.00     0.055 A 
ATOM     74  C   UNL A   1      43.796  25.810  25.982  1.00  0.00     0.041 A 
ATOM     75  F   UNL A   1      43.793  27.865  27.107  1.00  0.00    -0.206 F 
ATOM     76  C   UNL A   1      43.344  24.500  25.859  1.00  0.00     0.022 A 
BRANCH  73  77
ATOM     77  S   UNL A   1      41.866  22.292  26.701  1.00  0.00     0.124 S 
ATOM     78  O   UNL A   1      42.650  21.739  27.799  1.00  0.00    -0.237 OA
ATOM     79  O   UNL A   1      40.426  22.381  26.921  1.00  0.00    -0.237 OA
ATOM     80  O   UNL A   1      42.264  21.851  25.365  1.00  0.00    -0.744 OA
ENDBRANCH  73  77
ENDBRANCH  46  70
BRANCH  58  81
ATOM     81  C   UNL A   1      44.794  27.390  34.253  1.00  0.00     0.023 A 
ATOM     82  C   UNL A   1      44.689  26.211  35.014  1.00  0.00     0.031 A 
ATOM     83  C   UNL A   1      46.034  28.051  34.224  1.00  0.00     0.131 A 
ATOM     84  C   UNL A   1      45.784  25.768  35.769  1.00  0.00     0.055 A 
ATOM     85  C   UNL A   1      47.138  27.572  34.932  1.00  0.00     0.041 A 
ATOM     86  F   UNL A   1      46.190  29.179  33.514  1.00  0.00    -0.206 F 
ATOM     87  C   UNL A   1      47.011  26.434  35.723  1.00  0.00     0.022 A 
BRANCH  84  88
ATOM     88  S   UNL A   1      45.553  24.366  36.897  1.00  0.00     0.124 S 
ATOM     89  O   UNL A   1      44.867  23.399  36.046  1.00  0.00    -0.237 OA
ATOM     90  O   UNL A   1      46.926  24.030  37.262  1.00  0.00    -0.237 OA
ATOM     91  O   UNL A   1      44.744  24.924  37.978  1.00  0.00    -0.744 OA
ENDBRANCH  84  88
ENDBRANCH  58  81
ENDBRANCH  32  33
ENDBRANCH  25  27
ENDBRANCH  24  25
ENDBRANCH  23  24
ENDBRANCH   1  23
TORSDOF 17
ENDMDL
