MODEL 1
REMARK VINA RESULT:     -12.4      0.000      0.000
REMARK SMILES O=C(OCCOC(=O)[C@H]1CC[C@@H]2CCCC[C@@H]2N1C(=O)Cc1ccn[nH]1)c1ccc(-c2c3nc(c(-c4cc(S(=O)(=O)[O-])ccc4F)c4ccc([nH]4)c(-c4cc(S(=O)(=O)[O-])ccc4F)c4nc(c(-c5cc(S(=O)(=O)[O-])ccc5F)c5ccc2[nH]5)C=C4)C=C3)cc1
REMARK SMILES IDX 4 1 3 2 2 3 1 4 27 5 28 6 89 7 29 8 88 9 30 10 31 11 32 12
REMARK SMILES IDX 82 13 33 14 87 15 81 16 83 17 34 18 86 19 80 20 79 21 35 23
REMARK SMILES IDX 67 24 47 25 66 26 48 27 51 28 65 29 84 30 49 31 50 32 64 34
REMARK SMILES IDX 85 35 52 36 36 37 37 38 45 39 38 40 44 41 46 42 43 43 39 44
REMARK SMILES IDX 40 45 41 46 42 47 68 48 69 49 77 50 70 51 76 52 78 53 75 54
REMARK SMILES IDX 71 55 72 56 73 57 74 58 53 59 54 60 62 61 55 62 61 63 63 64
REMARK SMILES IDX 60 65 56 66 57 67 58 68 59 69 5 70 6 71 7 72 8 73 9 74 10 75
REMARK SMILES IDX 18 76 11 77 17 78 12 79 16 80 13 81 15 82 14 83 19 84 20 85
REMARK SMILES IDX 21 86 22 87 23 88 26 89 24 90 25 91
REMARK H PARENT 83 22 51 33 26 92
REMARK Flexibility Score: inf
ROOT
ATOM      1  C   UNL A   1      32.704  30.282  26.010  1.00  0.00     0.275 C 
ENDROOT
BRANCH   1   2
ATOM      2  O   UNL A   1      33.008  30.683  27.348  1.00  0.00    -0.458 OA
BRANCH   2   3
ATOM      3  C   UNL A   1      34.040  31.429  27.798  1.00  0.00     0.338 C 
ATOM      4  O   UNL A   1      33.796  32.614  28.035  1.00  0.00    -0.246 OA
BRANCH   3   5
ATOM      5  C   UNL A   1      35.465  30.953  27.973  1.00  0.00     0.060 A 
ATOM      6  C   UNL A   1      36.619  31.703  28.247  1.00  0.00     0.016 A 
ATOM      7  C   UNL A   1      35.601  29.560  28.019  1.00  0.00     0.016 A 
ATOM      8  C   UNL A   1      37.821  31.095  28.690  1.00  0.00     0.010 A 
ATOM      9  C   UNL A   1      36.769  28.968  28.506  1.00  0.00     0.010 A 
ATOM     10  C   UNL A   1      37.896  29.718  28.894  1.00  0.00    -0.014 A 
BRANCH  10  11
ATOM     11  C   UNL A   1      39.096  29.015  29.471  1.00  0.00     0.031 A 
ATOM     12  C   UNL A   1      39.716  29.588  30.715  1.00  0.00     0.074 A 
ATOM     13  C   UNL A   1      39.749  27.990  28.868  1.00  0.00     0.049 A 
ATOM     14  N   UNL A   1      40.855  29.295  31.286  1.00  0.00    -0.248 NA
ATOM     15  C   UNL A   1      38.995  30.705  31.346  1.00  0.00     0.031 C 
ATOM     16  C   UNL A   1      39.366  27.359  27.611  1.00  0.00     0.029 A 
ATOM     17  N   UNL A   1      40.919  27.329  29.197  1.00  0.00    -0.354 N 
ATOM     18  C   UNL A   1      40.957  30.191  32.337  1.00  0.00     0.074 A 
ATOM     19  C   UNL A   1      39.929  31.188  32.143  1.00  0.00     0.031 C 
ATOM     20  C   UNL A   1      40.297  26.457  27.249  1.00  0.00     0.029 A 
ATOM     21  C   UNL A   1      41.336  26.403  28.260  1.00  0.00     0.049 A 
ATOM     22  H   UNL A   1      41.413  27.505  30.030  1.00  0.00     0.167 HD
ATOM     23  C   UNL A   1      41.709  30.111  33.460  1.00  0.00     0.034 A 
ATOM     24  C   UNL A   1      42.416  25.592  28.207  1.00  0.00     0.034 A 
ATOM     25  C   UNL A   1      42.701  29.101  33.677  1.00  0.00     0.049 A 
ATOM     26  C   UNL A   1      43.359  25.584  29.382  1.00  0.00     0.074 A 
ATOM     27  C   UNL A   1      43.478  28.876  34.797  1.00  0.00     0.029 A 
ATOM     28  N   UNL A   1      43.063  28.145  32.736  1.00  0.00    -0.354 N 
ATOM     29  N   UNL A   1      43.332  26.332  30.459  1.00  0.00    -0.248 NA
ATOM     30  C   UNL A   1      44.443  24.592  29.364  1.00  0.00     0.031 C 
ATOM     31  C   UNL A   1      44.353  27.823  34.510  1.00  0.00     0.029 A 
ATOM     32  C   UNL A   1      44.077  27.348  33.237  1.00  0.00     0.049 A 
ATOM     33  H   UNL A   1      42.659  28.051  31.843  1.00  0.00     0.167 HD
ATOM     34  C   UNL A   1      44.344  25.847  31.280  1.00  0.00     0.074 A 
ATOM     35  C   UNL A   1      44.979  24.760  30.565  1.00  0.00     0.031 C 
ATOM     36  C   UNL A   1      44.691  26.250  32.528  1.00  0.00     0.034 A 
BRANCH  23  37
ATOM     37  C   UNL A   1      41.387  31.129  34.524  1.00  0.00     0.023 A 
ATOM     38  C   UNL A   1      40.353  30.876  35.452  1.00  0.00     0.031 A 
ATOM     39  C   UNL A   1      41.959  32.407  34.501  1.00  0.00     0.131 A 
ATOM     40  C   UNL A   1      39.803  31.933  36.183  1.00  0.00     0.055 A 
ATOM     41  C   UNL A   1      41.487  33.427  35.330  1.00  0.00     0.041 A 
ATOM     42  F   UNL A   1      42.932  32.706  33.628  1.00  0.00    -0.206 F 
ATOM     43  C   UNL A   1      40.380  33.203  36.151  1.00  0.00     0.022 A 
BRANCH  40  44
ATOM     44  S   UNL A   1      38.180  31.679  36.958  1.00  0.00     0.124 S 
ATOM     45  O   UNL A   1      38.016  30.232  36.827  1.00  0.00    -0.237 OA
ATOM     46  O   UNL A   1      38.386  32.179  38.307  1.00  0.00    -0.237 OA
ATOM     47  O   UNL A   1      37.278  32.476  36.123  1.00  0.00    -0.744 OA
ENDBRANCH  40  44
ENDBRANCH  23  37
BRANCH  24  48
ATOM     48  C   UNL A   1      42.676  24.676  27.046  1.00  0.00     0.023 A 
ATOM     49  C   UNL A   1      42.286  23.324  27.079  1.00  0.00     0.031 A 
ATOM     50  C   UNL A   1      43.423  25.110  25.937  1.00  0.00     0.131 A 
ATOM     51  C   UNL A   1      42.697  22.442  26.063  1.00  0.00     0.055 A 
ATOM     52  C   UNL A   1      43.789  24.239  24.903  1.00  0.00     0.041 A 
ATOM     53  F   UNL A   1      43.838  26.385  25.857  1.00  0.00    -0.206 F 
ATOM     54  C   UNL A   1      43.441  22.893  24.971  1.00  0.00     0.022 A 
BRANCH  51  55
ATOM     55  S   UNL A   1      42.334  20.669  26.236  1.00  0.00     0.124 S 
ATOM     56  O   UNL A   1      42.224  20.527  27.683  1.00  0.00    -0.237 OA
ATOM     57  O   UNL A   1      41.090  20.539  25.482  1.00  0.00    -0.237 OA
ATOM     58  O   UNL A   1      43.494  20.020  25.631  1.00  0.00    -0.744 OA
ENDBRANCH  51  55
ENDBRANCH  24  48
BRANCH  36  59
ATOM     59  C   UNL A   1      45.747  25.454  33.245  1.00  0.00     0.023 A 
ATOM     60  C   UNL A   1      45.439  24.300  33.983  1.00  0.00     0.031 A 
ATOM     61  C   UNL A   1      47.094  25.852  33.162  1.00  0.00     0.131 A 
ATOM     62  C   UNL A   1      46.463  23.602  34.639  1.00  0.00     0.055 A 
ATOM     63  C   UNL A   1      48.115  25.117  33.762  1.00  0.00     0.041 A 
ATOM     64  F   UNL A   1      47.440  26.953  32.475  1.00  0.00    -0.206 F 
ATOM     65  C   UNL A   1      47.801  23.989  34.513  1.00  0.00     0.022 A 
BRANCH  62  66
ATOM     66  S   UNL A   1      46.017  22.217  35.720  1.00  0.00     0.124 S 
ATOM     67  O   UNL A   1      44.673  21.892  35.258  1.00  0.00    -0.237 OA
ATOM     68  O   UNL A   1      47.052  21.235  35.413  1.00  0.00    -0.237 OA
ATOM     69  O   UNL A   1      46.090  22.793  37.062  1.00  0.00    -0.744 OA
ENDBRANCH  62  66
ENDBRANCH  36  59
ENDBRANCH  10  11
ENDBRANCH   3   5
ENDBRANCH   2   3
ENDBRANCH   1   2
BRANCH   1  70
ATOM     70  C   UNL A   1      32.316  28.804  25.883  1.00  0.00     0.274 C 
BRANCH  70  71
ATOM     71  O   UNL A   1      33.447  27.927  25.740  1.00  0.00    -0.461 OA
BRANCH  71  72
ATOM     72  C   UNL A   1      33.795  27.535  24.468  1.00  0.00     0.328 C 
ATOM     73  O   UNL A   1      33.954  28.319  23.540  1.00  0.00    -0.250 OA
BRANCH  72  74
ATOM     74  C   UNL A   1      34.029  25.984  24.363  1.00  0.00     0.195 C 
ATOM     75  C   UNL A   1      33.271  25.265  25.470  1.00  0.00     0.037 C 
ATOM     76  N   UNL A   1      33.941  25.165  23.114  1.00  0.00    -0.325 N 
ATOM     77  C   UNL A   1      33.613  23.798  25.627  1.00  0.00     0.008 C 
ATOM     78  C   UNL A   1      34.375  23.714  23.275  1.00  0.00     0.089 C 
ATOM     79  C   UNL A   1      33.472  23.043  24.312  1.00  0.00     0.012 C 
ATOM     80  C   UNL A   1      35.865  23.498  23.636  1.00  0.00     0.025 C 
ATOM     81  C   UNL A   1      33.794  21.563  24.493  1.00  0.00     0.006 C 
ATOM     82  C   UNL A   1      36.254  22.201  24.397  1.00  0.00     0.002 C 
ATOM     83  C   UNL A   1      35.171  21.379  25.099  1.00  0.00     0.000 C 
BRANCH  76  84
ATOM     84  C   UNL A   1      32.935  25.383  22.152  1.00  0.00     0.229 C 
ATOM     85  O   UNL A   1      33.204  25.721  20.996  1.00  0.00    -0.274 OA
BRANCH  84  86
ATOM     86  C   UNL A   1      31.460  25.339  22.543  1.00  0.00     0.155 C 
BRANCH  86  87
ATOM     87  C   UNL A   1      30.795  26.674  22.644  1.00  0.00     0.044 A 
ATOM     88  C   UNL A   1      29.784  27.119  23.470  1.00  0.00     0.045 A 
ATOM     89  N   UNL A   1      31.223  27.800  21.989  1.00  0.00    -0.282 N 
ATOM     90  C   UNL A   1      29.551  28.451  23.092  1.00  0.00     0.135 A 
ATOM     91  N   UNL A   1      30.396  28.850  22.146  1.00  0.00    -0.184 NA
ATOM     92  H   UNL A   1      32.051  27.836  21.458  1.00  0.00     0.190 HD
ENDBRANCH  86  87
ENDBRANCH  84  86
ENDBRANCH  76  84
ENDBRANCH  72  74
ENDBRANCH  71  72
ENDBRANCH  70  71
ENDBRANCH   1  70
TORSDOF 17
ENDMDL
MODEL 2
REMARK VINA RESULT:     -12.3      4.757     10.149
REMARK SMILES O=C(OCCOC(=O)[C@H]1CC[C@@H]2CCCC[C@@H]2N1C(=O)Cc1ccn[nH]1)c1ccc(-c2c3nc(c(-c4cc(S(=O)(=O)[O-])ccc4F)c4ccc([nH]4)c(-c4cc(S(=O)(=O)[O-])ccc4F)c4nc(c(-c5cc(S(=O)(=O)[O-])ccc5F)c5ccc2[nH]5)C=C4)C=C3)cc1
REMARK SMILES IDX 4 1 3 2 2 3 1 4 27 5 28 6 89 7 29 8 88 9 30 10 31 11 32 12
REMARK SMILES IDX 82 13 33 14 87 15 81 16 83 17 34 18 86 19 80 20 79 21 35 23
REMARK SMILES IDX 67 24 47 25 66 26 48 27 51 28 65 29 84 30 49 31 50 32 64 34
REMARK SMILES IDX 85 35 52 36 36 37 37 38 45 39 38 40 44 41 46 42 43 43 39 44
REMARK SMILES IDX 40 45 41 46 42 47 68 48 69 49 77 50 70 51 76 52 78 53 75 54
REMARK SMILES IDX 71 55 72 56 73 57 74 58 53 59 54 60 62 61 55 62 61 63 63 64
REMARK SMILES IDX 60 65 56 66 57 67 58 68 59 69 5 70 6 71 7 72 8 73 9 74 10 75
REMARK SMILES IDX 18 76 11 77 17 78 12 79 16 80 13 81 15 82 14 83 19 84 20 85
REMARK SMILES IDX 21 86 22 87 23 88 26 89 24 90 25 91
REMARK H PARENT 83 22 51 33 26 92
REMARK Flexibility Score: inf
ROOT
ATOM      1  C   UNL A   1      36.777  21.627  25.132  1.00  0.00     0.275 C 
ENDROOT
BRANCH   1   2
ATOM      2  O   UNL A   1      38.129  22.090  25.105  1.00  0.00    -0.458 OA
BRANCH   2   3
ATOM      3  C   UNL A   1      39.038  22.117  26.103  1.00  0.00     0.338 C 
ATOM      4  O   UNL A   1      39.555  21.039  26.401  1.00  0.00    -0.246 OA
BRANCH   3   5
ATOM      5  C   UNL A   1      39.423  23.334  26.915  1.00  0.00     0.060 A 
ATOM      6  C   UNL A   1      40.574  23.553  27.686  1.00  0.00     0.016 A 
ATOM      7  C   UNL A   1      38.576  24.435  26.732  1.00  0.00     0.016 A 
ATOM      8  C   UNL A   1      40.943  24.846  28.135  1.00  0.00     0.010 A 
ATOM      9  C   UNL A   1      38.968  25.716  27.129  1.00  0.00     0.010 A 
ATOM     10  C   UNL A   1      40.179  25.965  27.804  1.00  0.00    -0.014 A 
BRANCH  10  11
ATOM     11  C   UNL A   1      40.565  27.380  28.143  1.00  0.00     0.031 A 
ATOM     12  C   UNL A   1      42.027  27.733  28.127  1.00  0.00     0.074 A 
ATOM     13  C   UNL A   1      39.704  28.320  28.606  1.00  0.00     0.049 A 
ATOM     14  N   UNL A   1      42.626  28.808  28.568  1.00  0.00    -0.248 NA
ATOM     15  C   UNL A   1      42.942  26.693  27.630  1.00  0.00     0.031 C 
ATOM     16  C   UNL A   1      38.269  28.146  28.787  1.00  0.00     0.029 A 
ATOM     17  N   UNL A   1      39.917  29.605  29.074  1.00  0.00    -0.354 N 
ATOM     18  C   UNL A   1      43.975  28.554  28.383  1.00  0.00     0.074 A 
ATOM     19  C   UNL A   1      44.100  27.150  28.067  1.00  0.00     0.031 C 
ATOM     20  C   UNL A   1      37.744  29.239  29.371  1.00  0.00     0.029 A 
ATOM     21  C   UNL A   1      38.789  30.224  29.579  1.00  0.00     0.049 A 
ATOM     22  H   UNL A   1      40.799  30.041  29.050  1.00  0.00     0.167 HD
ATOM     23  C   UNL A   1      45.006  29.427  28.302  1.00  0.00     0.034 A 
ATOM     24  C   UNL A   1      38.595  31.440  30.137  1.00  0.00     0.034 A 
ATOM     25  C   UNL A   1      44.881  30.828  28.575  1.00  0.00     0.049 A 
ATOM     26  C   UNL A   1      39.764  32.389  30.197  1.00  0.00     0.074 A 
ATOM     27  C   UNL A   1      45.834  31.821  28.464  1.00  0.00     0.029 A 
ATOM     28  N   UNL A   1      43.716  31.434  29.029  1.00  0.00    -0.354 N 
ATOM     29  N   UNL A   1      41.010  32.178  29.848  1.00  0.00    -0.248 NA
ATOM     30  C   UNL A   1      39.495  33.753  30.675  1.00  0.00     0.031 C 
ATOM     31  C   UNL A   1      45.264  33.018  28.911  1.00  0.00     0.029 A 
ATOM     32  C   UNL A   1      43.937  32.785  29.236  1.00  0.00     0.049 A 
ATOM     33  H   UNL A   1      42.861  30.971  29.183  1.00  0.00     0.167 HD
ATOM     34  C   UNL A   1      41.654  33.402  29.987  1.00  0.00     0.074 A 
ATOM     35  C   UNL A   1      40.667  34.341  30.477  1.00  0.00     0.031 C 
ATOM     36  C   UNL A   1      42.942  33.721  29.703  1.00  0.00     0.034 A 
BRANCH  23  37
ATOM     37  C   UNL A   1      46.312  28.838  27.833  1.00  0.00     0.023 A 
ATOM     38  C   UNL A   1      46.614  28.804  26.454  1.00  0.00     0.031 A 
ATOM     39  C   UNL A   1      47.155  28.149  28.713  1.00  0.00     0.131 A 
ATOM     40  C   UNL A   1      47.615  27.948  25.984  1.00  0.00     0.055 A 
ATOM     41  C   UNL A   1      48.234  27.398  28.243  1.00  0.00     0.041 A 
ATOM     42  F   UNL A   1      46.904  28.135  30.031  1.00  0.00    -0.206 F 
ATOM     43  C   UNL A   1      48.448  27.265  26.871  1.00  0.00     0.022 A 
BRANCH  40  44
ATOM     44  S   UNL A   1      47.630  27.547  24.212  1.00  0.00     0.124 S 
ATOM     45  O   UNL A   1      49.018  27.844  23.857  1.00  0.00    -0.237 OA
ATOM     46  O   UNL A   1      47.253  26.144  24.197  1.00  0.00    -0.237 OA
ATOM     47  O   UNL A   1      46.643  28.470  23.648  1.00  0.00    -0.744 OA
ENDBRANCH  40  44
ENDBRANCH  23  37
BRANCH  24  48
ATOM     48  C   UNL A   1      37.256  31.884  30.649  1.00  0.00     0.023 A 
ATOM     49  C   UNL A   1      36.329  32.531  29.809  1.00  0.00     0.031 A 
ATOM     50  C   UNL A   1      36.933  31.776  32.013  1.00  0.00     0.131 A 
ATOM     51  C   UNL A   1      35.160  33.099  30.349  1.00  0.00     0.055 A 
ATOM     52  C   UNL A   1      35.745  32.301  32.537  1.00  0.00     0.041 A 
ATOM     53  F   UNL A   1      37.785  31.186  32.866  1.00  0.00    -0.206 F 
ATOM     54  C   UNL A   1      34.859  32.982  31.707  1.00  0.00     0.022 A 
BRANCH  51  55
ATOM     55  S   UNL A   1      34.082  34.085  29.268  1.00  0.00     0.124 S 
ATOM     56  O   UNL A   1      35.005  35.098  28.770  1.00  0.00    -0.237 OA
ATOM     57  O   UNL A   1      33.634  33.092  28.296  1.00  0.00    -0.237 OA
ATOM     58  O   UNL A   1      33.044  34.576  30.172  1.00  0.00    -0.744 OA
ENDBRANCH  51  55
ENDBRANCH  24  48
BRANCH  36  59
ATOM     59  C   UNL A   1      43.340  35.168  29.823  1.00  0.00     0.023 A 
ATOM     60  C   UNL A   1      43.132  36.087  28.783  1.00  0.00     0.031 A 
ATOM     61  C   UNL A   1      43.917  35.632  31.019  1.00  0.00     0.131 A 
ATOM     62  C   UNL A   1      43.532  37.422  28.947  1.00  0.00     0.055 A 
ATOM     63  C   UNL A   1      44.252  36.973  31.200  1.00  0.00     0.041 A 
ATOM     64  F   UNL A   1      44.144  34.791  32.041  1.00  0.00    -0.206 F 
ATOM     65  C   UNL A   1      44.068  37.875  30.157  1.00  0.00     0.022 A 
BRANCH  62  66
ATOM     66  S   UNL A   1      43.407  38.546  27.531  1.00  0.00     0.124 S 
ATOM     67  O   UNL A   1      43.030  39.801  28.172  1.00  0.00    -0.237 OA
ATOM     68  O   UNL A   1      44.754  38.496  26.972  1.00  0.00    -0.237 OA
ATOM     69  O   UNL A   1      42.369  37.937  26.701  1.00  0.00    -0.744 OA
ENDBRANCH  62  66
ENDBRANCH  36  59
ENDBRANCH  10  11
ENDBRANCH   3   5
ENDBRANCH   2   3
ENDBRANCH   1   2
BRANCH   1  70
ATOM     70  C   UNL A   1      35.776  22.611  24.514  1.00  0.00     0.274 C 
BRANCH  70  71
ATOM     71  O   UNL A   1      35.555  23.783  25.320  1.00  0.00    -0.461 OA
BRANCH  71  72
ATOM     72  C   UNL A   1      34.456  23.791  26.147  1.00  0.00     0.328 C 
ATOM     73  O   UNL A   1      34.208  22.899  26.950  1.00  0.00    -0.250 OA
BRANCH  72  74
ATOM     74  C   UNL A   1      33.599  25.100  25.989  1.00  0.00     0.195 C 
ATOM     75  C   UNL A   1      33.764  25.666  24.586  1.00  0.00     0.037 C 
ATOM     76  N   UNL A   1      32.173  25.272  26.410  1.00  0.00    -0.325 N 
ATOM     77  C   UNL A   1      33.188  27.053  24.388  1.00  0.00     0.008 C 
ATOM     78  C   UNL A   1      31.643  26.694  26.285  1.00  0.00     0.089 C 
ATOM     79  C   UNL A   1      31.731  27.125  24.820  1.00  0.00     0.012 C 
ATOM     80  C   UNL A   1      32.323  27.744  27.198  1.00  0.00     0.025 C 
ATOM     81  C   UNL A   1      31.159  28.521  24.589  1.00  0.00     0.006 C 
ATOM     82  C   UNL A   1      32.314  29.228  26.742  1.00  0.00     0.002 C 
ATOM     83  C   UNL A   1      32.002  29.572  25.284  1.00  0.00     0.000 C 
BRANCH  76  84
ATOM     84  C   UNL A   1      31.213  24.259  26.215  1.00  0.00     0.229 C 
ATOM     85  O   UNL A   1      30.593  23.762  27.159  1.00  0.00    -0.274 OA
BRANCH  84  86
ATOM     86  C   UNL A   1      31.001  23.642  24.836  1.00  0.00     0.155 C 
BRANCH  86  87
ATOM     87  C   UNL A   1      31.607  22.289  24.650  1.00  0.00     0.044 A 
ATOM     88  C   UNL A   1      32.281  21.740  23.579  1.00  0.00     0.045 A 
ATOM     89  N   UNL A   1      31.737  21.359  25.650  1.00  0.00    -0.282 N 
ATOM     90  C   UNL A   1      32.590  20.426  23.965  1.00  0.00     0.135 A 
ATOM     91  N   UNL A   1      32.208  20.175  25.214  1.00  0.00    -0.184 NA
ATOM     92  H   UNL A   1      31.510  21.539  26.590  1.00  0.00     0.190 HD
ENDBRANCH  86  87
ENDBRANCH  84  86
ENDBRANCH  76  84
ENDBRANCH  72  74
ENDBRANCH  71  72
ENDBRANCH  70  71
ENDBRANCH   1  70
TORSDOF 17
ENDMDL
MODEL 3
REMARK VINA RESULT:     -12.3      4.840     10.305
REMARK SMILES O=C(OCCOC(=O)[C@H]1CC[C@@H]2CCCC[C@@H]2N1C(=O)Cc1ccn[nH]1)c1ccc(-c2c3nc(c(-c4cc(S(=O)(=O)[O-])ccc4F)c4ccc([nH]4)c(-c4cc(S(=O)(=O)[O-])ccc4F)c4nc(c(-c5cc(S(=O)(=O)[O-])ccc5F)c5ccc2[nH]5)C=C4)C=C3)cc1
REMARK SMILES IDX 4 1 3 2 2 3 1 4 27 5 28 6 89 7 29 8 88 9 30 10 31 11 32 12
REMARK SMILES IDX 82 13 33 14 87 15 81 16 83 17 34 18 86 19 80 20 79 21 35 23
REMARK SMILES IDX 67 24 47 25 66 26 48 27 51 28 65 29 84 30 49 31 50 32 64 34
REMARK SMILES IDX 85 35 52 36 36 37 37 38 45 39 38 40 44 41 46 42 43 43 39 44
REMARK SMILES IDX 40 45 41 46 42 47 68 48 69 49 77 50 70 51 76 52 78 53 75 54
REMARK SMILES IDX 71 55 72 56 73 57 74 58 53 59 54 60 62 61 55 62 61 63 63 64
REMARK SMILES IDX 60 65 56 66 57 67 58 68 59 69 5 70 6 71 7 72 8 73 9 74 10 75
REMARK SMILES IDX 18 76 11 77 17 78 12 79 16 80 13 81 15 82 14 83 19 84 20 85
REMARK SMILES IDX 21 86 22 87 23 88 26 89 24 90 25 91
REMARK H PARENT 83 22 51 33 26 92
REMARK Flexibility Score: inf
ROOT
ATOM      1  C   UNL A   1      37.806  21.176  24.987  1.00  0.00     0.275 C 
ENDROOT
BRANCH   1   2
ATOM      2  O   UNL A   1      38.699  21.272  26.099  1.00  0.00    -0.458 OA
BRANCH   2   3
ATOM      3  C   UNL A   1      39.792  22.050  26.247  1.00  0.00     0.338 C 
ATOM      4  O   UNL A   1      40.845  21.610  25.780  1.00  0.00    -0.246 OA
BRANCH   3   5
ATOM      5  C   UNL A   1      39.845  23.371  26.983  1.00  0.00     0.060 A 
ATOM      6  C   UNL A   1      40.416  23.665  28.230  1.00  0.00     0.016 A 
ATOM      7  C   UNL A   1      39.395  24.463  26.230  1.00  0.00     0.016 A 
ATOM      8  C   UNL A   1      40.662  24.997  28.648  1.00  0.00     0.010 A 
ATOM      9  C   UNL A   1      39.687  25.773  26.620  1.00  0.00     0.010 A 
ATOM     10  C   UNL A   1      40.364  26.076  27.817  1.00  0.00    -0.014 A 
BRANCH  10  11
ATOM     11  C   UNL A   1      40.700  27.507  28.140  1.00  0.00     0.031 A 
ATOM     12  C   UNL A   1      42.148  27.913  28.111  1.00  0.00     0.074 A 
ATOM     13  C   UNL A   1      39.808  28.421  28.599  1.00  0.00     0.049 A 
ATOM     14  N   UNL A   1      42.711  29.013  28.537  1.00  0.00    -0.248 NA
ATOM     15  C   UNL A   1      43.097  26.902  27.618  1.00  0.00     0.031 C 
ATOM     16  C   UNL A   1      38.382  28.196  28.791  1.00  0.00     0.029 A 
ATOM     17  N   UNL A   1      39.977  29.717  29.053  1.00  0.00    -0.354 N 
ATOM     18  C   UNL A   1      44.066  28.807  28.345  1.00  0.00     0.074 A 
ATOM     19  C   UNL A   1      44.240  27.405  28.042  1.00  0.00     0.031 C 
ATOM     20  C   UNL A   1      37.821  29.276  29.368  1.00  0.00     0.029 A 
ATOM     21  C   UNL A   1      38.831  30.300  29.558  1.00  0.00     0.049 A 
ATOM     22  H   UNL A   1      40.843  30.185  29.018  1.00  0.00     0.167 HD
ATOM     23  C   UNL A   1      45.065  29.715  28.250  1.00  0.00     0.034 A 
ATOM     24  C   UNL A   1      38.597  31.514  30.106  1.00  0.00     0.034 A 
ATOM     25  C   UNL A   1      44.890  31.113  28.509  1.00  0.00     0.049 A 
ATOM     26  C   UNL A   1      39.731  32.505  30.149  1.00  0.00     0.074 A 
ATOM     27  C   UNL A   1      45.807  32.139  28.382  1.00  0.00     0.029 A 
ATOM     28  N   UNL A   1      43.708  31.682  28.965  1.00  0.00    -0.354 N 
ATOM     29  N   UNL A   1      40.982  32.335  29.794  1.00  0.00    -0.248 NA
ATOM     30  C   UNL A   1      39.416  33.863  30.615  1.00  0.00     0.031 C 
ATOM     31  C   UNL A   1      45.196  33.319  28.820  1.00  0.00     0.029 A 
ATOM     32  C   UNL A   1      43.880  33.042  29.157  1.00  0.00     0.049 A 
ATOM     33  H   UNL A   1      42.871  31.190  29.129  1.00  0.00     0.167 HD
ATOM     34  C   UNL A   1      41.582  33.584  29.916  1.00  0.00     0.074 A 
ATOM     35  C   UNL A   1      40.564  34.491  30.403  1.00  0.00     0.031 C 
ATOM     36  C   UNL A   1      42.855  33.946  29.621  1.00  0.00     0.034 A 
BRANCH  23  37
ATOM     37  C   UNL A   1      46.388  29.169  27.777  1.00  0.00     0.023 A 
ATOM     38  C   UNL A   1      46.636  29.021  26.395  1.00  0.00     0.031 A 
ATOM     39  C   UNL A   1      47.311  28.625  28.678  1.00  0.00     0.131 A 
ATOM     40  C   UNL A   1      47.674  28.190  25.962  1.00  0.00     0.055 A 
ATOM     41  C   UNL A   1      48.420  27.903  28.232  1.00  0.00     0.041 A 
ATOM     42  F   UNL A   1      47.116  28.723  30.002  1.00  0.00    -0.206 F 
ATOM     43  C   UNL A   1      48.587  27.651  26.869  1.00  0.00     0.022 A 
BRANCH  40  44
ATOM     44  S   UNL A   1      47.646  27.620  24.237  1.00  0.00     0.124 S 
ATOM     45  O   UNL A   1      46.704  28.562  23.633  1.00  0.00    -0.237 OA
ATOM     46  O   UNL A   1      49.034  27.756  23.831  1.00  0.00    -0.237 OA
ATOM     47  O   UNL A   1      47.153  26.244  24.343  1.00  0.00    -0.744 OA
ENDBRANCH  40  44
ENDBRANCH  23  37
BRANCH  24  48
ATOM     48  C   UNL A   1      37.246  31.915  30.623  1.00  0.00     0.023 A 
ATOM     49  C   UNL A   1      36.309  32.564  29.796  1.00  0.00     0.031 A 
ATOM     50  C   UNL A   1      36.918  31.761  31.981  1.00  0.00     0.131 A 
ATOM     51  C   UNL A   1      35.126  33.092  30.344  1.00  0.00     0.055 A 
ATOM     52  C   UNL A   1      35.716  32.245  32.513  1.00  0.00     0.041 A 
ATOM     53  F   UNL A   1      37.778  31.165  32.822  1.00  0.00    -0.206 F 
ATOM     54  C   UNL A   1      34.820  32.930  31.697  1.00  0.00     0.022 A 
BRANCH  51  55
ATOM     55  S   UNL A   1      34.032  34.085  29.285  1.00  0.00     0.124 S 
ATOM     56  O   UNL A   1      33.554  33.089  28.333  1.00  0.00    -0.237 OA
ATOM     57  O   UNL A   1      33.048  34.579  30.243  1.00  0.00    -0.237 OA
ATOM     58  O   UNL A   1      34.921  35.103  28.731  1.00  0.00    -0.744 OA
ENDBRANCH  51  55
ENDBRANCH  24  48
BRANCH  36  59
ATOM     59  C   UNL A   1      43.201  35.407  29.724  1.00  0.00     0.023 A 
ATOM     60  C   UNL A   1      42.954  36.308  28.677  1.00  0.00     0.031 A 
ATOM     61  C   UNL A   1      43.769  35.904  30.911  1.00  0.00     0.131 A 
ATOM     62  C   UNL A   1      43.305  37.658  28.824  1.00  0.00     0.055 A 
ATOM     63  C   UNL A   1      44.056  37.258  31.077  1.00  0.00     0.041 A 
ATOM     64  F   UNL A   1      44.033  35.082  31.940  1.00  0.00    -0.206 F 
ATOM     65  C   UNL A   1      43.833  38.142  30.026  1.00  0.00     0.022 A 
BRANCH  62  66
ATOM     66  S   UNL A   1      43.131  38.763  27.398  1.00  0.00     0.124 S 
ATOM     67  O   UNL A   1      42.965  40.062  28.040  1.00  0.00    -0.237 OA
ATOM     68  O   UNL A   1      44.390  38.559  26.689  1.00  0.00    -0.237 OA
ATOM     69  O   UNL A   1      41.945  38.252  26.713  1.00  0.00    -0.744 OA
ENDBRANCH  62  66
ENDBRANCH  36  59
ENDBRANCH  10  11
ENDBRANCH   3   5
ENDBRANCH   2   3
ENDBRANCH   1   2
BRANCH   1  70
ATOM     70  C   UNL A   1      36.379  21.643  25.301  1.00  0.00     0.274 C 
BRANCH  70  71
ATOM     71  O   UNL A   1      36.161  23.039  25.027  1.00  0.00    -0.461 OA
BRANCH  71  72
ATOM     72  C   UNL A   1      35.551  23.369  23.839  1.00  0.00     0.328 C 
ATOM     73  O   UNL A   1      36.074  23.204  22.743  1.00  0.00    -0.250 OA
BRANCH  72  74
ATOM     74  C   UNL A   1      34.092  23.914  24.048  1.00  0.00     0.195 C 
ATOM     75  C   UNL A   1      33.754  24.931  22.967  1.00  0.00     0.037 C 
ATOM     76  N   UNL A   1      32.876  23.086  24.321  1.00  0.00    -0.325 N 
ATOM     77  C   UNL A   1      32.475  25.707  23.201  1.00  0.00     0.008 C 
ATOM     78  C   UNL A   1      31.622  23.887  24.642  1.00  0.00     0.089 C 
ATOM     79  C   UNL A   1      31.291  24.783  23.447  1.00  0.00     0.012 C 
ATOM     80  C   UNL A   1      31.677  24.724  25.944  1.00  0.00     0.025 C 
ATOM     81  C   UNL A   1      30.006  25.580  23.654  1.00  0.00     0.006 C 
ATOM     82  C   UNL A   1      30.777  25.985  26.044  1.00  0.00     0.002 C 
ATOM     83  C   UNL A   1      30.170  26.587  24.774  1.00  0.00     0.000 C 
BRANCH  76  84
ATOM     84  C   UNL A   1      32.648  21.861  23.663  1.00  0.00     0.229 C 
ATOM     85  O   UNL A   1      32.609  21.782  22.432  1.00  0.00    -0.274 OA
BRANCH  84  86
ATOM     86  C   UNL A   1      32.304  20.602  24.456  1.00  0.00     0.155 C 
BRANCH  86  87
ATOM     87  C   UNL A   1      32.667  19.317  23.786  1.00  0.00     0.044 A 
ATOM     88  C   UNL A   1      33.513  18.300  24.180  1.00  0.00     0.045 A 
ATOM     89  N   UNL A   1      32.050  18.832  22.661  1.00  0.00    -0.282 N 
ATOM     90  C   UNL A   1      33.482  17.362  23.136  1.00  0.00     0.135 A 
ATOM     91  N   UNL A   1      32.627  17.715  22.180  1.00  0.00    -0.184 NA
ATOM     92  H   UNL A   1      31.264  19.258  22.248  1.00  0.00     0.190 HD
ENDBRANCH  86  87
ENDBRANCH  84  86
ENDBRANCH  76  84
ENDBRANCH  72  74
ENDBRANCH  71  72
ENDBRANCH  70  71
ENDBRANCH   1  70
TORSDOF 17
ENDMDL
