MODEL 1
REMARK VINA RESULT:     -10.9      0.000      0.000
REMARK SMILES N#CCOc1ccccc1[C@H]1[NH2+][C@@H](C(=O)OCCOC(=O)c2ccc(-c3c4nc(c(-c5cc(S(=O)(=O)[O-])ccc5F)c5ccc([nH]5)c(-c5cc(S(=O)(=O)[O-])ccc5F)c5nc(c(-c6cc(S(=O)(=O)[O-])ccc6F)c6ccc3[nH]6)C=C5)C=C4)cc2)CS1
REMARK SMILES IDX 17 1 16 2 14 3 15 4 13 5 11 6 12 7 86 8 85 11 10 12 5 13
REMARK SMILES IDX 6 14 7 15 9 16 8 17 4 18 3 19 2 20 1 21 18 22 19 23 20 24
REMARK SMILES IDX 21 25 22 26 23 27 84 28 24 29 83 30 25 31 26 32 27 33 77 34
REMARK SMILES IDX 28 35 82 36 76 37 78 38 29 39 81 40 75 41 74 42 30 44 62 45
REMARK SMILES IDX 42 46 61 47 43 48 46 49 60 50 79 51 44 52 45 53 59 55 80 56
REMARK SMILES IDX 47 57 31 58 32 59 40 60 33 61 39 62 41 63 38 64 34 65 35 66
REMARK SMILES IDX 36 67 37 68 63 69 64 70 72 71 65 72 71 73 73 74 70 75 66 76
REMARK SMILES IDX 67 77 68 78 69 79 48 80 49 81 57 82 50 83 56 84 58 85 55 86
REMARK SMILES IDX 51 87 52 88 53 89 54 90
REMARK H PARENT 12 9 12 10 78 43 46 54
REMARK Flexibility Score: inf
ROOT
ATOM      1  C   UNL A   1      34.686  21.265  24.538  1.00  0.00     0.274 C 
ENDROOT
BRANCH   1   2
ATOM      2  O   UNL A   1      33.471  21.197  25.318  1.00  0.00    -0.458 OA
BRANCH   2   3
ATOM      3  C   UNL A   1      33.218  22.251  26.153  1.00  0.00     0.365 C 
ATOM      4  O   UNL A   1      33.155  22.169  27.371  1.00  0.00    -0.245 OA
BRANCH   3   5
ATOM      5  C   UNL A   1      33.329  23.566  25.381  1.00  0.00     0.304 C 
ATOM      6  C   UNL A   1      32.731  25.825  25.507  1.00  0.00     0.278 C 
ATOM      7  N   UNL A   1      33.586  24.839  26.207  1.00  0.00    -0.319 N 
ATOM      8  S   UNL A   1      31.172  24.941  25.608  1.00  0.00    -0.087 SA
ATOM      9  H   UNL A   1      33.296  24.719  27.177  1.00  0.00     0.348 HD
ATOM     10  H   UNL A   1      34.568  25.107  26.262  1.00  0.00     0.348 HD
ATOM     11  C   UNL A   1      31.977  23.674  24.663  1.00  0.00     0.153 C 
BRANCH   6  12
ATOM     12  C   UNL A   1      32.581  27.276  25.832  1.00  0.00     0.062 A 
ATOM     13  C   UNL A   1      33.191  28.316  25.076  1.00  0.00     0.131 A 
ATOM     14  C   UNL A   1      32.912  29.646  25.449  1.00  0.00     0.047 A 
ATOM     15  C   UNL A   1      32.178  29.958  26.595  1.00  0.00     0.004 A 
ATOM     16  C   UNL A   1      31.914  27.611  27.033  1.00  0.00     0.015 A 
ATOM     17  C   UNL A   1      31.717  28.938  27.413  1.00  0.00     0.001 A 
BRANCH  13  18
ATOM     18  O   UNL A   1      33.998  28.303  23.964  1.00  0.00    -0.478 OA
BRANCH  18  19
ATOM     19  C   UNL A   1      33.707  28.223  22.536  1.00  0.00     0.349 C 
BRANCH  19  20
ATOM     20  C   UNL A   1      33.537  26.824  21.966  1.00  0.00     0.104 C 
ATOM     21  N   UNL A   1      33.397  25.664  21.493  1.00  0.00    -0.195 NA
ENDBRANCH  19  20
ENDBRANCH  18  19
ENDBRANCH  13  18
ENDBRANCH   6  12
ENDBRANCH   3   5
ENDBRANCH   2   3
ENDBRANCH   1   2
BRANCH   1  22
ATOM     22  C   UNL A   1      35.925  20.692  25.272  1.00  0.00     0.275 C 
BRANCH  22  23
ATOM     23  O   UNL A   1      36.877  21.743  25.580  1.00  0.00    -0.458 OA
BRANCH  23  24
ATOM     24  C   UNL A   1      38.186  21.379  25.685  1.00  0.00     0.338 C 
ATOM     25  O   UNL A   1      38.684  20.328  25.330  1.00  0.00    -0.246 OA
BRANCH  24  26
ATOM     26  C   UNL A   1      38.955  22.497  26.271  1.00  0.00     0.060 A 
ATOM     27  C   UNL A   1      40.049  22.267  27.113  1.00  0.00     0.016 A 
ATOM     28  C   UNL A   1      38.544  23.801  25.998  1.00  0.00     0.016 A 
ATOM     29  C   UNL A   1      40.757  23.344  27.653  1.00  0.00     0.010 A 
ATOM     30  C   UNL A   1      39.278  24.876  26.508  1.00  0.00     0.010 A 
ATOM     31  C   UNL A   1      40.399  24.659  27.330  1.00  0.00    -0.014 A 
BRANCH  31  32
ATOM     32  C   UNL A   1      41.191  25.821  27.817  1.00  0.00     0.031 A 
ATOM     33  C   UNL A   1      40.519  26.910  28.603  1.00  0.00     0.074 A 
ATOM     34  C   UNL A   1      42.494  25.927  27.491  1.00  0.00     0.049 A 
ATOM     35  N   UNL A   1      40.968  28.093  28.935  1.00  0.00    -0.248 NA
ATOM     36  C   UNL A   1      39.151  26.631  29.066  1.00  0.00     0.031 C 
ATOM     37  C   UNL A   1      43.268  24.915  26.770  1.00  0.00     0.029 A 
ATOM     38  N   UNL A   1      43.394  26.944  27.701  1.00  0.00    -0.354 N 
ATOM     39  C   UNL A   1      39.931  28.713  29.624  1.00  0.00     0.074 A 
ATOM     40  C   UNL A   1      38.822  27.781  29.637  1.00  0.00     0.031 C 
ATOM     41  C   UNL A   1      44.522  25.362  26.594  1.00  0.00     0.029 A 
ATOM     42  C   UNL A   1      44.622  26.721  27.116  1.00  0.00     0.049 A 
ATOM     43  H   UNL A   1      43.183  27.754  28.219  1.00  0.00     0.167 HD
ATOM     44  C   UNL A   1      39.913  29.947  30.192  1.00  0.00     0.034 A 
ATOM     45  C   UNL A   1      45.686  27.535  26.970  1.00  0.00     0.034 A 
ATOM     46  C   UNL A   1      41.034  30.857  30.162  1.00  0.00     0.049 A 
ATOM     47  C   UNL A   1      45.606  28.940  27.516  1.00  0.00     0.074 A 
ATOM     48  C   UNL A   1      41.133  32.119  30.722  1.00  0.00     0.029 A 
ATOM     49  N   UNL A   1      42.245  30.610  29.527  1.00  0.00    -0.354 N 
ATOM     50  N   UNL A   1      44.618  29.520  28.158  1.00  0.00    -0.248 NA
ATOM     51  C   UNL A   1      46.779  29.800  27.313  1.00  0.00     0.031 C 
ATOM     52  C   UNL A   1      42.366  32.667  30.351  1.00  0.00     0.029 A 
ATOM     53  C   UNL A   1      43.078  31.713  29.641  1.00  0.00     0.049 A 
ATOM     54  H   UNL A   1      42.479  29.774  29.062  1.00  0.00     0.167 HD
ATOM     55  C   UNL A   1      45.064  30.804  28.461  1.00  0.00     0.074 A 
ATOM     56  C   UNL A   1      46.413  30.907  27.944  1.00  0.00     0.031 C 
ATOM     57  C   UNL A   1      44.419  31.806  29.111  1.00  0.00     0.034 A 
BRANCH  44  58
ATOM     58  C   UNL A   1      38.624  30.401  30.836  1.00  0.00     0.023 A 
ATOM     59  C   UNL A   1      37.645  31.117  30.125  1.00  0.00     0.031 A 
ATOM     60  C   UNL A   1      38.378  30.130  32.196  1.00  0.00     0.131 A 
ATOM     61  C   UNL A   1      36.508  31.599  30.791  1.00  0.00     0.055 A 
ATOM     62  C   UNL A   1      37.204  30.537  32.830  1.00  0.00     0.041 A 
ATOM     63  F   UNL A   1      39.285  29.471  32.935  1.00  0.00    -0.206 F 
ATOM     64  C   UNL A   1      36.267  31.290  32.131  1.00  0.00     0.022 A 
BRANCH  61  65
ATOM     65  S   UNL A   1      35.422  32.763  29.920  1.00  0.00     0.124 S 
ATOM     66  O   UNL A   1      34.633  31.863  29.083  1.00  0.00    -0.237 OA
ATOM     67  O   UNL A   1      34.708  33.409  31.016  1.00  0.00    -0.237 OA
ATOM     68  O   UNL A   1      36.353  33.622  29.191  1.00  0.00    -0.744 OA
ENDBRANCH  61  65
ENDBRANCH  44  58
BRANCH  45  69
ATOM     69  C   UNL A   1      46.896  27.076  26.224  1.00  0.00     0.023 A 
ATOM     70  C   UNL A   1      47.950  26.426  26.883  1.00  0.00     0.031 A 
ATOM     71  C   UNL A   1      47.037  27.325  24.845  1.00  0.00     0.131 A 
ATOM     72  C   UNL A   1      49.116  26.089  26.177  1.00  0.00     0.055 A 
ATOM     73  C   UNL A   1      48.171  26.928  24.134  1.00  0.00     0.041 A 
ATOM     74  F   UNL A   1      46.066  27.953  24.164  1.00  0.00    -0.206 F 
ATOM     75  C   UNL A   1      49.226  26.318  24.804  1.00  0.00     0.022 A 
BRANCH  72  76
ATOM     76  S   UNL A   1      50.533  25.439  27.105  1.00  0.00     0.124 S 
ATOM     77  O   UNL A   1      51.487  25.169  26.035  1.00  0.00    -0.237 OA
ATOM     78  O   UNL A   1      50.856  26.554  27.988  1.00  0.00    -0.237 OA
ATOM     79  O   UNL A   1      49.991  24.256  27.769  1.00  0.00    -0.744 OA
ENDBRANCH  72  76
ENDBRANCH  45  69
BRANCH  57  80
ATOM     80  C   UNL A   1      45.187  33.086  29.342  1.00  0.00     0.023 A 
ATOM     81  C   UNL A   1      45.082  34.182  28.468  1.00  0.00     0.031 A 
ATOM     82  C   UNL A   1      46.028  33.212  30.463  1.00  0.00     0.131 A 
ATOM     83  C   UNL A   1      45.841  35.338  28.705  1.00  0.00     0.055 A 
ATOM     84  C   UNL A   1      46.729  34.388  30.729  1.00  0.00     0.041 A 
ATOM     85  F   UNL A   1      46.170  32.194  31.328  1.00  0.00    -0.206 F 
ATOM     86  C   UNL A   1      46.647  35.456  29.841  1.00  0.00     0.022 A 
BRANCH  83  87
ATOM     87  S   UNL A   1      45.829  36.660  27.463  1.00  0.00     0.124 S 
ATOM     88  O   UNL A   1      44.600  36.375  26.730  1.00  0.00    -0.237 OA
ATOM     89  O   UNL A   1      45.814  37.865  28.288  1.00  0.00    -0.237 OA
ATOM     90  O   UNL A   1      47.065  36.439  26.713  1.00  0.00    -0.744 OA
ENDBRANCH  83  87
ENDBRANCH  57  80
ENDBRANCH  31  32
ENDBRANCH  24  26
ENDBRANCH  23  24
ENDBRANCH  22  23
ENDBRANCH   1  22
TORSDOF 18
ENDMDL
MODEL 2
REMARK VINA RESULT:     -10.8      1.797      2.084
REMARK SMILES N#CCOc1ccccc1[C@H]1[NH2+][C@@H](C(=O)OCCOC(=O)c2ccc(-c3c4nc(c(-c5cc(S(=O)(=O)[O-])ccc5F)c5ccc([nH]5)c(-c5cc(S(=O)(=O)[O-])ccc5F)c5nc(c(-c6cc(S(=O)(=O)[O-])ccc6F)c6ccc3[nH]6)C=C5)C=C4)cc2)CS1
REMARK SMILES IDX 17 1 16 2 14 3 15 4 13 5 11 6 12 7 86 8 85 11 10 12 5 13
REMARK SMILES IDX 6 14 7 15 9 16 8 17 4 18 3 19 2 20 1 21 18 22 19 23 20 24
REMARK SMILES IDX 21 25 22 26 23 27 84 28 24 29 83 30 25 31 26 32 27 33 77 34
REMARK SMILES IDX 28 35 82 36 76 37 78 38 29 39 81 40 75 41 74 42 30 44 62 45
REMARK SMILES IDX 42 46 61 47 43 48 46 49 60 50 79 51 44 52 45 53 59 55 80 56
REMARK SMILES IDX 47 57 31 58 32 59 40 60 33 61 39 62 41 63 38 64 34 65 35 66
REMARK SMILES IDX 36 67 37 68 63 69 64 70 72 71 65 72 71 73 73 74 70 75 66 76
REMARK SMILES IDX 67 77 68 78 69 79 48 80 49 81 57 82 50 83 56 84 58 85 55 86
REMARK SMILES IDX 51 87 52 88 53 89 54 90
REMARK H PARENT 12 9 12 10 78 43 46 54
REMARK Flexibility Score: inf
ROOT
ATOM      1  C   UNL A   1      35.168  21.939  25.976  1.00  0.00     0.274 C 
ENDROOT
BRANCH   1   2
ATOM      2  O   UNL A   1      33.814  21.598  25.606  1.00  0.00    -0.458 OA
BRANCH   2   3
ATOM      3  C   UNL A   1      32.812  22.242  26.280  1.00  0.00     0.365 C 
ATOM      4  O   UNL A   1      32.867  22.565  27.459  1.00  0.00    -0.245 OA
BRANCH   3   5
ATOM      5  C   UNL A   1      31.768  22.761  25.292  1.00  0.00     0.304 C 
ATOM      6  C   UNL A   1      30.676  24.724  24.636  1.00  0.00     0.278 C 
ATOM      7  N   UNL A   1      32.034  24.136  24.654  1.00  0.00    -0.319 N 
ATOM      8  S   UNL A   1      30.294  24.559  26.382  1.00  0.00    -0.087 SA
ATOM      9  H   UNL A   1      32.673  24.693  25.222  1.00  0.00     0.348 HD
ATOM     10  H   UNL A   1      32.478  24.090  23.737  1.00  0.00     0.348 HD
ATOM     11  C   UNL A   1      30.480  22.814  26.126  1.00  0.00     0.153 C 
BRANCH   6  12
ATOM     12  C   UNL A   1      30.281  26.061  24.095  1.00  0.00     0.062 A 
ATOM     13  C   UNL A   1      31.212  27.104  23.827  1.00  0.00     0.131 A 
ATOM     14  C   UNL A   1      30.716  28.292  23.252  1.00  0.00     0.047 A 
ATOM     15  C   UNL A   1      29.349  28.513  23.068  1.00  0.00     0.004 A 
ATOM     16  C   UNL A   1      28.900  26.336  23.979  1.00  0.00     0.015 A 
ATOM     17  C   UNL A   1      28.438  27.551  23.474  1.00  0.00     0.001 A 
BRANCH  13  18
ATOM     18  O   UNL A   1      32.576  27.188  23.968  1.00  0.00    -0.478 OA
BRANCH  18  19
ATOM     19  C   UNL A   1      33.683  26.789  23.105  1.00  0.00     0.349 C 
BRANCH  19  20
ATOM     20  C   UNL A   1      33.299  26.160  21.775  1.00  0.00     0.104 C 
ATOM     21  N   UNL A   1      32.980  25.637  20.673  1.00  0.00    -0.195 NA
ENDBRANCH  19  20
ENDBRANCH  18  19
ENDBRANCH  13  18
ENDBRANCH   6  12
ENDBRANCH   3   5
ENDBRANCH   2   3
ENDBRANCH   1   2
BRANCH   1  22
ATOM     22  C   UNL A   1      36.233  20.986  25.377  1.00  0.00     0.275 C 
BRANCH  22  23
ATOM     23  O   UNL A   1      37.470  21.694  25.106  1.00  0.00    -0.458 OA
BRANCH  23  24
ATOM     24  C   UNL A   1      38.588  21.252  25.748  1.00  0.00     0.338 C 
ATOM     25  O   UNL A   1      38.977  20.103  25.832  1.00  0.00    -0.246 OA
BRANCH  24  26
ATOM     26  C   UNL A   1      39.315  22.410  26.309  1.00  0.00     0.060 A 
ATOM     27  C   UNL A   1      40.424  22.238  27.145  1.00  0.00     0.016 A 
ATOM     28  C   UNL A   1      38.848  23.691  26.019  1.00  0.00     0.016 A 
ATOM     29  C   UNL A   1      41.091  23.352  27.663  1.00  0.00     0.010 A 
ATOM     30  C   UNL A   1      39.542  24.803  26.507  1.00  0.00     0.010 A 
ATOM     31  C   UNL A   1      40.677  24.646  27.322  1.00  0.00    -0.014 A 
BRANCH  31  32
ATOM     32  C   UNL A   1      41.425  25.847  27.784  1.00  0.00     0.031 A 
ATOM     33  C   UNL A   1      40.720  26.909  28.580  1.00  0.00     0.074 A 
ATOM     34  C   UNL A   1      42.713  26.012  27.426  1.00  0.00     0.049 A 
ATOM     35  N   UNL A   1      41.120  28.113  28.895  1.00  0.00    -0.248 NA
ATOM     36  C   UNL A   1      39.379  26.568  29.076  1.00  0.00     0.031 C 
ATOM     37  C   UNL A   1      43.517  25.033  26.692  1.00  0.00     0.029 A 
ATOM     38  N   UNL A   1      43.569  27.071  27.609  1.00  0.00    -0.354 N 
ATOM     39  C   UNL A   1      40.072  28.689  29.605  1.00  0.00     0.074 A 
ATOM     40  C   UNL A   1      39.009  27.705  29.649  1.00  0.00     0.031 C 
ATOM     41  C   UNL A   1      44.744  25.538  26.485  1.00  0.00     0.029 A 
ATOM     42  C   UNL A   1      44.792  26.903  26.997  1.00  0.00     0.049 A 
ATOM     43  H   UNL A   1      43.332  27.874  28.128  1.00  0.00     0.167 HD
ATOM     44  C   UNL A   1      40.009  29.923  30.166  1.00  0.00     0.034 A 
ATOM     45  C   UNL A   1      45.813  27.766  26.821  1.00  0.00     0.034 A 
ATOM     46  C   UNL A   1      41.085  30.885  30.105  1.00  0.00     0.049 A 
ATOM     47  C   UNL A   1      45.679  29.168  27.362  1.00  0.00     0.074 A 
ATOM     48  C   UNL A   1      41.138  32.154  30.655  1.00  0.00     0.029 A 
ATOM     49  N   UNL A   1      42.291  30.691  29.443  1.00  0.00    -0.354 N 
ATOM     50  N   UNL A   1      44.680  29.706  28.023  1.00  0.00    -0.248 NA
ATOM     51  C   UNL A   1      46.805  30.082  27.126  1.00  0.00     0.031 C 
ATOM     52  C   UNL A   1      42.334  32.757  30.253  1.00  0.00     0.029 A 
ATOM     53  C   UNL A   1      43.073  31.833  29.531  1.00  0.00     0.049 A 
ATOM     54  H   UNL A   1      42.553  29.864  28.977  1.00  0.00     0.167 HD
ATOM     55  C   UNL A   1      45.072  31.011  28.309  1.00  0.00     0.074 A 
ATOM     56  C   UNL A   1      46.402  31.174  27.760  1.00  0.00     0.031 C 
ATOM     57  C   UNL A   1      44.396  31.986  28.969  1.00  0.00     0.034 A 
BRANCH  44  58
ATOM     58  C   UNL A   1      38.716  30.321  30.838  1.00  0.00     0.023 A 
ATOM     59  C   UNL A   1      37.671  30.946  30.136  1.00  0.00     0.031 A 
ATOM     60  C   UNL A   1      38.532  30.087  32.214  1.00  0.00     0.131 A 
ATOM     61  C   UNL A   1      36.527  31.381  30.824  1.00  0.00     0.055 A 
ATOM     62  C   UNL A   1      37.356  30.444  32.875  1.00  0.00     0.041 A 
ATOM     63  F   UNL A   1      39.503  29.515  32.945  1.00  0.00    -0.206 F 
ATOM     64  C   UNL A   1      36.350  31.110  32.182  1.00  0.00     0.022 A 
BRANCH  61  65
ATOM     65  S   UNL A   1      35.342  32.441  29.950  1.00  0.00     0.124 S 
ATOM     66  O   UNL A   1      34.911  31.568  28.861  1.00  0.00    -0.237 OA
ATOM     67  O   UNL A   1      34.346  32.718  30.980  1.00  0.00    -0.237 OA
ATOM     68  O   UNL A   1      36.146  33.589  29.536  1.00  0.00    -0.744 OA
ENDBRANCH  61  65
ENDBRANCH  44  58
BRANCH  45  69
ATOM     69  C   UNL A   1      47.025  27.359  26.049  1.00  0.00     0.023 A 
ATOM     70  C   UNL A   1      47.195  27.747  24.711  1.00  0.00     0.031 A 
ATOM     71  C   UNL A   1      48.010  26.535  26.625  1.00  0.00     0.131 A 
ATOM     72  C   UNL A   1      48.296  27.273  23.980  1.00  0.00     0.055 A 
ATOM     73  C   UNL A   1      49.137  26.121  25.912  1.00  0.00     0.041 A 
ATOM     74  F   UNL A   1      47.895  26.124  27.897  1.00  0.00    -0.206 F 
ATOM     75  C   UNL A   1      49.278  26.479  24.576  1.00  0.00     0.022 A 
BRANCH  72  76
ATOM     76  S   UNL A   1      48.372  27.627  22.202  1.00  0.00     0.124 S 
ATOM     77  O   UNL A   1      49.510  28.537  22.130  1.00  0.00    -0.237 OA
ATOM     78  O   UNL A   1      48.575  26.299  21.636  1.00  0.00    -0.237 OA
ATOM     79  O   UNL A   1      47.072  28.232  21.920  1.00  0.00    -0.744 OA
ENDBRANCH  72  76
ENDBRANCH  45  69
BRANCH  57  80
ATOM     80  C   UNL A   1      45.107  33.302  29.175  1.00  0.00     0.023 A 
ATOM     81  C   UNL A   1      45.063  34.328  28.215  1.00  0.00     0.031 A 
ATOM     82  C   UNL A   1      45.833  33.534  30.358  1.00  0.00     0.131 A 
ATOM     83  C   UNL A   1      45.768  35.521  28.435  1.00  0.00     0.055 A 
ATOM     84  C   UNL A   1      46.477  34.748  30.599  1.00  0.00     0.041 A 
ATOM     85  F   UNL A   1      45.914  32.586  31.306  1.00  0.00    -0.206 F 
ATOM     86  C   UNL A   1      46.457  35.746  29.630  1.00  0.00     0.022 A 
BRANCH  83  87
ATOM     87  S   UNL A   1      45.845  36.748  27.102  1.00  0.00     0.124 S 
ATOM     88  O   UNL A   1      46.870  37.664  27.593  1.00  0.00    -0.237 OA
ATOM     89  O   UNL A   1      46.218  35.935  25.948  1.00  0.00    -0.237 OA
ATOM     90  O   UNL A   1      44.491  37.297  27.061  1.00  0.00    -0.744 OA
ENDBRANCH  83  87
ENDBRANCH  57  80
ENDBRANCH  31  32
ENDBRANCH  24  26
ENDBRANCH  23  24
ENDBRANCH  22  23
ENDBRANCH   1  22
TORSDOF 18
ENDMDL
MODEL 3
REMARK VINA RESULT:     -10.8      5.017     10.002
REMARK SMILES N#CCOc1ccccc1[C@H]1[NH2+][C@@H](C(=O)OCCOC(=O)c2ccc(-c3c4nc(c(-c5cc(S(=O)(=O)[O-])ccc5F)c5ccc([nH]5)c(-c5cc(S(=O)(=O)[O-])ccc5F)c5nc(c(-c6cc(S(=O)(=O)[O-])ccc6F)c6ccc3[nH]6)C=C5)C=C4)cc2)CS1
REMARK SMILES IDX 17 1 16 2 14 3 15 4 13 5 11 6 12 7 86 8 85 11 10 12 5 13
REMARK SMILES IDX 6 14 7 15 9 16 8 17 4 18 3 19 2 20 1 21 18 22 19 23 20 24
REMARK SMILES IDX 21 25 22 26 23 27 84 28 24 29 83 30 25 31 26 32 27 33 77 34
REMARK SMILES IDX 28 35 82 36 76 37 78 38 29 39 81 40 75 41 74 42 30 44 62 45
REMARK SMILES IDX 42 46 61 47 43 48 46 49 60 50 79 51 44 52 45 53 59 55 80 56
REMARK SMILES IDX 47 57 31 58 32 59 40 60 33 61 39 62 41 63 38 64 34 65 35 66
REMARK SMILES IDX 36 67 37 68 63 69 64 70 72 71 65 72 71 73 73 74 70 75 66 76
REMARK SMILES IDX 67 77 68 78 69 79 48 80 49 81 57 82 50 83 56 84 58 85 55 86
REMARK SMILES IDX 51 87 52 88 53 89 54 90
REMARK H PARENT 12 9 12 10 78 43 46 54
REMARK Flexibility Score: inf
ROOT
ATOM      1  C   UNL A   1      32.185  29.148  24.735  1.00  0.00     0.274 C 
ENDROOT
BRANCH   1   2
ATOM      2  O   UNL A   1      31.669  27.851  25.106  1.00  0.00    -0.458 OA
BRANCH   2   3
ATOM      3  C   UNL A   1      30.769  27.280  24.247  1.00  0.00     0.365 C 
ATOM      4  O   UNL A   1      30.010  27.906  23.522  1.00  0.00    -0.245 OA
BRANCH   3   5
ATOM      5  C   UNL A   1      31.060  25.785  24.106  1.00  0.00     0.304 C 
ATOM      6  C   UNL A   1      32.810  24.237  24.224  1.00  0.00     0.278 C 
ATOM      7  N   UNL A   1      32.069  25.175  25.096  1.00  0.00    -0.319 N 
ATOM      8  S   UNL A   1      33.325  25.402  22.960  1.00  0.00    -0.087 SA
ATOM      9  H   UNL A   1      32.686  25.887  25.485  1.00  0.00     0.348 HD
ATOM     10  H   UNL A   1      31.638  24.734  25.909  1.00  0.00     0.348 HD
ATOM     11  C   UNL A   1      31.594  25.659  22.673  1.00  0.00     0.153 C 
BRANCH   6  12
ATOM     12  C   UNL A   1      33.916  23.316  24.628  1.00  0.00     0.062 A 
ATOM     13  C   UNL A   1      33.858  21.902  24.467  1.00  0.00     0.131 A 
ATOM     14  C   UNL A   1      34.998  21.156  24.826  1.00  0.00     0.047 A 
ATOM     15  C   UNL A   1      36.103  21.741  25.446  1.00  0.00     0.004 A 
ATOM     16  C   UNL A   1      35.007  23.874  25.333  1.00  0.00     0.015 A 
ATOM     17  C   UNL A   1      36.088  23.095  25.741  1.00  0.00     0.001 A 
BRANCH  13  18
ATOM     18  O   UNL A   1      32.894  21.067  23.957  1.00  0.00    -0.478 OA
BRANCH  18  19
ATOM     19  C   UNL A   1      32.456  19.725  24.327  1.00  0.00     0.349 C 
BRANCH  19  20
ATOM     20  C   UNL A   1      32.509  18.677  23.226  1.00  0.00     0.104 C 
ATOM     21  N   UNL A   1      32.554  17.808  22.314  1.00  0.00    -0.195 NA
ENDBRANCH  19  20
ENDBRANCH  18  19
ENDBRANCH  13  18
ENDBRANCH   6  12
ENDBRANCH   3   5
ENDBRANCH   2   3
ENDBRANCH   1   2
BRANCH   1  22
ATOM     22  C   UNL A   1      31.820  30.271  25.738  1.00  0.00     0.275 C 
BRANCH  22  23
ATOM     23  O   UNL A   1      32.706  30.248  26.887  1.00  0.00    -0.458 OA
BRANCH  23  24
ATOM     24  C   UNL A   1      33.264  31.434  27.261  1.00  0.00     0.338 C 
ATOM     25  O   UNL A   1      32.760  32.537  27.179  1.00  0.00    -0.246 OA
BRANCH  24  26
ATOM     26  C   UNL A   1      34.598  31.180  27.844  1.00  0.00     0.060 A 
ATOM     27  C   UNL A   1      35.550  32.200  27.956  1.00  0.00     0.016 A 
ATOM     28  C   UNL A   1      34.909  29.884  28.251  1.00  0.00     0.016 A 
ATOM     29  C   UNL A   1      36.804  31.930  28.511  1.00  0.00     0.010 A 
ATOM     30  C   UNL A   1      36.150  29.627  28.842  1.00  0.00     0.010 A 
ATOM     31  C   UNL A   1      37.105  30.649  28.990  1.00  0.00    -0.014 A 
BRANCH  31  32
ATOM     32  C   UNL A   1      38.397  30.357  29.668  1.00  0.00     0.031 A 
ATOM     33  C   UNL A   1      39.360  29.378  29.059  1.00  0.00     0.074 A 
ATOM     34  C   UNL A   1      38.668  30.918  30.863  1.00  0.00     0.049 A 
ATOM     35  N   UNL A   1      40.427  28.829  29.579  1.00  0.00    -0.248 NA
ATOM     36  C   UNL A   1      39.073  28.954  27.681  1.00  0.00     0.031 C 
ATOM     37  C   UNL A   1      37.832  31.915  31.535  1.00  0.00     0.029 A 
ATOM     38  N   UNL A   1      39.708  30.716  31.737  1.00  0.00    -0.354 N 
ATOM     39  C   UNL A   1      40.928  27.973  28.604  1.00  0.00     0.074 A 
ATOM     40  C   UNL A   1      40.029  28.060  27.472  1.00  0.00     0.031 C 
ATOM     41  C   UNL A   1      38.390  32.233  32.715  1.00  0.00     0.029 A 
ATOM     42  C   UNL A   1      39.575  31.408  32.921  1.00  0.00     0.049 A 
ATOM     43  H   UNL A   1      40.476  30.132  31.538  1.00  0.00     0.167 HD
ATOM     44  C   UNL A   1      42.036  27.190  28.656  1.00  0.00     0.034 A 
ATOM     45  C   UNL A   1      40.292  31.346  34.061  1.00  0.00     0.034 A 
ATOM     46  C   UNL A   1      42.914  27.122  29.800  1.00  0.00     0.049 A 
ATOM     47  C   UNL A   1      41.458  30.390  34.134  1.00  0.00     0.074 A 
ATOM     48  C   UNL A   1      44.074  26.382  29.953  1.00  0.00     0.029 A 
ATOM     49  N   UNL A   1      42.724  27.809  30.994  1.00  0.00    -0.354 N 
ATOM     50  N   UNL A   1      41.918  29.578  33.210  1.00  0.00    -0.248 NA
ATOM     51  C   UNL A   1      42.196  30.338  35.403  1.00  0.00     0.031 C 
ATOM     52  C   UNL A   1      44.533  26.552  31.264  1.00  0.00     0.029 A 
ATOM     53  C   UNL A   1      43.717  27.472  31.902  1.00  0.00     0.049 A 
ATOM     54  H   UNL A   1      41.990  28.441  31.170  1.00  0.00     0.167 HD
ATOM     55  C   UNL A   1      43.018  28.941  33.778  1.00  0.00     0.074 A 
ATOM     56  C   UNL A   1      43.160  29.473  35.118  1.00  0.00     0.031 C 
ATOM     57  C   UNL A   1      43.840  28.004  33.240  1.00  0.00     0.034 A 
BRANCH  44  58
ATOM     58  C   UNL A   1      42.322  26.305  27.466  1.00  0.00     0.023 A 
ATOM     59  C   UNL A   1      41.887  24.969  27.408  1.00  0.00     0.031 A 
ATOM     60  C   UNL A   1      43.062  26.800  26.376  1.00  0.00     0.131 A 
ATOM     61  C   UNL A   1      42.258  24.158  26.324  1.00  0.00     0.055 A 
ATOM     62  C   UNL A   1      43.354  26.013  25.261  1.00  0.00     0.041 A 
ATOM     63  F   UNL A   1      43.526  28.061  26.382  1.00  0.00    -0.206 F 
ATOM     64  C   UNL A   1      42.964  24.678  25.237  1.00  0.00     0.022 A 
BRANCH  61  65
ATOM     65  S   UNL A   1      41.936  22.376  26.425  1.00  0.00     0.124 S 
ATOM     66  O   UNL A   1      42.669  21.876  25.265  1.00  0.00    -0.237 OA
ATOM     67  O   UNL A   1      42.490  22.028  27.730  1.00  0.00    -0.237 OA
ATOM     68  O   UNL A   1      40.482  22.282  26.320  1.00  0.00    -0.744 OA
ENDBRANCH  61  65
ENDBRANCH  44  58
BRANCH  45  69
ATOM     69  C   UNL A   1      39.899  32.160  35.250  1.00  0.00     0.023 A 
ATOM     70  C   UNL A   1      39.076  31.626  36.253  1.00  0.00     0.031 A 
ATOM     71  C   UNL A   1      40.303  33.502  35.377  1.00  0.00     0.131 A 
ATOM     72  C   UNL A   1      38.643  32.441  37.312  1.00  0.00     0.055 A 
ATOM     73  C   UNL A   1      39.924  34.289  36.467  1.00  0.00     0.041 A 
ATOM     74  F   UNL A   1      41.081  34.070  34.443  1.00  0.00    -0.206 F 
ATOM     75  C   UNL A   1      39.077  33.762  37.436  1.00  0.00     0.022 A 
BRANCH  72  76
ATOM     76  S   UNL A   1      37.418  31.776  38.472  1.00  0.00     0.124 S 
ATOM     77  O   UNL A   1      36.326  32.732  38.330  1.00  0.00    -0.237 OA
ATOM     78  O   UNL A   1      37.179  30.443  37.933  1.00  0.00    -0.237 OA
ATOM     79  O   UNL A   1      38.113  31.812  39.758  1.00  0.00    -0.744 OA
ENDBRANCH  72  76
ENDBRANCH  45  69
BRANCH  57  80
ATOM     80  C   UNL A   1      44.996  27.531  34.088  1.00  0.00     0.023 A 
ATOM     81  C   UNL A   1      44.889  26.413  34.932  1.00  0.00     0.031 A 
ATOM     82  C   UNL A   1      46.230  28.207  34.039  1.00  0.00     0.131 A 
ATOM     83  C   UNL A   1      45.980  26.031  35.728  1.00  0.00     0.055 A 
ATOM     84  C   UNL A   1      47.331  27.783  34.783  1.00  0.00     0.041 A 
ATOM     85  F   UNL A   1      46.387  29.286  33.255  1.00  0.00    -0.206 F 
ATOM     86  C   UNL A   1      47.207  26.695  35.642  1.00  0.00     0.022 A 
BRANCH  83  87
ATOM     87  S   UNL A   1      45.754  24.702  36.941  1.00  0.00     0.124 S 
ATOM     88  O   UNL A   1      46.755  25.039  37.949  1.00  0.00    -0.237 OA
ATOM     89  O   UNL A   1      44.362  24.879  37.343  1.00  0.00    -0.237 OA
ATOM     90  O   UNL A   1      46.027  23.487  36.177  1.00  0.00    -0.744 OA
ENDBRANCH  83  87
ENDBRANCH  57  80
ENDBRANCH  31  32
ENDBRANCH  24  26
ENDBRANCH  23  24
ENDBRANCH  22  23
ENDBRANCH   1  22
TORSDOF 18
ENDMDL
