MODEL 1
REMARK VINA RESULT:     -12.0      0.000      0.000
REMARK SMILES CCOc1ccc(-c2ccc(C(=O)OCCOC(=O)c3ccc(-c4c5nc(c(-c6cc(S(=O)(=O)[O-])ccc6F)c6ccc([nH]6)c(-c6cc(S(=O)(=O)[O-])ccc6F)c6nc(c(-c7cc(S(=O)(=O)[O-])ccc7F)c7ccc4[nH]7)C=C6)C=C5)cc3)cn2)c(C)c1
REMARK SMILES IDX 15 1 14 2 12 3 13 4 11 5 8 6 9 7 84 8 10 9 83 10 7 11 4 12
REMARK SMILES IDX 5 13 87 14 6 15 85 16 86 17 3 18 2 19 1 20 16 21 17 22 18 23
REMARK SMILES IDX 19 24 20 25 21 26 82 27 22 28 81 29 23 30 24 31 25 32 75 33
REMARK SMILES IDX 26 34 80 35 74 36 76 37 27 38 79 39 73 40 72 41 28 43 60 44
REMARK SMILES IDX 40 45 59 46 41 47 44 48 58 49 77 50 42 51 43 52 57 54 78 55
REMARK SMILES IDX 45 56 29 57 30 58 38 59 31 60 37 61 39 62 36 63 32 64 33 65
REMARK SMILES IDX 34 66 35 67 61 68 62 69 70 70 63 71 69 72 71 73 68 74 64 75
REMARK SMILES IDX 65 76 66 77 67 78 46 79 47 80 55 81 48 82 54 83 56 84 53 85
REMARK SMILES IDX 49 86 50 87 51 88 52 89
REMARK H PARENT 76 42 44 53
REMARK Flexibility Score: inf
ROOT
ATOM      1  C   UNL A   1      32.263  29.686  26.776  1.00  0.00     0.275 C 
ENDROOT
BRANCH   1   2
ATOM      2  O   UNL A   1      32.594  28.399  26.240  1.00  0.00    -0.458 OA
BRANCH   2   3
ATOM      3  C   UNL A   1      31.927  27.399  26.859  1.00  0.00     0.339 C 
ATOM      4  O   UNL A   1      31.282  27.503  27.892  1.00  0.00    -0.246 OA
BRANCH   3   5
ATOM      5  C   UNL A   1      32.088  26.101  26.183  1.00  0.00     0.078 A 
ATOM      6  C   UNL A   1      32.489  23.531  25.260  1.00  0.00     0.070 A 
ATOM      7  C   UNL A   1      33.587  24.347  25.531  1.00  0.00     0.030 A 
ATOM      8  N   UNL A   1      31.220  24.008  25.327  1.00  0.00    -0.255 NA
ATOM      9  C   UNL A   1      33.385  25.627  26.026  1.00  0.00     0.019 A 
ATOM     10  C   UNL A   1      31.047  25.283  25.775  1.00  0.00     0.127 A 
BRANCH   6  11
ATOM     11  C   UNL A   1      32.676  22.144  24.791  1.00  0.00     0.003 A 
ATOM     12  C   UNL A   1      32.467  19.429  24.100  1.00  0.00     0.119 A 
ATOM     13  C   UNL A   1      32.823  19.785  25.393  1.00  0.00     0.047 A 
ATOM     14  C   UNL A   1      32.400  20.397  23.105  1.00  0.00     0.050 A 
ATOM     15  C   UNL A   1      32.898  21.131  25.741  1.00  0.00     0.014 A 
ATOM     16  C   UNL A   1      32.560  21.758  23.430  1.00  0.00    -0.038 A 
ATOM     17  C   UNL A   1      32.597  22.751  22.294  1.00  0.00     0.045 C 
BRANCH  12  18
ATOM     18  O   UNL A   1      32.241  18.121  23.772  1.00  0.00    -0.494 OA
BRANCH  18  19
ATOM     19  C   UNL A   1      32.877  17.225  24.700  1.00  0.00     0.226 C 
ATOM     20  C   UNL A   1      33.939  16.368  24.027  1.00  0.00     0.049 C 
ENDBRANCH  18  19
ENDBRANCH  12  18
ENDBRANCH   6  11
ENDBRANCH   3   5
ENDBRANCH   2   3
ENDBRANCH   1   2
BRANCH   1  21
ATOM     21  C   UNL A   1      33.473  30.626  26.821  1.00  0.00     0.275 C 
BRANCH  21  22
ATOM     22  O   UNL A   1      34.642  30.192  27.576  1.00  0.00    -0.458 OA
BRANCH  22  23
ATOM     23  C   UNL A   1      35.709  30.931  27.990  1.00  0.00     0.338 C 
ATOM     24  O   UNL A   1      35.572  32.108  28.324  1.00  0.00    -0.246 OA
BRANCH  23  25
ATOM     25  C   UNL A   1      36.983  30.231  28.243  1.00  0.00     0.060 A 
ATOM     26  C   UNL A   1      37.148  29.474  29.418  1.00  0.00     0.016 A 
ATOM     27  C   UNL A   1      37.948  30.204  27.251  1.00  0.00     0.016 A 
ATOM     28  C   UNL A   1      38.212  28.590  29.537  1.00  0.00     0.010 A 
ATOM     29  C   UNL A   1      38.866  29.191  27.263  1.00  0.00     0.010 A 
ATOM     30  C   UNL A   1      39.044  28.444  28.432  1.00  0.00    -0.014 A 
BRANCH  30  31
ATOM     31  C   UNL A   1      40.321  27.756  28.465  1.00  0.00     0.031 A 
ATOM     32  C   UNL A   1      40.387  26.293  28.480  1.00  0.00     0.074 A 
ATOM     33  C   UNL A   1      41.361  28.616  28.378  1.00  0.00     0.049 A 
ATOM     34  N   UNL A   1      41.361  25.616  28.971  1.00  0.00    -0.248 NA
ATOM     35  C   UNL A   1      39.302  25.443  27.995  1.00  0.00     0.031 C 
ATOM     36  C   UNL A   1      42.775  28.432  28.131  1.00  0.00     0.029 A 
ATOM     37  N   UNL A   1      41.266  29.971  28.694  1.00  0.00    -0.354 N 
ATOM     38  C   UNL A   1      41.230  24.324  28.499  1.00  0.00     0.074 A 
ATOM     39  C   UNL A   1      39.854  24.226  28.086  1.00  0.00     0.031 C 
ATOM     40  C   UNL A   1      43.430  29.520  28.596  1.00  0.00     0.029 A 
ATOM     41  C   UNL A   1      42.457  30.373  29.273  1.00  0.00     0.049 A 
ATOM     42  H   UNL A   1      40.483  30.546  28.532  1.00  0.00     0.167 HD
ATOM     43  C   UNL A   1      42.367  23.593  28.307  1.00  0.00     0.034 A 
ATOM     44  C   UNL A   1      42.401  30.654  30.611  1.00  0.00     0.034 A 
ATOM     45  C   UNL A   1      43.522  24.378  28.758  1.00  0.00     0.049 A 
ATOM     46  C   UNL A   1      43.140  29.583  31.383  1.00  0.00     0.074 A 
ATOM     47  C   UNL A   1      44.424  25.172  28.067  1.00  0.00     0.029 A 
ATOM     48  N   UNL A   1      43.613  24.746  30.094  1.00  0.00    -0.354 N 
ATOM     49  N   UNL A   1      43.267  28.340  30.992  1.00  0.00    -0.248 NA
ATOM     50  C   UNL A   1      43.894  29.878  32.590  1.00  0.00     0.031 C 
ATOM     51  C   UNL A   1      44.967  26.109  28.992  1.00  0.00     0.029 A 
ATOM     52  C   UNL A   1      44.411  25.867  30.239  1.00  0.00     0.049 A 
ATOM     53  H   UNL A   1      43.171  24.274  30.836  1.00  0.00     0.167 HD
ATOM     54  C   UNL A   1      44.187  27.707  31.788  1.00  0.00     0.074 A 
ATOM     55  C   UNL A   1      44.534  28.714  32.784  1.00  0.00     0.031 C 
ATOM     56  C   UNL A   1      44.633  26.431  31.561  1.00  0.00     0.034 A 
BRANCH  43  57
ATOM     57  C   UNL A   1      42.526  22.360  27.432  1.00  0.00     0.023 A 
ATOM     58  C   UNL A   1      43.588  22.338  26.496  1.00  0.00     0.031 A 
ATOM     59  C   UNL A   1      41.694  21.225  27.407  1.00  0.00     0.131 A 
ATOM     60  C   UNL A   1      43.746  21.291  25.568  1.00  0.00     0.055 A 
ATOM     61  C   UNL A   1      41.841  20.185  26.473  1.00  0.00     0.041 A 
ATOM     62  F   UNL A   1      40.716  21.034  28.297  1.00  0.00    -0.206 F 
ATOM     63  C   UNL A   1      42.866  20.216  25.542  1.00  0.00     0.022 A 
BRANCH  60  64
ATOM     64  S   UNL A   1      45.119  21.361  24.385  1.00  0.00     0.124 S 
ATOM     65  O   UNL A   1      46.248  21.705  25.244  1.00  0.00    -0.237 OA
ATOM     66  O   UNL A   1      45.117  20.015  23.824  1.00  0.00    -0.237 OA
ATOM     67  O   UNL A   1      44.711  22.414  23.455  1.00  0.00    -0.744 OA
ENDBRANCH  60  64
ENDBRANCH  43  57
BRANCH  44  68
ATOM     68  C   UNL A   1      41.123  31.348  31.025  1.00  0.00     0.023 A 
ATOM     69  C   UNL A   1      40.214  30.603  31.819  1.00  0.00     0.031 A 
ATOM     70  C   UNL A   1      40.931  32.736  30.986  1.00  0.00     0.131 A 
ATOM     71  C   UNL A   1      39.307  31.241  32.682  1.00  0.00     0.055 A 
ATOM     72  C   UNL A   1      39.945  33.365  31.771  1.00  0.00     0.041 A 
ATOM     73  F   UNL A   1      41.746  33.521  30.268  1.00  0.00    -0.206 F 
ATOM     74  C   UNL A   1      39.158  32.625  32.658  1.00  0.00     0.022 A 
BRANCH  71  75
ATOM     75  S   UNL A   1      38.596  30.256  34.040  1.00  0.00     0.124 S 
ATOM     76  O   UNL A   1      37.824  31.252  34.774  1.00  0.00    -0.237 OA
ATOM     77  O   UNL A   1      37.820  29.247  33.320  1.00  0.00    -0.237 OA
ATOM     78  O   UNL A   1      39.763  29.722  34.736  1.00  0.00    -0.744 OA
ENDBRANCH  71  75
ENDBRANCH  44  68
BRANCH  56  79
ATOM     79  C   UNL A   1      45.411  25.600  32.553  1.00  0.00     0.023 A 
ATOM     80  C   UNL A   1      44.803  24.648  33.372  1.00  0.00     0.031 A 
ATOM     81  C   UNL A   1      46.825  25.672  32.641  1.00  0.00     0.131 A 
ATOM     82  C   UNL A   1      45.545  23.920  34.312  1.00  0.00     0.055 A 
ATOM     83  C   UNL A   1      47.577  24.849  33.480  1.00  0.00     0.041 A 
ATOM     84  F   UNL A   1      47.545  26.535  31.910  1.00  0.00    -0.206 F 
ATOM     85  C   UNL A   1      46.934  23.983  34.348  1.00  0.00     0.022 A 
BRANCH  82  86
ATOM     86  S   UNL A   1      44.623  22.997  35.560  1.00  0.00     0.124 S 
ATOM     87  O   UNL A   1      43.263  23.063  35.030  1.00  0.00    -0.237 OA
ATOM     88  O   UNL A   1      45.255  21.683  35.512  1.00  0.00    -0.237 OA
ATOM     89  O   UNL A   1      44.850  23.757  36.786  1.00  0.00    -0.744 OA
ENDBRANCH  82  86
ENDBRANCH  56  79
ENDBRANCH  30  31
ENDBRANCH  23  25
ENDBRANCH  22  23
ENDBRANCH  21  22
ENDBRANCH   1  21
TORSDOF 17
ENDMDL
MODEL 2
REMARK VINA RESULT:     -12.0      2.322      2.723
REMARK SMILES CCOc1ccc(-c2ccc(C(=O)OCCOC(=O)c3ccc(-c4c5nc(c(-c6cc(S(=O)(=O)[O-])ccc6F)c6ccc([nH]6)c(-c6cc(S(=O)(=O)[O-])ccc6F)c6nc(c(-c7cc(S(=O)(=O)[O-])ccc7F)c7ccc4[nH]7)C=C6)C=C5)cc3)cn2)c(C)c1
REMARK SMILES IDX 15 1 14 2 12 3 13 4 11 5 8 6 9 7 84 8 10 9 83 10 7 11 4 12
REMARK SMILES IDX 5 13 87 14 6 15 85 16 86 17 3 18 2 19 1 20 16 21 17 22 18 23
REMARK SMILES IDX 19 24 20 25 21 26 82 27 22 28 81 29 23 30 24 31 25 32 75 33
REMARK SMILES IDX 26 34 80 35 74 36 76 37 27 38 79 39 73 40 72 41 28 43 60 44
REMARK SMILES IDX 40 45 59 46 41 47 44 48 58 49 77 50 42 51 43 52 57 54 78 55
REMARK SMILES IDX 45 56 29 57 30 58 38 59 31 60 37 61 39 62 36 63 32 64 33 65
REMARK SMILES IDX 34 66 35 67 61 68 62 69 70 70 63 71 69 72 71 73 68 74 64 75
REMARK SMILES IDX 65 76 66 77 67 78 46 79 47 80 55 81 48 82 54 83 56 84 53 85
REMARK SMILES IDX 49 86 50 87 51 88 52 89
REMARK H PARENT 76 42 44 53
REMARK Flexibility Score: inf
ROOT
ATOM      1  C   UNL A   1      33.024  29.644  26.027  1.00  0.00     0.275 C 
ENDROOT
BRANCH   1   2
ATOM      2  O   UNL A   1      33.799  28.530  25.565  1.00  0.00    -0.458 OA
BRANCH   2   3
ATOM      3  C   UNL A   1      33.406  28.103  24.345  1.00  0.00     0.339 C 
ATOM      4  O   UNL A   1      33.107  28.819  23.399  1.00  0.00    -0.246 OA
BRANCH   3   5
ATOM      5  C   UNL A   1      33.315  26.637  24.255  1.00  0.00     0.078 A 
ATOM      6  C   UNL A   1      33.525  23.887  24.138  1.00  0.00     0.070 A 
ATOM      7  C   UNL A   1      33.912  24.657  23.041  1.00  0.00     0.030 A 
ATOM      8  N   UNL A   1      32.935  24.449  25.223  1.00  0.00    -0.255 NA
ATOM      9  C   UNL A   1      33.837  26.040  23.113  1.00  0.00     0.019 A 
ATOM     10  C   UNL A   1      32.832  25.807  25.254  1.00  0.00     0.127 A 
BRANCH   6  11
ATOM     11  C   UNL A   1      33.652  22.416  24.111  1.00  0.00     0.003 A 
ATOM     12  C   UNL A   1      33.710  19.657  24.634  1.00  0.00     0.119 A 
ATOM     13  C   UNL A   1      34.796  20.448  24.984  1.00  0.00     0.047 A 
ATOM     14  C   UNL A   1      32.684  20.187  23.861  1.00  0.00     0.050 A 
ATOM     15  C   UNL A   1      34.753  21.819  24.750  1.00  0.00     0.014 A 
ATOM     16  C   UNL A   1      32.673  21.558  23.544  1.00  0.00    -0.038 A 
ATOM     17  C   UNL A   1      31.601  22.053  22.603  1.00  0.00     0.045 C 
BRANCH  12  18
ATOM     18  O   UNL A   1      33.664  18.337  24.987  1.00  0.00    -0.494 OA
BRANCH  18  19
ATOM     19  C   UNL A   1      34.675  17.572  24.308  1.00  0.00     0.226 C 
ATOM     20  C   UNL A   1      34.892  16.212  24.956  1.00  0.00     0.049 C 
ENDBRANCH  18  19
ENDBRANCH  12  18
ENDBRANCH   6  11
ENDBRANCH   3   5
ENDBRANCH   2   3
ENDBRANCH   1   2
BRANCH   1  21
ATOM     21  C   UNL A   1      33.700  30.384  27.187  1.00  0.00     0.275 C 
BRANCH  21  22
ATOM     22  O   UNL A   1      35.059  29.992  27.540  1.00  0.00    -0.458 OA
BRANCH  22  23
ATOM     23  C   UNL A   1      35.905  30.572  28.436  1.00  0.00     0.338 C 
ATOM     24  O   UNL A   1      35.541  31.524  29.125  1.00  0.00    -0.246 OA
BRANCH  23  25
ATOM     25  C   UNL A   1      37.186  29.896  28.722  1.00  0.00     0.060 A 
ATOM     26  C   UNL A   1      37.268  28.963  29.773  1.00  0.00     0.016 A 
ATOM     27  C   UNL A   1      38.252  30.074  27.858  1.00  0.00     0.016 A 
ATOM     28  C   UNL A   1      38.366  28.119  29.873  1.00  0.00     0.010 A 
ATOM     29  C   UNL A   1      39.224  29.114  27.816  1.00  0.00     0.010 A 
ATOM     30  C   UNL A   1      39.320  28.192  28.864  1.00  0.00    -0.014 A 
BRANCH  30  31
ATOM     31  C   UNL A   1      40.626  27.564  28.937  1.00  0.00     0.031 A 
ATOM     32  C   UNL A   1      40.807  26.160  28.564  1.00  0.00     0.074 A 
ATOM     33  C   UNL A   1      41.593  28.446  29.276  1.00  0.00     0.049 A 
ATOM     34  N   UNL A   1      41.739  25.403  29.017  1.00  0.00    -0.248 NA
ATOM     35  C   UNL A   1      39.888  25.447  27.678  1.00  0.00     0.031 C 
ATOM     36  C   UNL A   1      43.038  28.385  29.246  1.00  0.00     0.029 A 
ATOM     37  N   UNL A   1      41.339  29.653  29.928  1.00  0.00    -0.354 N 
ATOM     38  C   UNL A   1      41.792  24.294  28.195  1.00  0.00     0.074 A 
ATOM     39  C   UNL A   1      40.514  24.273  27.531  1.00  0.00     0.031 C 
ATOM     40  C   UNL A   1      43.519  29.317  30.101  1.00  0.00     0.029 A 
ATOM     41  C   UNL A   1      42.382  29.912  30.798  1.00  0.00     0.049 A 
ATOM     42  H   UNL A   1      40.549  30.225  29.791  1.00  0.00     0.167 HD
ATOM     43  C   UNL A   1      43.000  23.684  28.019  1.00  0.00     0.034 A 
ATOM     44  C   UNL A   1      42.086  29.801  32.130  1.00  0.00     0.034 A 
ATOM     45  C   UNL A   1      43.998  24.346  28.866  1.00  0.00     0.049 A 
ATOM     46  C   UNL A   1      42.773  28.580  32.699  1.00  0.00     0.074 A 
ATOM     47  C   UNL A   1      44.934  25.331  28.592  1.00  0.00     0.029 A 
ATOM     48  N   UNL A   1      43.840  24.322  30.246  1.00  0.00    -0.354 N 
ATOM     49  N   UNL A   1      43.063  27.503  32.014  1.00  0.00    -0.248 NA
ATOM     50  C   UNL A   1      43.294  28.545  34.056  1.00  0.00     0.031 C 
ATOM     51  C   UNL A   1      45.241  25.984  29.820  1.00  0.00     0.029 A 
ATOM     52  C   UNL A   1      44.510  25.381  30.832  1.00  0.00     0.049 A 
ATOM     53  H   UNL A   1      43.322  23.646  30.739  1.00  0.00     0.167 HD
ATOM     54  C   UNL A   1      43.888  26.700  32.758  1.00  0.00     0.074 A 
ATOM     55  C   UNL A   1      43.985  27.394  34.037  1.00  0.00     0.031 C 
ATOM     56  C   UNL A   1      44.467  25.556  32.276  1.00  0.00     0.034 A 
BRANCH  43  57
ATOM     57  C   UNL A   1      43.399  22.755  26.883  1.00  0.00     0.023 A 
ATOM     58  C   UNL A   1      42.880  21.438  26.884  1.00  0.00     0.031 A 
ATOM     59  C   UNL A   1      44.285  23.039  25.826  1.00  0.00     0.131 A 
ATOM     60  C   UNL A   1      43.282  20.475  25.938  1.00  0.00     0.055 A 
ATOM     61  C   UNL A   1      44.698  22.076  24.890  1.00  0.00     0.041 A 
ATOM     62  F   UNL A   1      44.776  24.263  25.613  1.00  0.00    -0.206 F 
ATOM     63  C   UNL A   1      44.203  20.784  24.946  1.00  0.00     0.022 A 
BRANCH  60  64
ATOM     64  S   UNL A   1      42.586  18.802  26.034  1.00  0.00     0.124 S 
ATOM     65  O   UNL A   1      41.189  19.030  25.680  1.00  0.00    -0.237 OA
ATOM     66  O   UNL A   1      43.391  18.073  25.061  1.00  0.00    -0.237 OA
ATOM     67  O   UNL A   1      42.813  18.421  27.428  1.00  0.00    -0.744 OA
ENDBRANCH  60  64
ENDBRANCH  43  57
BRANCH  44  68
ATOM     68  C   UNL A   1      40.706  30.309  32.482  1.00  0.00     0.023 A 
ATOM     69  C   UNL A   1      40.401  31.646  32.121  1.00  0.00     0.031 A 
ATOM     70  C   UNL A   1      39.620  29.483  32.806  1.00  0.00     0.131 A 
ATOM     71  C   UNL A   1      39.076  32.057  31.898  1.00  0.00     0.055 A 
ATOM     72  C   UNL A   1      38.291  29.933  32.686  1.00  0.00     0.041 A 
ATOM     73  F   UNL A   1      39.812  28.202  33.150  1.00  0.00    -0.206 F 
ATOM     74  C   UNL A   1      38.011  31.210  32.188  1.00  0.00     0.022 A 
BRANCH  71  75
ATOM     75  S   UNL A   1      38.814  33.572  30.920  1.00  0.00     0.124 S 
ATOM     76  O   UNL A   1      38.680  33.048  29.566  1.00  0.00    -0.237 OA
ATOM     77  O   UNL A   1      37.597  34.122  31.517  1.00  0.00    -0.237 OA
ATOM     78  O   UNL A   1      40.012  34.368  31.175  1.00  0.00    -0.744 OA
ENDBRANCH  71  75
ENDBRANCH  44  68
BRANCH  56  79
ATOM     79  C   UNL A   1      45.138  24.503  33.126  1.00  0.00     0.023 A 
ATOM     80  C   UNL A   1      46.392  24.699  33.707  1.00  0.00     0.031 A 
ATOM     81  C   UNL A   1      44.488  23.289  33.464  1.00  0.00     0.131 A 
ATOM     82  C   UNL A   1      47.008  23.689  34.457  1.00  0.00     0.055 A 
ATOM     83  C   UNL A   1      45.045  22.342  34.324  1.00  0.00     0.041 A 
ATOM     84  F   UNL A   1      43.277  22.968  32.986  1.00  0.00    -0.206 F 
ATOM     85  C   UNL A   1      46.331  22.525  34.805  1.00  0.00     0.022 A 
BRANCH  82  86
ATOM     86  S   UNL A   1      48.759  23.897  34.846  1.00  0.00     0.124 S 
ATOM     87  O   UNL A   1      48.980  22.812  35.800  1.00  0.00    -0.237 OA
ATOM     88  O   UNL A   1      49.394  23.730  33.543  1.00  0.00    -0.237 OA
ATOM     89  O   UNL A   1      48.828  25.243  35.408  1.00  0.00    -0.744 OA
ENDBRANCH  82  86
ENDBRANCH  56  79
ENDBRANCH  30  31
ENDBRANCH  23  25
ENDBRANCH  22  23
ENDBRANCH  21  22
ENDBRANCH   1  21
TORSDOF 17
ENDMDL
MODEL 3
REMARK VINA RESULT:     -11.8      3.581      5.790
REMARK SMILES CCOc1ccc(-c2ccc(C(=O)OCCOC(=O)c3ccc(-c4c5nc(c(-c6cc(S(=O)(=O)[O-])ccc6F)c6ccc([nH]6)c(-c6cc(S(=O)(=O)[O-])ccc6F)c6nc(c(-c7cc(S(=O)(=O)[O-])ccc7F)c7ccc4[nH]7)C=C6)C=C5)cc3)cn2)c(C)c1
REMARK SMILES IDX 15 1 14 2 12 3 13 4 11 5 8 6 9 7 84 8 10 9 83 10 7 11 4 12
REMARK SMILES IDX 5 13 87 14 6 15 85 16 86 17 3 18 2 19 1 20 16 21 17 22 18 23
REMARK SMILES IDX 19 24 20 25 21 26 82 27 22 28 81 29 23 30 24 31 25 32 75 33
REMARK SMILES IDX 26 34 80 35 74 36 76 37 27 38 79 39 73 40 72 41 28 43 60 44
REMARK SMILES IDX 40 45 59 46 41 47 44 48 58 49 77 50 42 51 43 52 57 54 78 55
REMARK SMILES IDX 45 56 29 57 30 58 38 59 31 60 37 61 39 62 36 63 32 64 33 65
REMARK SMILES IDX 34 66 35 67 61 68 62 69 70 70 63 71 69 72 71 73 68 74 64 75
REMARK SMILES IDX 65 76 66 77 67 78 46 79 47 80 55 81 48 82 54 83 56 84 53 85
REMARK SMILES IDX 49 86 50 87 51 88 52 89
REMARK H PARENT 76 42 44 53
REMARK Flexibility Score: inf
ROOT
ATOM      1  C   UNL A   1      33.293  34.841  29.716  1.00  0.00     0.275 C 
ENDROOT
BRANCH   1   2
ATOM      2  O   UNL A   1      33.869  33.539  29.877  1.00  0.00    -0.458 OA
BRANCH   2   3
ATOM      3  C   UNL A   1      34.797  33.269  28.932  1.00  0.00     0.339 C 
ATOM      4  O   UNL A   1      35.812  33.918  28.722  1.00  0.00    -0.246 OA
BRANCH   3   5
ATOM      5  C   UNL A   1      34.447  32.103  28.105  1.00  0.00     0.078 A 
ATOM      6  C   UNL A   1      33.698  29.743  26.885  1.00  0.00     0.070 A 
ATOM      7  C   UNL A   1      34.922  29.819  27.548  1.00  0.00     0.030 A 
ATOM      8  N   UNL A   1      32.913  30.838  26.723  1.00  0.00    -0.255 NA
ATOM      9  C   UNL A   1      35.284  30.996  28.189  1.00  0.00     0.019 A 
ATOM     10  C   UNL A   1      33.308  31.994  27.325  1.00  0.00     0.127 A 
BRANCH   6  11
ATOM     11  C   UNL A   1      33.261  28.485  26.247  1.00  0.00     0.003 A 
ATOM     12  C   UNL A   1      32.943  25.872  25.266  1.00  0.00     0.119 A 
ATOM     13  C   UNL A   1      33.717  26.783  24.562  1.00  0.00     0.047 A 
ATOM     14  C   UNL A   1      32.176  26.299  26.345  1.00  0.00     0.050 A 
ATOM     15  C   UNL A   1      33.898  28.069  25.064  1.00  0.00     0.014 A 
ATOM     16  C   UNL A   1      32.284  27.622  26.810  1.00  0.00    -0.038 A 
ATOM     17  C   UNL A   1      31.341  28.061  27.904  1.00  0.00     0.045 C 
BRANCH  12  18
ATOM     18  O   UNL A   1      32.872  24.564  24.875  1.00  0.00    -0.494 OA
BRANCH  18  19
ATOM     19  C   UNL A   1      31.740  23.897  25.460  1.00  0.00     0.226 C 
ATOM     20  C   UNL A   1      31.991  22.408  25.647  1.00  0.00     0.049 C 
ENDBRANCH  18  19
ENDBRANCH  12  18
ENDBRANCH   6  11
ENDBRANCH   3   5
ENDBRANCH   2   3
ENDBRANCH   1   2
BRANCH   1  21
ATOM     21  C   UNL A   1      33.313  35.653  31.016  1.00  0.00     0.275 C 
BRANCH  21  22
ATOM     22  O   UNL A   1      33.693  34.960  32.242  1.00  0.00    -0.458 OA
BRANCH  22  23
ATOM     23  C   UNL A   1      34.725  35.233  33.088  1.00  0.00     0.338 C 
ATOM     24  O   UNL A   1      34.596  36.048  34.000  1.00  0.00    -0.246 OA
BRANCH  23  25
ATOM     25  C   UNL A   1      35.922  34.372  33.025  1.00  0.00     0.060 A 
ATOM     26  C   UNL A   1      36.068  33.306  33.934  1.00  0.00     0.016 A 
ATOM     27  C   UNL A   1      36.814  34.528  31.979  1.00  0.00     0.016 A 
ATOM     28  C   UNL A   1      37.027  32.326  33.713  1.00  0.00     0.010 A 
ATOM     29  C   UNL A   1      37.605  33.468  31.634  1.00  0.00     0.010 A 
ATOM     30  C   UNL A   1      37.766  32.412  32.538  1.00  0.00    -0.014 A 
BRANCH  30  31
ATOM     31  C   UNL A   1      38.953  31.623  32.268  1.00  0.00     0.031 A 
ATOM     32  C   UNL A   1      38.856  30.321  31.605  1.00  0.00     0.074 A 
ATOM     33  C   UNL A   1      40.085  32.281  32.606  1.00  0.00     0.049 A 
ATOM     34  N   UNL A   1      39.709  29.372  31.741  1.00  0.00    -0.248 NA
ATOM     35  C   UNL A   1      37.723  29.939  30.764  1.00  0.00     0.031 C 
ATOM     36  C   UNL A   1      41.484  32.044  32.324  1.00  0.00     0.029 A 
ATOM     37  N   UNL A   1      40.118  33.340  33.512  1.00  0.00    -0.354 N 
ATOM     38  C   UNL A   1      39.472  28.470  30.722  1.00  0.00     0.074 A 
ATOM     39  C   UNL A   1      38.129  28.755  30.289  1.00  0.00     0.031 C 
ATOM     40  C   UNL A   1      42.220  32.701  33.251  1.00  0.00     0.029 A 
ATOM     41  C   UNL A   1      41.298  33.270  34.231  1.00  0.00     0.049 A 
ATOM     42  H   UNL A   1      39.418  34.024  33.624  1.00  0.00     0.167 HD
ATOM     43  C   UNL A   1      40.532  27.764  30.231  1.00  0.00     0.034 A 
ATOM     44  C   UNL A   1      41.174  32.912  35.546  1.00  0.00     0.034 A 
ATOM     45  C   UNL A   1      41.729  28.094  31.012  1.00  0.00     0.049 A 
ATOM     46  C   UNL A   1      41.729  31.519  35.744  1.00  0.00     0.074 A 
ATOM     47  C   UNL A   1      42.763  28.988  30.782  1.00  0.00     0.029 A 
ATOM     48  N   UNL A   1      41.760  27.793  32.368  1.00  0.00    -0.354 N 
ATOM     49  N   UNL A   1      41.747  30.588  34.824  1.00  0.00    -0.248 NA
ATOM     50  C   UNL A   1      42.418  31.126  36.962  1.00  0.00     0.031 C 
ATOM     51  C   UNL A   1      43.335  29.316  32.044  1.00  0.00     0.029 A 
ATOM     52  C   UNL A   1      42.664  28.607  33.028  1.00  0.00     0.049 A 
ATOM     53  H   UNL A   1      41.213  27.097  32.799  1.00  0.00     0.167 HD
ATOM     54  C   UNL A   1      42.528  29.545  35.250  1.00  0.00     0.074 A 
ATOM     55  C   UNL A   1      42.909  29.928  36.604  1.00  0.00     0.031 C 
ATOM     56  C   UNL A   1      42.846  28.468  34.465  1.00  0.00     0.034 A 
BRANCH  43  57
ATOM     57  C   UNL A   1      40.620  27.059  28.886  1.00  0.00     0.023 A 
ATOM     58  C   UNL A   1      41.646  27.449  27.993  1.00  0.00     0.031 A 
ATOM     59  C   UNL A   1      39.750  26.069  28.390  1.00  0.00     0.131 A 
ATOM     60  C   UNL A   1      41.736  26.934  26.686  1.00  0.00     0.055 A 
ATOM     61  C   UNL A   1      39.830  25.563  27.081  1.00  0.00     0.041 A 
ATOM     62  F   UNL A   1      38.799  25.509  29.141  1.00  0.00    -0.206 F 
ATOM     63  C   UNL A   1      40.821  26.000  26.218  1.00  0.00     0.022 A 
BRANCH  60  64
ATOM     64  S   UNL A   1      43.069  27.515  25.600  1.00  0.00     0.124 S 
ATOM     65  O   UNL A   1      43.861  28.345  26.501  1.00  0.00    -0.237 OA
ATOM     66  O   UNL A   1      43.681  26.266  25.162  1.00  0.00    -0.237 OA
ATOM     67  O   UNL A   1      42.357  28.249  24.554  1.00  0.00    -0.744 OA
ENDBRANCH  60  64
ENDBRANCH  43  57
BRANCH  44  68
ATOM     68  C   UNL A   1      39.952  33.502  36.214  1.00  0.00     0.023 A 
ATOM     69  C   UNL A   1      38.975  32.591  36.691  1.00  0.00     0.031 A 
ATOM     70  C   UNL A   1      39.876  34.815  36.700  1.00  0.00     0.131 A 
ATOM     71  C   UNL A   1      38.114  32.932  37.747  1.00  0.00     0.055 A 
ATOM     72  C   UNL A   1      38.937  35.183  37.683  1.00  0.00     0.041 A 
ATOM     73  F   UNL A   1      40.763  35.743  36.311  1.00  0.00    -0.206 F 
ATOM     74  C   UNL A   1      38.080  34.231  38.245  1.00  0.00     0.022 A 
BRANCH  71  75
ATOM     75  S   UNL A   1      37.308  31.572  38.653  1.00  0.00     0.124 S 
ATOM     76  O   UNL A   1      37.450  30.455  37.727  1.00  0.00    -0.237 OA
ATOM     77  O   UNL A   1      38.107  31.496  39.876  1.00  0.00    -0.237 OA
ATOM     78  O   UNL A   1      35.944  32.049  38.864  1.00  0.00    -0.744 OA
ENDBRANCH  71  75
ENDBRANCH  44  68
BRANCH  56  79
ATOM     79  C   UNL A   1      43.452  27.181  34.970  1.00  0.00     0.023 A 
ATOM     80  C   UNL A   1      44.729  26.757  34.598  1.00  0.00     0.031 A 
ATOM     81  C   UNL A   1      42.794  26.371  35.931  1.00  0.00     0.131 A 
ATOM     82  C   UNL A   1      45.248  25.538  35.051  1.00  0.00     0.055 A 
ATOM     83  C   UNL A   1      43.370  25.228  36.486  1.00  0.00     0.041 A 
ATOM     84  F   UNL A   1      41.565  26.657  36.387  1.00  0.00    -0.206 F 
ATOM     85  C   UNL A   1      44.598  24.785  36.023  1.00  0.00     0.022 A 
BRANCH  82  86
ATOM     86  S   UNL A   1      46.731  24.914  34.230  1.00  0.00     0.124 S 
ATOM     87  O   UNL A   1      46.694  23.498  34.591  1.00  0.00    -0.237 OA
ATOM     88  O   UNL A   1      46.465  25.213  32.827  1.00  0.00    -0.237 OA
ATOM     89  O   UNL A   1      47.811  25.684  34.841  1.00  0.00    -0.744 OA
ENDBRANCH  82  86
ENDBRANCH  56  79
ENDBRANCH  30  31
ENDBRANCH  23  25
ENDBRANCH  22  23
ENDBRANCH  21  22
ENDBRANCH   1  21
TORSDOF 17
ENDMDL
