MODEL 1
REMARK VINA RESULT:     -12.1      0.000      0.000
REMARK SMILES O=C(CCCc1nc(-c2ccc(Cl)c(Cl)c2)c(-c2ccccc2)o1)OCCOC(=O)c1ccc(-c2c3nc(c(-c4cc(S(=O)(=O)[O-])ccc4F)c4ccc([nH]4)c(-c4cc(S(=O)(=O)[O-])ccc4F)c4nc(c(-c5cc(S(=O)(=O)[O-])ccc5F)c5ccc2[nH]5)C=C4)C=C3)cc1
REMARK SMILES IDX 26 1 25 2 2 3 1 4 3 5 4 6 5 7 6 8 7 9 24 10 8 11 17 12 9 13
REMARK SMILES IDX 10 14 16 15 11 16 14 17 12 18 15 19 13 20 18 21 19 22 23 23
REMARK SMILES IDX 20 24 22 25 21 26 27 27 28 28 29 29 30 30 31 31 32 32 93 33
REMARK SMILES IDX 33 34 92 35 34 36 35 37 36 38 86 39 37 40 91 41 85 42 87 43
REMARK SMILES IDX 38 44 90 45 84 46 83 47 39 49 71 50 51 51 70 52 52 53 55 54
REMARK SMILES IDX 69 55 88 56 53 57 54 58 68 60 89 61 56 62 40 63 41 64 49 65
REMARK SMILES IDX 42 66 48 67 50 68 47 69 43 70 44 71 45 72 46 73 72 74 73 75
REMARK SMILES IDX 81 76 74 77 80 78 82 79 79 80 75 81 76 82 77 83 78 84 57 85
REMARK SMILES IDX 58 86 66 87 59 88 65 89 67 90 64 91 60 92 61 93 62 94 63 95
REMARK H PARENT 87 48 55 59
REMARK Flexibility Score: inf
ROOT
ATOM      1  C   UNL A   1      31.425  30.166  25.593  1.00  0.00     0.274 C 
ENDROOT
BRANCH   1   2
ATOM      2  O   UNL A   1      32.108  28.940  25.905  1.00  0.00    -0.462 OA
BRANCH   2   3
ATOM      3  C   UNL A   1      31.509  27.751  25.640  1.00  0.00     0.305 C 
ATOM      4  O   UNL A   1      31.816  26.737  26.258  1.00  0.00    -0.252 OA
BRANCH   3   5
ATOM      5  C   UNL A   1      30.556  27.711  24.462  1.00  0.00     0.123 C 
BRANCH   5   6
ATOM      6  C   UNL A   1      31.157  27.137  23.180  1.00  0.00     0.021 C 
BRANCH   6   7
ATOM      7  C   UNL A   1      30.712  25.719  22.814  1.00  0.00     0.098 C 
BRANCH   7   8
ATOM      8  C   UNL A   1      31.562  24.606  23.336  1.00  0.00     0.195 A 
ATOM      9  N   UNL A   1      31.246  23.323  23.378  1.00  0.00    -0.213 NA
ATOM     10  O   UNL A   1      32.847  24.888  23.732  1.00  0.00    -0.440 OA
ATOM     11  C   UNL A   1      32.384  22.721  23.845  1.00  0.00     0.117 A 
ATOM     12  C   UNL A   1      33.382  23.658  24.023  1.00  0.00     0.162 A 
BRANCH  11  13
ATOM     13  C   UNL A   1      32.513  21.305  24.096  1.00  0.00     0.006 A 
ATOM     14  C   UNL A   1      32.781  20.838  25.387  1.00  0.00     0.012 A 
ATOM     15  C   UNL A   1      32.331  20.389  23.052  1.00  0.00     0.032 A 
ATOM     16  C   UNL A   1      32.832  19.463  25.637  1.00  0.00     0.023 A 
ATOM     17  C   UNL A   1      32.401  19.015  23.298  1.00  0.00     0.060 A 
ATOM     18  C   UNL A   1      32.642  18.550  24.595  1.00  0.00     0.059 A 
ATOM     19  Cl  UNL A   1      32.174  17.947  21.958  1.00  0.00    -0.083 Cl
ATOM     20  Cl  UNL A   1      32.718  16.867  24.977  1.00  0.00    -0.083 Cl
ENDBRANCH  11  13
BRANCH  12  21
ATOM     21  C   UNL A   1      34.784  23.585  24.393  1.00  0.00     0.020 A 
ATOM     22  C   UNL A   1      35.227  24.053  25.631  1.00  0.00     0.012 A 
ATOM     23  C   UNL A   1      35.698  22.944  23.540  1.00  0.00     0.012 A 
ATOM     24  C   UNL A   1      36.553  23.848  26.027  1.00  0.00     0.001 A 
ATOM     25  C   UNL A   1      37.023  22.747  23.933  1.00  0.00     0.001 A 
ATOM     26  C   UNL A   1      37.446  23.189  25.183  1.00  0.00     0.000 A 
ENDBRANCH  12  21
ENDBRANCH   7   8
ENDBRANCH   6   7
ENDBRANCH   5   6
ENDBRANCH   3   5
ENDBRANCH   2   3
ENDBRANCH   1   2
BRANCH   1  27
ATOM     27  C   UNL A   1      31.808  31.327  26.515  1.00  0.00     0.275 C 
BRANCH  27  28
ATOM     28  O   UNL A   1      32.910  30.979  27.365  1.00  0.00    -0.458 OA
BRANCH  28  29
ATOM     29  C   UNL A   1      33.695  32.037  27.706  1.00  0.00     0.338 C 
ATOM     30  O   UNL A   1      33.319  33.185  27.848  1.00  0.00    -0.246 OA
BRANCH  29  31
ATOM     31  C   UNL A   1      35.063  31.582  28.054  1.00  0.00     0.060 A 
ATOM     32  C   UNL A   1      35.235  30.210  28.272  1.00  0.00     0.016 A 
ATOM     33  C   UNL A   1      36.154  32.450  28.178  1.00  0.00     0.016 A 
ATOM     34  C   UNL A   1      36.474  29.710  28.667  1.00  0.00     0.010 A 
ATOM     35  C   UNL A   1      37.402  31.944  28.572  1.00  0.00     0.010 A 
ATOM     36  C   UNL A   1      37.560  30.576  28.853  1.00  0.00    -0.014 A 
BRANCH  36  37
ATOM     37  C   UNL A   1      38.798  30.038  29.474  1.00  0.00     0.031 A 
ATOM     38  C   UNL A   1      39.191  30.511  30.848  1.00  0.00     0.074 A 
ATOM     39  C   UNL A   1      39.513  29.074  28.865  1.00  0.00     0.049 A 
ATOM     40  N   UNL A   1      40.162  30.097  31.623  1.00  0.00    -0.248 NA
ATOM     41  C   UNL A   1      38.376  31.589  31.429  1.00  0.00     0.031 C 
ATOM     42  C   UNL A   1      39.221  28.512  27.547  1.00  0.00     0.029 A 
ATOM     43  N   UNL A   1      40.626  28.386  29.282  1.00  0.00    -0.354 N 
ATOM     44  C   UNL A   1      40.059  30.844  32.791  1.00  0.00     0.074 A 
ATOM     45  C   UNL A   1      38.968  31.776  32.600  1.00  0.00     0.031 C 
ATOM     46  C   UNL A   1      40.130  27.561  27.266  1.00  0.00     0.029 A 
ATOM     47  C   UNL A   1      41.079  27.458  28.373  1.00  0.00     0.049 A 
ATOM     48  H   UNL A   1      41.059  28.542  30.153  1.00  0.00     0.167 HD
ATOM     49  C   UNL A   1      40.790  30.748  33.930  1.00  0.00     0.034 A 
ATOM     50  C   UNL A   1      42.139  26.625  28.428  1.00  0.00     0.034 A 
ATOM     51  C   UNL A   1      41.893  29.835  34.108  1.00  0.00     0.049 A 
ATOM     52  C   UNL A   1      42.994  26.601  29.673  1.00  0.00     0.074 A 
ATOM     53  C   UNL A   1      42.695  29.658  35.223  1.00  0.00     0.029 A 
ATOM     54  N   UNL A   1      42.361  28.954  33.142  1.00  0.00    -0.354 N 
ATOM     55  N   UNL A   1      42.859  27.287  30.785  1.00  0.00    -0.248 NA
ATOM     56  C   UNL A   1      44.135  25.675  29.677  1.00  0.00     0.031 C 
ATOM     57  C   UNL A   1      43.687  28.722  34.909  1.00  0.00     0.029 A 
ATOM     58  C   UNL A   1      43.460  28.259  33.623  1.00  0.00     0.049 A 
ATOM     59  H   UNL A   1      41.969  28.839  32.246  1.00  0.00     0.167 HD
ATOM     60  C   UNL A   1      43.879  26.849  31.628  1.00  0.00     0.074 A 
ATOM     61  C   UNL A   1      44.605  25.827  30.905  1.00  0.00     0.031 C 
ATOM     62  C   UNL A   1      44.187  27.251  32.887  1.00  0.00     0.034 A 
BRANCH  49  63
ATOM     63  C   UNL A   1      40.438  31.686  35.057  1.00  0.00     0.023 A 
ATOM     64  C   UNL A   1      39.420  31.380  35.977  1.00  0.00     0.031 A 
ATOM     65  C   UNL A   1      41.120  32.906  35.206  1.00  0.00     0.131 A 
ATOM     66  C   UNL A   1      39.075  32.310  36.971  1.00  0.00     0.055 A 
ATOM     67  C   UNL A   1      40.819  33.795  36.240  1.00  0.00     0.041 A 
ATOM     68  F   UNL A   1      42.085  33.260  34.341  1.00  0.00    -0.206 F 
ATOM     69  C   UNL A   1      39.784  33.504  37.123  1.00  0.00     0.022 A 
BRANCH  66  70
ATOM     70  S   UNL A   1      37.610  31.987  37.991  1.00  0.00     0.124 S 
ATOM     71  O   UNL A   1      36.624  32.874  37.379  1.00  0.00    -0.237 OA
ATOM     72  O   UNL A   1      37.395  30.558  37.793  1.00  0.00    -0.237 OA
ATOM     73  O   UNL A   1      38.036  32.373  39.334  1.00  0.00    -0.744 OA
ENDBRANCH  66  70
ENDBRANCH  49  63
BRANCH  50  74
ATOM     74  C   UNL A   1      42.488  25.759  27.263  1.00  0.00     0.023 A 
ATOM     75  C   UNL A   1      42.053  24.426  27.187  1.00  0.00     0.031 A 
ATOM     76  C   UNL A   1      43.343  26.231  26.253  1.00  0.00     0.131 A 
ATOM     77  C   UNL A   1      42.528  23.593  26.161  1.00  0.00     0.055 A 
ATOM     78  C   UNL A   1      43.766  25.415  25.202  1.00  0.00     0.041 A 
ATOM     79  F   UNL A   1      43.791  27.496  26.278  1.00  0.00    -0.206 F 
ATOM     80  C   UNL A   1      43.371  24.081  25.161  1.00  0.00     0.022 A 
BRANCH  77  81
ATOM     81  S   UNL A   1      42.117  21.825  26.215  1.00  0.00     0.124 S 
ATOM     82  O   UNL A   1      40.698  21.840  25.879  1.00  0.00    -0.237 OA
ATOM     83  O   UNL A   1      43.011  21.277  25.201  1.00  0.00    -0.237 OA
ATOM     84  O   UNL A   1      42.429  21.446  27.590  1.00  0.00    -0.744 OA
ENDBRANCH  77  81
ENDBRANCH  50  74
BRANCH  62  85
ATOM     85  C   UNL A   1      45.339  26.551  33.570  1.00  0.00     0.023 A 
ATOM     86  C   UNL A   1      45.162  25.341  34.264  1.00  0.00     0.031 A 
ATOM     87  C   UNL A   1      46.627  27.115  33.546  1.00  0.00     0.131 A 
ATOM     88  C   UNL A   1      46.238  24.767  34.958  1.00  0.00     0.055 A 
ATOM     89  C   UNL A   1      47.708  26.509  34.187  1.00  0.00     0.041 A 
ATOM     90  F   UNL A   1      46.856  28.269  32.898  1.00  0.00    -0.206 F 
ATOM     91  C   UNL A   1      47.513  25.336  34.911  1.00  0.00     0.022 A 
BRANCH  88  92
ATOM     92  S   UNL A   1      45.927  23.320  36.006  1.00  0.00     0.124 S 
ATOM     93  O   UNL A   1      45.338  22.379  35.060  1.00  0.00    -0.237 OA
ATOM     94  O   UNL A   1      47.267  22.988  36.484  1.00  0.00    -0.237 OA
ATOM     95  O   UNL A   1      45.013  23.826  37.028  1.00  0.00    -0.744 OA
ENDBRANCH  88  92
ENDBRANCH  62  85
ENDBRANCH  36  37
ENDBRANCH  29  31
ENDBRANCH  28  29
ENDBRANCH  27  28
ENDBRANCH   1  27
TORSDOF 19
ENDMDL
MODEL 2
REMARK VINA RESULT:     -12.0      5.109     10.254
REMARK SMILES O=C(CCCc1nc(-c2ccc(Cl)c(Cl)c2)c(-c2ccccc2)o1)OCCOC(=O)c1ccc(-c2c3nc(c(-c4cc(S(=O)(=O)[O-])ccc4F)c4ccc([nH]4)c(-c4cc(S(=O)(=O)[O-])ccc4F)c4nc(c(-c5cc(S(=O)(=O)[O-])ccc5F)c5ccc2[nH]5)C=C4)C=C3)cc1
REMARK SMILES IDX 26 1 25 2 2 3 1 4 3 5 4 6 5 7 6 8 7 9 24 10 8 11 17 12 9 13
REMARK SMILES IDX 10 14 16 15 11 16 14 17 12 18 15 19 13 20 18 21 19 22 23 23
REMARK SMILES IDX 20 24 22 25 21 26 27 27 28 28 29 29 30 30 31 31 32 32 93 33
REMARK SMILES IDX 33 34 92 35 34 36 35 37 36 38 86 39 37 40 91 41 85 42 87 43
REMARK SMILES IDX 38 44 90 45 84 46 83 47 39 49 71 50 51 51 70 52 52 53 55 54
REMARK SMILES IDX 69 55 88 56 53 57 54 58 68 60 89 61 56 62 40 63 41 64 49 65
REMARK SMILES IDX 42 66 48 67 50 68 47 69 43 70 44 71 45 72 46 73 72 74 73 75
REMARK SMILES IDX 81 76 74 77 80 78 82 79 79 80 75 81 76 82 77 83 78 84 57 85
REMARK SMILES IDX 58 86 66 87 59 88 65 89 67 90 64 91 60 92 61 93 62 94 63 95
REMARK H PARENT 87 48 55 59
REMARK Flexibility Score: inf
ROOT
ATOM      1  C   UNL A   1      35.519  21.885  25.861  1.00  0.00     0.274 C 
ENDROOT
BRANCH   1   2
ATOM      2  O   UNL A   1      35.261  23.001  24.992  1.00  0.00    -0.462 OA
BRANCH   2   3
ATOM      3  C   UNL A   1      34.750  22.783  23.752  1.00  0.00     0.305 C 
ATOM      4  O   UNL A   1      35.310  23.220  22.753  1.00  0.00    -0.252 OA
BRANCH   3   5
ATOM      5  C   UNL A   1      33.397  22.105  23.678  1.00  0.00     0.123 C 
BRANCH   5   6
ATOM      6  C   UNL A   1      32.356  22.855  22.848  1.00  0.00     0.021 C 
BRANCH   6   7
ATOM      7  C   UNL A   1      31.136  23.367  23.618  1.00  0.00     0.098 C 
BRANCH   7   8
ATOM      8  C   UNL A   1      31.135  24.821  23.960  1.00  0.00     0.195 A 
ATOM      9  N   UNL A   1      31.976  25.443  24.770  1.00  0.00    -0.213 NA
ATOM     10  O   UNL A   1      30.250  25.650  23.316  1.00  0.00    -0.440 OA
ATOM     11  C   UNL A   1      31.614  26.760  24.668  1.00  0.00     0.117 A 
ATOM     12  C   UNL A   1      30.593  26.905  23.751  1.00  0.00     0.162 A 
BRANCH  11  13
ATOM     13  C   UNL A   1      32.233  27.835  25.407  1.00  0.00     0.006 A 
ATOM     14  C   UNL A   1      33.519  27.680  25.934  1.00  0.00     0.012 A 
ATOM     15  C   UNL A   1      31.561  29.054  25.565  1.00  0.00     0.032 A 
ATOM     16  C   UNL A   1      34.142  28.749  26.585  1.00  0.00     0.023 A 
ATOM     17  C   UNL A   1      32.176  30.117  26.233  1.00  0.00     0.060 A 
ATOM     18  C   UNL A   1      33.473  29.968  26.736  1.00  0.00     0.059 A 
ATOM     19  Cl  UNL A   1      31.282  31.587  26.396  1.00  0.00    -0.083 Cl
ATOM     20  Cl  UNL A   1      34.304  31.245  27.550  1.00  0.00    -0.083 Cl
ENDBRANCH  11  13
BRANCH  12  21
ATOM     21  C   UNL A   1      29.899  28.046  23.183  1.00  0.00     0.020 A 
ATOM     22  C   UNL A   1      30.571  28.973  22.382  1.00  0.00     0.012 A 
ATOM     23  C   UNL A   1      28.510  28.174  23.353  1.00  0.00     0.012 A 
ATOM     24  C   UNL A   1      29.860  29.986  21.730  1.00  0.00     0.001 A 
ATOM     25  C   UNL A   1      27.803  29.191  22.708  1.00  0.00     0.001 A 
ATOM     26  C   UNL A   1      28.478  30.089  21.887  1.00  0.00     0.000 A 
ENDBRANCH  12  21
ENDBRANCH   7   8
ENDBRANCH   6   7
ENDBRANCH   5   6
ENDBRANCH   3   5
ENDBRANCH   2   3
ENDBRANCH   1   2
BRANCH   1  27
ATOM     27  C   UNL A   1      36.578  20.923  25.317  1.00  0.00     0.275 C 
BRANCH  27  28
ATOM     28  O   UNL A   1      37.802  21.608  25.015  1.00  0.00    -0.458 OA
BRANCH  28  29
ATOM     29  C   UNL A   1      38.853  21.219  25.787  1.00  0.00     0.338 C 
ATOM     30  O   UNL A   1      39.357  20.112  25.798  1.00  0.00    -0.246 OA
BRANCH  29  31
ATOM     31  C   UNL A   1      39.429  22.379  26.510  1.00  0.00     0.060 A 
ATOM     32  C   UNL A   1      38.922  23.642  26.179  1.00  0.00     0.016 A 
ATOM     33  C   UNL A   1      40.437  22.263  27.473  1.00  0.00     0.016 A 
ATOM     34  C   UNL A   1      39.455  24.789  26.764  1.00  0.00     0.010 A 
ATOM     35  C   UNL A   1      40.970  23.419  28.063  1.00  0.00     0.010 A 
ATOM     36  C   UNL A   1      40.505  24.691  27.685  1.00  0.00    -0.014 A 
BRANCH  36  37
ATOM     37  C   UNL A   1      41.184  25.938  28.124  1.00  0.00     0.031 A 
ATOM     38  C   UNL A   1      42.601  26.192  27.684  1.00  0.00     0.074 A 
ATOM     39  C   UNL A   1      40.519  26.876  28.825  1.00  0.00     0.049 A 
ATOM     40  N   UNL A   1      43.344  27.257  27.853  1.00  0.00    -0.248 NA
ATOM     41  C   UNL A   1      43.265  25.104  26.950  1.00  0.00     0.031 C 
ATOM     42  C   UNL A   1      39.136  26.761  29.287  1.00  0.00     0.029 A 
ATOM     43  N   UNL A   1      40.915  28.116  29.260  1.00  0.00    -0.354 N 
ATOM     44  C   UNL A   1      44.553  26.978  27.224  1.00  0.00     0.074 A 
ATOM     45  C   UNL A   1      44.463  25.623  26.721  1.00  0.00     0.031 C 
ATOM     46  C   UNL A   1      38.799  27.888  29.937  1.00  0.00     0.029 A 
ATOM     47  C   UNL A   1      39.943  28.798  29.955  1.00  0.00     0.049 A 
ATOM     48  H   UNL A   1      41.813  28.484  29.089  1.00  0.00     0.167 HD
ATOM     49  C   UNL A   1      45.632  27.783  27.059  1.00  0.00     0.034 A 
ATOM     50  C   UNL A   1      39.975  30.013  30.540  1.00  0.00     0.034 A 
ATOM     51  C   UNL A   1      45.728  29.123  27.583  1.00  0.00     0.049 A 
ATOM     52  C   UNL A   1      41.223  30.856  30.419  1.00  0.00     0.074 A 
ATOM     53  C   UNL A   1      46.776  30.022  27.468  1.00  0.00     0.029 A 
ATOM     54  N   UNL A   1      44.747  29.756  28.334  1.00  0.00    -0.354 N 
ATOM     55  N   UNL A   1      42.344  30.592  29.787  1.00  0.00    -0.248 NA
ATOM     56  C   UNL A   1      41.202  32.171  31.076  1.00  0.00     0.031 C 
ATOM     57  C   UNL A   1      46.457  31.168  28.205  1.00  0.00     0.029 A 
ATOM     58  C   UNL A   1      45.179  31.017  28.719  1.00  0.00     0.049 A 
ATOM     59  H   UNL A   1      43.871  29.367  28.562  1.00  0.00     0.167 HD
ATOM     60  C   UNL A   1      43.144  31.722  29.947  1.00  0.00     0.074 A 
ATOM     61  C   UNL A   1      42.371  32.675  30.713  1.00  0.00     0.031 C 
ATOM     62  C   UNL A   1      44.404  31.955  29.497  1.00  0.00     0.034 A 
BRANCH  49  63
ATOM     63  C   UNL A   1      46.810  27.213  26.310  1.00  0.00     0.023 A 
ATOM     64  C   UNL A   1      47.864  26.567  26.979  1.00  0.00     0.031 A 
ATOM     65  C   UNL A   1      46.886  27.327  24.911  1.00  0.00     0.131 A 
ATOM     66  C   UNL A   1      48.976  26.110  26.253  1.00  0.00     0.055 A 
ATOM     67  C   UNL A   1      47.962  26.808  24.188  1.00  0.00     0.041 A 
ATOM     68  F   UNL A   1      45.918  27.955  24.223  1.00  0.00    -0.206 F 
ATOM     69  C   UNL A   1      49.021  26.205  24.861  1.00  0.00     0.022 A 
BRANCH  66  70
ATOM     70  S   UNL A   1      50.417  25.494  27.168  1.00  0.00     0.124 S 
ATOM     71  O   UNL A   1      50.594  26.536  28.176  1.00  0.00    -0.237 OA
ATOM     72  O   UNL A   1      49.951  24.202  27.658  1.00  0.00    -0.237 OA
ATOM     73  O   UNL A   1      51.467  25.434  26.153  1.00  0.00    -0.744 OA
ENDBRANCH  66  70
ENDBRANCH  49  63
BRANCH  50  74
ATOM     74  C   UNL A   1      38.808  30.511  31.326  1.00  0.00     0.023 A 
ATOM     75  C   UNL A   1      37.836  31.341  30.745  1.00  0.00     0.031 A 
ATOM     76  C   UNL A   1      38.704  30.237  32.701  1.00  0.00     0.131 A 
ATOM     77  C   UNL A   1      36.839  31.919  31.549  1.00  0.00     0.055 A 
ATOM     78  C   UNL A   1      37.678  30.768  33.484  1.00  0.00     0.041 A 
ATOM     79  F   UNL A   1      39.608  29.453  33.308  1.00  0.00    -0.206 F 
ATOM     80  C   UNL A   1      36.747  31.629  32.911  1.00  0.00     0.022 A 
BRANCH  77  81
ATOM     81  S   UNL A   1      35.730  33.151  30.808  1.00  0.00     0.124 S 
ATOM     82  O   UNL A   1      36.208  33.189  29.431  1.00  0.00    -0.237 OA
ATOM     83  O   UNL A   1      34.421  32.542  31.016  1.00  0.00    -0.237 OA
ATOM     84  O   UNL A   1      35.988  34.355  31.593  1.00  0.00    -0.744 OA
ENDBRANCH  77  81
ENDBRANCH  50  74
BRANCH  62  85
ATOM     85  C   UNL A   1      45.002  33.309  29.796  1.00  0.00     0.023 A 
ATOM     86  C   UNL A   1      44.857  34.393  28.911  1.00  0.00     0.031 A 
ATOM     87  C   UNL A   1      45.746  33.513  30.972  1.00  0.00     0.131 A 
ATOM     88  C   UNL A   1      45.500  35.611  29.183  1.00  0.00     0.055 A 
ATOM     89  C   UNL A   1      46.333  34.745  31.267  1.00  0.00     0.041 A 
ATOM     90  F   UNL A   1      45.917  32.516  31.854  1.00  0.00    -0.206 F 
ATOM     91  C   UNL A   1      46.225  35.797  30.363  1.00  0.00     0.022 A 
BRANCH  88  92
ATOM     92  S   UNL A   1      45.461  36.917  27.925  1.00  0.00     0.124 S 
ATOM     93  O   UNL A   1      44.240  37.636  28.271  1.00  0.00    -0.237 OA
ATOM     94  O   UNL A   1      46.711  37.628  28.176  1.00  0.00    -0.237 OA
ATOM     95  O   UNL A   1      45.410  36.179  26.665  1.00  0.00    -0.744 OA
ENDBRANCH  88  92
ENDBRANCH  62  85
ENDBRANCH  36  37
ENDBRANCH  29  31
ENDBRANCH  28  29
ENDBRANCH  27  28
ENDBRANCH   1  27
TORSDOF 19
ENDMDL
MODEL 3
REMARK VINA RESULT:     -11.9      1.477      1.653
REMARK SMILES O=C(CCCc1nc(-c2ccc(Cl)c(Cl)c2)c(-c2ccccc2)o1)OCCOC(=O)c1ccc(-c2c3nc(c(-c4cc(S(=O)(=O)[O-])ccc4F)c4ccc([nH]4)c(-c4cc(S(=O)(=O)[O-])ccc4F)c4nc(c(-c5cc(S(=O)(=O)[O-])ccc5F)c5ccc2[nH]5)C=C4)C=C3)cc1
REMARK SMILES IDX 26 1 25 2 2 3 1 4 3 5 4 6 5 7 6 8 7 9 24 10 8 11 17 12 9 13
REMARK SMILES IDX 10 14 16 15 11 16 14 17 12 18 15 19 13 20 18 21 19 22 23 23
REMARK SMILES IDX 20 24 22 25 21 26 27 27 28 28 29 29 30 30 31 31 32 32 93 33
REMARK SMILES IDX 33 34 92 35 34 36 35 37 36 38 86 39 37 40 91 41 85 42 87 43
REMARK SMILES IDX 38 44 90 45 84 46 83 47 39 49 71 50 51 51 70 52 52 53 55 54
REMARK SMILES IDX 69 55 88 56 53 57 54 58 68 60 89 61 56 62 40 63 41 64 49 65
REMARK SMILES IDX 42 66 48 67 50 68 47 69 43 70 44 71 45 72 46 73 72 74 73 75
REMARK SMILES IDX 81 76 74 77 80 78 82 79 79 80 75 81 76 82 77 83 78 84 57 85
REMARK SMILES IDX 58 86 66 87 59 88 65 89 67 90 64 91 60 92 61 93 62 94 63 95
REMARK H PARENT 87 48 55 59
REMARK Flexibility Score: inf
ROOT
ATOM      1  C   UNL A   1      31.408  29.687  25.350  1.00  0.00     0.274 C 
ENDROOT
BRANCH   1   2
ATOM      2  O   UNL A   1      32.048  28.558  25.968  1.00  0.00    -0.462 OA
BRANCH   2   3
ATOM      3  C   UNL A   1      31.666  27.299  25.630  1.00  0.00     0.305 C 
ATOM      4  O   UNL A   1      32.135  26.321  26.201  1.00  0.00    -0.252 OA
BRANCH   3   5
ATOM      5  C   UNL A   1      30.749  27.160  24.431  1.00  0.00     0.123 C 
BRANCH   5   6
ATOM      6  C   UNL A   1      31.465  27.153  23.082  1.00  0.00     0.021 C 
BRANCH   6   7
ATOM      7  C   UNL A   1      31.463  25.817  22.336  1.00  0.00     0.098 C 
BRANCH   7   8
ATOM      8  C   UNL A   1      32.173  24.686  23.006  1.00  0.00     0.195 A 
ATOM      9  N   UNL A   1      31.750  23.437  23.110  1.00  0.00    -0.213 NA
ATOM     10  O   UNL A   1      33.440  24.898  23.491  1.00  0.00    -0.440 OA
ATOM     11  C   UNL A   1      32.793  22.788  23.716  1.00  0.00     0.117 A 
ATOM     12  C   UNL A   1      33.847  23.658  23.912  1.00  0.00     0.162 A 
BRANCH  11  13
ATOM     13  C   UNL A   1      32.785  21.390  24.075  1.00  0.00     0.006 A 
ATOM     14  C   UNL A   1      32.991  21.001  25.403  1.00  0.00     0.012 A 
ATOM     15  C   UNL A   1      32.529  20.418  23.100  1.00  0.00     0.032 A 
ATOM     16  C   UNL A   1      32.909  19.651  25.757  1.00  0.00     0.023 A 
ATOM     17  C   UNL A   1      32.465  19.066  23.451  1.00  0.00     0.060 A 
ATOM     18  C   UNL A   1      32.646  18.682  24.784  1.00  0.00     0.059 A 
ATOM     19  Cl  UNL A   1      32.155  17.923  22.192  1.00  0.00    -0.083 Cl
ATOM     20  Cl  UNL A   1      32.558  17.034  25.294  1.00  0.00    -0.083 Cl
ENDBRANCH  11  13
BRANCH  12  21
ATOM     21  C   UNL A   1      35.203  23.506  24.407  1.00  0.00     0.020 A 
ATOM     22  C   UNL A   1      35.609  24.118  25.595  1.00  0.00     0.012 A 
ATOM     23  C   UNL A   1      36.098  22.653  23.740  1.00  0.00     0.012 A 
ATOM     24  C   UNL A   1      36.874  23.849  26.128  1.00  0.00     0.001 A 
ATOM     25  C   UNL A   1      37.363  22.392  24.269  1.00  0.00     0.001 A 
ATOM     26  C   UNL A   1      37.745  22.982  25.471  1.00  0.00     0.000 A 
ENDBRANCH  12  21
ENDBRANCH   7   8
ENDBRANCH   6   7
ENDBRANCH   5   6
ENDBRANCH   3   5
ENDBRANCH   2   3
ENDBRANCH   1   2
BRANCH   1  27
ATOM     27  C   UNL A   1      31.605  30.995  26.119  1.00  0.00     0.275 C 
BRANCH  27  28
ATOM     28  O   UNL A   1      32.523  30.828  27.209  1.00  0.00    -0.458 OA
BRANCH  28  29
ATOM     29  C   UNL A   1      33.249  31.943  27.491  1.00  0.00     0.338 C 
ATOM     30  O   UNL A   1      32.825  33.084  27.502  1.00  0.00    -0.246 OA
BRANCH  29  31
ATOM     31  C   UNL A   1      34.609  31.579  27.956  1.00  0.00     0.060 A 
ATOM     32  C   UNL A   1      34.815  30.242  28.316  1.00  0.00     0.016 A 
ATOM     33  C   UNL A   1      35.661  32.498  28.055  1.00  0.00     0.016 A 
ATOM     34  C   UNL A   1      36.045  29.831  28.825  1.00  0.00     0.010 A 
ATOM     35  C   UNL A   1      36.900  32.082  28.565  1.00  0.00     0.010 A 
ATOM     36  C   UNL A   1      37.088  30.753  28.985  1.00  0.00    -0.014 A 
BRANCH  36  37
ATOM     37  C   UNL A   1      38.305  30.328  29.723  1.00  0.00     0.031 A 
ATOM     38  C   UNL A   1      38.535  30.848  31.117  1.00  0.00     0.074 A 
ATOM     39  C   UNL A   1      39.147  29.417  29.198  1.00  0.00     0.049 A 
ATOM     40  N   UNL A   1      39.463  30.524  31.982  1.00  0.00    -0.248 NA
ATOM     41  C   UNL A   1      37.587  31.863  31.603  1.00  0.00     0.031 C 
ATOM     42  C   UNL A   1      39.019  28.817  27.871  1.00  0.00     0.029 A 
ATOM     43  N   UNL A   1      40.270  28.828  29.725  1.00  0.00    -0.354 N 
ATOM     44  C   UNL A   1      39.197  31.275  33.122  1.00  0.00     0.074 A 
ATOM     45  C   UNL A   1      38.055  32.112  32.817  1.00  0.00     0.031 C 
ATOM     46  C   UNL A   1      40.024  27.941  27.690  1.00  0.00     0.029 A 
ATOM     47  C   UNL A   1      40.876  27.929  28.878  1.00  0.00     0.049 A 
ATOM     48  H   UNL A   1      40.610  29.031  30.627  1.00  0.00     0.167 HD
ATOM     49  C   UNL A   1      39.829  31.254  34.322  1.00  0.00     0.034 A 
ATOM     50  C   UNL A   1      41.990  27.187  29.041  1.00  0.00     0.034 A 
ATOM     51  C   UNL A   1      40.982  30.437  34.614  1.00  0.00     0.049 A 
ATOM     52  C   UNL A   1      42.730  27.249  30.356  1.00  0.00     0.074 A 
ATOM     53  C   UNL A   1      41.693  30.341  35.798  1.00  0.00     0.029 A 
ATOM     54  N   UNL A   1      41.603  29.586  33.710  1.00  0.00    -0.354 N 
ATOM     55  N   UNL A   1      42.442  27.936  31.439  1.00  0.00    -0.248 NA
ATOM     56  C   UNL A   1      43.938  26.420  30.479  1.00  0.00     0.031 C 
ATOM     57  C   UNL A   1      42.781  29.486  35.590  1.00  0.00     0.029 A 
ATOM     58  C   UNL A   1      42.708  28.989  34.299  1.00  0.00     0.049 A 
ATOM     59  H   UNL A   1      41.303  29.428  32.785  1.00  0.00     0.167 HD
ATOM     60  C   UNL A   1      43.415  27.594  32.376  1.00  0.00     0.074 A 
ATOM     61  C   UNL A   1      44.283  26.625  31.740  1.00  0.00     0.031 C 
ATOM     62  C   UNL A   1      43.577  28.035  33.650  1.00  0.00     0.034 A 
BRANCH  49  63
ATOM     63  C   UNL A   1      39.304  32.174  35.395  1.00  0.00     0.023 A 
ATOM     64  C   UNL A   1      39.739  33.507  35.498  1.00  0.00     0.031 A 
ATOM     65  C   UNL A   1      38.366  31.710  36.332  1.00  0.00     0.131 A 
ATOM     66  C   UNL A   1      39.279  34.313  36.552  1.00  0.00     0.055 A 
ATOM     67  C   UNL A   1      37.859  32.538  37.337  1.00  0.00     0.041 A 
ATOM     68  F   UNL A   1      37.933  30.440  36.295  1.00  0.00    -0.206 F 
ATOM     69  C   UNL A   1      38.324  33.844  37.457  1.00  0.00     0.022 A 
BRANCH  66  70
ATOM     70  S   UNL A   1      40.034  35.944  36.792  1.00  0.00     0.124 S 
ATOM     71  O   UNL A   1      39.783  36.579  35.500  1.00  0.00    -0.237 OA
ATOM     72  O   UNL A   1      39.282  36.477  37.923  1.00  0.00    -0.237 OA
ATOM     73  O   UNL A   1      41.436  35.636  37.065  1.00  0.00    -0.744 OA
ENDBRANCH  66  70
ENDBRANCH  49  63
BRANCH  50  74
ATOM     74  C   UNL A   1      42.510  26.338  27.929  1.00  0.00     0.023 A 
ATOM     75  C   UNL A   1      42.126  24.994  27.794  1.00  0.00     0.031 A 
ATOM     76  C   UNL A   1      43.476  26.839  27.039  1.00  0.00     0.131 A 
ATOM     77  C   UNL A   1      42.752  24.181  26.835  1.00  0.00     0.055 A 
ATOM     78  C   UNL A   1      44.053  26.042  26.049  1.00  0.00     0.041 A 
ATOM     79  F   UNL A   1      43.882  28.116  27.125  1.00  0.00    -0.206 F 
ATOM     80  C   UNL A   1      43.703  24.699  25.954  1.00  0.00     0.022 A 
BRANCH  77  81
ATOM     81  S   UNL A   1      42.385  22.403  26.830  1.00  0.00     0.124 S 
ATOM     82  O   UNL A   1      40.969  22.393  26.484  1.00  0.00    -0.237 OA
ATOM     83  O   UNL A   1      43.300  21.909  25.806  1.00  0.00    -0.237 OA
ATOM     84  O   UNL A   1      42.698  21.989  28.195  1.00  0.00    -0.744 OA
ENDBRANCH  77  81
ENDBRANCH  50  74
BRANCH  62  85
ATOM     85  C   UNL A   1      44.716  27.441  34.444  1.00  0.00     0.023 A 
ATOM     86  C   UNL A   1      44.525  26.346  35.306  1.00  0.00     0.031 A 
ATOM     87  C   UNL A   1      46.007  27.992  34.356  1.00  0.00     0.131 A 
ATOM     88  C   UNL A   1      45.589  25.878  36.092  1.00  0.00     0.055 A 
ATOM     89  C   UNL A   1      47.076  27.485  35.095  1.00  0.00     0.041 A 
ATOM     90  F   UNL A   1      46.249  29.038  33.549  1.00  0.00    -0.206 F 
ATOM     91  C   UNL A   1      46.866  26.432  35.981  1.00  0.00     0.022 A 
BRANCH  88  92
ATOM     92  S   UNL A   1      45.257  24.602  37.338  1.00  0.00     0.124 S 
ATOM     93  O   UNL A   1      44.892  23.457  36.511  1.00  0.00    -0.237 OA
ATOM     94  O   UNL A   1      46.538  24.504  38.031  1.00  0.00    -0.237 OA
ATOM     95  O   UNL A   1      44.167  25.168  38.128  1.00  0.00    -0.744 OA
ENDBRANCH  88  92
ENDBRANCH  62  85
ENDBRANCH  36  37
ENDBRANCH  29  31
ENDBRANCH  28  29
ENDBRANCH  27  28
ENDBRANCH   1  27
TORSDOF 19
ENDMDL
