MODEL 1
REMARK VINA RESULT:     -11.6      0.000      0.000
REMARK SMILES CCOc1ccc(C(=O)N2CCC(C(=O)OCCOC(=O)c3ccc(-c4c5nc(c(-c6cc(S(=O)(=O)[O-])ccc6F)c6ccc([nH]6)c(-c6cc(S(=O)(=O)[O-])ccc6F)c6nc(c(-c7cc(S(=O)(=O)[O-])ccc7F)c7ccc4[nH]7)C=C6)C=C5)cc3)(c3ccccc3)CC2)cc1OC
REMARK SMILES IDX 17 1 16 2 14 3 15 4 13 5 8 6 9 7 10 8 11 9 92 10 12 11 91 12
REMARK SMILES IDX 7 13 4 14 5 15 94 16 6 17 93 18 3 19 2 20 1 21 95 22 96 23
REMARK SMILES IDX 85 24 86 25 90 26 87 27 89 28 88 29 18 30 19 31 20 32 21 33
REMARK SMILES IDX 22 34 23 35 84 36 24 37 83 38 25 39 26 40 27 41 77 42 28 43
REMARK SMILES IDX 82 44 76 45 78 46 29 47 81 48 75 49 74 50 30 52 62 53 42 54
REMARK SMILES IDX 61 55 43 56 46 57 60 58 79 59 44 60 45 61 59 63 80 64 47 65
REMARK SMILES IDX 31 66 32 67 40 68 33 69 39 70 41 71 38 72 34 73 35 74 36 75
REMARK SMILES IDX 37 76 63 77 64 78 72 79 65 80 71 81 73 82 70 83 66 84 67 85
REMARK SMILES IDX 68 86 69 87 48 88 49 89 57 90 50 91 56 92 58 93 55 94 51 95
REMARK SMILES IDX 52 96 53 97 54 98
REMARK H PARENT 78 51 46 62
REMARK Flexibility Score: inf
ROOT
ATOM      1  C   UNL A   1      31.433  30.023  25.872  1.00  0.00     0.274 C 
ENDROOT
BRANCH   1   2
ATOM      2  O   UNL A   1      32.379  28.954  26.074  1.00  0.00    -0.461 OA
BRANCH   2   3
ATOM      3  C   UNL A   1      31.902  27.799  26.623  1.00  0.00     0.316 C 
ATOM      4  O   UNL A   1      31.259  27.785  27.666  1.00  0.00    -0.251 OA
BRANCH   3   5
ATOM      5  C   UNL A   1      32.375  26.525  25.847  1.00  0.00     0.096 C 
ATOM      6  C   UNL A   1      34.122  22.535  26.258  1.00  0.00     0.253 C 
ATOM      7  O   UNL A   1      35.223  22.376  26.785  1.00  0.00    -0.269 OA
ATOM      8  N   UNL A   1      33.520  23.795  26.149  1.00  0.00    -0.339 N 
ATOM      9  C   UNL A   1      34.427  24.889  25.837  1.00  0.00     0.121 C 
ATOM     10  C   UNL A   1      32.082  24.010  25.985  1.00  0.00     0.121 C 
ATOM     11  C   UNL A   1      33.896  26.296  26.097  1.00  0.00     0.045 C 
ATOM     12  C   UNL A   1      31.628  25.354  26.530  1.00  0.00     0.045 C 
BRANCH   6  13
ATOM     13  C   UNL A   1      33.487  21.345  25.626  1.00  0.00     0.043 A 
ATOM     14  C   UNL A   1      32.545  19.026  24.355  1.00  0.00     0.161 A 
ATOM     15  C   UNL A   1      32.987  18.976  25.686  1.00  0.00     0.051 A 
ATOM     16  C   UNL A   1      32.536  20.239  23.666  1.00  0.00     0.161 A 
ATOM     17  C   UNL A   1      33.454  20.133  26.320  1.00  0.00     0.018 A 
ATOM     18  C   UNL A   1      33.074  21.367  24.290  1.00  0.00     0.064 A 
BRANCH  14  19
ATOM     19  O   UNL A   1      32.120  17.874  23.754  1.00  0.00    -0.490 OA
BRANCH  19  20
ATOM     20  C   UNL A   1      33.074  17.377  22.806  1.00  0.00     0.226 C 
ATOM     21  C   UNL A   1      34.049  16.468  23.532  1.00  0.00     0.049 C 
ENDBRANCH  19  20
ENDBRANCH  14  19
BRANCH  16  22
ATOM     22  O   UNL A   1      32.117  20.498  22.392  1.00  0.00    -0.493 OA
ATOM     23  C   UNL A   1      31.964  21.848  21.987  1.00  0.00     0.278 C 
ENDBRANCH  16  22
ENDBRANCH   6  13
BRANCH   5  24
ATOM     24  C   UNL A   1      31.973  26.595  24.339  1.00  0.00    -0.031 A 
ATOM     25  C   UNL A   1      32.920  26.327  23.324  1.00  0.00     0.005 A 
ATOM     26  C   UNL A   1      30.685  26.952  23.899  1.00  0.00     0.005 A 
ATOM     27  C   UNL A   1      32.593  26.388  21.963  1.00  0.00     0.000 A 
ATOM     28  C   UNL A   1      30.367  27.059  22.537  1.00  0.00     0.000 A 
ATOM     29  C   UNL A   1      31.317  26.768  21.569  1.00  0.00     0.000 A 
ENDBRANCH   5  24
ENDBRANCH   3   5
ENDBRANCH   2   3
ENDBRANCH   1   2
BRANCH   1  30
ATOM     30  C   UNL A   1      31.956  31.305  26.512  1.00  0.00     0.275 C 
BRANCH  30  31
ATOM     31  O   UNL A   1      33.274  31.062  27.028  1.00  0.00    -0.458 OA
BRANCH  31  32
ATOM     32  C   UNL A   1      33.898  32.122  27.592  1.00  0.00     0.338 C 
ATOM     33  O   UNL A   1      33.491  33.266  27.669  1.00  0.00    -0.246 OA
BRANCH  32  34
ATOM     34  C   UNL A   1      35.191  31.671  28.131  1.00  0.00     0.060 A 
ATOM     35  C   UNL A   1      35.334  30.347  28.542  1.00  0.00     0.016 A 
ATOM     36  C   UNL A   1      36.236  32.577  28.306  1.00  0.00     0.016 A 
ATOM     37  C   UNL A   1      36.505  29.933  29.171  1.00  0.00     0.010 A 
ATOM     38  C   UNL A   1      37.437  32.139  28.878  1.00  0.00     0.010 A 
ATOM     39  C   UNL A   1      37.576  30.817  29.339  1.00  0.00    -0.014 A 
BRANCH  39  40
ATOM     40  C   UNL A   1      38.799  30.379  30.069  1.00  0.00     0.031 A 
ATOM     41  C   UNL A   1      39.773  29.454  29.393  1.00  0.00     0.074 A 
ATOM     42  C   UNL A   1      39.073  30.839  31.307  1.00  0.00     0.049 A 
ATOM     43  N   UNL A   1      40.789  28.802  29.896  1.00  0.00    -0.248 NA
ATOM     44  C   UNL A   1      39.569  29.231  27.953  1.00  0.00     0.031 C 
ATOM     45  C   UNL A   1      38.271  31.817  32.044  1.00  0.00     0.029 A 
ATOM     46  N   UNL A   1      40.111  30.553  32.160  1.00  0.00    -0.354 N 
ATOM     47  C   UNL A   1      41.315  28.050  28.850  1.00  0.00     0.074 A 
ATOM     48  C   UNL A   1      40.501  28.329  27.685  1.00  0.00     0.031 C 
ATOM     49  C   UNL A   1      38.864  32.073  33.222  1.00  0.00     0.029 A 
ATOM     50  C   UNL A   1      40.032  31.211  33.368  1.00  0.00     0.049 A 
ATOM     51  H   UNL A   1      40.843  29.936  31.931  1.00  0.00     0.167 HD
ATOM     52  C   UNL A   1      42.374  27.203  28.865  1.00  0.00     0.034 A 
ATOM     53  C   UNL A   1      40.782  31.095  34.483  1.00  0.00     0.034 A 
ATOM     54  C   UNL A   1      43.194  26.960  30.027  1.00  0.00     0.049 A 
ATOM     55  C   UNL A   1      41.904  30.087  34.504  1.00  0.00     0.074 A 
ATOM     56  C   UNL A   1      44.266  26.096  30.164  1.00  0.00     0.029 A 
ATOM     57  N   UNL A   1      43.038  27.593  31.253  1.00  0.00    -0.354 N 
ATOM     58  N   UNL A   1      42.322  29.294  33.543  1.00  0.00    -0.248 NA
ATOM     59  C   UNL A   1      42.638  29.938  35.768  1.00  0.00     0.031 C 
ATOM     60  C   UNL A   1      44.724  26.168  31.485  1.00  0.00     0.029 A 
ATOM     61  C   UNL A   1      43.979  27.124  32.157  1.00  0.00     0.049 A 
ATOM     62  H   UNL A   1      42.357  28.276  31.453  1.00  0.00     0.167 HD
ATOM     63  C   UNL A   1      43.369  28.558  34.088  1.00  0.00     0.074 A 
ATOM     64  C   UNL A   1      43.538  29.019  35.450  1.00  0.00     0.031 C 
ATOM     65  C   UNL A   1      44.120  27.581  33.518  1.00  0.00     0.034 A 
BRANCH  52  66
ATOM     66  C   UNL A   1      42.643  26.418  27.603  1.00  0.00     0.023 A 
ATOM     67  C   UNL A   1      42.164  25.110  27.420  1.00  0.00     0.031 A 
ATOM     68  C   UNL A   1      43.441  26.977  26.590  1.00  0.00     0.131 A 
ATOM     69  C   UNL A   1      42.547  24.380  26.284  1.00  0.00     0.055 A 
ATOM     70  C   UNL A   1      43.757  26.273  25.427  1.00  0.00     0.041 A 
ATOM     71  F   UNL A   1      43.946  28.214  26.721  1.00  0.00    -0.206 F 
ATOM     72  C   UNL A   1      43.322  24.960  25.276  1.00  0.00     0.022 A 
BRANCH  69  73
ATOM     73  S   UNL A   1      42.141  22.613  26.209  1.00  0.00     0.124 S 
ATOM     74  O   UNL A   1      40.688  22.637  26.357  1.00  0.00    -0.237 OA
ATOM     75  O   UNL A   1      42.644  22.228  24.897  1.00  0.00    -0.237 OA
ATOM     76  O   UNL A   1      42.865  22.047  27.346  1.00  0.00    -0.744 OA
ENDBRANCH  69  73
ENDBRANCH  52  66
BRANCH  53  77
ATOM     77  C   UNL A   1      40.451  31.883  35.706  1.00  0.00     0.023 A 
ATOM     78  C   UNL A   1      39.367  31.530  36.528  1.00  0.00     0.031 A 
ATOM     79  C   UNL A   1      41.182  33.038  36.041  1.00  0.00     0.131 A 
ATOM     80  C   UNL A   1      39.025  32.345  37.620  1.00  0.00     0.055 A 
ATOM     81  C   UNL A   1      40.873  33.811  37.161  1.00  0.00     0.041 A 
ATOM     82  F   UNL A   1      42.220  33.427  35.285  1.00  0.00    -0.206 F 
ATOM     83  C   UNL A   1      39.780  33.471  37.952  1.00  0.00     0.022 A 
BRANCH  80  84
ATOM     84  S   UNL A   1      37.520  31.957  38.558  1.00  0.00     0.124 S 
ATOM     85  O   UNL A   1      37.205  30.618  38.072  1.00  0.00    -0.237 OA
ATOM     86  O   UNL A   1      37.990  32.046  39.936  1.00  0.00    -0.237 OA
ATOM     87  O   UNL A   1      36.586  33.005  38.152  1.00  0.00    -0.744 OA
ENDBRANCH  80  84
ENDBRANCH  53  77
BRANCH  65  88
ATOM     88  C   UNL A   1      45.208  26.976  34.368  1.00  0.00     0.023 A 
ATOM     89  C   UNL A   1      44.986  25.815  35.131  1.00  0.00     0.031 A 
ATOM     90  C   UNL A   1      46.478  27.576  34.427  1.00  0.00     0.131 A 
ATOM     91  C   UNL A   1      46.004  25.318  35.957  1.00  0.00     0.055 A 
ATOM     92  C   UNL A   1      47.502  27.048  35.213  1.00  0.00     0.041 A 
ATOM     93  F   UNL A   1      46.741  28.686  33.720  1.00  0.00    -0.206 F 
ATOM     94  C   UNL A   1      47.266  25.919  35.992  1.00  0.00     0.022 A 
BRANCH  91  95
ATOM     95  S   UNL A   1      45.638  23.913  37.045  1.00  0.00     0.124 S 
ATOM     96  O   UNL A   1      46.971  23.388  37.323  1.00  0.00    -0.237 OA
ATOM     97  O   UNL A   1      44.957  24.552  38.165  1.00  0.00    -0.237 OA
ATOM     98  O   UNL A   1      44.794  23.050  36.219  1.00  0.00    -0.744 OA
ENDBRANCH  91  95
ENDBRANCH  65  88
ENDBRANCH  39  40
ENDBRANCH  32  34
ENDBRANCH  31  32
ENDBRANCH  30  31
ENDBRANCH   1  30
TORSDOF 19
ENDMDL
MODEL 2
REMARK VINA RESULT:     -11.4      2.131      7.621
REMARK SMILES CCOc1ccc(C(=O)N2CCC(C(=O)OCCOC(=O)c3ccc(-c4c5nc(c(-c6cc(S(=O)(=O)[O-])ccc6F)c6ccc([nH]6)c(-c6cc(S(=O)(=O)[O-])ccc6F)c6nc(c(-c7cc(S(=O)(=O)[O-])ccc7F)c7ccc4[nH]7)C=C6)C=C5)cc3)(c3ccccc3)CC2)cc1OC
REMARK SMILES IDX 17 1 16 2 14 3 15 4 13 5 8 6 9 7 10 8 11 9 92 10 12 11 91 12
REMARK SMILES IDX 7 13 4 14 5 15 94 16 6 17 93 18 3 19 2 20 1 21 95 22 96 23
REMARK SMILES IDX 85 24 86 25 90 26 87 27 89 28 88 29 18 30 19 31 20 32 21 33
REMARK SMILES IDX 22 34 23 35 84 36 24 37 83 38 25 39 26 40 27 41 77 42 28 43
REMARK SMILES IDX 82 44 76 45 78 46 29 47 81 48 75 49 74 50 30 52 62 53 42 54
REMARK SMILES IDX 61 55 43 56 46 57 60 58 79 59 44 60 45 61 59 63 80 64 47 65
REMARK SMILES IDX 31 66 32 67 40 68 33 69 39 70 41 71 38 72 34 73 35 74 36 75
REMARK SMILES IDX 37 76 63 77 64 78 72 79 65 80 71 81 73 82 70 83 66 84 67 85
REMARK SMILES IDX 68 86 69 87 48 88 49 89 57 90 50 91 56 92 58 93 55 94 51 95
REMARK SMILES IDX 52 96 53 97 54 98
REMARK H PARENT 78 51 46 62
REMARK Flexibility Score: inf
ROOT
ATOM      1  C   UNL A   1      31.467  30.212  25.343  1.00  0.00     0.274 C 
ENDROOT
BRANCH   1   2
ATOM      2  O   UNL A   1      32.537  29.268  25.555  1.00  0.00    -0.461 OA
BRANCH   2   3
ATOM      3  C   UNL A   1      33.206  28.830  24.449  1.00  0.00     0.316 C 
ATOM      4  O   UNL A   1      33.876  29.579  23.748  1.00  0.00    -0.251 OA
BRANCH   3   5
ATOM      5  C   UNL A   1      32.913  27.327  24.126  1.00  0.00     0.096 C 
ATOM      6  C   UNL A   1      34.716  23.390  23.504  1.00  0.00     0.253 C 
ATOM      7  O   UNL A   1      35.552  23.208  22.619  1.00  0.00    -0.269 OA
ATOM      8  N   UNL A   1      34.152  24.648  23.753  1.00  0.00    -0.339 N 
ATOM      9  C   UNL A   1      33.860  25.440  22.568  1.00  0.00     0.121 C 
ATOM     10  C   UNL A   1      33.546  25.042  25.025  1.00  0.00     0.121 C 
ATOM     11  C   UNL A   1      33.625  26.931  22.798  1.00  0.00     0.045 C 
ATOM     12  C   UNL A   1      33.613  26.542  25.262  1.00  0.00     0.045 C 
BRANCH   6  13
ATOM     13  C   UNL A   1      34.227  22.191  24.242  1.00  0.00     0.043 A 
ATOM     14  C   UNL A   1      33.245  19.823  25.384  1.00  0.00     0.161 A 
ATOM     15  C   UNL A   1      34.583  19.910  24.973  1.00  0.00     0.051 A 
ATOM     16  C   UNL A   1      32.401  20.928  25.262  1.00  0.00     0.161 A 
ATOM     17  C   UNL A   1      35.073  21.092  24.405  1.00  0.00     0.018 A 
ATOM     18  C   UNL A   1      32.887  22.073  24.627  1.00  0.00     0.064 A 
BRANCH  14  19
ATOM     19  O   UNL A   1      32.788  18.645  25.909  1.00  0.00    -0.490 OA
BRANCH  19  20
ATOM     20  C   UNL A   1      32.562  17.656  24.897  1.00  0.00     0.226 C 
ATOM     21  C   UNL A   1      32.678  16.281  25.530  1.00  0.00     0.049 C 
ENDBRANCH  19  20
ENDBRANCH  14  19
BRANCH  16  22
ATOM     22  O   UNL A   1      31.092  21.052  25.630  1.00  0.00    -0.493 OA
ATOM     23  C   UNL A   1      30.601  22.337  25.973  1.00  0.00     0.278 C 
ENDBRANCH  16  22
ENDBRANCH   6  13
BRANCH   5  24
ATOM     24  C   UNL A   1      31.379  27.028  24.149  1.00  0.00    -0.031 A 
ATOM     25  C   UNL A   1      30.534  27.500  23.120  1.00  0.00     0.005 A 
ATOM     26  C   UNL A   1      30.748  26.316  25.186  1.00  0.00     0.005 A 
ATOM     27  C   UNL A   1      29.155  27.254  23.116  1.00  0.00     0.000 A 
ATOM     28  C   UNL A   1      29.361  26.108  25.208  1.00  0.00     0.000 A 
ATOM     29  C   UNL A   1      28.565  26.569  24.169  1.00  0.00     0.000 A 
ENDBRANCH   5  24
ENDBRANCH   3   5
ENDBRANCH   2   3
ENDBRANCH   1   2
BRANCH   1  30
ATOM     30  C   UNL A   1      31.619  31.391  26.298  1.00  0.00     0.275 C 
BRANCH  30  31
ATOM     31  O   UNL A   1      32.698  31.116  27.205  1.00  0.00    -0.458 OA
BRANCH  31  32
ATOM     32  C   UNL A   1      33.501  32.162  27.509  1.00  0.00     0.338 C 
ATOM     33  O   UNL A   1      33.238  33.348  27.425  1.00  0.00    -0.246 OA
BRANCH  32  34
ATOM     34  C   UNL A   1      34.792  31.637  27.985  1.00  0.00     0.060 A 
ATOM     35  C   UNL A   1      34.898  30.288  28.317  1.00  0.00     0.016 A 
ATOM     36  C   UNL A   1      35.872  32.496  28.181  1.00  0.00     0.016 A 
ATOM     37  C   UNL A   1      36.070  29.800  28.888  1.00  0.00     0.010 A 
ATOM     38  C   UNL A   1      37.072  31.987  28.694  1.00  0.00     0.010 A 
ATOM     39  C   UNL A   1      37.176  30.636  29.075  1.00  0.00    -0.014 A 
BRANCH  39  40
ATOM     40  C   UNL A   1      38.401  30.116  29.745  1.00  0.00     0.031 A 
ATOM     41  C   UNL A   1      38.736  30.576  31.137  1.00  0.00     0.074 A 
ATOM     42  C   UNL A   1      39.187  29.198  29.144  1.00  0.00     0.049 A 
ATOM     43  N   UNL A   1      39.832  30.407  31.829  1.00  0.00    -0.248 NA
ATOM     44  C   UNL A   1      37.692  31.336  31.841  1.00  0.00     0.031 C 
ATOM     45  C   UNL A   1      38.930  28.587  27.839  1.00  0.00     0.029 A 
ATOM     46  N   UNL A   1      40.358  28.611  29.559  1.00  0.00    -0.354 N 
ATOM     47  C   UNL A   1      39.634  31.083  33.029  1.00  0.00     0.074 A 
ATOM     48  C   UNL A   1      38.309  31.665  32.965  1.00  0.00     0.031 C 
ATOM     49  C   UNL A   1      39.894  27.689  27.577  1.00  0.00     0.029 A 
ATOM     50  C   UNL A   1      40.888  27.728  28.645  1.00  0.00     0.049 A 
ATOM     51  H   UNL A   1      40.778  28.803  30.428  1.00  0.00     0.167 HD
ATOM     52  C   UNL A   1      40.480  31.208  34.080  1.00  0.00     0.034 A 
ATOM     53  C   UNL A   1      42.062  27.065  28.642  1.00  0.00     0.034 A 
ATOM     54  C   UNL A   1      41.785  30.595  34.141  1.00  0.00     0.049 A 
ATOM     55  C   UNL A   1      43.024  27.284  29.783  1.00  0.00     0.074 A 
ATOM     56  C   UNL A   1      42.740  30.687  35.139  1.00  0.00     0.029 A 
ATOM     57  N   UNL A   1      42.317  29.765  33.162  1.00  0.00    -0.354 N 
ATOM     58  N   UNL A   1      42.874  28.019  30.862  1.00  0.00    -0.248 NA
ATOM     59  C   UNL A   1      44.325  26.606  29.693  1.00  0.00     0.031 C 
ATOM     60  C   UNL A   1      43.866  29.956  34.740  1.00  0.00     0.029 A 
ATOM     61  C   UNL A   1      43.591  29.355  33.523  1.00  0.00     0.049 A 
ATOM     62  H   UNL A   1      41.855  29.505  32.332  1.00  0.00     0.167 HD
ATOM     63  C   UNL A   1      44.060  27.886  31.578  1.00  0.00     0.074 A 
ATOM     64  C   UNL A   1      44.903  26.981  30.825  1.00  0.00     0.031 C 
ATOM     65  C   UNL A   1      44.426  28.467  32.750  1.00  0.00     0.034 A 
BRANCH  52  66
ATOM     66  C   UNL A   1      40.046  32.113  35.208  1.00  0.00     0.023 A 
ATOM     67  C   UNL A   1      39.268  31.650  36.282  1.00  0.00     0.031 A 
ATOM     68  C   UNL A   1      40.376  33.480  35.173  1.00  0.00     0.131 A 
ATOM     69  C   UNL A   1      38.786  32.558  37.238  1.00  0.00     0.055 A 
ATOM     70  C   UNL A   1      39.957  34.365  36.167  1.00  0.00     0.041 A 
ATOM     71  F   UNL A   1      41.097  33.983  34.159  1.00  0.00    -0.206 F 
ATOM     72  C   UNL A   1      39.144  33.908  37.201  1.00  0.00     0.022 A 
BRANCH  69  73
ATOM     73  S   UNL A   1      37.566  31.978  38.450  1.00  0.00     0.124 S 
ATOM     74  O   UNL A   1      38.313  32.093  39.699  1.00  0.00    -0.237 OA
ATOM     75  O   UNL A   1      36.470  32.923  38.270  1.00  0.00    -0.237 OA
ATOM     76  O   UNL A   1      37.286  30.608  38.024  1.00  0.00    -0.744 OA
ENDBRANCH  69  73
ENDBRANCH  52  66
BRANCH  53  77
ATOM     77  C   UNL A   1      42.445  26.202  27.486  1.00  0.00     0.023 A 
ATOM     78  C   UNL A   1      42.209  24.818  27.500  1.00  0.00     0.031 A 
ATOM     79  C   UNL A   1      43.106  26.745  26.368  1.00  0.00     0.131 A 
ATOM     80  C   UNL A   1      42.663  24.020  26.437  1.00  0.00     0.055 A 
ATOM     81  C   UNL A   1      43.504  25.957  25.288  1.00  0.00     0.041 A 
ATOM     82  F   UNL A   1      43.367  28.061  26.307  1.00  0.00    -0.206 F 
ATOM     83  C   UNL A   1      43.293  24.582  25.324  1.00  0.00     0.022 A 
BRANCH  80  84
ATOM     84  S   UNL A   1      42.494  22.218  26.565  1.00  0.00     0.124 S 
ATOM     85  O   UNL A   1      43.726  21.759  25.933  1.00  0.00    -0.237 OA
ATOM     86  O   UNL A   1      42.402  22.024  28.008  1.00  0.00    -0.237 OA
ATOM     87  O   UNL A   1      41.268  21.938  25.821  1.00  0.00    -0.744 OA
ENDBRANCH  80  84
ENDBRANCH  53  77
BRANCH  65  88
ATOM     88  C   UNL A   1      45.785  28.108  33.291  1.00  0.00     0.023 A 
ATOM     89  C   UNL A   1      46.927  28.868  32.978  1.00  0.00     0.031 A 
ATOM     90  C   UNL A   1      45.944  26.984  34.121  1.00  0.00     0.131 A 
ATOM     91  C   UNL A   1      48.184  28.466  33.451  1.00  0.00     0.055 A 
ATOM     92  C   UNL A   1      47.190  26.618  34.629  1.00  0.00     0.041 A 
ATOM     93  F   UNL A   1      44.887  26.225  34.449  1.00  0.00    -0.206 F 
ATOM     94  C   UNL A   1      48.321  27.353  34.287  1.00  0.00     0.022 A 
BRANCH  91  95
ATOM     95  S   UNL A   1      49.655  29.375  32.903  1.00  0.00     0.124 S 
ATOM     96  O   UNL A   1      50.382  28.355  32.154  1.00  0.00    -0.237 OA
ATOM     97  O   UNL A   1      49.078  30.457  32.112  1.00  0.00    -0.237 OA
ATOM     98  O   UNL A   1      50.287  29.793  34.154  1.00  0.00    -0.744 OA
ENDBRANCH  91  95
ENDBRANCH  65  88
ENDBRANCH  39  40
ENDBRANCH  32  34
ENDBRANCH  31  32
ENDBRANCH  30  31
ENDBRANCH   1  30
TORSDOF 19
ENDMDL
MODEL 3
REMARK VINA RESULT:     -11.3      0.911      7.274
REMARK SMILES CCOc1ccc(C(=O)N2CCC(C(=O)OCCOC(=O)c3ccc(-c4c5nc(c(-c6cc(S(=O)(=O)[O-])ccc6F)c6ccc([nH]6)c(-c6cc(S(=O)(=O)[O-])ccc6F)c6nc(c(-c7cc(S(=O)(=O)[O-])ccc7F)c7ccc4[nH]7)C=C6)C=C5)cc3)(c3ccccc3)CC2)cc1OC
REMARK SMILES IDX 17 1 16 2 14 3 15 4 13 5 8 6 9 7 10 8 11 9 92 10 12 11 91 12
REMARK SMILES IDX 7 13 4 14 5 15 94 16 6 17 93 18 3 19 2 20 1 21 95 22 96 23
REMARK SMILES IDX 85 24 86 25 90 26 87 27 89 28 88 29 18 30 19 31 20 32 21 33
REMARK SMILES IDX 22 34 23 35 84 36 24 37 83 38 25 39 26 40 27 41 77 42 28 43
REMARK SMILES IDX 82 44 76 45 78 46 29 47 81 48 75 49 74 50 30 52 62 53 42 54
REMARK SMILES IDX 61 55 43 56 46 57 60 58 79 59 44 60 45 61 59 63 80 64 47 65
REMARK SMILES IDX 31 66 32 67 40 68 33 69 39 70 41 71 38 72 34 73 35 74 36 75
REMARK SMILES IDX 37 76 63 77 64 78 72 79 65 80 71 81 73 82 70 83 66 84 67 85
REMARK SMILES IDX 68 86 69 87 48 88 49 89 57 90 50 91 56 92 58 93 55 94 51 95
REMARK SMILES IDX 52 96 53 97 54 98
REMARK H PARENT 78 51 46 62
REMARK Flexibility Score: inf
ROOT
ATOM      1  C   UNL A   1      31.248  30.606  26.121  1.00  0.00     0.274 C 
ENDROOT
BRANCH   1   2
ATOM      2  O   UNL A   1      32.203  29.585  26.473  1.00  0.00    -0.461 OA
BRANCH   2   3
ATOM      3  C   UNL A   1      31.704  28.399  26.929  1.00  0.00     0.316 C 
ATOM      4  O   UNL A   1      31.064  28.313  27.970  1.00  0.00    -0.251 OA
BRANCH   3   5
ATOM      5  C   UNL A   1      32.149  27.183  26.050  1.00  0.00     0.096 C 
ATOM      6  C   UNL A   1      34.240  23.340  26.064  1.00  0.00     0.253 C 
ATOM      7  O   UNL A   1      35.418  23.260  26.413  1.00  0.00    -0.269 OA
ATOM      8  N   UNL A   1      33.533  24.549  26.088  1.00  0.00    -0.339 N 
ATOM      9  C   UNL A   1      34.294  25.719  25.677  1.00  0.00     0.121 C 
ATOM     10  C   UNL A   1      32.075  24.650  26.151  1.00  0.00     0.121 C 
ATOM     11  C   UNL A   1      33.703  27.073  26.059  1.00  0.00     0.045 C 
ATOM     12  C   UNL A   1      31.607  25.942  26.801  1.00  0.00     0.045 C 
BRANCH   6  13
ATOM     13  C   UNL A   1      33.608  22.115  25.498  1.00  0.00     0.043 A 
ATOM     14  C   UNL A   1      32.669  19.740  24.335  1.00  0.00     0.161 A 
ATOM     15  C   UNL A   1      33.211  19.730  25.629  1.00  0.00     0.051 A 
ATOM     16  C   UNL A   1      32.559  20.939  23.631  1.00  0.00     0.161 A 
ATOM     17  C   UNL A   1      33.677  20.914  26.210  1.00  0.00     0.018 A 
ATOM     18  C   UNL A   1      33.096  22.098  24.197  1.00  0.00     0.064 A 
BRANCH  14  19
ATOM     19  O   UNL A   1      32.248  18.561  23.784  1.00  0.00    -0.490 OA
BRANCH  19  20
ATOM     20  C   UNL A   1      32.907  17.428  24.366  1.00  0.00     0.226 C 
ATOM     21  C   UNL A   1      33.906  16.881  23.362  1.00  0.00     0.049 C 
ENDBRANCH  19  20
ENDBRANCH  14  19
BRANCH  16  22
ATOM     22  O   UNL A   1      32.036  21.160  22.389  1.00  0.00    -0.493 OA
ATOM     23  C   UNL A   1      32.574  22.209  21.601  1.00  0.00     0.278 C 
ENDBRANCH  16  22
ENDBRANCH   6  13
BRANCH   5  24
ATOM     24  C   UNL A   1      31.516  27.250  24.623  1.00  0.00    -0.031 A 
ATOM     25  C   UNL A   1      32.332  27.307  23.471  1.00  0.00     0.005 A 
ATOM     26  C   UNL A   1      30.127  27.289  24.396  1.00  0.00     0.005 A 
ATOM     27  C   UNL A   1      31.795  27.374  22.178  1.00  0.00     0.000 A 
ATOM     28  C   UNL A   1      29.587  27.404  23.106  1.00  0.00     0.000 A 
ATOM     29  C   UNL A   1      30.420  27.436  21.997  1.00  0.00     0.000 A 
ENDBRANCH   5  24
ENDBRANCH   3   5
ENDBRANCH   2   3
ENDBRANCH   1   2
BRANCH   1  30
ATOM     30  C   UNL A   1      31.657  31.936  26.745  1.00  0.00     0.275 C 
BRANCH  30  31
ATOM     31  O   UNL A   1      33.082  32.081  26.634  1.00  0.00    -0.458 OA
BRANCH  31  32
ATOM     32  C   UNL A   1      33.667  32.914  27.525  1.00  0.00     0.338 C 
ATOM     33  O   UNL A   1      33.305  34.033  27.842  1.00  0.00    -0.246 OA
BRANCH  32  34
ATOM     34  C   UNL A   1      34.850  32.243  28.087  1.00  0.00     0.060 A 
ATOM     35  C   UNL A   1      34.775  30.889  28.410  1.00  0.00     0.016 A 
ATOM     36  C   UNL A   1      36.004  32.970  28.372  1.00  0.00     0.016 A 
ATOM     37  C   UNL A   1      35.838  30.266  29.058  1.00  0.00     0.010 A 
ATOM     38  C   UNL A   1      37.096  32.323  28.964  1.00  0.00     0.010 A 
ATOM     39  C   UNL A   1      37.016  30.968  29.336  1.00  0.00    -0.014 A 
BRANCH  39  40
ATOM     40  C   UNL A   1      38.120  30.307  30.087  1.00  0.00     0.031 A 
ATOM     41  C   UNL A   1      38.334  30.643  31.537  1.00  0.00     0.074 A 
ATOM     42  C   UNL A   1      38.898  29.373  29.502  1.00  0.00     0.049 A 
ATOM     43  N   UNL A   1      39.334  30.339  32.323  1.00  0.00    -0.248 NA
ATOM     44  C   UNL A   1      37.277  31.434  32.186  1.00  0.00     0.031 C 
ATOM     45  C   UNL A   1      38.742  28.875  28.134  1.00  0.00     0.029 A 
ATOM     46  N   UNL A   1      39.972  28.668  29.989  1.00  0.00    -0.354 N 
ATOM     47  C   UNL A   1      39.055  30.945  33.545  1.00  0.00     0.074 A 
ATOM     48  C   UNL A   1      37.791  31.635  33.389  1.00  0.00     0.031 C 
ATOM     49  C   UNL A   1      39.661  27.923  27.904  1.00  0.00     0.029 A 
ATOM     50  C   UNL A   1      40.533  27.809  29.069  1.00  0.00     0.049 A 
ATOM     51  H   UNL A   1      40.308  28.765  30.908  1.00  0.00     0.167 HD
ATOM     52  C   UNL A   1      39.789  30.930  34.684  1.00  0.00     0.034 A 
ATOM     53  C   UNL A   1      41.651  27.057  29.137  1.00  0.00     0.034 A 
ATOM     54  C   UNL A   1      41.032  30.213  34.832  1.00  0.00     0.049 A 
ATOM     55  C   UNL A   1      42.496  27.120  30.384  1.00  0.00     0.074 A 
ATOM     56  C   UNL A   1      41.877  30.159  35.927  1.00  0.00     0.029 A 
ATOM     57  N   UNL A   1      41.606  29.411  33.852  1.00  0.00    -0.354 N 
ATOM     58  N   UNL A   1      42.283  27.789  31.495  1.00  0.00    -0.248 NA
ATOM     59  C   UNL A   1      43.746  26.348  30.378  1.00  0.00     0.031 C 
ATOM     60  C   UNL A   1      42.984  29.370  35.592  1.00  0.00     0.029 A 
ATOM     61  C   UNL A   1      42.800  28.877  34.310  1.00  0.00     0.049 A 
ATOM     62  H   UNL A   1      41.220  29.246  32.962  1.00  0.00     0.167 HD
ATOM     63  C   UNL A   1      43.371  27.513  32.317  1.00  0.00     0.074 A 
ATOM     64  C   UNL A   1      44.223  26.597  31.588  1.00  0.00     0.031 C 
ATOM     65  C   UNL A   1      43.648  27.981  33.561  1.00  0.00     0.034 A 
BRANCH  52  66
ATOM     66  C   UNL A   1      39.301  31.788  35.827  1.00  0.00     0.023 A 
ATOM     67  C   UNL A   1      38.586  31.252  36.911  1.00  0.00     0.031 A 
ATOM     68  C   UNL A   1      39.512  33.178  35.797  1.00  0.00     0.131 A 
ATOM     69  C   UNL A   1      38.047  32.110  37.883  1.00  0.00     0.055 A 
ATOM     70  C   UNL A   1      39.039  34.018  36.806  1.00  0.00     0.041 A 
ATOM     71  F   UNL A   1      40.169  33.747  34.774  1.00  0.00    -0.206 F 
ATOM     72  C   UNL A   1      38.288  33.486  37.850  1.00  0.00     0.022 A 
BRANCH  69  73
ATOM     73  S   UNL A   1      36.905  31.421  39.113  1.00  0.00     0.124 S 
ATOM     74  O   UNL A   1      36.641  30.095  38.560  1.00  0.00    -0.237 OA
ATOM     75  O   UNL A   1      37.697  31.458  40.336  1.00  0.00    -0.237 OA
ATOM     76  O   UNL A   1      35.768  32.340  39.078  1.00  0.00    -0.744 OA
ENDBRANCH  69  73
ENDBRANCH  52  66
BRANCH  53  77
ATOM     77  C   UNL A   1      42.093  26.248  27.963  1.00  0.00     0.023 A 
ATOM     78  C   UNL A   1      41.779  24.883  27.859  1.00  0.00     0.031 A 
ATOM     79  C   UNL A   1      42.889  26.818  26.953  1.00  0.00     0.131 A 
ATOM     80  C   UNL A   1      42.288  24.128  26.789  1.00  0.00     0.055 A 
ATOM     81  C   UNL A   1      43.344  26.077  25.861  1.00  0.00     0.041 A 
ATOM     82  F   UNL A   1      43.229  28.116  27.008  1.00  0.00    -0.206 F 
ATOM     83  C   UNL A   1      43.053  24.720  25.781  1.00  0.00     0.022 A 
BRANCH  80  84
ATOM     84  S   UNL A   1      42.005  22.336  26.775  1.00  0.00     0.124 S 
ATOM     85  O   UNL A   1      43.314  21.826  27.168  1.00  0.00    -0.237 OA
ATOM     86  O   UNL A   1      40.937  22.189  27.758  1.00  0.00    -0.237 OA
ATOM     87  O   UNL A   1      41.619  22.063  25.392  1.00  0.00    -0.744 OA
ENDBRANCH  80  84
ENDBRANCH  53  77
BRANCH  65  88
ATOM     88  C   UNL A   1      44.911  27.478  34.212  1.00  0.00     0.023 A 
ATOM     89  C   UNL A   1      44.959  26.232  34.862  1.00  0.00     0.031 A 
ATOM     90  C   UNL A   1      46.079  28.262  34.191  1.00  0.00     0.131 A 
ATOM     91  C   UNL A   1      46.136  25.828  35.509  1.00  0.00     0.055 A 
ATOM     92  C   UNL A   1      47.261  27.832  34.794  1.00  0.00     0.041 A 
ATOM     93  F   UNL A   1      46.085  29.460  33.585  1.00  0.00    -0.206 F 
ATOM     94  C   UNL A   1      47.292  26.614  35.467  1.00  0.00     0.022 A 
BRANCH  91  95
ATOM     95  S   UNL A   1      46.120  24.290  36.470  1.00  0.00     0.124 S 
ATOM     96  O   UNL A   1      44.702  23.943  36.466  1.00  0.00    -0.237 OA
ATOM     97  O   UNL A   1      46.992  23.421  35.686  1.00  0.00    -0.237 OA
ATOM     98  O   UNL A   1      46.655  24.691  37.771  1.00  0.00    -0.744 OA
ENDBRANCH  91  95
ENDBRANCH  65  88
ENDBRANCH  39  40
ENDBRANCH  32  34
ENDBRANCH  31  32
ENDBRANCH  30  31
ENDBRANCH   1  30
TORSDOF 19
ENDMDL
