MODEL 1
REMARK VINA RESULT:     -12.3      0.000      0.000
REMARK SMILES Cc1cc(Nc2ccc(C(=O)OCCOC(=O)c3ccc(-c4c5nc(c(-c6cc(S(=O)(=O)[O-])ccc6F)c6ccc([nH]6)c(-c6cc(S(=O)(=O)[O-])ccc6F)c6nc(c(-c7cc(S(=O)(=O)[O-])ccc7F)c7ccc4[nH]7)C=C6)C=C5)cc3)cc2)nc(C(C)C)n1
REMARK SMILES IDX 13 1 12 2 10 3 11 4 9 5 6 6 7 7 82 8 8 9 81 10 5 11 4 13
REMARK SMILES IDX 1 14 2 15 3 16 88 17 84 18 83 19 85 20 86 21 87 22 14 23
REMARK SMILES IDX 15 24 16 25 17 26 18 27 19 28 80 29 20 30 79 31 21 32 22 33
REMARK SMILES IDX 23 34 73 35 24 36 78 37 72 38 74 39 25 40 77 41 71 42 70 43
REMARK SMILES IDX 26 45 58 46 38 47 57 48 39 49 42 50 56 51 75 52 40 53 41 54
REMARK SMILES IDX 55 56 76 57 43 58 27 59 28 60 36 61 29 62 35 63 37 64 34 65
REMARK SMILES IDX 30 66 31 67 32 68 33 69 59 70 60 71 68 72 61 73 67 74 69 75
REMARK SMILES IDX 66 76 62 77 63 78 64 79 65 80 44 81 45 82 53 83 46 84 52 85
REMARK SMILES IDX 54 86 51 87 47 88 48 89 49 90 50 91
REMARK H PARENT 5 12 74 44 42 55
REMARK Flexibility Score: inf
ROOT
ATOM      1  C   UNL A   1      34.969  20.873  25.264  1.00  0.00     0.275 C 
ENDROOT
BRANCH   1   2
ATOM      2  O   UNL A   1      34.089  20.125  24.402  1.00  0.00    -0.458 OA
BRANCH   2   3
ATOM      3  C   UNL A   1      32.782  20.131  24.761  1.00  0.00     0.338 C 
ATOM      4  O   UNL A   1      32.160  19.197  25.244  1.00  0.00    -0.246 OA
BRANCH   3   5
ATOM      5  C   UNL A   1      32.183  21.467  24.553  1.00  0.00     0.060 A 
ATOM      6  C   UNL A   1      30.809  23.890  24.186  1.00  0.00     0.040 A 
ATOM      7  C   UNL A   1      30.834  23.281  25.440  1.00  0.00     0.027 A 
ATOM      8  C   UNL A   1      31.499  23.285  23.123  1.00  0.00     0.027 A 
ATOM      9  C   UNL A   1      31.487  22.064  25.611  1.00  0.00     0.018 A 
ATOM     10  C   UNL A   1      32.207  22.092  23.306  1.00  0.00     0.018 A 
BRANCH   6  11
ATOM     11  N   UNL A   1      29.923  24.964  23.970  1.00  0.00    -0.340 N 
ATOM     12  H   UNL A   1      28.990  24.758  23.732  1.00  0.00     0.168 HD
BRANCH  11  13
ATOM     13  C   UNL A   1      30.303  26.319  24.078  1.00  0.00     0.134 A 
ATOM     14  C   UNL A   1      29.777  29.601  22.356  1.00  0.00     0.067 C 
ATOM     15  C   UNL A   1      30.243  28.538  23.304  1.00  0.00     0.043 A 
ATOM     16  C   UNL A   1      29.824  27.229  23.161  1.00  0.00     0.070 A 
ATOM     17  N   UNL A   1      31.064  28.934  24.299  1.00  0.00    -0.238 NA
ATOM     18  C   UNL A   1      31.477  27.982  25.153  1.00  0.00     0.133 A 
ATOM     19  N   UNL A   1      31.108  26.697  25.084  1.00  0.00    -0.216 NA
BRANCH  18  20
ATOM     20  C   UNL A   1      32.387  28.358  26.299  1.00  0.00     0.051 C 
ATOM     21  C   UNL A   1      31.648  28.335  27.634  1.00  0.00     0.016 C 
ATOM     22  C   UNL A   1      33.619  27.456  26.322  1.00  0.00     0.016 C 
ENDBRANCH  18  20
ENDBRANCH  11  13
ENDBRANCH   6  11
ENDBRANCH   3   5
ENDBRANCH   2   3
ENDBRANCH   1   2
BRANCH   1  23
ATOM     23  C   UNL A   1      36.434  20.519  25.006  1.00  0.00     0.275 C 
BRANCH  23  24
ATOM     24  O   UNL A   1      37.292  21.619  25.352  1.00  0.00    -0.458 OA
BRANCH  24  25
ATOM     25  C   UNL A   1      38.533  21.275  25.769  1.00  0.00     0.338 C 
ATOM     26  O   UNL A   1      39.101  20.210  25.602  1.00  0.00    -0.246 OA
BRANCH  25  27
ATOM     27  C   UNL A   1      39.155  22.413  26.459  1.00  0.00     0.060 A 
ATOM     28  C   UNL A   1      38.718  23.700  26.163  1.00  0.00     0.016 A 
ATOM     29  C   UNL A   1      40.259  22.223  27.284  1.00  0.00     0.016 A 
ATOM     30  C   UNL A   1      39.447  24.806  26.586  1.00  0.00     0.010 A 
ATOM     31  C   UNL A   1      40.914  23.339  27.817  1.00  0.00     0.010 A 
ATOM     32  C   UNL A   1      40.541  24.646  27.445  1.00  0.00    -0.014 A 
BRANCH  32  33
ATOM     33  C   UNL A   1      41.302  25.824  27.952  1.00  0.00     0.031 A 
ATOM     34  C   UNL A   1      40.593  26.894  28.740  1.00  0.00     0.074 A 
ATOM     35  C   UNL A   1      42.616  25.963  27.680  1.00  0.00     0.049 A 
ATOM     36  N   UNL A   1      40.975  28.112  29.026  1.00  0.00    -0.248 NA
ATOM     37  C   UNL A   1      39.258  26.546  29.248  1.00  0.00     0.031 C 
ATOM     38  C   UNL A   1      43.445  24.983  26.975  1.00  0.00     0.029 A 
ATOM     39  N   UNL A   1      43.482  26.998  27.942  1.00  0.00    -0.354 N 
ATOM     40  C   UNL A   1      39.901  28.702  29.688  1.00  0.00     0.074 A 
ATOM     41  C   UNL A   1      38.852  27.705  29.746  1.00  0.00     0.031 C 
ATOM     42  C   UNL A   1      44.694  25.456  26.867  1.00  0.00     0.029 A 
ATOM     43  C   UNL A   1      44.730  26.815  27.392  1.00  0.00     0.049 A 
ATOM     44  H   UNL A   1      43.234  27.790  28.472  1.00  0.00     0.167 HD
ATOM     45  C   UNL A   1      39.806  29.961  30.188  1.00  0.00     0.034 A 
ATOM     46  C   UNL A   1      45.766  27.665  27.245  1.00  0.00     0.034 A 
ATOM     47  C   UNL A   1      40.885  30.921  30.146  1.00  0.00     0.049 A 
ATOM     48  C   UNL A   1      45.629  29.071  27.757  1.00  0.00     0.074 A 
ATOM     49  C   UNL A   1      40.915  32.212  30.645  1.00  0.00     0.029 A 
ATOM     50  N   UNL A   1      42.130  30.694  29.567  1.00  0.00    -0.354 N 
ATOM     51  N   UNL A   1      44.594  29.642  28.328  1.00  0.00    -0.248 NA
ATOM     52  C   UNL A   1      46.794  29.948  27.598  1.00  0.00     0.031 C 
ATOM     53  C   UNL A   1      42.147  32.786  30.309  1.00  0.00     0.029 A 
ATOM     54  C   UNL A   1      42.922  31.829  29.671  1.00  0.00     0.049 A 
ATOM     55  H   UNL A   1      42.409  29.851  29.145  1.00  0.00     0.167 HD
ATOM     56  C   UNL A   1      44.989  30.945  28.612  1.00  0.00     0.074 A 
ATOM     57  C   UNL A   1      46.362  31.069  28.160  1.00  0.00     0.031 C 
ATOM     58  C   UNL A   1      44.283  31.944  29.200  1.00  0.00     0.034 A 
BRANCH  45  59
ATOM     59  C   UNL A   1      38.465  30.384  30.752  1.00  0.00     0.023 A 
ATOM     60  C   UNL A   1      37.465  30.965  29.953  1.00  0.00     0.031 A 
ATOM     61  C   UNL A   1      38.210  30.262  32.130  1.00  0.00     0.131 A 
ATOM     62  C   UNL A   1      36.308  31.493  30.550  1.00  0.00     0.055 A 
ATOM     63  C   UNL A   1      37.016  30.705  32.704  1.00  0.00     0.041 A 
ATOM     64  F   UNL A   1      39.131  29.735  32.953  1.00  0.00    -0.206 F 
ATOM     65  C   UNL A   1      36.066  31.345  31.916  1.00  0.00     0.022 A 
BRANCH  62  66
ATOM     66  S   UNL A   1      35.219  32.541  29.545  1.00  0.00     0.124 S 
ATOM     67  O   UNL A   1      34.606  31.562  28.651  1.00  0.00    -0.237 OA
ATOM     68  O   UNL A   1      34.337  33.130  30.547  1.00  0.00    -0.237 OA
ATOM     69  O   UNL A   1      36.139  33.473  28.897  1.00  0.00    -0.744 OA
ENDBRANCH  62  66
ENDBRANCH  45  59
BRANCH  46  70
ATOM     70  C   UNL A   1      46.977  27.223  26.497  1.00  0.00     0.023 A 
ATOM     71  C   UNL A   1      48.028  26.551  27.136  1.00  0.00     0.031 A 
ATOM     72  C   UNL A   1      47.082  27.448  25.111  1.00  0.00     0.131 A 
ATOM     73  C   UNL A   1      49.145  26.139  26.393  1.00  0.00     0.055 A 
ATOM     74  C   UNL A   1      48.170  26.992  24.368  1.00  0.00     0.041 A 
ATOM     75  F   UNL A   1      46.099  28.084  24.450  1.00  0.00    -0.206 F 
ATOM     76  C   UNL A   1      49.214  26.337  25.010  1.00  0.00     0.022 A 
BRANCH  73  77
ATOM     77  S   UNL A   1      50.535  25.366  27.264  1.00  0.00     0.124 S 
ATOM     78  O   UNL A   1      49.872  24.279  27.976  1.00  0.00    -0.237 OA
ATOM     79  O   UNL A   1      51.405  24.973  26.160  1.00  0.00    -0.237 OA
ATOM     80  O   UNL A   1      51.051  26.442  28.107  1.00  0.00    -0.744 OA
ENDBRANCH  73  77
ENDBRANCH  46  70
BRANCH  58  81
ATOM     81  C   UNL A   1      45.009  33.246  29.431  1.00  0.00     0.023 A 
ATOM     82  C   UNL A   1      44.958  34.301  28.504  1.00  0.00     0.031 A 
ATOM     83  C   UNL A   1      45.767  33.427  30.602  1.00  0.00     0.131 A 
ATOM     84  C   UNL A   1      45.691  35.474  28.742  1.00  0.00     0.055 A 
ATOM     85  C   UNL A   1      46.449  34.616  30.859  1.00  0.00     0.041 A 
ATOM     86  F   UNL A   1      45.853  32.449  31.519  1.00  0.00    -0.206 F 
ATOM     87  C   UNL A   1      46.422  35.644  29.921  1.00  0.00     0.022 A 
BRANCH  84  88
ATOM     88  S   UNL A   1      45.742  36.749  27.453  1.00  0.00     0.124 S 
ATOM     89  O   UNL A   1      46.963  36.404  26.733  1.00  0.00    -0.237 OA
ATOM     90  O   UNL A   1      44.491  36.522  26.738  1.00  0.00    -0.237 OA
ATOM     91  O   UNL A   1      45.802  37.999  28.210  1.00  0.00    -0.744 OA
ENDBRANCH  84  88
ENDBRANCH  58  81
ENDBRANCH  32  33
ENDBRANCH  25  27
ENDBRANCH  24  25
ENDBRANCH  23  24
ENDBRANCH   1  23
TORSDOF 17
ENDMDL
MODEL 2
REMARK VINA RESULT:     -12.3      5.207     10.131
REMARK SMILES Cc1cc(Nc2ccc(C(=O)OCCOC(=O)c3ccc(-c4c5nc(c(-c6cc(S(=O)(=O)[O-])ccc6F)c6ccc([nH]6)c(-c6cc(S(=O)(=O)[O-])ccc6F)c6nc(c(-c7cc(S(=O)(=O)[O-])ccc7F)c7ccc4[nH]7)C=C6)C=C5)cc3)cc2)nc(C(C)C)n1
REMARK SMILES IDX 13 1 12 2 10 3 11 4 9 5 6 6 7 7 82 8 8 9 81 10 5 11 4 13
REMARK SMILES IDX 1 14 2 15 3 16 88 17 84 18 83 19 85 20 86 21 87 22 14 23
REMARK SMILES IDX 15 24 16 25 17 26 18 27 19 28 80 29 20 30 79 31 21 32 22 33
REMARK SMILES IDX 23 34 73 35 24 36 78 37 72 38 74 39 25 40 77 41 71 42 70 43
REMARK SMILES IDX 26 45 58 46 38 47 57 48 39 49 42 50 56 51 75 52 40 53 41 54
REMARK SMILES IDX 55 56 76 57 43 58 27 59 28 60 36 61 29 62 35 63 37 64 34 65
REMARK SMILES IDX 30 66 31 67 32 68 33 69 59 70 60 71 68 72 61 73 67 74 69 75
REMARK SMILES IDX 66 76 62 77 63 78 64 79 65 80 44 81 45 82 53 83 46 84 52 85
REMARK SMILES IDX 54 86 51 87 47 88 48 89 49 90 50 91
REMARK H PARENT 5 12 74 44 42 55
REMARK Flexibility Score: inf
ROOT
ATOM      1  C   UNL A   1      31.183  29.527  24.725  1.00  0.00     0.275 C 
ENDROOT
BRANCH   1   2
ATOM      2  O   UNL A   1      30.692  28.193  24.962  1.00  0.00    -0.458 OA
BRANCH   2   3
ATOM      3  C   UNL A   1      30.816  27.334  23.920  1.00  0.00     0.338 C 
ATOM      4  O   UNL A   1      31.007  27.636  22.752  1.00  0.00    -0.246 OA
BRANCH   3   5
ATOM      5  C   UNL A   1      30.757  25.930  24.383  1.00  0.00     0.060 A 
ATOM      6  C   UNL A   1      30.893  23.294  25.345  1.00  0.00     0.040 A 
ATOM      7  C   UNL A   1      30.856  24.366  26.237  1.00  0.00     0.027 A 
ATOM      8  C   UNL A   1      30.836  23.556  23.967  1.00  0.00     0.027 A 
ATOM      9  C   UNL A   1      30.824  25.672  25.757  1.00  0.00     0.018 A 
ATOM     10  C   UNL A   1      30.742  24.865  23.482  1.00  0.00     0.018 A 
BRANCH   6  11
ATOM     11  N   UNL A   1      31.203  22.011  25.838  1.00  0.00    -0.340 N 
ATOM     12  H   UNL A   1      30.598  21.608  26.502  1.00  0.00     0.168 HD
BRANCH  11  13
ATOM     13  C   UNL A   1      32.335  21.274  25.428  1.00  0.00     0.134 A 
ATOM     14  C   UNL A   1      36.063  21.571  25.287  1.00  0.00     0.067 C 
ATOM     15  C   UNL A   1      34.660  21.063  25.154  1.00  0.00     0.043 A 
ATOM     16  C   UNL A   1      33.590  21.820  25.589  1.00  0.00     0.070 A 
ATOM     17  N   UNL A   1      34.510  19.835  24.615  1.00  0.00    -0.238 NA
ATOM     18  C   UNL A   1      33.252  19.377  24.502  1.00  0.00     0.133 A 
ATOM     19  N   UNL A   1      32.167  20.048  24.907  1.00  0.00    -0.216 NA
BRANCH  18  20
ATOM     20  C   UNL A   1      33.013  18.004  23.919  1.00  0.00     0.051 C 
ATOM     21  C   UNL A   1      32.505  18.085  22.481  1.00  0.00     0.016 C 
ATOM     22  C   UNL A   1      34.276  17.151  24.022  1.00  0.00     0.016 C 
ENDBRANCH  18  20
ENDBRANCH  11  13
ENDBRANCH   6  11
ENDBRANCH   3   5
ENDBRANCH   2   3
ENDBRANCH   1   2
BRANCH   1  23
ATOM     23  C   UNL A   1      32.579  29.719  25.317  1.00  0.00     0.275 C 
BRANCH  23  24
ATOM     24  O   UNL A   1      32.502  29.964  26.732  1.00  0.00    -0.458 OA
BRANCH  24  25
ATOM     25  C   UNL A   1      33.034  31.138  27.144  1.00  0.00     0.338 C 
ATOM     26  O   UNL A   1      32.499  32.233  27.148  1.00  0.00    -0.246 OA
BRANCH  25  27
ATOM     27  C   UNL A   1      34.399  30.915  27.640  1.00  0.00     0.060 A 
ATOM     28  C   UNL A   1      34.769  29.634  28.034  1.00  0.00     0.016 A 
ATOM     29  C   UNL A   1      35.260  31.987  27.852  1.00  0.00     0.016 A 
ATOM     30  C   UNL A   1      35.945  29.428  28.749  1.00  0.00     0.010 A 
ATOM     31  C   UNL A   1      36.502  31.757  28.455  1.00  0.00     0.010 A 
ATOM     32  C   UNL A   1      36.846  30.482  28.945  1.00  0.00    -0.014 A 
BRANCH  32  33
ATOM     33  C   UNL A   1      38.136  30.269  29.663  1.00  0.00     0.031 A 
ATOM     34  C   UNL A   1      39.181  29.359  29.074  1.00  0.00     0.074 A 
ATOM     35  C   UNL A   1      38.364  30.855  30.856  1.00  0.00     0.049 A 
ATOM     36  N   UNL A   1      40.227  28.813  29.640  1.00  0.00    -0.248 NA
ATOM     37  C   UNL A   1      39.001  28.994  27.661  1.00  0.00     0.031 C 
ATOM     38  C   UNL A   1      37.468  31.803  31.522  1.00  0.00     0.029 A 
ATOM     39  N   UNL A   1      39.412  30.721  31.736  1.00  0.00    -0.354 N 
ATOM     40  C   UNL A   1      40.793  27.984  28.674  1.00  0.00     0.074 A 
ATOM     41  C   UNL A   1      39.961  28.097  27.493  1.00  0.00     0.031 C 
ATOM     42  C   UNL A   1      38.002  32.168  32.695  1.00  0.00     0.029 A 
ATOM     43  C   UNL A   1      39.220  31.400  32.917  1.00  0.00     0.049 A 
ATOM     44  H   UNL A   1      40.219  30.193  31.539  1.00  0.00     0.167 HD
ATOM     45  C   UNL A   1      41.897  27.201  28.774  1.00  0.00     0.034 A 
ATOM     46  C   UNL A   1      39.893  31.354  34.084  1.00  0.00     0.034 A 
ATOM     47  C   UNL A   1      42.727  27.138  29.957  1.00  0.00     0.049 A 
ATOM     48  C   UNL A   1      41.084  30.444  34.200  1.00  0.00     0.074 A 
ATOM     49  C   UNL A   1      43.883  26.407  30.164  1.00  0.00     0.029 A 
ATOM     50  N   UNL A   1      42.486  27.837  31.136  1.00  0.00    -0.354 N 
ATOM     51  N   UNL A   1      41.580  29.620  33.306  1.00  0.00    -0.248 NA
ATOM     52  C   UNL A   1      41.798  30.451  35.481  1.00  0.00     0.031 C 
ATOM     53  C   UNL A   1      44.301  26.608  31.486  1.00  0.00     0.029 A 
ATOM     54  C   UNL A   1      43.455  27.530  32.081  1.00  0.00     0.049 A 
ATOM     55  H   UNL A   1      41.738  28.459  31.278  1.00  0.00     0.167 HD
ATOM     56  C   UNL A   1      42.678  29.020  33.913  1.00  0.00     0.074 A 
ATOM     57  C   UNL A   1      42.777  29.587  35.244  1.00  0.00     0.031 C 
ATOM     58  C   UNL A   1      43.530  28.090  33.412  1.00  0.00     0.034 A 
BRANCH  45  59
ATOM     59  C   UNL A   1      42.218  26.299  27.601  1.00  0.00     0.023 A 
ATOM     60  C   UNL A   1      41.698  24.997  27.491  1.00  0.00     0.031 A 
ATOM     61  C   UNL A   1      43.115  26.729  26.606  1.00  0.00     0.131 A 
ATOM     62  C   UNL A   1      42.156  24.142  26.475  1.00  0.00     0.055 A 
ATOM     63  C   UNL A   1      43.495  25.904  25.545  1.00  0.00     0.041 A 
ATOM     64  F   UNL A   1      43.664  27.953  26.662  1.00  0.00    -0.206 F 
ATOM     65  C   UNL A   1      43.032  24.594  25.487  1.00  0.00     0.022 A 
BRANCH  62  66
ATOM     66  S   UNL A   1      41.738  22.378  26.577  1.00  0.00     0.124 S 
ATOM     67  O   UNL A   1      42.383  21.992  27.829  1.00  0.00    -0.237 OA
ATOM     68  O   UNL A   1      40.280  22.401  26.590  1.00  0.00    -0.237 OA
ATOM     69  O   UNL A   1      42.344  21.812  25.374  1.00  0.00    -0.744 OA
ENDBRANCH  62  66
ENDBRANCH  45  59
BRANCH  46  70
ATOM     70  C   UNL A   1      39.387  32.126  35.254  1.00  0.00     0.023 A 
ATOM     71  C   UNL A   1      38.662  31.508  36.282  1.00  0.00     0.031 A 
ATOM     72  C   UNL A   1      39.653  33.504  35.369  1.00  0.00     0.131 A 
ATOM     73  C   UNL A   1      38.216  32.269  37.375  1.00  0.00     0.055 A 
ATOM     74  C   UNL A   1      39.252  34.245  36.480  1.00  0.00     0.041 A 
ATOM     75  F   UNL A   1      40.349  34.143  34.412  1.00  0.00    -0.206 F 
ATOM     76  C   UNL A   1      38.523  33.628  37.490  1.00  0.00     0.022 A 
BRANCH  73  77
ATOM     77  S   UNL A   1      37.191  31.465  38.637  1.00  0.00     0.124 S 
ATOM     78  O   UNL A   1      38.031  31.588  39.823  1.00  0.00    -0.237 OA
ATOM     79  O   UNL A   1      35.985  32.286  38.617  1.00  0.00    -0.237 OA
ATOM     80  O   UNL A   1      37.025  30.106  38.127  1.00  0.00    -0.744 OA
ENDBRANCH  73  77
ENDBRANCH  46  70
BRANCH  58  81
ATOM     81  C   UNL A   1      44.677  27.669  34.297  1.00  0.00     0.023 A 
ATOM     82  C   UNL A   1      44.643  26.477  35.039  1.00  0.00     0.031 A 
ATOM     83  C   UNL A   1      45.820  28.483  34.398  1.00  0.00     0.131 A 
ATOM     84  C   UNL A   1      45.714  26.153  35.888  1.00  0.00     0.055 A 
ATOM     85  C   UNL A   1      46.904  28.129  35.200  1.00  0.00     0.041 A 
ATOM     86  F   UNL A   1      45.901  29.635  33.713  1.00  0.00    -0.206 F 
ATOM     87  C   UNL A   1      46.851  26.964  35.959  1.00  0.00     0.022 A 
BRANCH  84  88
ATOM     88  S   UNL A   1      45.571  24.697  36.959  1.00  0.00     0.124 S 
ATOM     89  O   UNL A   1      46.949  24.509  37.401  1.00  0.00    -0.237 OA
ATOM     90  O   UNL A   1      44.630  25.149  37.978  1.00  0.00    -0.237 OA
ATOM     91  O   UNL A   1      45.062  23.661  36.063  1.00  0.00    -0.744 OA
ENDBRANCH  84  88
ENDBRANCH  58  81
ENDBRANCH  32  33
ENDBRANCH  25  27
ENDBRANCH  24  25
ENDBRANCH  23  24
ENDBRANCH   1  23
TORSDOF 17
ENDMDL
MODEL 3
REMARK VINA RESULT:     -12.2      1.488      1.697
REMARK SMILES Cc1cc(Nc2ccc(C(=O)OCCOC(=O)c3ccc(-c4c5nc(c(-c6cc(S(=O)(=O)[O-])ccc6F)c6ccc([nH]6)c(-c6cc(S(=O)(=O)[O-])ccc6F)c6nc(c(-c7cc(S(=O)(=O)[O-])ccc7F)c7ccc4[nH]7)C=C6)C=C5)cc3)cc2)nc(C(C)C)n1
REMARK SMILES IDX 13 1 12 2 10 3 11 4 9 5 6 6 7 7 82 8 8 9 81 10 5 11 4 13
REMARK SMILES IDX 1 14 2 15 3 16 88 17 84 18 83 19 85 20 86 21 87 22 14 23
REMARK SMILES IDX 15 24 16 25 17 26 18 27 19 28 80 29 20 30 79 31 21 32 22 33
REMARK SMILES IDX 23 34 73 35 24 36 78 37 72 38 74 39 25 40 77 41 71 42 70 43
REMARK SMILES IDX 26 45 58 46 38 47 57 48 39 49 42 50 56 51 75 52 40 53 41 54
REMARK SMILES IDX 55 56 76 57 43 58 27 59 28 60 36 61 29 62 35 63 37 64 34 65
REMARK SMILES IDX 30 66 31 67 32 68 33 69 59 70 60 71 68 72 61 73 67 74 69 75
REMARK SMILES IDX 66 76 62 77 63 78 64 79 65 80 44 81 45 82 53 83 46 84 52 85
REMARK SMILES IDX 54 86 51 87 47 88 48 89 49 90 50 91
REMARK H PARENT 5 12 74 44 42 55
REMARK Flexibility Score: inf
ROOT
ATOM      1  C   UNL A   1      35.200  20.218  24.940  1.00  0.00     0.275 C 
ENDROOT
BRANCH   1   2
ATOM      2  O   UNL A   1      34.167  20.855  25.717  1.00  0.00    -0.458 OA
BRANCH   2   3
ATOM      3  C   UNL A   1      32.903  20.671  25.264  1.00  0.00     0.338 C 
ATOM      4  O   UNL A   1      32.349  19.598  25.079  1.00  0.00    -0.246 OA
BRANCH   3   5
ATOM      5  C   UNL A   1      32.218  21.968  25.071  1.00  0.00     0.060 A 
ATOM      6  C   UNL A   1      30.699  24.316  24.801  1.00  0.00     0.040 A 
ATOM      7  C   UNL A   1      31.057  23.854  26.068  1.00  0.00     0.027 A 
ATOM      8  C   UNL A   1      31.129  23.603  23.671  1.00  0.00     0.027 A 
ATOM      9  C   UNL A   1      31.780  22.672  26.199  1.00  0.00     0.018 A 
ATOM     10  C   UNL A   1      31.908  22.447  23.798  1.00  0.00     0.018 A 
BRANCH   6  11
ATOM     11  N   UNL A   1      29.744  25.347  24.700  1.00  0.00    -0.340 N 
ATOM     12  H   UNL A   1      28.794  25.115  24.812  1.00  0.00     0.168 HD
BRANCH  11  13
ATOM     13  C   UNL A   1      30.079  26.694  24.448  1.00  0.00     0.134 A 
ATOM     14  C   UNL A   1      29.128  29.520  22.184  1.00  0.00     0.067 C 
ATOM     15  C   UNL A   1      29.794  28.692  23.240  1.00  0.00     0.043 A 
ATOM     16  C   UNL A   1      29.413  27.381  23.457  1.00  0.00     0.070 A 
ATOM     17  N   UNL A   1      30.755  29.298  23.968  1.00  0.00    -0.238 NA
ATOM     18  C   UNL A   1      31.348  28.557  24.919  1.00  0.00     0.133 A 
ATOM     19  N   UNL A   1      31.028  27.286  25.192  1.00  0.00    -0.216 NA
BRANCH  18  20
ATOM     20  C   UNL A   1      32.423  29.177  25.779  1.00  0.00     0.051 C 
ATOM     21  C   UNL A   1      32.031  29.179  27.255  1.00  0.00     0.016 C 
ATOM     22  C   UNL A   1      33.761  28.476  25.553  1.00  0.00     0.016 C 
ENDBRANCH  18  20
ENDBRANCH  11  13
ENDBRANCH   6  11
ENDBRANCH   3   5
ENDBRANCH   2   3
ENDBRANCH   1   2
BRANCH   1  23
ATOM     23  C   UNL A   1      36.320  21.200  24.592  1.00  0.00     0.275 C 
BRANCH  23  24
ATOM     24  O   UNL A   1      36.989  21.651  25.781  1.00  0.00    -0.458 OA
BRANCH  24  25
ATOM     25  C   UNL A   1      38.323  21.422  25.815  1.00  0.00     0.338 C 
ATOM     26  O   UNL A   1      38.921  20.461  25.364  1.00  0.00    -0.246 OA
BRANCH  25  27
ATOM     27  C   UNL A   1      39.000  22.549  26.471  1.00  0.00     0.060 A 
ATOM     28  C   UNL A   1      38.589  23.844  26.177  1.00  0.00     0.016 A 
ATOM     29  C   UNL A   1      40.128  22.335  27.258  1.00  0.00     0.016 A 
ATOM     30  C   UNL A   1      39.363  24.934  26.562  1.00  0.00     0.010 A 
ATOM     31  C   UNL A   1      40.832  23.438  27.756  1.00  0.00     0.010 A 
ATOM     32  C   UNL A   1      40.481  24.751  27.384  1.00  0.00    -0.014 A 
BRANCH  32  33
ATOM     33  C   UNL A   1      41.293  25.913  27.851  1.00  0.00     0.031 A 
ATOM     34  C   UNL A   1      40.650  26.991  28.683  1.00  0.00     0.074 A 
ATOM     35  C   UNL A   1      42.591  26.028  27.505  1.00  0.00     0.049 A 
ATOM     36  N   UNL A   1      41.071  28.200  28.951  1.00  0.00    -0.248 NA
ATOM     37  C   UNL A   1      39.339  26.666  29.264  1.00  0.00     0.031 C 
ATOM     38  C   UNL A   1      43.360  25.037  26.751  1.00  0.00     0.029 A 
ATOM     39  N   UNL A   1      43.491  27.045  27.722  1.00  0.00    -0.354 N 
ATOM     40  C   UNL A   1      40.047  28.807  29.675  1.00  0.00     0.074 A 
ATOM     41  C   UNL A   1      38.984  27.830  29.789  1.00  0.00     0.031 C 
ATOM     42  C   UNL A   1      44.609  25.487  26.573  1.00  0.00     0.029 A 
ATOM     43  C   UNL A   1      44.701  26.842  27.100  1.00  0.00     0.049 A 
ATOM     44  H   UNL A   1      43.288  27.839  28.268  1.00  0.00     0.167 HD
ATOM     45  C   UNL A   1      40.005  30.065  30.186  1.00  0.00     0.034 A 
ATOM     46  C   UNL A   1      45.742  27.673  26.898  1.00  0.00     0.034 A 
ATOM     47  C   UNL A   1      41.098  31.005  30.085  1.00  0.00     0.049 A 
ATOM     48  C   UNL A   1      45.662  29.079  27.423  1.00  0.00     0.074 A 
ATOM     49  C   UNL A   1      41.181  32.292  30.587  1.00  0.00     0.029 A 
ATOM     50  N   UNL A   1      42.303  30.758  29.435  1.00  0.00    -0.354 N 
ATOM     51  N   UNL A   1      44.672  29.666  28.054  1.00  0.00    -0.248 NA
ATOM     52  C   UNL A   1      46.833  29.935  27.201  1.00  0.00     0.031 C 
ATOM     53  C   UNL A   1      42.402  32.846  30.184  1.00  0.00     0.029 A 
ATOM     54  C   UNL A   1      43.121  31.878  29.499  1.00  0.00     0.049 A 
ATOM     55  H   UNL A   1      42.541  29.911  28.995  1.00  0.00     0.167 HD
ATOM     56  C   UNL A   1      45.108  30.960  28.320  1.00  0.00     0.074 A 
ATOM     57  C   UNL A   1      46.454  31.061  27.791  1.00  0.00     0.031 C 
ATOM     58  C   UNL A   1      44.455  31.969  28.951  1.00  0.00     0.034 A 
BRANCH  45  59
ATOM     59  C   UNL A   1      38.706  30.510  30.826  1.00  0.00     0.023 A 
ATOM     60  C   UNL A   1      37.639  31.033  30.075  1.00  0.00     0.031 A 
ATOM     61  C   UNL A   1      38.561  30.470  32.225  1.00  0.00     0.131 A 
ATOM     62  C   UNL A   1      36.526  31.587  30.728  1.00  0.00     0.055 A 
ATOM     63  C   UNL A   1      37.410  30.936  32.864  1.00  0.00     0.041 A 
ATOM     64  F   UNL A   1      39.550  30.001  33.003  1.00  0.00    -0.206 F 
ATOM     65  C   UNL A   1      36.393  31.520  32.116  1.00  0.00     0.022 A 
BRANCH  62  66
ATOM     66  S   UNL A   1      35.348  32.564  29.751  1.00  0.00     0.124 S 
ATOM     67  O   UNL A   1      35.042  31.649  28.654  1.00  0.00    -0.237 OA
ATOM     68  O   UNL A   1      34.270  32.801  30.705  1.00  0.00    -0.237 OA
ATOM     69  O   UNL A   1      36.116  33.746  29.369  1.00  0.00    -0.744 OA
ENDBRANCH  62  66
ENDBRANCH  45  59
BRANCH  46  70
ATOM     70  C   UNL A   1      46.901  27.212  26.080  1.00  0.00     0.023 A 
ATOM     71  C   UNL A   1      47.072  27.629  24.753  1.00  0.00     0.031 A 
ATOM     72  C   UNL A   1      47.875  26.362  26.638  1.00  0.00     0.131 A 
ATOM     73  C   UNL A   1      48.185  27.184  24.022  1.00  0.00     0.055 A 
ATOM     74  C   UNL A   1      49.005  25.964  25.924  1.00  0.00     0.041 A 
ATOM     75  F   UNL A   1      47.759  25.939  27.908  1.00  0.00    -0.206 F 
ATOM     76  C   UNL A   1      49.162  26.371  24.604  1.00  0.00     0.022 A 
BRANCH  73  77
ATOM     77  S   UNL A   1      48.325  27.654  22.276  1.00  0.00     0.124 S 
ATOM     78  O   UNL A   1      47.087  28.396  22.067  1.00  0.00    -0.237 OA
ATOM     79  O   UNL A   1      49.554  28.441  22.270  1.00  0.00    -0.237 OA
ATOM     80  O   UNL A   1      48.408  26.370  21.582  1.00  0.00    -0.744 OA
ENDBRANCH  73  77
ENDBRANCH  46  70
BRANCH  58  81
ATOM     81  C   UNL A   1      45.217  33.257  29.146  1.00  0.00     0.023 A 
ATOM     82  C   UNL A   1      45.053  34.356  28.286  1.00  0.00     0.031 A 
ATOM     83  C   UNL A   1      46.127  33.378  30.212  1.00  0.00     0.131 A 
ATOM     84  C   UNL A   1      45.822  35.514  28.480  1.00  0.00     0.055 A 
ATOM     85  C   UNL A   1      46.847  34.551  30.433  1.00  0.00     0.041 A 
ATOM     86  F   UNL A   1      46.325  32.356  31.061  1.00  0.00    -0.206 F 
ATOM     87  C   UNL A   1      46.706  35.624  29.558  1.00  0.00     0.022 A 
BRANCH  84  88
ATOM     88  S   UNL A   1      45.713  36.850  27.259  1.00  0.00     0.124 S 
ATOM     89  O   UNL A   1      46.179  38.001  28.025  1.00  0.00    -0.237 OA
ATOM     90  O   UNL A   1      46.603  36.383  26.202  1.00  0.00    -0.237 OA
ATOM     91  O   UNL A   1      44.294  36.876  26.905  1.00  0.00    -0.744 OA
ENDBRANCH  84  88
ENDBRANCH  58  81
ENDBRANCH  32  33
ENDBRANCH  25  27
ENDBRANCH  24  25
ENDBRANCH  23  24
ENDBRANCH   1  23
TORSDOF 17
ENDMDL
