MODEL 1
REMARK VINA RESULT:     -10.6      0.000      0.000
REMARK SMILES O=C(C[C@@H](NC(=O)C1CC=CC1)C1CC1)OCCOC(=O)c1ccc(-c2c3nc(c(-c4cc(S(=O)(=O)[O-])ccc4F)c4ccc([nH]4)c(-c4cc(S(=O)(=O)[O-])ccc4F)c4nc(c(-c5cc(S(=O)(=O)[O-])ccc5F)c5ccc2[nH]5)C=C4)C=C3)cc1
REMARK SMILES IDX 17 1 16 2 2 3 1 4 3 5 4 6 5 7 6 8 7 10 8 11 9 12 12 13 10 14
REMARK SMILES IDX 11 15 13 16 14 17 15 18 18 19 19 20 20 21 21 22 22 23 23 24
REMARK SMILES IDX 84 25 24 26 83 27 25 28 26 29 27 30 77 31 28 32 82 33 76 34
REMARK SMILES IDX 78 35 29 36 81 37 75 38 74 39 30 41 62 42 42 43 61 44 43 45
REMARK SMILES IDX 46 46 60 47 79 48 44 49 45 50 59 52 80 53 47 54 31 55 32 56
REMARK SMILES IDX 40 57 33 58 39 59 41 60 38 61 34 62 35 63 36 64 37 65 63 66
REMARK SMILES IDX 64 67 72 68 65 69 71 70 73 71 70 72 66 73 67 74 68 75 69 76
REMARK SMILES IDX 48 77 49 78 57 79 50 80 56 81 58 82 55 83 51 84 52 85 53 86
REMARK SMILES IDX 54 87
REMARK H PARENT 5 9 78 40 46 51
REMARK Flexibility Score: inf
ROOT
ATOM      1  C   UNL A   1      37.476  20.938  24.867  1.00  0.00     0.274 C 
ENDROOT
BRANCH   1   2
ATOM      2  O   UNL A   1      36.452  21.428  25.756  1.00  0.00    -0.462 OA
BRANCH   2   3
ATOM      3  C   UNL A   1      35.924  22.671  25.670  1.00  0.00     0.308 C 
ATOM      4  O   UNL A   1      36.658  23.657  25.646  1.00  0.00    -0.252 OA
BRANCH   3   5
ATOM      5  C   UNL A   1      34.423  22.824  25.691  1.00  0.00     0.147 C 
BRANCH   5   6
ATOM      6  C   UNL A   1      33.744  21.859  24.717  1.00  0.00     0.096 C 
BRANCH   6   7
ATOM      7  N   UNL A   1      33.221  20.680  25.418  1.00  0.00    -0.352 N 
ATOM      8  C   UNL A   1      33.051  19.367  25.107  1.00  0.00     0.223 C 
ATOM      9  H   UNL A   1      32.920  20.890  26.331  1.00  0.00     0.163 HD
ATOM     10  O   UNL A   1      32.208  18.769  25.783  1.00  0.00    -0.275 OA
BRANCH   8  11
ATOM     11  C   UNL A   1      33.886  18.661  24.041  1.00  0.00     0.086 C 
ATOM     12  C   UNL A   1      35.098  17.929  24.664  1.00  0.00     0.040 C 
ATOM     13  C   UNL A   1      33.119  17.596  23.250  1.00  0.00     0.040 C 
ATOM     14  C   UNL A   1      34.888  16.492  24.323  1.00  0.00    -0.030 C 
ATOM     15  C   UNL A   1      33.813  16.312  23.553  1.00  0.00    -0.030 C 
ENDBRANCH   8  11
ENDBRANCH   6   7
BRANCH   6  16
ATOM     16  C   UNL A   1      32.729  22.472  23.789  1.00  0.00     0.012 C 
ATOM     17  C   UNL A   1      33.026  22.890  22.365  1.00  0.00     0.006 C 
ATOM     18  C   UNL A   1      32.200  21.665  22.624  1.00  0.00     0.006 C 
ENDBRANCH   6  16
ENDBRANCH   5   6
ENDBRANCH   3   5
ENDBRANCH   2   3
ENDBRANCH   1   2
BRANCH   1  19
ATOM     19  C   UNL A   1      38.501  20.071  25.597  1.00  0.00     0.275 C 
BRANCH  19  20
ATOM     20  O   UNL A   1      39.774  20.736  25.655  1.00  0.00    -0.458 OA
BRANCH  20  21
ATOM     21  C   UNL A   1      40.340  20.811  26.887  1.00  0.00     0.338 C 
ATOM     22  O   UNL A   1      40.684  19.875  27.582  1.00  0.00    -0.246 OA
BRANCH  21  23
ATOM     23  C   UNL A   1      40.649  22.229  27.197  1.00  0.00     0.060 A 
ATOM     24  C   UNL A   1      39.985  23.223  26.464  1.00  0.00     0.016 A 
ATOM     25  C   UNL A   1      41.548  22.588  28.207  1.00  0.00     0.016 A 
ATOM     26  C   UNL A   1      40.227  24.573  26.727  1.00  0.00     0.010 A 
ATOM     27  C   UNL A   1      41.790  23.939  28.467  1.00  0.00     0.010 A 
ATOM     28  C   UNL A   1      41.146  24.940  27.717  1.00  0.00    -0.014 A 
BRANCH  28  29
ATOM     29  C   UNL A   1      41.564  26.353  27.888  1.00  0.00     0.031 A 
ATOM     30  C   UNL A   1      42.959  26.740  27.493  1.00  0.00     0.074 A 
ATOM     31  C   UNL A   1      40.746  27.264  28.445  1.00  0.00     0.049 A 
ATOM     32  N   UNL A   1      43.590  27.870  27.671  1.00  0.00    -0.248 NA
ATOM     33  C   UNL A   1      43.746  25.700  26.817  1.00  0.00     0.031 C 
ATOM     34  C   UNL A   1      39.363  27.020  28.836  1.00  0.00     0.029 A 
ATOM     35  N   UNL A   1      40.975  28.566  28.814  1.00  0.00    -0.354 N 
ATOM     36  C   UNL A   1      44.853  27.682  27.123  1.00  0.00     0.074 A 
ATOM     37  C   UNL A   1      44.910  26.309  26.661  1.00  0.00     0.031 C 
ATOM     38  C   UNL A   1      38.883  28.111  29.457  1.00  0.00     0.029 A 
ATOM     39  C   UNL A   1      39.933  29.126  29.514  1.00  0.00     0.049 A 
ATOM     40  H   UNL A   1      41.804  29.051  28.599  1.00  0.00     0.167 HD
ATOM     41  C   UNL A   1      45.865  28.576  27.001  1.00  0.00     0.034 A 
ATOM     42  C   UNL A   1      39.847  30.307  30.159  1.00  0.00     0.034 A 
ATOM     43  C   UNL A   1      45.801  29.929  27.495  1.00  0.00     0.049 A 
ATOM     44  C   UNL A   1      41.013  31.258  30.106  1.00  0.00     0.074 A 
ATOM     45  C   UNL A   1      46.753  30.929  27.402  1.00  0.00     0.029 A 
ATOM     46  N   UNL A   1      44.731  30.466  28.202  1.00  0.00    -0.354 N 
ATOM     47  N   UNL A   1      42.189  31.090  29.545  1.00  0.00    -0.248 NA
ATOM     48  C   UNL A   1      40.837  32.566  30.754  1.00  0.00     0.031 C 
ATOM     49  C   UNL A   1      46.289  32.044  28.111  1.00  0.00     0.029 A 
ATOM     50  C   UNL A   1      45.015  31.767  28.584  1.00  0.00     0.049 A 
ATOM     51  H   UNL A   1      43.893  29.989  28.402  1.00  0.00     0.167 HD
ATOM     52  C   UNL A   1      42.879  32.284  29.741  1.00  0.00     0.074 A 
ATOM     53  C   UNL A   1      41.990  33.160  30.478  1.00  0.00     0.031 C 
ATOM     54  C   UNL A   1      44.125  32.629  29.328  1.00  0.00     0.034 A 
BRANCH  41  55
ATOM     55  C   UNL A   1      47.133  28.075  26.355  1.00  0.00     0.023 A 
ATOM     56  C   UNL A   1      47.373  28.254  24.980  1.00  0.00     0.031 A 
ATOM     57  C   UNL A   1      48.063  27.328  27.096  1.00  0.00     0.131 A 
ATOM     58  C   UNL A   1      48.452  27.599  24.370  1.00  0.00     0.055 A 
ATOM     59  C   UNL A   1      49.187  26.756  26.497  1.00  0.00     0.041 A 
ATOM     60  F   UNL A   1      47.875  27.106  28.406  1.00  0.00    -0.206 F 
ATOM     61  C   UNL A   1      49.375  26.870  25.122  1.00  0.00     0.022 A 
BRANCH  58  62
ATOM     62  S   UNL A   1      48.512  27.546  22.557  1.00  0.00     0.124 S 
ATOM     63  O   UNL A   1      47.261  28.212  22.201  1.00  0.00    -0.237 OA
ATOM     64  O   UNL A   1      49.735  28.283  22.261  1.00  0.00    -0.237 OA
ATOM     65  O   UNL A   1      48.554  26.117  22.257  1.00  0.00    -0.744 OA
ENDBRANCH  58  62
ENDBRANCH  41  55
BRANCH  42  66
ATOM     66  C   UNL A   1      38.628  30.633  30.950  1.00  0.00     0.023 A 
ATOM     67  C   UNL A   1      37.566  31.361  30.395  1.00  0.00     0.031 A 
ATOM     68  C   UNL A   1      38.524  30.226  32.293  1.00  0.00     0.131 A 
ATOM     69  C   UNL A   1      36.455  31.688  31.189  1.00  0.00     0.055 A 
ATOM     70  C   UNL A   1      37.402  30.521  33.068  1.00  0.00     0.041 A 
ATOM     71  F   UNL A   1      39.510  29.517  32.866  1.00  0.00    -0.206 F 
ATOM     72  C   UNL A   1      36.362  31.265  32.518  1.00  0.00     0.022 A 
BRANCH  69  73
ATOM     73  S   UNL A   1      35.141  32.711  30.471  1.00  0.00     0.124 S 
ATOM     74  O   UNL A   1      34.173  32.757  31.560  1.00  0.00    -0.237 OA
ATOM     75  O   UNL A   1      35.848  33.956  30.187  1.00  0.00    -0.237 OA
ATOM     76  O   UNL A   1      34.723  31.952  29.294  1.00  0.00    -0.744 OA
ENDBRANCH  69  73
ENDBRANCH  42  66
BRANCH  54  77
ATOM     77  C   UNL A   1      44.582  34.038  29.612  1.00  0.00     0.023 A 
ATOM     78  C   UNL A   1      44.402  35.082  28.689  1.00  0.00     0.031 A 
ATOM     79  C   UNL A   1      45.192  34.339  30.844  1.00  0.00     0.131 A 
ATOM     80  C   UNL A   1      44.855  36.373  29.001  1.00  0.00     0.055 A 
ATOM     81  C   UNL A   1      45.597  35.634  31.167  1.00  0.00     0.041 A 
ATOM     82  F   UNL A   1      45.390  33.377  31.760  1.00  0.00    -0.206 F 
ATOM     83  C   UNL A   1      45.435  36.658  30.240  1.00  0.00     0.022 A 
BRANCH  80  84
ATOM     84  S   UNL A   1      44.723  37.675  27.744  1.00  0.00     0.124 S 
ATOM     85  O   UNL A   1      44.883  38.886  28.542  1.00  0.00    -0.237 OA
ATOM     86  O   UNL A   1      45.826  37.354  26.844  1.00  0.00    -0.237 OA
ATOM     87  O   UNL A   1      43.389  37.475  27.181  1.00  0.00    -0.744 OA
ENDBRANCH  80  84
ENDBRANCH  54  77
ENDBRANCH  28  29
ENDBRANCH  21  23
ENDBRANCH  20  21
ENDBRANCH  19  20
ENDBRANCH   1  19
TORSDOF 18
ENDMDL
MODEL 2
REMARK VINA RESULT:     -10.5      5.762      8.979
REMARK SMILES O=C(C[C@@H](NC(=O)C1CC=CC1)C1CC1)OCCOC(=O)c1ccc(-c2c3nc(c(-c4cc(S(=O)(=O)[O-])ccc4F)c4ccc([nH]4)c(-c4cc(S(=O)(=O)[O-])ccc4F)c4nc(c(-c5cc(S(=O)(=O)[O-])ccc5F)c5ccc2[nH]5)C=C4)C=C3)cc1
REMARK SMILES IDX 17 1 16 2 2 3 1 4 3 5 4 6 5 7 6 8 7 10 8 11 9 12 12 13 10 14
REMARK SMILES IDX 11 15 13 16 14 17 15 18 18 19 19 20 20 21 21 22 22 23 23 24
REMARK SMILES IDX 84 25 24 26 83 27 25 28 26 29 27 30 77 31 28 32 82 33 76 34
REMARK SMILES IDX 78 35 29 36 81 37 75 38 74 39 30 41 62 42 42 43 61 44 43 45
REMARK SMILES IDX 46 46 60 47 79 48 44 49 45 50 59 52 80 53 47 54 31 55 32 56
REMARK SMILES IDX 40 57 33 58 39 59 41 60 38 61 34 62 35 63 36 64 37 65 63 66
REMARK SMILES IDX 64 67 72 68 65 69 71 70 73 71 70 72 66 73 67 74 68 75 69 76
REMARK SMILES IDX 48 77 49 78 57 79 50 80 56 81 58 82 55 83 51 84 52 85 53 86
REMARK SMILES IDX 54 87
REMARK H PARENT 5 9 78 40 46 51
REMARK Flexibility Score: inf
ROOT
ATOM      1  C   UNL A   1      32.704  31.074  26.964  1.00  0.00     0.274 C 
ENDROOT
BRANCH   1   2
ATOM      2  O   UNL A   1      31.787  29.962  27.026  1.00  0.00    -0.462 OA
BRANCH   2   3
ATOM      3  C   UNL A   1      32.188  28.671  27.108  1.00  0.00     0.308 C 
ATOM      4  O   UNL A   1      31.509  27.848  27.719  1.00  0.00    -0.252 OA
BRANCH   3   5
ATOM      5  C   UNL A   1      33.519  28.286  26.511  1.00  0.00     0.147 C 
BRANCH   5   6
ATOM      6  C   UNL A   1      33.364  27.204  25.440  1.00  0.00     0.096 C 
BRANCH   6   7
ATOM      7  N   UNL A   1      33.746  27.709  24.116  1.00  0.00    -0.352 N 
ATOM      8  C   UNL A   1      33.221  27.634  22.864  1.00  0.00     0.223 C 
ATOM      9  H   UNL A   1      34.584  28.226  24.140  1.00  0.00     0.163 HD
ATOM     10  O   UNL A   1      34.023  27.821  21.943  1.00  0.00    -0.275 OA
BRANCH   8  11
ATOM     11  C   UNL A   1      31.734  27.398  22.611  1.00  0.00     0.086 C 
ATOM     12  C   UNL A   1      31.403  25.889  22.542  1.00  0.00     0.040 C 
ATOM     13  C   UNL A   1      30.817  27.975  23.695  1.00  0.00     0.040 C 
ATOM     14  C   UNL A   1      30.440  25.662  23.659  1.00  0.00    -0.030 C 
ATOM     15  C   UNL A   1      30.121  26.796  24.283  1.00  0.00    -0.030 C 
ENDBRANCH   8  11
ENDBRANCH   6   7
BRANCH   6  16
ATOM     16  C   UNL A   1      34.004  25.877  25.755  1.00  0.00     0.012 C 
ATOM     17  C   UNL A   1      33.245  24.572  25.854  1.00  0.00     0.006 C 
ATOM     18  C   UNL A   1      34.126  24.832  24.668  1.00  0.00     0.006 C 
ENDBRANCH   6  16
ENDBRANCH   5   6
ENDBRANCH   3   5
ENDBRANCH   2   3
ENDBRANCH   1   2
BRANCH   1  19
ATOM     19  C   UNL A   1      32.011  32.403  27.262  1.00  0.00     0.275 C 
BRANCH  19  20
ATOM     20  O   UNL A   1      32.949  33.490  27.172  1.00  0.00    -0.458 OA
BRANCH  20  21
ATOM     21  C   UNL A   1      33.286  34.069  28.353  1.00  0.00     0.338 C 
ATOM     22  O   UNL A   1      32.623  34.873  28.979  1.00  0.00    -0.246 OA
BRANCH  21  23
ATOM     23  C   UNL A   1      34.524  33.435  28.872  1.00  0.00     0.060 A 
ATOM     24  C   UNL A   1      34.389  32.396  29.803  1.00  0.00     0.016 A 
ATOM     25  C   UNL A   1      35.795  33.824  28.436  1.00  0.00     0.016 A 
ATOM     26  C   UNL A   1      35.522  31.754  30.311  1.00  0.00     0.010 A 
ATOM     27  C   UNL A   1      36.926  33.181  28.946  1.00  0.00     0.010 A 
ATOM     28  C   UNL A   1      36.798  32.156  29.900  1.00  0.00    -0.014 A 
BRANCH  28  29
ATOM     29  C   UNL A   1      38.017  31.627  30.560  1.00  0.00     0.031 A 
ATOM     30  C   UNL A   1      38.790  30.540  29.872  1.00  0.00     0.074 A 
ATOM     31  C   UNL A   1      38.396  32.054  31.778  1.00  0.00     0.049 A 
ATOM     32  N   UNL A   1      39.800  29.836  30.309  1.00  0.00    -0.248 NA
ATOM     33  C   UNL A   1      38.349  30.202  28.513  1.00  0.00     0.031 C 
ATOM     34  C   UNL A   1      37.750  33.123  32.530  1.00  0.00     0.029 A 
ATOM     35  N   UNL A   1      39.391  31.611  32.612  1.00  0.00    -0.354 N 
ATOM     36  C   UNL A   1      40.123  28.967  29.272  1.00  0.00     0.074 A 
ATOM     37  C   UNL A   1      39.161  29.201  28.214  1.00  0.00     0.031 C 
ATOM     38  C   UNL A   1      38.316  33.210  33.745  1.00  0.00     0.029 A 
ATOM     39  C   UNL A   1      39.359  32.193  33.858  1.00  0.00     0.049 A 
ATOM     40  H   UNL A   1      40.062  30.942  32.346  1.00  0.00     0.167 HD
ATOM     41  C   UNL A   1      41.138  28.071  29.204  1.00  0.00     0.034 A 
ATOM     42  C   UNL A   1      40.064  31.913  34.972  1.00  0.00     0.034 A 
ATOM     43  C   UNL A   1      42.066  27.830  30.280  1.00  0.00     0.049 A 
ATOM     44  C   UNL A   1      41.125  30.845  34.921  1.00  0.00     0.074 A 
ATOM     45  C   UNL A   1      43.149  26.968  30.312  1.00  0.00     0.029 A 
ATOM     46  N   UNL A   1      42.006  28.435  31.531  1.00  0.00    -0.354 N 
ATOM     47  N   UNL A   1      41.455  30.060  33.921  1.00  0.00    -0.248 NA
ATOM     48  C   UNL A   1      41.921  30.637  36.138  1.00  0.00     0.031 C 
ATOM     49  C   UNL A   1      43.697  27.001  31.600  1.00  0.00     0.029 A 
ATOM     50  C   UNL A   1      43.005  27.937  32.351  1.00  0.00     0.049 A 
ATOM     51  H   UNL A   1      41.347  29.118  31.794  1.00  0.00     0.167 HD
ATOM     52  C   UNL A   1      42.523  29.291  34.378  1.00  0.00     0.074 A 
ATOM     53  C   UNL A   1      42.775  29.702  35.745  1.00  0.00     0.031 C 
ATOM     54  C   UNL A   1      43.241  28.347  33.718  1.00  0.00     0.034 A 
BRANCH  41  55
ATOM     55  C   UNL A   1      41.238  27.261  27.935  1.00  0.00     0.023 A 
ATOM     56  C   UNL A   1      40.822  25.918  27.890  1.00  0.00     0.031 A 
ATOM     57  C   UNL A   1      41.842  27.803  26.789  1.00  0.00     0.131 A 
ATOM     58  C   UNL A   1      41.119  25.133  26.767  1.00  0.00     0.055 A 
ATOM     59  C   UNL A   1      42.050  27.040  25.639  1.00  0.00     0.041 A 
ATOM     60  F   UNL A   1      42.280  29.073  26.781  1.00  0.00    -0.206 F 
ATOM     61  C   UNL A   1      41.709  25.690  25.631  1.00  0.00     0.022 A 
BRANCH  58  62
ATOM     62  S   UNL A   1      40.907  23.335  26.894  1.00  0.00     0.124 S 
ATOM     63  O   UNL A   1      39.509  23.174  26.500  1.00  0.00    -0.237 OA
ATOM     64  O   UNL A   1      41.899  22.835  25.949  1.00  0.00    -0.237 OA
ATOM     65  O   UNL A   1      41.185  23.056  28.300  1.00  0.00    -0.744 OA
ENDBRANCH  58  62
ENDBRANCH  41  55
BRANCH  42  66
ATOM     66  C   UNL A   1      39.755  32.624  36.244  1.00  0.00     0.023 A 
ATOM     67  C   UNL A   1      38.745  32.175  37.107  1.00  0.00     0.031 A 
ATOM     68  C   UNL A   1      40.468  33.784  36.601  1.00  0.00     0.131 A 
ATOM     69  C   UNL A   1      38.454  32.901  38.274  1.00  0.00     0.055 A 
ATOM     70  C   UNL A   1      40.199  34.481  37.779  1.00  0.00     0.041 A 
ATOM     71  F   UNL A   1      41.450  34.245  35.811  1.00  0.00    -0.206 F 
ATOM     72  C   UNL A   1      39.179  34.044  38.620  1.00  0.00     0.022 A 
BRANCH  69  73
ATOM     73  S   UNL A   1      37.080  32.350  39.323  1.00  0.00     0.124 S 
ATOM     74  O   UNL A   1      37.285  33.150  40.524  1.00  0.00    -0.237 OA
ATOM     75  O   UNL A   1      35.920  32.698  38.508  1.00  0.00    -0.237 OA
ATOM     76  O   UNL A   1      37.322  30.917  39.477  1.00  0.00    -0.744 OA
ENDBRANCH  69  73
ENDBRANCH  42  66
BRANCH  54  77
ATOM     77  C   UNL A   1      44.411  27.733  34.445  1.00  0.00     0.023 A 
ATOM     78  C   UNL A   1      44.283  26.560  35.208  1.00  0.00     0.031 A 
ATOM     79  C   UNL A   1      45.682  28.329  34.350  1.00  0.00     0.131 A 
ATOM     80  C   UNL A   1      45.403  26.035  35.871  1.00  0.00     0.055 A 
ATOM     81  C   UNL A   1      46.801  27.777  34.974  1.00  0.00     0.041 A 
ATOM     82  F   UNL A   1      45.858  29.452  33.636  1.00  0.00    -0.206 F 
ATOM     83  C   UNL A   1      46.663  26.627  35.745  1.00  0.00     0.022 A 
BRANCH  80  84
ATOM     84  S   UNL A   1      45.186  24.593  36.950  1.00  0.00     0.124 S 
ATOM     85  O   UNL A   1      44.962  23.523  35.983  1.00  0.00    -0.237 OA
ATOM     86  O   UNL A   1      46.455  24.546  37.670  1.00  0.00    -0.237 OA
ATOM     87  O   UNL A   1      44.026  24.945  37.765  1.00  0.00    -0.744 OA
ENDBRANCH  80  84
ENDBRANCH  54  77
ENDBRANCH  28  29
ENDBRANCH  21  23
ENDBRANCH  20  21
ENDBRANCH  19  20
ENDBRANCH   1  19
TORSDOF 18
ENDMDL
MODEL 3
REMARK VINA RESULT:     -10.4      5.218      7.982
REMARK SMILES O=C(C[C@@H](NC(=O)C1CC=CC1)C1CC1)OCCOC(=O)c1ccc(-c2c3nc(c(-c4cc(S(=O)(=O)[O-])ccc4F)c4ccc([nH]4)c(-c4cc(S(=O)(=O)[O-])ccc4F)c4nc(c(-c5cc(S(=O)(=O)[O-])ccc5F)c5ccc2[nH]5)C=C4)C=C3)cc1
REMARK SMILES IDX 17 1 16 2 2 3 1 4 3 5 4 6 5 7 6 8 7 10 8 11 9 12 12 13 10 14
REMARK SMILES IDX 11 15 13 16 14 17 15 18 18 19 19 20 20 21 21 22 22 23 23 24
REMARK SMILES IDX 84 25 24 26 83 27 25 28 26 29 27 30 77 31 28 32 82 33 76 34
REMARK SMILES IDX 78 35 29 36 81 37 75 38 74 39 30 41 62 42 42 43 61 44 43 45
REMARK SMILES IDX 46 46 60 47 79 48 44 49 45 50 59 52 80 53 47 54 31 55 32 56
REMARK SMILES IDX 40 57 33 58 39 59 41 60 38 61 34 62 35 63 36 64 37 65 63 66
REMARK SMILES IDX 64 67 72 68 65 69 71 70 73 71 70 72 66 73 67 74 68 75 69 76
REMARK SMILES IDX 48 77 49 78 57 79 50 80 56 81 58 82 55 83 51 84 52 85 53 86
REMARK SMILES IDX 54 87
REMARK H PARENT 5 9 78 40 46 51
REMARK Flexibility Score: inf
ROOT
ATOM      1  C   UNL A   1      33.175  28.908  25.374  1.00  0.00     0.274 C 
ENDROOT
BRANCH   1   2
ATOM      2  O   UNL A   1      32.788  27.896  26.326  1.00  0.00    -0.462 OA
BRANCH   2   3
ATOM      3  C   UNL A   1      31.509  27.489  26.501  1.00  0.00     0.308 C 
ATOM      4  O   UNL A   1      31.016  27.460  27.626  1.00  0.00    -0.252 OA
BRANCH   3   5
ATOM      5  C   UNL A   1      30.737  26.991  25.304  1.00  0.00     0.147 C 
BRANCH   5   6
ATOM      6  C   UNL A   1      30.959  25.495  25.072  1.00  0.00     0.096 C 
BRANCH   6   7
ATOM      7  N   UNL A   1      30.422  24.701  26.183  1.00  0.00    -0.352 N 
ATOM      8  C   UNL A   1      30.829  23.601  26.871  1.00  0.00     0.223 C 
ATOM      9  H   UNL A   1      29.559  25.046  26.508  1.00  0.00     0.163 HD
ATOM     10  O   UNL A   1      29.934  22.979  27.451  1.00  0.00    -0.275 OA
BRANCH   8  11
ATOM     11  C   UNL A   1      32.298  23.196  26.975  1.00  0.00     0.086 C 
ATOM     12  C   UNL A   1      32.596  21.928  26.140  1.00  0.00     0.040 C 
ATOM     13  C   UNL A   1      33.277  24.263  26.475  1.00  0.00     0.040 C 
ATOM     14  C   UNL A   1      33.608  22.368  25.135  1.00  0.00    -0.030 C 
ATOM     15  C   UNL A   1      33.978  23.636  25.319  1.00  0.00    -0.030 C 
ENDBRANCH   8  11
ENDBRANCH   6   7
BRANCH   6  16
ATOM     16  C   UNL A   1      30.525  24.970  23.729  1.00  0.00     0.012 C 
ATOM     17  C   UNL A   1      31.480  24.507  22.651  1.00  0.00     0.006 C 
ATOM     18  C   UNL A   1      30.680  23.498  23.419  1.00  0.00     0.006 C 
ENDBRANCH   6  16
ENDBRANCH   5   6
ENDBRANCH   3   5
ENDBRANCH   2   3
ENDBRANCH   1   2
BRANCH   1  19
ATOM     19  C   UNL A   1      32.444  30.228  25.614  1.00  0.00     0.275 C 
BRANCH  19  20
ATOM     20  O   UNL A   1      32.478  30.576  27.009  1.00  0.00    -0.458 OA
BRANCH  20  21
ATOM     21  C   UNL A   1      33.128  31.731  27.308  1.00  0.00     0.338 C 
ATOM     22  O   UNL A   1      32.670  32.855  27.243  1.00  0.00    -0.246 OA
BRANCH  21  23
ATOM     23  C   UNL A   1      34.446  31.408  27.909  1.00  0.00     0.060 A 
ATOM     24  C   UNL A   1      34.659  30.098  28.361  1.00  0.00     0.016 A 
ATOM     25  C   UNL A   1      35.470  32.356  28.004  1.00  0.00     0.016 A 
ATOM     26  C   UNL A   1      35.887  29.736  28.920  1.00  0.00     0.010 A 
ATOM     27  C   UNL A   1      36.696  31.993  28.565  1.00  0.00     0.010 A 
ATOM     28  C   UNL A   1      36.907  30.687  29.043  1.00  0.00    -0.014 A 
BRANCH  28  29
ATOM     29  C   UNL A   1      38.147  30.386  29.802  1.00  0.00     0.031 A 
ATOM     30  C   UNL A   1      39.087  29.353  29.257  1.00  0.00     0.074 A 
ATOM     31  C   UNL A   1      38.403  30.971  30.986  1.00  0.00     0.049 A 
ATOM     32  N   UNL A   1      40.154  28.830  29.801  1.00  0.00    -0.248 NA
ATOM     33  C   UNL A   1      38.767  28.835  27.920  1.00  0.00     0.031 C 
ATOM     34  C   UNL A   1      37.587  32.010  31.601  1.00  0.00     0.029 A 
ATOM     35  N   UNL A   1      39.400  30.742  31.900  1.00  0.00    -0.354 N 
ATOM     36  C   UNL A   1      40.640  27.920  28.870  1.00  0.00     0.074 A 
ATOM     37  C   UNL A   1      39.714  27.926  27.755  1.00  0.00     0.031 C 
ATOM     38  C   UNL A   1      38.071  32.283  32.824  1.00  0.00     0.029 A 
ATOM     39  C   UNL A   1      39.228  31.427  33.080  1.00  0.00     0.049 A 
ATOM     40  H   UNL A   1      40.164  30.146  31.728  1.00  0.00     0.167 HD
ATOM     41  C   UNL A   1      41.763  27.163  28.932  1.00  0.00     0.034 A 
ATOM     42  C   UNL A   1      39.902  31.348  34.244  1.00  0.00     0.034 A 
ATOM     43  C   UNL A   1      42.656  27.147  30.064  1.00  0.00     0.049 A 
ATOM     44  C   UNL A   1      41.091  30.428  34.342  1.00  0.00     0.074 A 
ATOM     45  C   UNL A   1      43.836  26.443  30.225  1.00  0.00     0.029 A 
ATOM     46  N   UNL A   1      42.452  27.852  31.245  1.00  0.00    -0.354 N 
ATOM     47  N   UNL A   1      41.572  29.604  33.439  1.00  0.00    -0.248 NA
ATOM     48  C   UNL A   1      41.841  30.441  35.606  1.00  0.00     0.031 C 
ATOM     49  C   UNL A   1      44.306  26.666  31.524  1.00  0.00     0.029 A 
ATOM     50  C   UNL A   1      43.461  27.568  32.151  1.00  0.00     0.049 A 
ATOM     51  H   UNL A   1      41.699  28.463  31.412  1.00  0.00     0.167 HD
ATOM     52  C   UNL A   1      42.703  29.028  34.013  1.00  0.00     0.074 A 
ATOM     53  C   UNL A   1      42.827  29.593  35.342  1.00  0.00     0.031 C 
ATOM     54  C   UNL A   1      43.570  28.131  33.479  1.00  0.00     0.034 A 
BRANCH  41  55
ATOM     55  C   UNL A   1      42.033  26.259  27.755  1.00  0.00     0.023 A 
ATOM     56  C   UNL A   1      41.548  24.940  27.720  1.00  0.00     0.031 A 
ATOM     57  C   UNL A   1      42.862  26.686  26.704  1.00  0.00     0.131 A 
ATOM     58  C   UNL A   1      41.988  24.062  26.719  1.00  0.00     0.055 A 
ATOM     59  C   UNL A   1      43.220  25.832  25.659  1.00  0.00     0.041 A 
ATOM     60  F   UNL A   1      43.372  27.928  26.696  1.00  0.00    -0.206 F 
ATOM     61  C   UNL A   1      42.802  24.504  25.674  1.00  0.00     0.022 A 
BRANCH  58  62
ATOM     62  S   UNL A   1      41.645  22.290  26.917  1.00  0.00     0.124 S 
ATOM     63  O   UNL A   1      41.978  21.775  25.591  1.00  0.00    -0.237 OA
ATOM     64  O   UNL A   1      42.551  21.914  27.996  1.00  0.00    -0.237 OA
ATOM     65  O   UNL A   1      40.224  22.252  27.251  1.00  0.00    -0.744 OA
ENDBRANCH  58  62
ENDBRANCH  41  55
BRANCH  42  66
ATOM     66  C   UNL A   1      39.437  32.126  35.425  1.00  0.00     0.023 A 
ATOM     67  C   UNL A   1      39.842  33.452  35.635  1.00  0.00     0.031 A 
ATOM     68  C   UNL A   1      38.584  31.534  36.375  1.00  0.00     0.131 A 
ATOM     69  C   UNL A   1      39.418  34.135  36.786  1.00  0.00     0.055 A 
ATOM     70  C   UNL A   1      38.136  32.229  37.499  1.00  0.00     0.041 A 
ATOM     71  F   UNL A   1      38.160  30.270  36.211  1.00  0.00    -0.206 F 
ATOM     72  C   UNL A   1      38.561  33.536  37.714  1.00  0.00     0.022 A 
BRANCH  69  73
ATOM     73  S   UNL A   1      40.035  35.816  37.079  1.00  0.00     0.124 S 
ATOM     74  O   UNL A   1      39.312  36.190  38.288  1.00  0.00    -0.237 OA
ATOM     75  O   UNL A   1      41.469  35.590  37.231  1.00  0.00    -0.237 OA
ATOM     76  O   UNL A   1      39.646  36.537  35.869  1.00  0.00    -0.744 OA
ENDBRANCH  69  73
ENDBRANCH  42  66
BRANCH  54  77
ATOM     77  C   UNL A   1      44.767  27.746  34.310  1.00  0.00     0.023 A 
ATOM     78  C   UNL A   1      44.744  26.653  35.192  1.00  0.00     0.031 A 
ATOM     79  C   UNL A   1      45.961  28.482  34.197  1.00  0.00     0.131 A 
ATOM     80  C   UNL A   1      45.885  26.343  35.949  1.00  0.00     0.055 A 
ATOM     81  C   UNL A   1      47.106  28.141  34.917  1.00  0.00     0.041 A 
ATOM     82  F   UNL A   1      46.036  29.538  33.370  1.00  0.00    -0.206 F 
ATOM     83  C   UNL A   1      47.070  27.070  35.804  1.00  0.00     0.022 A 
BRANCH  80  84
ATOM     84  S   UNL A   1      45.789  25.005  37.171  1.00  0.00     0.124 S 
ATOM     85  O   UNL A   1      46.478  25.591  38.316  1.00  0.00    -0.237 OA
ATOM     86  O   UNL A   1      44.349  24.819  37.320  1.00  0.00    -0.237 OA
ATOM     87  O   UNL A   1      46.492  23.899  36.524  1.00  0.00    -0.744 OA
ENDBRANCH  80  84
ENDBRANCH  54  77
ENDBRANCH  28  29
ENDBRANCH  21  23
ENDBRANCH  20  21
ENDBRANCH  19  20
ENDBRANCH   1  19
TORSDOF 18
ENDMDL
