MODEL 1
REMARK VINA RESULT:     -11.9      0.000      0.000
REMARK SMILES Cn1c(COc2ccc(C(=O)OCCOC(=O)c3ccc(-c4c5nc(c(-c6cc(S(=O)(=O)[O-])ccc6F)c6ccc([nH]6)c(-c6cc(S(=O)(=O)[O-])ccc6F)c6nc(c(-c7cc(S(=O)(=O)[O-])ccc7F)c7ccc4[nH]7)C=C6)C=C5)cc3)cc2)nc2ccccc21
REMARK SMILES IDX 13 1 12 2 10 3 11 4 9 5 6 6 7 7 82 8 8 9 81 10 5 11 4 12
REMARK SMILES IDX 3 13 1 14 2 15 89 16 83 17 84 18 88 19 85 20 87 21 86 22
REMARK SMILES IDX 14 23 15 24 16 25 17 26 18 27 19 28 80 29 20 30 79 31 21 32
REMARK SMILES IDX 22 33 23 34 73 35 24 36 78 37 72 38 74 39 25 40 77 41 71 42
REMARK SMILES IDX 70 43 26 45 58 46 38 47 57 48 39 49 42 50 56 51 75 52 40 53
REMARK SMILES IDX 41 54 55 56 76 57 43 58 27 59 28 60 36 61 29 62 35 63 37 64
REMARK SMILES IDX 34 65 30 66 31 67 32 68 33 69 59 70 60 71 68 72 61 73 67 74
REMARK SMILES IDX 69 75 66 76 62 77 63 78 64 79 65 80 44 81 45 82 53 83 46 84
REMARK SMILES IDX 52 85 54 86 51 87 47 88 48 89 49 90 50 91
REMARK H PARENT 74 44 42 55
REMARK Flexibility Score: inf
ROOT
ATOM      1  C   UNL A   1      32.720  29.319  24.809  1.00  0.00     0.275 C 
ENDROOT
BRANCH   1   2
ATOM      2  O   UNL A   1      31.984  28.457  23.921  1.00  0.00    -0.458 OA
BRANCH   2   3
ATOM      3  C   UNL A   1      31.453  27.337  24.480  1.00  0.00     0.338 C 
ATOM      4  O   UNL A   1      30.285  27.155  24.758  1.00  0.00    -0.246 OA
BRANCH   3   5
ATOM      5  C   UNL A   1      32.501  26.298  24.669  1.00  0.00     0.060 A 
ATOM      6  C   UNL A   1      34.433  24.304  24.909  1.00  0.00     0.120 A 
ATOM      7  C   UNL A   1      34.294  24.970  23.699  1.00  0.00     0.047 A 
ATOM      8  C   UNL A   1      33.673  24.680  26.018  1.00  0.00     0.047 A 
ATOM      9  C   UNL A   1      33.306  25.945  23.572  1.00  0.00     0.019 A 
ATOM     10  C   UNL A   1      32.692  25.663  25.898  1.00  0.00     0.019 A 
BRANCH   6  11
ATOM     11  O   UNL A   1      35.342  23.285  25.006  1.00  0.00    -0.486 OA
BRANCH  11  12
ATOM     12  C   UNL A   1      34.905  22.275  25.944  1.00  0.00     0.304 C 
BRANCH  12  13
ATOM     13  C   UNL A   1      34.592  21.023  25.181  1.00  0.00     0.147 A 
ATOM     14  C   UNL A   1      32.086  21.334  24.937  1.00  0.00     0.151 C 
ATOM     15  N   UNL A   1      33.323  20.597  24.840  1.00  0.00    -0.328 N 
ATOM     16  C   UNL A   1      33.394  19.250  24.552  1.00  0.00     0.068 A 
ATOM     17  N   UNL A   1      35.477  20.077  24.915  1.00  0.00    -0.229 NA
ATOM     18  C   UNL A   1      34.751  18.957  24.628  1.00  0.00     0.089 A 
ATOM     19  C   UNL A   1      32.426  18.271  24.296  1.00  0.00     0.028 A 
ATOM     20  C   UNL A   1      35.188  17.635  24.482  1.00  0.00     0.030 A 
ATOM     21  C   UNL A   1      32.879  16.951  24.169  1.00  0.00     0.002 A 
ATOM     22  C   UNL A   1      34.235  16.633  24.269  1.00  0.00     0.002 A 
ENDBRANCH  12  13
ENDBRANCH  11  12
ENDBRANCH   6  11
ENDBRANCH   3   5
ENDBRANCH   2   3
ENDBRANCH   1   2
BRANCH   1  23
ATOM     23  C   UNL A   1      31.778  30.207  25.622  1.00  0.00     0.275 C 
BRANCH  23  24
ATOM     24  O   UNL A   1      32.285  30.403  26.954  1.00  0.00    -0.458 OA
BRANCH  24  25
ATOM     25  C   UNL A   1      32.945  31.570  27.146  1.00  0.00     0.338 C 
ATOM     26  O   UNL A   1      32.497  32.698  27.036  1.00  0.00    -0.246 OA
BRANCH  25  27
ATOM     27  C   UNL A   1      34.311  31.301  27.616  1.00  0.00     0.060 A 
ATOM     28  C   UNL A   1      34.632  29.993  27.959  1.00  0.00     0.016 A 
ATOM     29  C   UNL A   1      35.207  32.332  27.883  1.00  0.00     0.016 A 
ATOM     30  C   UNL A   1      35.801  29.713  28.657  1.00  0.00     0.010 A 
ATOM     31  C   UNL A   1      36.432  32.034  28.497  1.00  0.00     0.010 A 
ATOM     32  C   UNL A   1      36.730  30.725  28.924  1.00  0.00    -0.014 A 
BRANCH  32  33
ATOM     33  C   UNL A   1      37.977  30.416  29.688  1.00  0.00     0.031 A 
ATOM     34  C   UNL A   1      39.033  29.523  29.084  1.00  0.00     0.074 A 
ATOM     35  C   UNL A   1      38.184  30.953  30.909  1.00  0.00     0.049 A 
ATOM     36  N   UNL A   1      40.089  28.988  29.644  1.00  0.00    -0.248 NA
ATOM     37  C   UNL A   1      38.866  29.173  27.665  1.00  0.00     0.031 C 
ATOM     38  C   UNL A   1      37.280  31.885  31.588  1.00  0.00     0.029 A 
ATOM     39  N   UNL A   1      39.222  30.801  31.797  1.00  0.00    -0.354 N 
ATOM     40  C   UNL A   1      40.681  28.195  28.664  1.00  0.00     0.074 A 
ATOM     41  C   UNL A   1      39.853  28.307  27.482  1.00  0.00     0.031 C 
ATOM     42  C   UNL A   1      37.821  32.252  32.759  1.00  0.00     0.029 A 
ATOM     43  C   UNL A   1      39.050  31.498  32.972  1.00  0.00     0.049 A 
ATOM     44  H   UNL A   1      40.014  30.247  31.610  1.00  0.00     0.167 HD
ATOM     45  C   UNL A   1      41.811  27.447  28.747  1.00  0.00     0.034 A 
ATOM     46  C   UNL A   1      39.762  31.492  34.117  1.00  0.00     0.034 A 
ATOM     47  C   UNL A   1      42.645  27.381  29.925  1.00  0.00     0.049 A 
ATOM     48  C   UNL A   1      40.969  30.596  34.212  1.00  0.00     0.074 A 
ATOM     49  C   UNL A   1      43.816  26.666  30.115  1.00  0.00     0.029 A 
ATOM     50  N   UNL A   1      42.403  28.061  31.113  1.00  0.00    -0.354 N 
ATOM     51  N   UNL A   1      41.481  29.801  33.301  1.00  0.00    -0.248 NA
ATOM     52  C   UNL A   1      41.686  30.589  35.493  1.00  0.00     0.031 C 
ATOM     53  C   UNL A   1      44.238  26.854  31.436  1.00  0.00     0.029 A 
ATOM     54  C   UNL A   1      43.383  27.756  32.047  1.00  0.00     0.049 A 
ATOM     55  H   UNL A   1      41.645  28.670  31.270  1.00  0.00     0.167 HD
ATOM     56  C   UNL A   1      42.595  29.215  33.895  1.00  0.00     0.074 A 
ATOM     57  C   UNL A   1      42.691  29.766  35.232  1.00  0.00     0.031 C 
ATOM     58  C   UNL A   1      43.461  28.304  33.381  1.00  0.00     0.034 A 
BRANCH  45  59
ATOM     59  C   UNL A   1      42.172  26.588  27.555  1.00  0.00     0.023 A 
ATOM     60  C   UNL A   1      41.756  25.250  27.438  1.00  0.00     0.031 A 
ATOM     61  C   UNL A   1      42.973  27.116  26.525  1.00  0.00     0.131 A 
ATOM     62  C   UNL A   1      42.201  24.468  26.359  1.00  0.00     0.055 A 
ATOM     63  C   UNL A   1      43.341  26.358  25.411  1.00  0.00     0.041 A 
ATOM     64  F   UNL A   1      43.421  28.380  26.587  1.00  0.00    -0.206 F 
ATOM     65  C   UNL A   1      42.969  25.021  25.331  1.00  0.00     0.022 A 
BRANCH  62  66
ATOM     66  S   UNL A   1      41.889  22.682  26.393  1.00  0.00     0.124 S 
ATOM     67  O   UNL A   1      40.433  22.636  26.294  1.00  0.00    -0.237 OA
ATOM     68  O   UNL A   1      42.626  22.211  25.226  1.00  0.00    -0.237 OA
ATOM     69  O   UNL A   1      42.431  22.264  27.684  1.00  0.00    -0.744 OA
ENDBRANCH  62  66
ENDBRANCH  45  59
BRANCH  46  70
ATOM     70  C   UNL A   1      39.313  32.298  35.291  1.00  0.00     0.023 A 
ATOM     71  C   UNL A   1      39.732  33.626  35.464  1.00  0.00     0.031 A 
ATOM     72  C   UNL A   1      38.490  31.734  36.285  1.00  0.00     0.131 A 
ATOM     73  C   UNL A   1      39.361  34.332  36.620  1.00  0.00     0.055 A 
ATOM     74  C   UNL A   1      38.071  32.462  37.399  1.00  0.00     0.041 A 
ATOM     75  F   UNL A   1      38.065  30.465  36.177  1.00  0.00    -0.206 F 
ATOM     76  C   UNL A   1      38.517  33.766  37.578  1.00  0.00     0.022 A 
BRANCH  73  77
ATOM     77  S   UNL A   1      40.075  35.976  36.901  1.00  0.00     0.124 S 
ATOM     78  O   UNL A   1      41.477  35.653  37.142  1.00  0.00    -0.237 OA
ATOM     79  O   UNL A   1      39.779  36.654  35.644  1.00  0.00    -0.237 OA
ATOM     80  O   UNL A   1      39.340  36.471  38.063  1.00  0.00    -0.744 OA
ENDBRANCH  73  77
ENDBRANCH  46  70
BRANCH  58  81
ATOM     81  C   UNL A   1      44.618  27.892  34.259  1.00  0.00     0.023 A 
ATOM     82  C   UNL A   1      44.520  26.816  35.160  1.00  0.00     0.031 A 
ATOM     83  C   UNL A   1      45.829  28.605  34.211  1.00  0.00     0.131 A 
ATOM     84  C   UNL A   1      45.591  26.524  36.017  1.00  0.00     0.055 A 
ATOM     85  C   UNL A   1      46.915  28.267  35.020  1.00  0.00     0.041 A 
ATOM     86  F   UNL A   1      45.977  29.646  33.376  1.00  0.00    -0.206 F 
ATOM     87  C   UNL A   1      46.794  27.229  35.940  1.00  0.00     0.022 A 
BRANCH  84  88
ATOM     88  S   UNL A   1      45.355  25.273  37.310  1.00  0.00     0.124 S 
ATOM     89  O   UNL A   1      44.253  25.839  38.082  1.00  0.00    -0.237 OA
ATOM     90  O   UNL A   1      45.041  24.077  36.535  1.00  0.00    -0.237 OA
ATOM     91  O   UNL A   1      46.644  25.244  37.999  1.00  0.00    -0.744 OA
ENDBRANCH  84  88
ENDBRANCH  58  81
ENDBRANCH  32  33
ENDBRANCH  25  27
ENDBRANCH  24  25
ENDBRANCH  23  24
ENDBRANCH   1  23
TORSDOF 17
ENDMDL
MODEL 2
REMARK VINA RESULT:     -11.9      4.813     10.425
REMARK SMILES Cn1c(COc2ccc(C(=O)OCCOC(=O)c3ccc(-c4c5nc(c(-c6cc(S(=O)(=O)[O-])ccc6F)c6ccc([nH]6)c(-c6cc(S(=O)(=O)[O-])ccc6F)c6nc(c(-c7cc(S(=O)(=O)[O-])ccc7F)c7ccc4[nH]7)C=C6)C=C5)cc3)cc2)nc2ccccc21
REMARK SMILES IDX 13 1 12 2 10 3 11 4 9 5 6 6 7 7 82 8 8 9 81 10 5 11 4 12
REMARK SMILES IDX 3 13 1 14 2 15 89 16 83 17 84 18 88 19 85 20 87 21 86 22
REMARK SMILES IDX 14 23 15 24 16 25 17 26 18 27 19 28 80 29 20 30 79 31 21 32
REMARK SMILES IDX 22 33 23 34 73 35 24 36 78 37 72 38 74 39 25 40 77 41 71 42
REMARK SMILES IDX 70 43 26 45 58 46 38 47 57 48 39 49 42 50 56 51 75 52 40 53
REMARK SMILES IDX 41 54 55 56 76 57 43 58 27 59 28 60 36 61 29 62 35 63 37 64
REMARK SMILES IDX 34 65 30 66 31 67 32 68 33 69 59 70 60 71 68 72 61 73 67 74
REMARK SMILES IDX 69 75 66 76 62 77 63 78 64 79 65 80 44 81 45 82 53 83 46 84
REMARK SMILES IDX 52 85 54 86 51 87 47 88 48 89 49 90 50 91
REMARK H PARENT 74 44 42 55
REMARK Flexibility Score: inf
ROOT
ATOM      1  C   UNL A   1      35.154  20.175  24.942  1.00  0.00     0.275 C 
ENDROOT
BRANCH   1   2
ATOM      2  O   UNL A   1      33.949  20.948  24.792  1.00  0.00    -0.458 OA
BRANCH   2   3
ATOM      3  C   UNL A   1      33.473  21.540  25.920  1.00  0.00     0.338 C 
ATOM      4  O   UNL A   1      33.636  21.152  27.059  1.00  0.00    -0.246 OA
BRANCH   3   5
ATOM      5  C   UNL A   1      32.749  22.796  25.589  1.00  0.00     0.060 A 
ATOM      6  C   UNL A   1      31.399  25.118  24.847  1.00  0.00     0.120 A 
ATOM      7  C   UNL A   1      31.067  23.917  24.235  1.00  0.00     0.047 A 
ATOM      8  C   UNL A   1      32.338  25.154  25.879  1.00  0.00     0.047 A 
ATOM      9  C   UNL A   1      31.765  22.763  24.585  1.00  0.00     0.019 A 
ATOM     10  C   UNL A   1      33.030  23.999  26.241  1.00  0.00     0.019 A 
BRANCH   6  11
ATOM     11  O   UNL A   1      30.775  26.266  24.439  1.00  0.00    -0.486 OA
BRANCH  11  12
ATOM     12  C   UNL A   1      31.518  26.925  23.387  1.00  0.00     0.304 C 
BRANCH  12  13
ATOM     13  C   UNL A   1      30.835  28.219  23.063  1.00  0.00     0.147 A 
ATOM     14  C   UNL A   1      31.587  29.569  25.076  1.00  0.00     0.151 C 
ATOM     15  N   UNL A   1      30.811  29.332  23.883  1.00  0.00    -0.328 N 
ATOM     16  C   UNL A   1      29.765  30.133  23.474  1.00  0.00     0.068 A 
ATOM     17  N   UNL A   1      30.008  28.386  22.045  1.00  0.00    -0.229 NA
ATOM     18  C   UNL A   1      29.276  29.500  22.338  1.00  0.00     0.089 A 
ATOM     19  C   UNL A   1      29.175  31.286  24.006  1.00  0.00     0.028 A 
ATOM     20  C   UNL A   1      28.131  29.997  21.701  1.00  0.00     0.030 A 
ATOM     21  C   UNL A   1      28.022  31.760  23.368  1.00  0.00     0.002 A 
ATOM     22  C   UNL A   1      27.500  31.123  22.240  1.00  0.00     0.002 A 
ENDBRANCH  12  13
ENDBRANCH  11  12
ENDBRANCH   6  11
ENDBRANCH   3   5
ENDBRANCH   2   3
ENDBRANCH   1   2
BRANCH   1  23
ATOM     23  C   UNL A   1      36.392  21.020  24.644  1.00  0.00     0.275 C 
BRANCH  23  24
ATOM     24  O   UNL A   1      37.058  21.397  25.863  1.00  0.00    -0.458 OA
BRANCH  24  25
ATOM     25  C   UNL A   1      38.404  21.259  25.843  1.00  0.00     0.338 C 
ATOM     26  O   UNL A   1      39.048  20.382  25.293  1.00  0.00    -0.246 OA
BRANCH  25  27
ATOM     27  C   UNL A   1      39.036  22.401  26.519  1.00  0.00     0.060 A 
ATOM     28  C   UNL A   1      38.578  23.674  26.201  1.00  0.00     0.016 A 
ATOM     29  C   UNL A   1      40.167  22.243  27.314  1.00  0.00     0.016 A 
ATOM     30  C   UNL A   1      39.298  24.799  26.589  1.00  0.00     0.010 A 
ATOM     31  C   UNL A   1      40.835  23.381  27.789  1.00  0.00     0.010 A 
ATOM     32  C   UNL A   1      40.429  24.675  27.404  1.00  0.00    -0.014 A 
BRANCH  32  33
ATOM     33  C   UNL A   1      41.203  25.889  27.803  1.00  0.00     0.031 A 
ATOM     34  C   UNL A   1      40.551  26.959  28.644  1.00  0.00     0.074 A 
ATOM     35  C   UNL A   1      42.496  26.028  27.440  1.00  0.00     0.049 A 
ATOM     36  N   UNL A   1      40.981  28.160  28.941  1.00  0.00    -0.248 NA
ATOM     37  C   UNL A   1      39.233  26.639  29.211  1.00  0.00     0.031 C 
ATOM     38  C   UNL A   1      43.273  25.043  26.684  1.00  0.00     0.029 A 
ATOM     39  N   UNL A   1      43.391  27.046  27.664  1.00  0.00    -0.354 N 
ATOM     40  C   UNL A   1      39.965  28.758  29.681  1.00  0.00     0.074 A 
ATOM     41  C   UNL A   1      38.891  27.792  29.770  1.00  0.00     0.031 C 
ATOM     42  C   UNL A   1      44.532  25.485  26.544  1.00  0.00     0.029 A 
ATOM     43  C   UNL A   1      44.627  26.830  27.096  1.00  0.00     0.049 A 
ATOM     44  H   UNL A   1      43.169  27.854  28.182  1.00  0.00     0.167 HD
ATOM     45  C   UNL A   1      39.936  29.998  30.235  1.00  0.00     0.034 A 
ATOM     46  C   UNL A   1      45.699  27.639  26.977  1.00  0.00     0.034 A 
ATOM     47  C   UNL A   1      41.035  30.932  30.168  1.00  0.00     0.049 A 
ATOM     48  C   UNL A   1      45.616  29.037  27.533  1.00  0.00     0.074 A 
ATOM     49  C   UNL A   1      41.118  32.207  30.702  1.00  0.00     0.029 A 
ATOM     50  N   UNL A   1      42.250  30.692  29.535  1.00  0.00    -0.354 N 
ATOM     51  N   UNL A   1      44.625  29.613  28.173  1.00  0.00    -0.248 NA
ATOM     52  C   UNL A   1      46.791  29.895  27.339  1.00  0.00     0.031 C 
ATOM     53  C   UNL A   1      42.347  32.763  30.330  1.00  0.00     0.029 A 
ATOM     54  C   UNL A   1      43.071  31.806  29.638  1.00  0.00     0.049 A 
ATOM     55  H   UNL A   1      42.491  29.854  29.078  1.00  0.00     0.167 HD
ATOM     56  C   UNL A   1      45.068  30.897  28.477  1.00  0.00     0.074 A 
ATOM     57  C   UNL A   1      46.422  30.999  27.971  1.00  0.00     0.031 C 
ATOM     58  C   UNL A   1      44.416  31.899  29.118  1.00  0.00     0.034 A 
BRANCH  45  59
ATOM     59  C   UNL A   1      38.650  30.438  30.900  1.00  0.00     0.023 A 
ATOM     60  C   UNL A   1      37.607  31.055  30.188  1.00  0.00     0.031 A 
ATOM     61  C   UNL A   1      38.478  30.257  32.286  1.00  0.00     0.131 A 
ATOM     62  C   UNL A   1      36.476  31.532  30.872  1.00  0.00     0.055 A 
ATOM     63  C   UNL A   1      37.314  30.657  32.946  1.00  0.00     0.041 A 
ATOM     64  F   UNL A   1      39.446  29.694  33.027  1.00  0.00    -0.206 F 
ATOM     65  C   UNL A   1      36.312  31.314  32.241  1.00  0.00     0.022 A 
BRANCH  62  66
ATOM     66  S   UNL A   1      35.294  32.575  29.974  1.00  0.00     0.124 S 
ATOM     67  O   UNL A   1      34.355  32.934  31.034  1.00  0.00    -0.237 OA
ATOM     68  O   UNL A   1      36.140  33.653  29.477  1.00  0.00    -0.237 OA
ATOM     69  O   UNL A   1      34.755  31.680  28.952  1.00  0.00    -0.744 OA
ENDBRANCH  62  66
ENDBRANCH  45  59
BRANCH  46  70
ATOM     70  C   UNL A   1      46.914  27.181  26.238  1.00  0.00     0.023 A 
ATOM     71  C   UNL A   1      47.955  26.509  26.897  1.00  0.00     0.031 A 
ATOM     72  C   UNL A   1      47.069  27.448  24.864  1.00  0.00     0.131 A 
ATOM     73  C   UNL A   1      49.120  26.164  26.193  1.00  0.00     0.055 A 
ATOM     74  C   UNL A   1      48.201  27.044  24.156  1.00  0.00     0.041 A 
ATOM     75  F   UNL A   1      46.109  28.094  24.184  1.00  0.00    -0.206 F 
ATOM     76  C   UNL A   1      49.242  26.409  24.823  1.00  0.00     0.022 A 
BRANCH  73  77
ATOM     77  S   UNL A   1      50.519  25.471  27.116  1.00  0.00     0.124 S 
ATOM     78  O   UNL A   1      50.790  26.530  28.083  1.00  0.00    -0.237 OA
ATOM     79  O   UNL A   1      49.949  24.241  27.654  1.00  0.00    -0.237 OA
ATOM     80  O   UNL A   1      51.544  25.286  26.091  1.00  0.00    -0.744 OA
ENDBRANCH  73  77
ENDBRANCH  46  70
BRANCH  58  81
ATOM     81  C   UNL A   1      45.187  33.177  29.351  1.00  0.00     0.023 A 
ATOM     82  C   UNL A   1      45.066  34.283  28.491  1.00  0.00     0.031 A 
ATOM     83  C   UNL A   1      46.076  33.276  30.435  1.00  0.00     0.131 A 
ATOM     84  C   UNL A   1      45.866  35.417  28.697  1.00  0.00     0.055 A 
ATOM     85  C   UNL A   1      46.820  34.432  30.673  1.00  0.00     0.041 A 
ATOM     86  F   UNL A   1      46.238  32.248  31.284  1.00  0.00    -0.206 F 
ATOM     87  C   UNL A   1      46.729  35.506  29.792  1.00  0.00     0.022 A 
BRANCH  84  88
ATOM     88  S   UNL A   1      45.843  36.736  27.451  1.00  0.00     0.124 S 
ATOM     89  O   UNL A   1      47.019  36.416  26.649  1.00  0.00    -0.237 OA
ATOM     90  O   UNL A   1      44.552  36.530  26.802  1.00  0.00    -0.237 OA
ATOM     91  O   UNL A   1      45.948  37.959  28.245  1.00  0.00    -0.744 OA
ENDBRANCH  84  88
ENDBRANCH  58  81
ENDBRANCH  32  33
ENDBRANCH  25  27
ENDBRANCH  24  25
ENDBRANCH  23  24
ENDBRANCH   1  23
TORSDOF 17
ENDMDL
MODEL 3
REMARK VINA RESULT:     -11.7      1.513      1.847
REMARK SMILES Cn1c(COc2ccc(C(=O)OCCOC(=O)c3ccc(-c4c5nc(c(-c6cc(S(=O)(=O)[O-])ccc6F)c6ccc([nH]6)c(-c6cc(S(=O)(=O)[O-])ccc6F)c6nc(c(-c7cc(S(=O)(=O)[O-])ccc7F)c7ccc4[nH]7)C=C6)C=C5)cc3)cc2)nc2ccccc21
REMARK SMILES IDX 13 1 12 2 10 3 11 4 9 5 6 6 7 7 82 8 8 9 81 10 5 11 4 12
REMARK SMILES IDX 3 13 1 14 2 15 89 16 83 17 84 18 88 19 85 20 87 21 86 22
REMARK SMILES IDX 14 23 15 24 16 25 17 26 18 27 19 28 80 29 20 30 79 31 21 32
REMARK SMILES IDX 22 33 23 34 73 35 24 36 78 37 72 38 74 39 25 40 77 41 71 42
REMARK SMILES IDX 70 43 26 45 58 46 38 47 57 48 39 49 42 50 56 51 75 52 40 53
REMARK SMILES IDX 41 54 55 56 76 57 43 58 27 59 28 60 36 61 29 62 35 63 37 64
REMARK SMILES IDX 34 65 30 66 31 67 32 68 33 69 59 70 60 71 68 72 61 73 67 74
REMARK SMILES IDX 69 75 66 76 62 77 63 78 64 79 65 80 44 81 45 82 53 83 46 84
REMARK SMILES IDX 52 85 54 86 51 87 47 88 48 89 49 90 50 91
REMARK H PARENT 74 44 42 55
REMARK Flexibility Score: inf
ROOT
ATOM      1  C   UNL A   1      31.340  29.664  25.358  1.00  0.00     0.275 C 
ENDROOT
BRANCH   1   2
ATOM      2  O   UNL A   1      32.322  28.894  24.640  1.00  0.00    -0.458 OA
BRANCH   2   3
ATOM      3  C   UNL A   1      31.870  27.762  24.039  1.00  0.00     0.338 C 
ATOM      4  O   UNL A   1      30.919  27.675  23.288  1.00  0.00    -0.246 OA
BRANCH   3   5
ATOM      5  C   UNL A   1      32.741  26.604  24.377  1.00  0.00     0.060 A 
ATOM      6  C   UNL A   1      34.407  24.496  25.114  1.00  0.00     0.120 A 
ATOM      7  C   UNL A   1      33.608  25.097  26.077  1.00  0.00     0.047 A 
ATOM      8  C   UNL A   1      34.321  24.885  23.777  1.00  0.00     0.047 A 
ATOM      9  C   UNL A   1      32.799  26.171  25.713  1.00  0.00     0.019 A 
ATOM     10  C   UNL A   1      33.503  25.951  23.405  1.00  0.00     0.019 A 
BRANCH   6  11
ATOM     11  O   UNL A   1      35.268  23.500  25.491  1.00  0.00    -0.486 OA
BRANCH  11  12
ATOM     12  C   UNL A   1      34.575  22.439  26.189  1.00  0.00     0.304 C 
BRANCH  12  13
ATOM     13  C   UNL A   1      34.438  21.272  25.259  1.00  0.00     0.147 A 
ATOM     14  C   UNL A   1      32.107  21.749  24.379  1.00  0.00     0.151 C 
ATOM     15  N   UNL A   1      33.295  20.950  24.552  1.00  0.00    -0.328 N 
ATOM     16  C   UNL A   1      33.394  19.627  24.173  1.00  0.00     0.068 A 
ATOM     17  N   UNL A   1      35.327  20.298  25.157  1.00  0.00    -0.229 NA
ATOM     18  C   UNL A   1      34.666  19.249  24.585  1.00  0.00     0.089 A 
ATOM     19  C   UNL A   1      32.498  18.730  23.578  1.00  0.00     0.028 A 
ATOM     20  C   UNL A   1      35.079  17.918  24.441  1.00  0.00     0.030 A 
ATOM     21  C   UNL A   1      32.920  17.399  23.458  1.00  0.00     0.002 A 
ATOM     22  C   UNL A   1      34.185  16.995  23.890  1.00  0.00     0.002 A 
ENDBRANCH  12  13
ENDBRANCH  11  12
ENDBRANCH   6  11
ENDBRANCH   3   5
ENDBRANCH   2   3
ENDBRANCH   1   2
BRANCH   1  23
ATOM     23  C   UNL A   1      31.922  30.226  26.656  1.00  0.00     0.275 C 
BRANCH  23  24
ATOM     24  O   UNL A   1      33.336  30.457  26.523  1.00  0.00    -0.458 OA
BRANCH  24  25
ATOM     25  C   UNL A   1      33.832  31.430  27.322  1.00  0.00     0.338 C 
ATOM     26  O   UNL A   1      33.252  32.426  27.719  1.00  0.00    -0.246 OA
BRANCH  25  27
ATOM     27  C   UNL A   1      35.193  31.081  27.753  1.00  0.00     0.060 A 
ATOM     28  C   UNL A   1      35.454  29.749  28.054  1.00  0.00     0.016 A 
ATOM     29  C   UNL A   1      36.146  32.058  28.026  1.00  0.00     0.016 A 
ATOM     30  C   UNL A   1      36.622  29.391  28.718  1.00  0.00     0.010 A 
ATOM     31  C   UNL A   1      37.367  31.682  28.603  1.00  0.00     0.010 A 
ATOM     32  C   UNL A   1      37.608  30.348  28.989  1.00  0.00    -0.014 A 
BRANCH  32  33
ATOM     33  C   UNL A   1      38.854  29.956  29.715  1.00  0.00     0.031 A 
ATOM     34  C   UNL A   1      39.812  28.969  29.095  1.00  0.00     0.074 A 
ATOM     35  C   UNL A   1      39.147  30.499  30.916  1.00  0.00     0.049 A 
ATOM     36  N   UNL A   1      40.843  28.363  29.630  1.00  0.00    -0.248 NA
ATOM     37  C   UNL A   1      39.566  28.605  27.692  1.00  0.00     0.031 C 
ATOM     38  C   UNL A   1      38.346  31.514  31.604  1.00  0.00     0.029 A 
ATOM     39  N   UNL A   1      40.202  30.283  31.770  1.00  0.00    -0.354 N 
ATOM     40  C   UNL A   1      41.334  27.506  28.648  1.00  0.00     0.074 A 
ATOM     41  C   UNL A   1      40.474  27.659  27.494  1.00  0.00     0.031 C 
ATOM     42  C   UNL A   1      38.957  31.860  32.747  1.00  0.00     0.029 A 
ATOM     43  C   UNL A   1      40.129  31.015  32.934  1.00  0.00     0.049 A 
ATOM     44  H   UNL A   1      40.940  29.664  31.568  1.00  0.00     0.167 HD
ATOM     45  C   UNL A   1      42.404  26.672  28.709  1.00  0.00     0.034 A 
ATOM     46  C   UNL A   1      40.880  30.975  34.053  1.00  0.00     0.034 A 
ATOM     47  C   UNL A   1      43.272  26.563  29.858  1.00  0.00     0.049 A 
ATOM     48  C   UNL A   1      42.016  29.988  34.126  1.00  0.00     0.074 A 
ATOM     49  C   UNL A   1      44.389  25.762  30.023  1.00  0.00     0.029 A 
ATOM     50  N   UNL A   1      43.129  27.285  31.038  1.00  0.00    -0.354 N 
ATOM     51  N   UNL A   1      42.429  29.136  33.216  1.00  0.00    -0.248 NA
ATOM     52  C   UNL A   1      42.777  29.949  35.380  1.00  0.00     0.031 C 
ATOM     53  C   UNL A   1      44.874  25.942  31.323  1.00  0.00     0.029 A 
ATOM     54  C   UNL A   1      44.116  26.921  31.943  1.00  0.00     0.049 A 
ATOM     55  H   UNL A   1      42.428  27.955  31.207  1.00  0.00     0.167 HD
ATOM     56  C   UNL A   1      43.515  28.475  33.783  1.00  0.00     0.074 A 
ATOM     57  C   UNL A   1      43.704  29.044  35.103  1.00  0.00     0.031 C 
ATOM     58  C   UNL A   1      44.286  27.489  33.261  1.00  0.00     0.034 A 
BRANCH  45  59
ATOM     59  C   UNL A   1      42.651  25.763  27.525  1.00  0.00     0.023 A 
ATOM     60  C   UNL A   1      42.058  24.493  27.414  1.00  0.00     0.031 A 
ATOM     61  C   UNL A   1      43.522  26.170  26.496  1.00  0.00     0.131 A 
ATOM     62  C   UNL A   1      42.399  23.650  26.343  1.00  0.00     0.055 A 
ATOM     63  C   UNL A   1      43.790  25.361  25.390  1.00  0.00     0.041 A 
ATOM     64  F   UNL A   1      44.137  27.362  26.553  1.00  0.00    -0.206 F 
ATOM     65  C   UNL A   1      43.240  24.086  25.317  1.00  0.00     0.022 A 
BRANCH  62  66
ATOM     66  S   UNL A   1      41.847  21.923  26.387  1.00  0.00     0.124 S 
ATOM     67  O   UNL A   1      40.425  22.061  26.081  1.00  0.00    -0.237 OA
ATOM     68  O   UNL A   1      42.667  21.304  25.353  1.00  0.00    -0.237 OA
ATOM     69  O   UNL A   1      42.144  21.503  27.755  1.00  0.00    -0.744 OA
ENDBRANCH  62  66
ENDBRANCH  45  59
BRANCH  46  70
ATOM     70  C   UNL A   1      40.541  31.838  35.223  1.00  0.00     0.023 A 
ATOM     71  C   UNL A   1      39.498  31.497  36.099  1.00  0.00     0.031 A 
ATOM     72  C   UNL A   1      41.230  33.043  35.460  1.00  0.00     0.131 A 
ATOM     73  C   UNL A   1      39.149  32.369  37.142  1.00  0.00     0.055 A 
ATOM     74  C   UNL A   1      40.921  33.873  36.538  1.00  0.00     0.041 A 
ATOM     75  F   UNL A   1      42.232  33.424  34.651  1.00  0.00    -0.206 F 
ATOM     76  C   UNL A   1      39.865  33.544  37.380  1.00  0.00     0.022 A 
BRANCH  73  77
ATOM     77  S   UNL A   1      37.677  31.991  38.134  1.00  0.00     0.124 S 
ATOM     78  O   UNL A   1      37.357  30.640  37.687  1.00  0.00    -0.237 OA
ATOM     79  O   UNL A   1      38.189  32.112  39.495  1.00  0.00    -0.237 OA
ATOM     80  O   UNL A   1      36.723  33.023  37.734  1.00  0.00    -0.744 OA
ENDBRANCH  73  77
ENDBRANCH  46  70
BRANCH  58  81
ATOM     81  C   UNL A   1      45.439  27.003  34.107  1.00  0.00     0.023 A 
ATOM     82  C   UNL A   1      45.299  25.932  35.007  1.00  0.00     0.031 A 
ATOM     83  C   UNL A   1      46.690  27.641  34.027  1.00  0.00     0.131 A 
ATOM     84  C   UNL A   1      46.373  25.572  35.835  1.00  0.00     0.055 A 
ATOM     85  C   UNL A   1      47.774  27.233  34.806  1.00  0.00     0.041 A 
ATOM     86  F   UNL A   1      46.879  28.674  33.190  1.00  0.00    -0.206 F 
ATOM     87  C   UNL A   1      47.615  26.203  35.727  1.00  0.00     0.022 A 
BRANCH  84  88
ATOM     88  S   UNL A   1      46.094  24.333  37.132  1.00  0.00     0.124 S 
ATOM     89  O   UNL A   1      45.983  23.102  36.356  1.00  0.00    -0.237 OA
ATOM     90  O   UNL A   1      47.294  24.464  37.952  1.00  0.00    -0.237 OA
ATOM     91  O   UNL A   1      44.857  24.778  37.770  1.00  0.00    -0.744 OA
ENDBRANCH  84  88
ENDBRANCH  58  81
ENDBRANCH  32  33
ENDBRANCH  25  27
ENDBRANCH  24  25
ENDBRANCH  23  24
ENDBRANCH   1  23
TORSDOF 17
ENDMDL
