MODEL 1
REMARK VINA RESULT:     -12.6      0.000      0.000
REMARK SMILES O=C(C[C@H](NC(=O)[C@]12C[C@H]3C[C@H](C[C@H](C3)C1)C2)c1ccc(Cl)cc1Cl)OCCOC(=O)c1ccc(-c2c3nc(c(-c4cc(S(=O)(=O)[O-])ccc4F)c4ccc([nH]4)c(-c4cc(S(=O)(=O)[O-])ccc4F)c4nc(c(-c5cc(S(=O)(=O)[O-])ccc5F)c5ccc2[nH]5)C=C4)C=C3)cc1
REMARK SMILES IDX 27 1 26 2 2 3 1 4 3 5 4 6 18 7 19 8 24 9 20 10 23 11 25 12
REMARK SMILES IDX 21 13 22 14 5 15 6 16 7 18 8 19 9 20 16 21 17 22 10 23 14 24
REMARK SMILES IDX 12 25 11 26 15 27 13 28 28 29 29 30 30 31 31 32 32 33 33 34
REMARK SMILES IDX 94 35 34 36 93 37 35 38 36 39 37 40 87 41 38 42 92 43 86 44
REMARK SMILES IDX 88 45 39 46 91 47 85 48 84 49 40 51 72 52 52 53 71 54 53 55
REMARK SMILES IDX 56 56 70 57 89 58 54 59 55 60 69 62 90 63 57 64 41 65 42 66
REMARK SMILES IDX 50 67 43 68 49 69 51 70 48 71 44 72 45 73 46 74 47 75 73 76
REMARK SMILES IDX 74 77 82 78 75 79 81 80 83 81 80 82 76 83 77 84 78 85 79 86
REMARK SMILES IDX 58 87 59 88 67 89 60 90 66 91 68 92 65 93 61 94 62 95 63 96
REMARK SMILES IDX 64 97
REMARK H PARENT 5 17 88 50 56 61
REMARK Flexibility Score: inf
ROOT
ATOM      1  C   UNL A   1      32.256  30.296  26.251  1.00  0.00     0.274 C 
ENDROOT
BRANCH   1   2
ATOM      2  O   UNL A   1      31.596  29.185  26.899  1.00  0.00    -0.462 OA
BRANCH   2   3
ATOM      3  C   UNL A   1      31.633  27.904  26.460  1.00  0.00     0.308 C 
ATOM      4  O   UNL A   1      31.061  27.016  27.086  1.00  0.00    -0.252 OA
BRANCH   3   5
ATOM      5  C   UNL A   1      32.467  27.589  25.251  1.00  0.00     0.152 C 
BRANCH   5   6
ATOM      6  C   UNL A   1      31.731  26.934  24.087  1.00  0.00     0.125 C 
BRANCH   6   7
ATOM      7  C   UNL A   1      30.689  27.826  23.432  1.00  0.00    -0.006 A 
ATOM      8  C   UNL A   1      31.185  28.935  22.704  1.00  0.00     0.009 A 
ATOM      9  C   UNL A   1      29.297  27.638  23.463  1.00  0.00     0.047 A 
ATOM     10  C   UNL A   1      30.330  29.826  22.055  1.00  0.00     0.021 A 
ATOM     11  C   UNL A   1      28.441  28.541  22.821  1.00  0.00     0.041 A 
ATOM     12  Cl  UNL A   1      28.537  26.302  24.257  1.00  0.00    -0.084 Cl
ATOM     13  C   UNL A   1      28.959  29.627  22.122  1.00  0.00     0.042 A 
ATOM     14  Cl  UNL A   1      27.894  30.723  21.333  1.00  0.00    -0.084 Cl
ENDBRANCH   6   7
BRANCH   6  15
ATOM     15  N   UNL A   1      32.639  26.250  23.177  1.00  0.00    -0.348 N 
ATOM     16  C   UNL A   1      33.296  25.062  23.235  1.00  0.00     0.226 C 
ATOM     17  H   UNL A   1      32.812  26.753  22.348  1.00  0.00     0.164 HD
ATOM     18  O   UNL A   1      34.140  24.871  22.353  1.00  0.00    -0.274 OA
BRANCH  16  19
ATOM     19  C   UNL A   1      33.040  24.016  24.335  1.00  0.00     0.050 C 
ATOM     20  C   UNL A   1      33.663  22.651  23.899  1.00  0.00     0.020 C 
ATOM     21  C   UNL A   1      31.526  23.756  24.532  1.00  0.00     0.020 C 
ATOM     22  C   UNL A   1      33.728  24.407  25.664  1.00  0.00     0.020 C 
ATOM     23  C   UNL A   1      33.421  21.563  24.963  1.00  0.00    -0.010 C 
ATOM     24  C   UNL A   1      31.289  22.711  25.630  1.00  0.00    -0.010 C 
ATOM     25  C   UNL A   1      33.470  23.339  26.741  1.00  0.00    -0.010 C 
ATOM     26  C   UNL A   1      34.067  21.999  26.285  1.00  0.00     0.007 C 
ATOM     27  C   UNL A   1      31.911  21.382  25.181  1.00  0.00     0.007 C 
ATOM     28  C   UNL A   1      31.952  23.184  26.937  1.00  0.00     0.007 C 
ENDBRANCH  16  19
ENDBRANCH   6  15
ENDBRANCH   5   6
ENDBRANCH   3   5
ENDBRANCH   2   3
ENDBRANCH   1   2
BRANCH   1  29
ATOM     29  C   UNL A   1      31.829  31.650  26.829  1.00  0.00     0.275 C 
BRANCH  29  30
ATOM     30  O   UNL A   1      32.828  32.661  26.592  1.00  0.00    -0.458 OA
BRANCH  30  31
ATOM     31  C   UNL A   1      33.218  33.375  27.679  1.00  0.00     0.338 C 
ATOM     32  O   UNL A   1      32.562  34.231  28.248  1.00  0.00    -0.246 OA
BRANCH  31  33
ATOM     33  C   UNL A   1      34.486  32.816  28.214  1.00  0.00     0.060 A 
ATOM     34  C   UNL A   1      34.434  31.575  28.866  1.00  0.00     0.016 A 
ATOM     35  C   UNL A   1      35.712  33.470  28.056  1.00  0.00     0.016 A 
ATOM     36  C   UNL A   1      35.599  30.996  29.378  1.00  0.00     0.010 A 
ATOM     37  C   UNL A   1      36.875  32.896  28.581  1.00  0.00     0.010 A 
ATOM     38  C   UNL A   1      36.821  31.669  29.265  1.00  0.00    -0.014 A 
BRANCH  38  39
ATOM     39  C   UNL A   1      38.010  31.207  30.023  1.00  0.00     0.031 A 
ATOM     40  C   UNL A   1      38.905  30.181  29.385  1.00  0.00     0.074 A 
ATOM     41  C   UNL A   1      38.268  31.646  31.268  1.00  0.00     0.049 A 
ATOM     42  N   UNL A   1      39.921  29.533  29.888  1.00  0.00    -0.248 NA
ATOM     43  C   UNL A   1      38.589  29.833  27.993  1.00  0.00     0.031 C 
ATOM     44  C   UNL A   1      37.494  32.658  31.984  1.00  0.00     0.029 A 
ATOM     45  N   UNL A   1      39.241  31.268  32.159  1.00  0.00    -0.354 N 
ATOM     46  C   UNL A   1      40.367  28.690  28.876  1.00  0.00     0.074 A 
ATOM     47  C   UNL A   1      39.481  28.887  27.747  1.00  0.00     0.031 C 
ATOM     48  C   UNL A   1      38.003  32.794  33.222  1.00  0.00     0.029 A 
ATOM     49  C   UNL A   1      39.110  31.853  33.395  1.00  0.00     0.049 A 
ATOM     50  H   UNL A   1      39.963  30.638  31.933  1.00  0.00     0.167 HD
ATOM     51  C   UNL A   1      41.417  27.832  28.884  1.00  0.00     0.034 A 
ATOM     52  C   UNL A   1      39.779  31.625  34.545  1.00  0.00     0.034 A 
ATOM     53  C   UNL A   1      42.269  27.617  30.028  1.00  0.00     0.049 A 
ATOM     54  C   UNL A   1      40.891  30.603  34.569  1.00  0.00     0.074 A 
ATOM     55  C   UNL A   1      43.370  26.788  30.142  1.00  0.00     0.029 A 
ATOM     56  N   UNL A   1      42.098  28.220  31.269  1.00  0.00    -0.354 N 
ATOM     57  N   UNL A   1      41.322  29.828  33.600  1.00  0.00    -0.248 NA
ATOM     58  C   UNL A   1      41.607  30.426  35.841  1.00  0.00     0.031 C 
ATOM     59  C   UNL A   1      43.815  26.828  31.467  1.00  0.00     0.029 A 
ATOM     60  C   UNL A   1      43.046  27.749  32.163  1.00  0.00     0.049 A 
ATOM     61  H   UNL A   1      41.404  28.884  31.482  1.00  0.00     0.167 HD
ATOM     62  C   UNL A   1      42.380  29.096  34.138  1.00  0.00     0.074 A 
ATOM     63  C   UNL A   1      42.520  29.520  35.516  1.00  0.00     0.031 C 
ATOM     64  C   UNL A   1      43.172  28.169  33.540  1.00  0.00     0.034 A 
BRANCH  51  65
ATOM     65  C   UNL A   1      41.640  27.019  27.633  1.00  0.00     0.023 A 
ATOM     66  C   UNL A   1      41.279  25.661  27.561  1.00  0.00     0.031 A 
ATOM     67  C   UNL A   1      42.302  27.582  26.528  1.00  0.00     0.131 A 
ATOM     68  C   UNL A   1      41.674  24.889  26.459  1.00  0.00     0.055 A 
ATOM     69  C   UNL A   1      42.607  26.830  25.391  1.00  0.00     0.041 A 
ATOM     70  F   UNL A   1      42.693  28.866  26.546  1.00  0.00    -0.206 F 
ATOM     71  C   UNL A   1      42.315  25.469  25.362  1.00  0.00     0.022 A 
BRANCH  68  72
ATOM     72  S   UNL A   1      41.522  23.085  26.573  1.00  0.00     0.124 S 
ATOM     73  O   UNL A   1      42.295  22.649  25.413  1.00  0.00    -0.237 OA
ATOM     74  O   UNL A   1      42.110  22.803  27.877  1.00  0.00    -0.237 OA
ATOM     75  O   UNL A   1      40.082  22.856  26.471  1.00  0.00    -0.744 OA
ENDBRANCH  68  72
ENDBRANCH  51  65
BRANCH  52  76
ATOM     76  C   UNL A   1      39.376  32.337  35.790  1.00  0.00     0.023 A 
ATOM     77  C   UNL A   1      38.558  31.724  36.753  1.00  0.00     0.031 A 
ATOM     78  C   UNL A   1      39.792  33.661  36.022  1.00  0.00     0.131 A 
ATOM     79  C   UNL A   1      38.159  32.446  37.889  1.00  0.00     0.055 A 
ATOM     80  C   UNL A   1      39.426  34.360  37.173  1.00  0.00     0.041 A 
ATOM     81  F   UNL A   1      40.579  34.289  35.133  1.00  0.00    -0.206 F 
ATOM     82  C   UNL A   1      38.597  33.754  38.112  1.00  0.00     0.022 A 
BRANCH  79  83
ATOM     83  S   UNL A   1      37.016  31.663  39.060  1.00  0.00     0.124 S 
ATOM     84  O   UNL A   1      35.869  32.561  38.998  1.00  0.00    -0.237 OA
ATOM     85  O   UNL A   1      36.831  30.343  38.467  1.00  0.00    -0.237 OA
ATOM     86  O   UNL A   1      37.757  31.679  40.320  1.00  0.00    -0.744 OA
ENDBRANCH  79  83
ENDBRANCH  52  76
BRANCH  64  87
ATOM     87  C   UNL A   1      44.306  27.587  34.353  1.00  0.00     0.023 A 
ATOM     88  C   UNL A   1      44.208  26.335  34.986  1.00  0.00     0.031 A 
ATOM     89  C   UNL A   1      45.520  28.290  34.461  1.00  0.00     0.131 A 
ATOM     90  C   UNL A   1      45.294  25.840  35.726  1.00  0.00     0.055 A 
ATOM     91  C   UNL A   1      46.614  27.770  35.156  1.00  0.00     0.041 A 
ATOM     92  F   UNL A   1      45.669  29.489  33.878  1.00  0.00    -0.206 F 
ATOM     93  C   UNL A   1      46.501  26.541  35.798  1.00  0.00     0.022 A 
BRANCH  90  94
ATOM     94  S   UNL A   1      45.096  24.287  36.642  1.00  0.00     0.124 S 
ATOM     95  O   UNL A   1      43.954  23.679  35.966  1.00  0.00    -0.237 OA
ATOM     96  O   UNL A   1      46.384  23.632  36.433  1.00  0.00    -0.237 OA
ATOM     97  O   UNL A   1      44.843  24.726  38.014  1.00  0.00    -0.744 OA
ENDBRANCH  90  94
ENDBRANCH  64  87
ENDBRANCH  38  39
ENDBRANCH  31  33
ENDBRANCH  30  31
ENDBRANCH  29  30
ENDBRANCH   1  29
TORSDOF 18
ENDMDL
MODEL 2
REMARK VINA RESULT:     -12.4      4.953      8.310
REMARK SMILES O=C(C[C@H](NC(=O)[C@]12C[C@H]3C[C@H](C[C@H](C3)C1)C2)c1ccc(Cl)cc1Cl)OCCOC(=O)c1ccc(-c2c3nc(c(-c4cc(S(=O)(=O)[O-])ccc4F)c4ccc([nH]4)c(-c4cc(S(=O)(=O)[O-])ccc4F)c4nc(c(-c5cc(S(=O)(=O)[O-])ccc5F)c5ccc2[nH]5)C=C4)C=C3)cc1
REMARK SMILES IDX 27 1 26 2 2 3 1 4 3 5 4 6 18 7 19 8 24 9 20 10 23 11 25 12
REMARK SMILES IDX 21 13 22 14 5 15 6 16 7 18 8 19 9 20 16 21 17 22 10 23 14 24
REMARK SMILES IDX 12 25 11 26 15 27 13 28 28 29 29 30 30 31 31 32 32 33 33 34
REMARK SMILES IDX 94 35 34 36 93 37 35 38 36 39 37 40 87 41 38 42 92 43 86 44
REMARK SMILES IDX 88 45 39 46 91 47 85 48 84 49 40 51 72 52 52 53 71 54 53 55
REMARK SMILES IDX 56 56 70 57 89 58 54 59 55 60 69 62 90 63 57 64 41 65 42 66
REMARK SMILES IDX 50 67 43 68 49 69 51 70 48 71 44 72 45 73 46 74 47 75 73 76
REMARK SMILES IDX 74 77 82 78 75 79 81 80 83 81 80 82 76 83 77 84 78 85 79 86
REMARK SMILES IDX 58 87 59 88 67 89 60 90 66 91 68 92 65 93 61 94 62 95 63 96
REMARK SMILES IDX 64 97
REMARK H PARENT 5 17 88 50 56 61
REMARK Flexibility Score: inf
ROOT
ATOM      1  C   UNL A   1      36.495  20.731  25.043  1.00  0.00     0.274 C 
ENDROOT
BRANCH   1   2
ATOM      2  O   UNL A   1      36.015  21.486  26.177  1.00  0.00    -0.462 OA
BRANCH   2   3
ATOM      3  C   UNL A   1      35.083  22.467  26.112  1.00  0.00     0.308 C 
ATOM      4  O   UNL A   1      35.346  23.539  25.574  1.00  0.00    -0.252 OA
BRANCH   3   5
ATOM      5  C   UNL A   1      33.764  22.243  26.796  1.00  0.00     0.152 C 
BRANCH   5   6
ATOM      6  C   UNL A   1      32.593  21.894  25.884  1.00  0.00     0.125 C 
BRANCH   6   7
ATOM      7  C   UNL A   1      32.673  20.503  25.277  1.00  0.00    -0.006 A 
ATOM      8  C   UNL A   1      32.903  19.438  26.182  1.00  0.00     0.009 A 
ATOM      9  C   UNL A   1      32.516  20.179  23.918  1.00  0.00     0.047 A 
ATOM     10  C   UNL A   1      32.994  18.116  25.750  1.00  0.00     0.021 A 
ATOM     11  C   UNL A   1      32.621  18.851  23.485  1.00  0.00     0.041 A 
ATOM     12  Cl  UNL A   1      32.172  21.353  22.696  1.00  0.00    -0.084 Cl
ATOM     13  C   UNL A   1      32.858  17.829  24.399  1.00  0.00     0.042 A 
ATOM     14  Cl  UNL A   1      32.976  16.203  23.852  1.00  0.00    -0.084 Cl
ENDBRANCH   6   7
BRANCH   6  15
ATOM     15  N   UNL A   1      31.311  22.253  26.473  1.00  0.00    -0.348 N 
ATOM     16  C   UNL A   1      30.584  23.401  26.494  1.00  0.00     0.226 C 
ATOM     17  H   UNL A   1      30.882  21.509  26.956  1.00  0.00     0.164 HD
ATOM     18  O   UNL A   1      29.609  23.405  27.252  1.00  0.00    -0.274 OA
BRANCH  16  19
ATOM     19  C   UNL A   1      30.949  24.639  25.656  1.00  0.00     0.050 C 
ATOM     20  C   UNL A   1      29.817  25.707  25.797  1.00  0.00     0.020 C 
ATOM     21  C   UNL A   1      31.035  24.299  24.147  1.00  0.00     0.020 C 
ATOM     22  C   UNL A   1      32.248  25.309  26.164  1.00  0.00     0.020 C 
ATOM     23  C   UNL A   1      30.128  26.963  24.962  1.00  0.00    -0.010 C 
ATOM     24  C   UNL A   1      31.399  25.544  23.326  1.00  0.00    -0.010 C 
ATOM     25  C   UNL A   1      32.583  26.550  25.319  1.00  0.00    -0.010 C 
ATOM     26  C   UNL A   1      31.448  27.578  25.450  1.00  0.00     0.007 C 
ATOM     27  C   UNL A   1      30.276  26.577  23.483  1.00  0.00     0.007 C 
ATOM     28  C   UNL A   1      32.725  26.130  23.846  1.00  0.00     0.007 C 
ENDBRANCH  16  19
ENDBRANCH   6  15
ENDBRANCH   5   6
ENDBRANCH   3   5
ENDBRANCH   2   3
ENDBRANCH   1   2
BRANCH   1  29
ATOM     29  C   UNL A   1      38.011  20.509  25.084  1.00  0.00     0.275 C 
BRANCH  29  30
ATOM     30  O   UNL A   1      38.714  21.728  25.392  1.00  0.00    -0.458 OA
BRANCH  30  31
ATOM     31  C   UNL A   1      39.562  21.672  26.451  1.00  0.00     0.338 C 
ATOM     32  O   UNL A   1      40.134  20.676  26.860  1.00  0.00    -0.246 OA
BRANCH  31  33
ATOM     33  C   UNL A   1      39.864  23.048  26.921  1.00  0.00     0.060 A 
ATOM     34  C   UNL A   1      39.201  24.116  26.299  1.00  0.00     0.016 A 
ATOM     35  C   UNL A   1      40.754  23.297  27.971  1.00  0.00     0.016 A 
ATOM     36  C   UNL A   1      39.438  25.431  26.708  1.00  0.00     0.010 A 
ATOM     37  C   UNL A   1      41.001  24.615  28.371  1.00  0.00     0.010 A 
ATOM     38  C   UNL A   1      40.363  25.689  27.726  1.00  0.00    -0.014 A 
BRANCH  38  39
ATOM     39  C   UNL A   1      40.824  27.074  27.995  1.00  0.00     0.031 A 
ATOM     40  C   UNL A   1      42.271  27.400  27.752  1.00  0.00     0.074 A 
ATOM     41  C   UNL A   1      39.996  28.010  28.490  1.00  0.00     0.049 A 
ATOM     42  N   UNL A   1      42.938  28.489  28.027  1.00  0.00    -0.248 NA
ATOM     43  C   UNL A   1      43.071  26.338  27.128  1.00  0.00     0.031 C 
ATOM     44  C   UNL A   1      38.569  27.828  28.743  1.00  0.00     0.029 A 
ATOM     45  N   UNL A   1      40.251  29.296  28.898  1.00  0.00    -0.354 N 
ATOM     46  C   UNL A   1      44.244  28.244  27.617  1.00  0.00     0.074 A 
ATOM     47  C   UNL A   1      44.275  26.886  27.111  1.00  0.00     0.031 C 
ATOM     48  C   UNL A   1      38.080  28.952  29.297  1.00  0.00     0.029 A 
ATOM     49  C   UNL A   1      39.168  29.915  29.473  1.00  0.00     0.049 A 
ATOM     50  H   UNL A   1      41.127  29.732  28.788  1.00  0.00     0.167 HD
ATOM     51  C   UNL A   1      45.318  29.071  27.656  1.00  0.00     0.034 A 
ATOM     52  C   UNL A   1      39.075  31.103  30.107  1.00  0.00     0.034 A 
ATOM     53  C   UNL A   1      45.282  30.407  28.197  1.00  0.00     0.049 A 
ATOM     54  C   UNL A   1      40.298  31.982  30.224  1.00  0.00     0.074 A 
ATOM     55  C   UNL A   1      46.304  31.338  28.270  1.00  0.00     0.029 A 
ATOM     56  N   UNL A   1      44.168  30.996  28.783  1.00  0.00    -0.354 N 
ATOM     57  N   UNL A   1      41.523  31.752  29.810  1.00  0.00    -0.248 NA
ATOM     58  C   UNL A   1      40.124  33.281  30.891  1.00  0.00     0.031 C 
ATOM     59  C   UNL A   1      45.832  32.454  28.968  1.00  0.00     0.029 A 
ATOM     60  C   UNL A   1      44.489  32.259  29.257  1.00  0.00     0.049 A 
ATOM     61  H   UNL A   1      43.280  30.578  28.853  1.00  0.00     0.167 HD
ATOM     62  C   UNL A   1      42.258  32.891  30.139  1.00  0.00     0.074 A 
ATOM     63  C   UNL A   1      41.339  33.804  30.787  1.00  0.00     0.031 C 
ATOM     64  C   UNL A   1      43.569  33.160  29.912  1.00  0.00     0.034 A 
BRANCH  51  65
ATOM     65  C   UNL A   1      46.628  28.508  27.160  1.00  0.00     0.023 A 
ATOM     66  C   UNL A   1      46.938  28.460  25.789  1.00  0.00     0.031 A 
ATOM     67  C   UNL A   1      47.541  27.934  28.061  1.00  0.00     0.131 A 
ATOM     68  C   UNL A   1      48.071  27.758  25.352  1.00  0.00     0.055 A 
ATOM     69  C   UNL A   1      48.718  27.321  27.626  1.00  0.00     0.041 A 
ATOM     70  F   UNL A   1      47.291  27.928  29.380  1.00  0.00    -0.206 F 
ATOM     71  C   UNL A   1      48.977  27.209  26.263  1.00  0.00     0.022 A 
BRANCH  68  72
ATOM     72  S   UNL A   1      48.232  27.400  23.581  1.00  0.00     0.124 S 
ATOM     73  O   UNL A   1      47.152  28.207  23.018  1.00  0.00    -0.237 OA
ATOM     74  O   UNL A   1      49.587  27.852  23.291  1.00  0.00    -0.237 OA
ATOM     75  O   UNL A   1      48.023  25.955  23.504  1.00  0.00    -0.744 OA
ENDBRANCH  68  72
ENDBRANCH  51  65
BRANCH  52  76
ATOM     76  C   UNL A   1      37.786  31.509  30.735  1.00  0.00     0.023 A 
ATOM     77  C   UNL A   1      36.811  32.219  30.017  1.00  0.00     0.031 A 
ATOM     78  C   UNL A   1      37.523  31.204  32.084  1.00  0.00     0.131 A 
ATOM     79  C   UNL A   1      35.632  32.626  30.660  1.00  0.00     0.055 A 
ATOM     80  C   UNL A   1      36.331  31.575  32.706  1.00  0.00     0.041 A 
ATOM     81  F   UNL A   1      38.422  30.522  32.812  1.00  0.00    -0.206 F 
ATOM     82  C   UNL A   1      35.379  32.299  31.994  1.00  0.00     0.022 A 
BRANCH  79  83
ATOM     83  S   UNL A   1      34.441  33.635  29.734  1.00  0.00     0.124 S 
ATOM     84  O   UNL A   1      33.764  32.626  28.927  1.00  0.00    -0.237 OA
ATOM     85  O   UNL A   1      33.653  34.234  30.806  1.00  0.00    -0.237 OA
ATOM     86  O   UNL A   1      35.288  34.566  28.992  1.00  0.00    -0.744 OA
ENDBRANCH  79  83
ENDBRANCH  52  76
BRANCH  64  87
ATOM     87  C   UNL A   1      44.084  34.523  30.313  1.00  0.00     0.023 A 
ATOM     88  C   UNL A   1      43.983  35.641  29.466  1.00  0.00     0.031 A 
ATOM     89  C   UNL A   1      44.656  34.706  31.586  1.00  0.00     0.131 A 
ATOM     90  C   UNL A   1      44.476  36.886  29.892  1.00  0.00     0.055 A 
ATOM     91  C   UNL A   1      45.098  35.957  32.022  1.00  0.00     0.041 A 
ATOM     92  F   UNL A   1      44.778  33.674  32.434  1.00  0.00    -0.206 F 
ATOM     93  C   UNL A   1      45.016  37.053  31.170  1.00  0.00     0.022 A 
BRANCH  90  94
ATOM     94  S   UNL A   1      44.455  38.281  28.732  1.00  0.00     0.124 S 
ATOM     95  O   UNL A   1      43.747  39.301  29.497  1.00  0.00    -0.237 OA
ATOM     96  O   UNL A   1      45.877  38.523  28.507  1.00  0.00    -0.237 OA
ATOM     97  O   UNL A   1      43.728  37.756  27.576  1.00  0.00    -0.744 OA
ENDBRANCH  90  94
ENDBRANCH  64  87
ENDBRANCH  38  39
ENDBRANCH  31  33
ENDBRANCH  30  31
ENDBRANCH  29  30
ENDBRANCH   1  29
TORSDOF 18
ENDMDL
MODEL 3
REMARK VINA RESULT:     -12.4      1.917      2.151
REMARK SMILES O=C(C[C@H](NC(=O)[C@]12C[C@H]3C[C@H](C[C@H](C3)C1)C2)c1ccc(Cl)cc1Cl)OCCOC(=O)c1ccc(-c2c3nc(c(-c4cc(S(=O)(=O)[O-])ccc4F)c4ccc([nH]4)c(-c4cc(S(=O)(=O)[O-])ccc4F)c4nc(c(-c5cc(S(=O)(=O)[O-])ccc5F)c5ccc2[nH]5)C=C4)C=C3)cc1
REMARK SMILES IDX 27 1 26 2 2 3 1 4 3 5 4 6 18 7 19 8 24 9 20 10 23 11 25 12
REMARK SMILES IDX 21 13 22 14 5 15 6 16 7 18 8 19 9 20 16 21 17 22 10 23 14 24
REMARK SMILES IDX 12 25 11 26 15 27 13 28 28 29 29 30 30 31 31 32 32 33 33 34
REMARK SMILES IDX 94 35 34 36 93 37 35 38 36 39 37 40 87 41 38 42 92 43 86 44
REMARK SMILES IDX 88 45 39 46 91 47 85 48 84 49 40 51 72 52 52 53 71 54 53 55
REMARK SMILES IDX 56 56 70 57 89 58 54 59 55 60 69 62 90 63 57 64 41 65 42 66
REMARK SMILES IDX 50 67 43 68 49 69 51 70 48 71 44 72 45 73 46 74 47 75 73 76
REMARK SMILES IDX 74 77 82 78 75 79 81 80 83 81 80 82 76 83 77 84 78 85 79 86
REMARK SMILES IDX 58 87 59 88 67 89 60 90 66 91 68 92 65 93 61 94 62 95 63 96
REMARK SMILES IDX 64 97
REMARK H PARENT 5 17 88 50 56 61
REMARK Flexibility Score: inf
ROOT
ATOM      1  C   UNL A   1      31.582  30.550  25.930  1.00  0.00     0.274 C 
ENDROOT
BRANCH   1   2
ATOM      2  O   UNL A   1      32.890  29.935  25.947  1.00  0.00    -0.462 OA
BRANCH   2   3
ATOM      3  C   UNL A   1      33.127  28.633  26.232  1.00  0.00     0.308 C 
ATOM      4  O   UNL A   1      32.871  28.184  27.346  1.00  0.00    -0.252 OA
BRANCH   3   5
ATOM      5  C   UNL A   1      33.794  27.784  25.187  1.00  0.00     0.152 C 
BRANCH   5   6
ATOM      6  C   UNL A   1      32.884  26.823  24.430  1.00  0.00     0.125 C 
BRANCH   6   7
ATOM      7  C   UNL A   1      31.633  27.470  23.861  1.00  0.00    -0.006 A 
ATOM      8  C   UNL A   1      31.835  28.431  22.841  1.00  0.00     0.009 A 
ATOM      9  C   UNL A   1      30.308  27.187  24.234  1.00  0.00     0.047 A 
ATOM     10  C   UNL A   1      30.767  29.094  22.237  1.00  0.00     0.021 A 
ATOM     11  C   UNL A   1      29.238  27.864  23.635  1.00  0.00     0.041 A 
ATOM     12  Cl  UNL A   1      29.889  26.000  25.420  1.00  0.00    -0.084 Cl
ATOM     13  C   UNL A   1      29.471  28.811  22.643  1.00  0.00     0.042 A 
ATOM     14  Cl  UNL A   1      28.145  29.627  21.911  1.00  0.00    -0.084 Cl
ENDBRANCH   6   7
BRANCH   6  15
ATOM     15  N   UNL A   1      33.626  25.970  23.512  1.00  0.00    -0.348 N 
ATOM     16  C   UNL A   1      33.958  24.652  23.526  1.00  0.00     0.226 C 
ATOM     17  H   UNL A   1      33.957  26.448  22.717  1.00  0.00     0.164 HD
ATOM     18  O   UNL A   1      34.763  24.292  22.661  1.00  0.00    -0.274 OA
BRANCH  16  19
ATOM     19  C   UNL A   1      33.399  23.659  24.561  1.00  0.00     0.050 C 
ATOM     20  C   UNL A   1      34.112  22.279  24.385  1.00  0.00     0.020 C 
ATOM     21  C   UNL A   1      31.889  23.395  24.339  1.00  0.00     0.020 C 
ATOM     22  C   UNL A   1      33.690  24.120  26.009  1.00  0.00     0.020 C 
ATOM     23  C   UNL A   1      33.576  21.243  25.390  1.00  0.00    -0.010 C 
ATOM     24  C   UNL A   1      31.349  22.403  25.378  1.00  0.00    -0.010 C 
ATOM     25  C   UNL A   1      33.135  23.104  27.022  1.00  0.00    -0.010 C 
ATOM     26  C   UNL A   1      33.829  21.748  26.818  1.00  0.00     0.007 C 
ATOM     27  C   UNL A   1      32.065  21.059  25.187  1.00  0.00     0.007 C 
ATOM     28  C   UNL A   1      31.622  22.945  26.793  1.00  0.00     0.007 C 
ENDBRANCH  16  19
ENDBRANCH   6  15
ENDBRANCH   5   6
ENDBRANCH   3   5
ENDBRANCH   2   3
ENDBRANCH   1   2
BRANCH   1  29
ATOM     29  C   UNL A   1      31.529  31.842  26.753  1.00  0.00     0.275 C 
BRANCH  29  30
ATOM     30  O   UNL A   1      32.710  32.642  26.552  1.00  0.00    -0.458 OA
BRANCH  30  31
ATOM     31  C   UNL A   1      33.102  33.396  27.612  1.00  0.00     0.338 C 
ATOM     32  O   UNL A   1      32.443  34.264  28.158  1.00  0.00    -0.246 OA
BRANCH  31  33
ATOM     33  C   UNL A   1      34.380  32.867  28.153  1.00  0.00     0.060 A 
ATOM     34  C   UNL A   1      34.375  31.581  28.716  1.00  0.00     0.016 A 
ATOM     35  C   UNL A   1      35.574  33.594  28.087  1.00  0.00     0.016 A 
ATOM     36  C   UNL A   1      35.552  31.029  29.229  1.00  0.00     0.010 A 
ATOM     37  C   UNL A   1      36.748  33.046  28.615  1.00  0.00     0.010 A 
ATOM     38  C   UNL A   1      36.738  31.771  29.209  1.00  0.00    -0.014 A 
BRANCH  38  39
ATOM     39  C   UNL A   1      37.925  31.320  29.977  1.00  0.00     0.031 A 
ATOM     40  C   UNL A   1      38.803  30.261  29.371  1.00  0.00     0.074 A 
ATOM     41  C   UNL A   1      38.195  31.797  31.205  1.00  0.00     0.049 A 
ATOM     42  N   UNL A   1      39.813  29.617  29.891  1.00  0.00    -0.248 NA
ATOM     43  C   UNL A   1      38.476  29.870  27.993  1.00  0.00     0.031 C 
ATOM     44  C   UNL A   1      37.438  32.843  31.890  1.00  0.00     0.029 A 
ATOM     45  N   UNL A   1      39.167  31.437  32.105  1.00  0.00    -0.354 N 
ATOM     46  C   UNL A   1      40.243  28.734  28.906  1.00  0.00     0.074 A 
ATOM     47  C   UNL A   1      39.354  28.905  27.775  1.00  0.00     0.031 C 
ATOM     48  C   UNL A   1      37.954  33.015  33.120  1.00  0.00     0.029 A 
ATOM     49  C   UNL A   1      39.050  32.065  33.321  1.00  0.00     0.049 A 
ATOM     50  H   UNL A   1      39.879  30.790  31.897  1.00  0.00     0.167 HD
ATOM     51  C   UNL A   1      41.282  27.862  28.939  1.00  0.00     0.034 A 
ATOM     52  C   UNL A   1      39.721  31.867  34.475  1.00  0.00     0.034 A 
ATOM     53  C   UNL A   1      42.136  27.676  30.086  1.00  0.00     0.049 A 
ATOM     54  C   UNL A   1      40.819  30.832  34.529  1.00  0.00     0.074 A 
ATOM     55  C   UNL A   1      43.227  26.836  30.223  1.00  0.00     0.029 A 
ATOM     56  N   UNL A   1      41.979  28.322  31.306  1.00  0.00    -0.354 N 
ATOM     57  N   UNL A   1      41.236  30.019  33.584  1.00  0.00    -0.248 NA
ATOM     58  C   UNL A   1      41.540  30.689  35.803  1.00  0.00     0.031 C 
ATOM     59  C   UNL A   1      43.679  26.915  31.544  1.00  0.00     0.029 A 
ATOM     60  C   UNL A   1      42.925  27.869  32.212  1.00  0.00     0.049 A 
ATOM     61  H   UNL A   1      41.295  29.003  31.500  1.00  0.00     0.167 HD
ATOM     62  C   UNL A   1      42.287  29.291  34.142  1.00  0.00     0.074 A 
ATOM     63  C   UNL A   1      42.439  29.760  35.504  1.00  0.00     0.031 C 
ATOM     64  C   UNL A   1      43.063  28.335  33.573  1.00  0.00     0.034 A 
BRANCH  51  65
ATOM     65  C   UNL A   1      41.488  27.005  27.715  1.00  0.00     0.023 A 
ATOM     66  C   UNL A   1      41.031  25.676  27.660  1.00  0.00     0.031 A 
ATOM     67  C   UNL A   1      42.227  27.491  26.622  1.00  0.00     0.131 A 
ATOM     68  C   UNL A   1      41.407  24.849  26.591  1.00  0.00     0.055 A 
ATOM     69  C   UNL A   1      42.516  26.691  25.515  1.00  0.00     0.041 A 
ATOM     70  F   UNL A   1      42.710  28.743  26.626  1.00  0.00    -0.206 F 
ATOM     71  C   UNL A   1      42.126  25.355  25.505  1.00  0.00     0.022 A 
BRANCH  68  72
ATOM     72  S   UNL A   1      41.119  23.064  26.740  1.00  0.00     0.124 S 
ATOM     73  O   UNL A   1      41.947  22.540  25.656  1.00  0.00    -0.237 OA
ATOM     74  O   UNL A   1      41.584  22.784  28.093  1.00  0.00    -0.237 OA
ATOM     75  O   UNL A   1      39.679  22.932  26.531  1.00  0.00    -0.744 OA
ENDBRANCH  68  72
ENDBRANCH  51  65
BRANCH  52  76
ATOM     76  C   UNL A   1      39.333  32.626  35.697  1.00  0.00     0.023 A 
ATOM     77  C   UNL A   1      39.824  33.918  35.945  1.00  0.00     0.031 A 
ATOM     78  C   UNL A   1      38.473  32.051  36.651  1.00  0.00     0.131 A 
ATOM     79  C   UNL A   1      39.475  34.579  37.132  1.00  0.00     0.055 A 
ATOM     80  C   UNL A   1      38.097  32.730  37.810  1.00  0.00     0.041 A 
ATOM     81  F   UNL A   1      37.974  30.819  36.458  1.00  0.00    -0.206 F 
ATOM     82  C   UNL A   1      38.605  34.001  38.060  1.00  0.00     0.022 A 
BRANCH  79  83
ATOM     83  S   UNL A   1      40.210  36.203  37.473  1.00  0.00     0.124 S 
ATOM     84  O   UNL A   1      39.218  36.796  38.362  1.00  0.00    -0.237 OA
ATOM     85  O   UNL A   1      41.484  35.837  38.083  1.00  0.00    -0.237 OA
ATOM     86  O   UNL A   1      40.310  36.815  36.148  1.00  0.00    -0.744 OA
ENDBRANCH  79  83
ENDBRANCH  52  76
BRANCH  64  87
ATOM     87  C   UNL A   1      44.193  27.764  34.400  1.00  0.00     0.023 A 
ATOM     88  C   UNL A   1      45.457  28.376  34.465  1.00  0.00     0.031 A 
ATOM     89  C   UNL A   1      43.980  26.603  35.166  1.00  0.00     0.131 A 
ATOM     90  C   UNL A   1      46.470  27.804  35.253  1.00  0.00     0.055 A 
ATOM     91  C   UNL A   1      44.974  26.068  35.987  1.00  0.00     0.041 A 
ATOM     92  F   UNL A   1      42.792  25.978  35.141  1.00  0.00    -0.206 F 
ATOM     93  C   UNL A   1      46.229  26.666  36.028  1.00  0.00     0.022 A 
BRANCH  90  94
ATOM     94  S   UNL A   1      48.129  28.536  35.215  1.00  0.00     0.124 S 
ATOM     95  O   UNL A   1      48.983  27.352  35.224  1.00  0.00    -0.237 OA
ATOM     96  O   UNL A   1      48.108  29.298  33.970  1.00  0.00    -0.237 OA
ATOM     97  O   UNL A   1      48.177  29.345  36.432  1.00  0.00    -0.744 OA
ENDBRANCH  90  94
ENDBRANCH  64  87
ENDBRANCH  38  39
ENDBRANCH  31  33
ENDBRANCH  30  31
ENDBRANCH  29  30
ENDBRANCH   1  29
TORSDOF 18
ENDMDL
