MODEL 1
REMARK VINA RESULT:     -12.2      0.000      0.000
REMARK SMILES O=C(OCCOC(=O)[C@]1(CCc2cccnc2)C[C@H]2CC[C@@H]1O2)c1ccc(-c2c3nc(c(-c4cc(S(=O)(=O)[O-])ccc4F)c4ccc([nH]4)c(-c4cc(S(=O)(=O)[O-])ccc4F)c4nc(c(-c5cc(S(=O)(=O)[O-])ccc5F)c5ccc2[nH]5)C=C4)C=C3)cc1
REMARK SMILES IDX 4 1 3 2 2 3 1 4 24 5 25 6 86 7 26 8 85 9 27 10 28 11 29 12
REMARK SMILES IDX 79 13 30 14 84 15 78 16 80 17 31 18 83 19 77 20 76 21 32 23
REMARK SMILES IDX 64 24 44 25 63 26 45 27 48 28 62 29 81 30 46 31 47 32 61 34
REMARK SMILES IDX 82 35 49 36 33 37 34 38 42 39 35 40 41 41 43 42 40 43 36 44
REMARK SMILES IDX 37 45 38 46 39 47 65 48 66 49 74 50 67 51 73 52 75 53 72 54
REMARK SMILES IDX 68 55 69 56 70 57 71 58 50 59 51 60 59 61 52 62 58 63 60 64
REMARK SMILES IDX 57 65 53 66 54 67 55 68 56 69 5 70 6 71 7 72 8 73 9 74 18 75
REMARK SMILES IDX 22 76 19 77 21 78 23 79 20 80 10 81 11 82 12 83 13 84 17 85
REMARK SMILES IDX 14 86 16 87 15 88
REMARK H PARENT 80 22 48 33
REMARK Flexibility Score: inf
ROOT
ATOM      1  C   UNL A   1      37.661  20.937  25.084  1.00  0.00     0.275 C 
ENDROOT
BRANCH   1   2
ATOM      2  O   UNL A   1      38.080  22.216  25.591  1.00  0.00    -0.458 OA
BRANCH   2   3
ATOM      3  C   UNL A   1      39.065  22.515  26.471  1.00  0.00     0.338 C 
ATOM      4  O   UNL A   1      39.707  21.589  26.966  1.00  0.00    -0.246 OA
BRANCH   3   5
ATOM      5  C   UNL A   1      39.349  23.907  26.940  1.00  0.00     0.060 A 
ATOM      6  C   UNL A   1      39.053  24.421  28.208  1.00  0.00     0.016 A 
ATOM      7  C   UNL A   1      39.972  24.756  26.012  1.00  0.00     0.016 A 
ATOM      8  C   UNL A   1      39.484  25.697  28.596  1.00  0.00     0.010 A 
ATOM      9  C   UNL A   1      40.386  26.037  26.388  1.00  0.00     0.010 A 
ATOM     10  C   UNL A   1      40.175  26.509  27.698  1.00  0.00    -0.014 A 
BRANCH  10  11
ATOM     11  C   UNL A   1      40.532  27.911  28.031  1.00  0.00     0.031 A 
ATOM     12  C   UNL A   1      41.991  28.245  28.049  1.00  0.00     0.074 A 
ATOM     13  C   UNL A   1      39.614  28.847  28.348  1.00  0.00     0.049 A 
ATOM     14  N   UNL A   1      42.583  29.360  28.374  1.00  0.00    -0.248 NA
ATOM     15  C   UNL A   1      42.906  27.167  27.632  1.00  0.00     0.031 C 
ATOM     16  C   UNL A   1      38.168  28.679  28.270  1.00  0.00     0.029 A 
ATOM     17  N   UNL A   1      39.756  30.121  28.848  1.00  0.00    -0.354 N 
ATOM     18  C   UNL A   1      43.927  29.137  28.120  1.00  0.00     0.074 A 
ATOM     19  C   UNL A   1      44.084  27.737  27.806  1.00  0.00     0.031 C 
ATOM     20  C   UNL A   1      37.555  29.736  28.834  1.00  0.00     0.029 A 
ATOM     21  C   UNL A   1      38.566  30.694  29.252  1.00  0.00     0.049 A 
ATOM     22  H   UNL A   1      40.625  30.580  28.914  1.00  0.00     0.167 HD
ATOM     23  C   UNL A   1      44.924  30.048  28.039  1.00  0.00     0.034 A 
ATOM     24  C   UNL A   1      38.329  31.867  29.875  1.00  0.00     0.034 A 
ATOM     25  C   UNL A   1      44.744  31.429  28.386  1.00  0.00     0.049 A 
ATOM     26  C   UNL A   1      39.494  32.812  30.026  1.00  0.00     0.074 A 
ATOM     27  C   UNL A   1      45.666  32.456  28.374  1.00  0.00     0.029 A 
ATOM     28  N   UNL A   1      43.542  31.972  28.833  1.00  0.00    -0.354 N 
ATOM     29  N   UNL A   1      40.754  32.618  29.701  1.00  0.00    -0.248 NA
ATOM     30  C   UNL A   1      39.202  34.153  30.539  1.00  0.00     0.031 C 
ATOM     31  C   UNL A   1      45.038  33.604  28.874  1.00  0.00     0.029 A 
ATOM     32  C   UNL A   1      43.706  33.311  29.133  1.00  0.00     0.049 A 
ATOM     33  H   UNL A   1      42.699  31.473  28.923  1.00  0.00     0.167 HD
ATOM     34  C   UNL A   1      41.383  33.845  29.876  1.00  0.00     0.074 A 
ATOM     35  C   UNL A   1      40.370  34.758  30.371  1.00  0.00     0.031 C 
ATOM     36  C   UNL A   1      42.669  34.195  29.615  1.00  0.00     0.034 A 
BRANCH  23  37
ATOM     37  C   UNL A   1      46.248  29.525  27.548  1.00  0.00     0.023 A 
ATOM     38  C   UNL A   1      46.404  29.132  26.201  1.00  0.00     0.031 A 
ATOM     39  C   UNL A   1      47.296  29.259  28.439  1.00  0.00     0.131 A 
ATOM     40  C   UNL A   1      47.520  28.380  25.818  1.00  0.00     0.055 A 
ATOM     41  C   UNL A   1      48.453  28.594  28.024  1.00  0.00     0.041 A 
ATOM     42  F   UNL A   1      47.190  29.583  29.736  1.00  0.00    -0.206 F 
ATOM     43  C   UNL A   1      48.559  28.128  26.716  1.00  0.00     0.022 A 
BRANCH  40  44
ATOM     44  S   UNL A   1      47.494  27.560  24.197  1.00  0.00     0.124 S 
ATOM     45  O   UNL A   1      46.683  26.378  24.479  1.00  0.00    -0.237 OA
ATOM     46  O   UNL A   1      46.877  28.567  23.341  1.00  0.00    -0.237 OA
ATOM     47  O   UNL A   1      48.905  27.291  23.928  1.00  0.00    -0.744 OA
ENDBRANCH  40  44
ENDBRANCH  23  37
BRANCH  24  48
ATOM     48  C   UNL A   1      36.961  32.248  30.344  1.00  0.00     0.023 A 
ATOM     49  C   UNL A   1      36.061  32.932  29.509  1.00  0.00     0.031 A 
ATOM     50  C   UNL A   1      36.560  31.999  31.670  1.00  0.00     0.131 A 
ATOM     51  C   UNL A   1      34.834  33.392  30.019  1.00  0.00     0.055 A 
ATOM     52  C   UNL A   1      35.323  32.430  32.164  1.00  0.00     0.041 A 
ATOM     53  F   UNL A   1      37.375  31.349  32.516  1.00  0.00    -0.206 F 
ATOM     54  C   UNL A   1      34.458  33.143  31.340  1.00  0.00     0.022 A 
BRANCH  51  55
ATOM     55  S   UNL A   1      33.767  34.401  28.951  1.00  0.00     0.124 S 
ATOM     56  O   UNL A   1      34.714  35.367  28.408  1.00  0.00    -0.237 OA
ATOM     57  O   UNL A   1      33.253  33.408  28.014  1.00  0.00    -0.237 OA
ATOM     58  O   UNL A   1      32.779  34.951  29.876  1.00  0.00    -0.744 OA
ENDBRANCH  51  55
ENDBRANCH  24  48
BRANCH  36  59
ATOM     59  C   UNL A   1      43.024  35.646  29.788  1.00  0.00     0.023 A 
ATOM     60  C   UNL A   1      42.725  36.601  28.805  1.00  0.00     0.031 A 
ATOM     61  C   UNL A   1      43.663  36.075  30.965  1.00  0.00     0.131 A 
ATOM     62  C   UNL A   1      43.114  37.933  28.992  1.00  0.00     0.055 A 
ATOM     63  C   UNL A   1      43.983  37.415  31.177  1.00  0.00     0.041 A 
ATOM     64  F   UNL A   1      43.975  35.199  31.934  1.00  0.00    -0.206 F 
ATOM     65  C   UNL A   1      43.719  38.351  30.181  1.00  0.00     0.022 A 
BRANCH  62  66
ATOM     66  S   UNL A   1      42.893  39.095  27.620  1.00  0.00     0.124 S 
ATOM     67  O   UNL A   1      44.196  39.751  27.570  1.00  0.00    -0.237 OA
ATOM     68  O   UNL A   1      42.585  38.206  26.504  1.00  0.00    -0.237 OA
ATOM     69  O   UNL A   1      41.787  39.941  28.064  1.00  0.00    -0.744 OA
ENDBRANCH  62  66
ENDBRANCH  36  59
ENDBRANCH  10  11
ENDBRANCH   3   5
ENDBRANCH   2   3
ENDBRANCH   1   2
BRANCH   1  70
ATOM     70  C   UNL A   1      36.152  20.685  25.001  1.00  0.00     0.274 C 
BRANCH  70  71
ATOM     71  O   UNL A   1      35.414  21.757  24.405  1.00  0.00    -0.462 OA
BRANCH  71  72
ATOM     72  C   UNL A   1      34.462  22.302  25.227  1.00  0.00     0.314 C 
ATOM     73  O   UNL A   1      34.714  22.827  26.307  1.00  0.00    -0.252 OA
BRANCH  72  74
ATOM     74  C   UNL A   1      33.051  22.192  24.620  1.00  0.00     0.097 C 
ATOM     75  C   UNL A   1      33.016  22.652  23.136  1.00  0.00     0.053 C 
ATOM     76  C   UNL A   1      32.259  23.338  25.257  1.00  0.00     0.136 C 
ATOM     77  C   UNL A   1      32.384  24.048  23.223  1.00  0.00     0.120 C 
ATOM     78  C   UNL A   1      30.786  23.418  24.855  1.00  0.00     0.036 C 
ATOM     79  O   UNL A   1      32.819  24.450  24.526  1.00  0.00    -0.374 OA
ATOM     80  C   UNL A   1      30.875  23.970  23.437  1.00  0.00     0.035 C 
BRANCH  74  81
ATOM     81  C   UNL A   1      32.428  20.802  24.852  1.00  0.00     0.026 C 
BRANCH  81  82
ATOM     82  C   UNL A   1      32.530  19.821  23.673  1.00  0.00     0.038 C 
BRANCH  82  83
ATOM     83  C   UNL A   1      32.795  18.397  24.076  1.00  0.00    -0.030 A 
ATOM     84  C   UNL A   1      32.551  17.953  25.379  1.00  0.00     0.007 A 
ATOM     85  C   UNL A   1      33.335  17.480  23.180  1.00  0.00     0.114 A 
ATOM     86  C   UNL A   1      32.888  16.653  25.738  1.00  0.00     0.020 A 
ATOM     87  N   UNL A   1      33.654  16.205  23.498  1.00  0.00    -0.264 NA
ATOM     88  C   UNL A   1      33.437  15.827  24.774  1.00  0.00     0.111 A 
ENDBRANCH  82  83
ENDBRANCH  81  82
ENDBRANCH  74  81
ENDBRANCH  72  74
ENDBRANCH  71  72
ENDBRANCH  70  71
ENDBRANCH   1  70
TORSDOF 17
ENDMDL
MODEL 2
REMARK VINA RESULT:     -12.1      5.262     10.421
REMARK SMILES O=C(OCCOC(=O)[C@]1(CCc2cccnc2)C[C@H]2CC[C@@H]1O2)c1ccc(-c2c3nc(c(-c4cc(S(=O)(=O)[O-])ccc4F)c4ccc([nH]4)c(-c4cc(S(=O)(=O)[O-])ccc4F)c4nc(c(-c5cc(S(=O)(=O)[O-])ccc5F)c5ccc2[nH]5)C=C4)C=C3)cc1
REMARK SMILES IDX 4 1 3 2 2 3 1 4 24 5 25 6 86 7 26 8 85 9 27 10 28 11 29 12
REMARK SMILES IDX 79 13 30 14 84 15 78 16 80 17 31 18 83 19 77 20 76 21 32 23
REMARK SMILES IDX 64 24 44 25 63 26 45 27 48 28 62 29 81 30 46 31 47 32 61 34
REMARK SMILES IDX 82 35 49 36 33 37 34 38 42 39 35 40 41 41 43 42 40 43 36 44
REMARK SMILES IDX 37 45 38 46 39 47 65 48 66 49 74 50 67 51 73 52 75 53 72 54
REMARK SMILES IDX 68 55 69 56 70 57 71 58 50 59 51 60 59 61 52 62 58 63 60 64
REMARK SMILES IDX 57 65 53 66 54 67 55 68 56 69 5 70 6 71 7 72 8 73 9 74 18 75
REMARK SMILES IDX 22 76 19 77 21 78 23 79 20 80 10 81 11 82 12 83 13 84 17 85
REMARK SMILES IDX 14 86 16 87 15 88
REMARK H PARENT 80 22 48 33
REMARK Flexibility Score: inf
ROOT
ATOM      1  C   UNL A   1      33.070  28.874  27.030  1.00  0.00     0.275 C 
ENDROOT
BRANCH   1   2
ATOM      2  O   UNL A   1      33.295  30.293  27.100  1.00  0.00    -0.458 OA
BRANCH   2   3
ATOM      3  C   UNL A   1      34.344  30.975  27.619  1.00  0.00     0.338 C 
ATOM      4  O   UNL A   1      34.270  32.202  27.677  1.00  0.00    -0.246 OA
BRANCH   3   5
ATOM      5  C   UNL A   1      35.620  30.318  28.038  1.00  0.00     0.060 A 
ATOM      6  C   UNL A   1      36.766  30.175  27.247  1.00  0.00     0.016 A 
ATOM      7  C   UNL A   1      35.653  29.810  29.347  1.00  0.00     0.016 A 
ATOM      8  C   UNL A   1      37.960  29.666  27.778  1.00  0.00     0.010 A 
ATOM      9  C   UNL A   1      36.835  29.283  29.874  1.00  0.00     0.010 A 
ATOM     10  C   UNL A   1      38.013  29.237  29.103  1.00  0.00    -0.014 A 
BRANCH  10  11
ATOM     11  C   UNL A   1      39.219  28.575  29.661  1.00  0.00     0.031 A 
ATOM     12  C   UNL A   1      39.851  29.225  30.851  1.00  0.00     0.074 A 
ATOM     13  C   UNL A   1      39.767  27.468  29.118  1.00  0.00     0.049 A 
ATOM     14  N   UNL A   1      40.942  28.907  31.489  1.00  0.00    -0.248 NA
ATOM     15  C   UNL A   1      39.143  30.395  31.401  1.00  0.00     0.031 C 
ATOM     16  C   UNL A   1      39.196  26.686  28.028  1.00  0.00     0.029 A 
ATOM     17  N   UNL A   1      40.957  26.828  29.375  1.00  0.00    -0.354 N 
ATOM     18  C   UNL A   1      41.001  29.787  32.559  1.00  0.00     0.074 A 
ATOM     19  C   UNL A   1      39.955  30.765  32.374  1.00  0.00     0.031 C 
ATOM     20  C   UNL A   1      40.086  25.766  27.612  1.00  0.00     0.029 A 
ATOM     21  C   UNL A   1      41.268  25.846  28.455  1.00  0.00     0.049 A 
ATOM     22  H   UNL A   1      41.533  27.049  30.142  1.00  0.00     0.167 HD
ATOM     23  C   UNL A   1      41.782  29.712  33.660  1.00  0.00     0.034 A 
ATOM     24  C   UNL A   1      42.379  25.092  28.324  1.00  0.00     0.034 A 
ATOM     25  C   UNL A   1      42.833  28.745  33.803  1.00  0.00     0.049 A 
ATOM     26  C   UNL A   1      43.401  25.178  29.430  1.00  0.00     0.074 A 
ATOM     27  C   UNL A   1      43.716  28.568  34.849  1.00  0.00     0.029 A 
ATOM     28  N   UNL A   1      43.155  27.794  32.838  1.00  0.00    -0.354 N 
ATOM     29  N   UNL A   1      43.399  25.961  30.487  1.00  0.00    -0.248 NA
ATOM     30  C   UNL A   1      44.518  24.232  29.379  1.00  0.00     0.031 C 
ATOM     31  C   UNL A   1      44.611  27.552  34.489  1.00  0.00     0.029 A 
ATOM     32  C   UNL A   1      44.244  27.048  33.249  1.00  0.00     0.049 A 
ATOM     33  H   UNL A   1      42.676  27.671  31.987  1.00  0.00     0.167 HD
ATOM     34  C   UNL A   1      44.460  25.531  31.277  1.00  0.00     0.074 A 
ATOM     35  C   UNL A   1      45.096  24.447  30.554  1.00  0.00     0.031 C 
ATOM     36  C   UNL A   1      44.847  25.965  32.504  1.00  0.00     0.034 A 
BRANCH  23  37
ATOM     37  C   UNL A   1      41.474  30.708  34.748  1.00  0.00     0.023 A 
ATOM     38  C   UNL A   1      40.267  30.621  35.473  1.00  0.00     0.031 A 
ATOM     39  C   UNL A   1      42.288  31.830  34.951  1.00  0.00     0.131 A 
ATOM     40  C   UNL A   1      39.849  31.698  36.263  1.00  0.00     0.055 A 
ATOM     41  C   UNL A   1      41.909  32.857  35.820  1.00  0.00     0.041 A 
ATOM     42  F   UNL A   1      43.432  31.979  34.266  1.00  0.00    -0.206 F 
ATOM     43  C   UNL A   1      40.673  32.807  36.461  1.00  0.00     0.022 A 
BRANCH  40  44
ATOM     44  S   UNL A   1      38.131  31.719  36.854  1.00  0.00     0.124 S 
ATOM     45  O   UNL A   1      38.237  32.571  38.036  1.00  0.00    -0.237 OA
ATOM     46  O   UNL A   1      37.411  32.288  35.720  1.00  0.00    -0.237 OA
ATOM     47  O   UNL A   1      37.848  30.312  37.131  1.00  0.00    -0.744 OA
ENDBRANCH  40  44
ENDBRANCH  23  37
BRANCH  24  48
ATOM     48  C   UNL A   1      42.571  24.163  27.169  1.00  0.00     0.023 A 
ATOM     49  C   UNL A   1      42.079  22.846  27.194  1.00  0.00     0.031 A 
ATOM     50  C   UNL A   1      43.320  24.557  26.045  1.00  0.00     0.131 A 
ATOM     51  C   UNL A   1      42.387  21.957  26.149  1.00  0.00     0.055 A 
ATOM     52  C   UNL A   1      43.597  23.678  24.991  1.00  0.00     0.041 A 
ATOM     53  F   UNL A   1      43.815  25.803  25.961  1.00  0.00    -0.206 F 
ATOM     54  C   UNL A   1      43.141  22.364  25.047  1.00  0.00     0.022 A 
BRANCH  51  55
ATOM     55  S   UNL A   1      41.861  20.224  26.293  1.00  0.00     0.124 S 
ATOM     56  O   UNL A   1      40.420  20.331  26.094  1.00  0.00    -0.237 OA
ATOM     57  O   UNL A   1      42.613  19.591  25.215  1.00  0.00    -0.237 OA
ATOM     58  O   UNL A   1      42.277  19.851  27.642  1.00  0.00    -0.744 OA
ENDBRANCH  51  55
ENDBRANCH  24  48
BRANCH  36  59
ATOM     59  C   UNL A   1      45.964  25.210  33.168  1.00  0.00     0.023 A 
ATOM     60  C   UNL A   1      45.722  24.080  33.962  1.00  0.00     0.031 A 
ATOM     61  C   UNL A   1      47.296  25.628  32.989  1.00  0.00     0.131 A 
ATOM     62  C   UNL A   1      46.791  23.434  34.595  1.00  0.00     0.055 A 
ATOM     63  C   UNL A   1      48.362  24.939  33.564  1.00  0.00     0.041 A 
ATOM     64  F   UNL A   1      47.580  26.708  32.243  1.00  0.00    -0.206 F 
ATOM     65  C   UNL A   1      48.111  23.842  34.382  1.00  0.00     0.022 A 
BRANCH  62  66
ATOM     66  S   UNL A   1      46.422  22.106  35.770  1.00  0.00     0.124 S 
ATOM     67  O   UNL A   1      44.964  22.146  35.820  1.00  0.00    -0.237 OA
ATOM     68  O   UNL A   1      47.005  20.939  35.116  1.00  0.00    -0.237 OA
ATOM     69  O   UNL A   1      47.098  22.535  36.993  1.00  0.00    -0.744 OA
ENDBRANCH  62  66
ENDBRANCH  36  59
ENDBRANCH  10  11
ENDBRANCH   3   5
ENDBRANCH   2   3
ENDBRANCH   1   2
BRANCH   1  70
ATOM     70  C   UNL A   1      31.628  28.391  27.218  1.00  0.00     0.274 C 
BRANCH  70  71
ATOM     71  O   UNL A   1      31.486  26.966  27.224  1.00  0.00    -0.462 OA
BRANCH  71  72
ATOM     72  C   UNL A   1      31.261  26.423  25.986  1.00  0.00     0.314 C 
ATOM     73  O   UNL A   1      30.461  26.882  25.176  1.00  0.00    -0.252 OA
BRANCH  72  74
ATOM     74  C   UNL A   1      32.145  25.188  25.733  1.00  0.00     0.097 C 
ATOM     75  C   UNL A   1      31.643  24.347  24.525  1.00  0.00     0.053 C 
ATOM     76  C   UNL A   1      31.806  24.222  26.871  1.00  0.00     0.136 C 
ATOM     77  C   UNL A   1      30.950  23.157  25.201  1.00  0.00     0.120 C 
ATOM     78  C   UNL A   1      32.602  22.916  26.881  1.00  0.00     0.036 C 
ATOM     79  O   UNL A   1      30.512  23.767  26.420  1.00  0.00    -0.374 OA
ATOM     80  C   UNL A   1      31.960  22.146  25.735  1.00  0.00     0.035 C 
BRANCH  74  81
ATOM     81  C   UNL A   1      33.640  25.553  25.652  1.00  0.00     0.026 C 
BRANCH  81  82
ATOM     82  C   UNL A   1      34.368  25.108  24.374  1.00  0.00     0.038 C 
BRANCH  82  83
ATOM     83  C   UNL A   1      35.439  24.078  24.600  1.00  0.00    -0.030 A 
ATOM     84  C   UNL A   1      35.809  23.181  23.594  1.00  0.00     0.007 A 
ATOM     85  C   UNL A   1      36.070  23.950  25.834  1.00  0.00     0.114 A 
ATOM     86  C   UNL A   1      36.743  22.187  23.867  1.00  0.00     0.020 A 
ATOM     87  N   UNL A   1      36.995  23.006  26.120  1.00  0.00    -0.264 NA
ATOM     88  C   UNL A   1      37.298  22.137  25.133  1.00  0.00     0.111 A 
ENDBRANCH  82  83
ENDBRANCH  81  82
ENDBRANCH  74  81
ENDBRANCH  72  74
ENDBRANCH  71  72
ENDBRANCH  70  71
ENDBRANCH   1  70
TORSDOF 17
ENDMDL
MODEL 3
REMARK VINA RESULT:     -12.0      1.559      1.956
REMARK SMILES O=C(OCCOC(=O)[C@]1(CCc2cccnc2)C[C@H]2CC[C@@H]1O2)c1ccc(-c2c3nc(c(-c4cc(S(=O)(=O)[O-])ccc4F)c4ccc([nH]4)c(-c4cc(S(=O)(=O)[O-])ccc4F)c4nc(c(-c5cc(S(=O)(=O)[O-])ccc5F)c5ccc2[nH]5)C=C4)C=C3)cc1
REMARK SMILES IDX 4 1 3 2 2 3 1 4 24 5 25 6 86 7 26 8 85 9 27 10 28 11 29 12
REMARK SMILES IDX 79 13 30 14 84 15 78 16 80 17 31 18 83 19 77 20 76 21 32 23
REMARK SMILES IDX 64 24 44 25 63 26 45 27 48 28 62 29 81 30 46 31 47 32 61 34
REMARK SMILES IDX 82 35 49 36 33 37 34 38 42 39 35 40 41 41 43 42 40 43 36 44
REMARK SMILES IDX 37 45 38 46 39 47 65 48 66 49 74 50 67 51 73 52 75 53 72 54
REMARK SMILES IDX 68 55 69 56 70 57 71 58 50 59 51 60 59 61 52 62 58 63 60 64
REMARK SMILES IDX 57 65 53 66 54 67 55 68 56 69 5 70 6 71 7 72 8 73 9 74 18 75
REMARK SMILES IDX 22 76 19 77 21 78 23 79 20 80 10 81 11 82 12 83 13 84 17 85
REMARK SMILES IDX 14 86 16 87 15 88
REMARK H PARENT 80 22 48 33
REMARK Flexibility Score: inf
ROOT
ATOM      1  C   UNL A   1      37.528  21.042  25.077  1.00  0.00     0.275 C 
ENDROOT
BRANCH   1   2
ATOM      2  O   UNL A   1      37.913  22.235  25.782  1.00  0.00    -0.458 OA
BRANCH   2   3
ATOM      3  C   UNL A   1      39.042  22.495  26.483  1.00  0.00     0.338 C 
ATOM      4  O   UNL A   1      39.670  21.546  26.952  1.00  0.00    -0.246 OA
BRANCH   3   5
ATOM      5  C   UNL A   1      39.510  23.881  26.794  1.00  0.00     0.060 A 
ATOM      6  C   UNL A   1      40.153  24.748  25.902  1.00  0.00     0.016 A 
ATOM      7  C   UNL A   1      39.272  24.336  28.101  1.00  0.00     0.016 A 
ATOM      8  C   UNL A   1      40.430  26.078  26.249  1.00  0.00     0.010 A 
ATOM      9  C   UNL A   1      39.564  25.655  28.458  1.00  0.00     0.010 A 
ATOM     10  C   UNL A   1      40.117  26.551  27.523  1.00  0.00    -0.014 A 
BRANCH  10  11
ATOM     11  C   UNL A   1      40.511  27.912  27.967  1.00  0.00     0.031 A 
ATOM     12  C   UNL A   1      41.979  28.187  28.064  1.00  0.00     0.074 A 
ATOM     13  C   UNL A   1      39.615  28.860  28.313  1.00  0.00     0.049 A 
ATOM     14  N   UNL A   1      42.597  29.253  28.489  1.00  0.00    -0.248 NA
ATOM     15  C   UNL A   1      42.871  27.106  27.609  1.00  0.00     0.031 C 
ATOM     16  C   UNL A   1      38.169  28.754  28.167  1.00  0.00     0.029 A 
ATOM     17  N   UNL A   1      39.782  30.089  28.906  1.00  0.00    -0.354 N 
ATOM     18  C   UNL A   1      43.942  28.996  28.273  1.00  0.00     0.074 A 
ATOM     19  C   UNL A   1      44.060  27.615  27.868  1.00  0.00     0.031 C 
ATOM     20  C   UNL A   1      37.572  29.793  28.780  1.00  0.00     0.029 A 
ATOM     21  C   UNL A   1      38.599  30.680  29.303  1.00  0.00     0.049 A 
ATOM     22  H   UNL A   1      40.664  30.509  29.037  1.00  0.00     0.167 HD
ATOM     23  C   UNL A   1      44.973  29.870  28.294  1.00  0.00     0.034 A 
ATOM     24  C   UNL A   1      38.378  31.815  29.997  1.00  0.00     0.034 A 
ATOM     25  C   UNL A   1      44.829  31.231  28.730  1.00  0.00     0.049 A 
ATOM     26  C   UNL A   1      39.570  32.701  30.258  1.00  0.00     0.074 A 
ATOM     27  C   UNL A   1      45.788  32.219  28.826  1.00  0.00     0.029 A 
ATOM     28  N   UNL A   1      43.630  31.788  29.167  1.00  0.00    -0.354 N 
ATOM     29  N   UNL A   1      40.834  32.481  29.970  1.00  0.00    -0.248 NA
ATOM     30  C   UNL A   1      39.305  34.015  30.853  1.00  0.00     0.031 C 
ATOM     31  C   UNL A   1      45.182  33.353  29.381  1.00  0.00     0.029 A 
ATOM     32  C   UNL A   1      43.831  33.096  29.567  1.00  0.00     0.049 A 
ATOM     33  H   UNL A   1      42.766  31.317  29.189  1.00  0.00     0.167 HD
ATOM     34  C   UNL A   1      41.500  33.668  30.255  1.00  0.00     0.074 A 
ATOM     35  C   UNL A   1      40.500  34.584  30.772  1.00  0.00     0.031 C 
ATOM     36  C   UNL A   1      42.807  33.985  30.069  1.00  0.00     0.034 A 
BRANCH  23  37
ATOM     37  C   UNL A   1      46.297  29.331  27.819  1.00  0.00     0.023 A 
ATOM     38  C   UNL A   1      46.513  29.081  26.447  1.00  0.00     0.031 A 
ATOM     39  C   UNL A   1      47.275  28.910  28.730  1.00  0.00     0.131 A 
ATOM     40  C   UNL A   1      47.612  28.313  26.043  1.00  0.00     0.055 A 
ATOM     41  C   UNL A   1      48.421  28.231  28.306  1.00  0.00     0.041 A 
ATOM     42  F   UNL A   1      47.108  29.096  30.048  1.00  0.00    -0.206 F 
ATOM     43  C   UNL A   1      48.581  27.906  26.961  1.00  0.00     0.022 A 
BRANCH  40  44
ATOM     44  S   UNL A   1      47.642  27.680  24.340  1.00  0.00     0.124 S 
ATOM     45  O   UNL A   1      46.759  28.624  23.660  1.00  0.00    -0.237 OA
ATOM     46  O   UNL A   1      49.056  27.766  23.993  1.00  0.00    -0.237 OA
ATOM     47  O   UNL A   1      47.113  26.324  24.471  1.00  0.00    -0.744 OA
ENDBRANCH  40  44
ENDBRANCH  23  37
BRANCH  24  48
ATOM     48  C   UNL A   1      37.007  32.217  30.438  1.00  0.00     0.023 A 
ATOM     49  C   UNL A   1      36.106  32.843  29.560  1.00  0.00     0.031 A 
ATOM     50  C   UNL A   1      36.603  32.047  31.776  1.00  0.00     0.131 A 
ATOM     51  C   UNL A   1      34.874  33.326  30.038  1.00  0.00     0.055 A 
ATOM     52  C   UNL A   1      35.363  32.500  32.239  1.00  0.00     0.041 A 
ATOM     53  F   UNL A   1      37.419  31.454  32.662  1.00  0.00    -0.206 F 
ATOM     54  C   UNL A   1      34.496  33.156  31.371  1.00  0.00     0.022 A 
BRANCH  51  55
ATOM     55  S   UNL A   1      33.805  34.262  28.908  1.00  0.00     0.124 S 
ATOM     56  O   UNL A   1      33.364  33.224  27.984  1.00  0.00    -0.237 OA
ATOM     57  O   UNL A   1      32.791  34.786  29.817  1.00  0.00    -0.237 OA
ATOM     58  O   UNL A   1      34.703  35.263  28.337  1.00  0.00    -0.744 OA
ENDBRANCH  51  55
ENDBRANCH  24  48
BRANCH  36  59
ATOM     59  C   UNL A   1      43.206  35.405  30.356  1.00  0.00     0.023 A 
ATOM     60  C   UNL A   1      43.546  35.829  31.650  1.00  0.00     0.031 A 
ATOM     61  C   UNL A   1      43.256  36.345  29.310  1.00  0.00     0.131 A 
ATOM     62  C   UNL A   1      43.870  37.172  31.877  1.00  0.00     0.055 A 
ATOM     63  C   UNL A   1      43.649  37.664  29.530  1.00  0.00     0.041 A 
ATOM     64  F   UNL A   1      42.935  35.990  28.056  1.00  0.00    -0.206 F 
ATOM     65  C   UNL A   1      43.947  38.086  30.822  1.00  0.00     0.022 A 
BRANCH  62  66
ATOM     66  S   UNL A   1      44.106  37.724  33.586  1.00  0.00     0.124 S 
ATOM     67  O   UNL A   1      44.619  36.516  34.224  1.00  0.00    -0.237 OA
ATOM     68  O   UNL A   1      45.060  38.817  33.432  1.00  0.00    -0.237 OA
ATOM     69  O   UNL A   1      42.764  38.126  34.003  1.00  0.00    -0.744 OA
ENDBRANCH  62  66
ENDBRANCH  36  59
ENDBRANCH  10  11
ENDBRANCH   3   5
ENDBRANCH   2   3
ENDBRANCH   1   2
BRANCH   1  70
ATOM     70  C   UNL A   1      36.033  20.704  25.051  1.00  0.00     0.274 C 
BRANCH  70  71
ATOM     71  O   UNL A   1      35.177  21.832  25.261  1.00  0.00    -0.462 OA
BRANCH  71  72
ATOM     72  C   UNL A   1      34.674  22.373  24.107  1.00  0.00     0.314 C 
ATOM     73  O   UNL A   1      35.371  22.855  23.220  1.00  0.00    -0.252 OA
BRANCH  72  74
ATOM     74  C   UNL A   1      33.138  22.281  24.054  1.00  0.00     0.097 C 
ATOM     75  C   UNL A   1      32.578  22.648  22.651  1.00  0.00     0.053 C 
ATOM     76  C   UNL A   1      32.643  23.494  24.847  1.00  0.00     0.136 C 
ATOM     77  C   UNL A   1      32.039  24.070  22.857  1.00  0.00     0.120 C 
ATOM     78  C   UNL A   1      31.125  23.607  24.993  1.00  0.00     0.036 C 
ATOM     79  O   UNL A   1      32.919  24.536  23.886  1.00  0.00    -0.374 OA
ATOM     80  C   UNL A   1      30.707  24.065  23.602  1.00  0.00     0.035 C 
BRANCH  74  81
ATOM     81  C   UNL A   1      32.619  20.934  24.593  1.00  0.00     0.026 C 
BRANCH  81  82
ATOM     82  C   UNL A   1      32.487  19.807  23.555  1.00  0.00     0.038 C 
BRANCH  82  83
ATOM     83  C   UNL A   1      32.925  18.457  24.051  1.00  0.00    -0.030 A 
ATOM     84  C   UNL A   1      33.641  17.579  23.232  1.00  0.00     0.007 A 
ATOM     85  C   UNL A   1      32.594  18.013  25.328  1.00  0.00     0.114 A 
ATOM     86  C   UNL A   1      33.955  16.306  23.696  1.00  0.00     0.020 A 
ATOM     87  N   UNL A   1      32.903  16.788  25.810  1.00  0.00    -0.264 NA
ATOM     88  C   UNL A   1      33.563  15.959  24.976  1.00  0.00     0.111 A 
ENDBRANCH  82  83
ENDBRANCH  81  82
ENDBRANCH  74  81
ENDBRANCH  72  74
ENDBRANCH  71  72
ENDBRANCH  70  71
ENDBRANCH   1  70
TORSDOF 17
ENDMDL
