MODEL 1
REMARK VINA RESULT:     -11.7      0.000      0.000
REMARK SMILES O=C(/C=C/N[C@@H](Cc1c[nH]c2ccccc12)C(=O)OCCOC(=O)c1ccc(-c2c3nc(c(-c4cc(S(=O)(=O)[O-])ccc4F)c4ccc([nH]4)c(-c4cc(S(=O)(=O)[O-])ccc4F)c4nc(c(-c5cc(S(=O)(=O)[O-])ccc5F)c5ccc2[nH]5)C=C4)C=C3)cc1)c1ccccc1
REMARK SMILES IDX 20 1 19 2 17 3 18 4 6 5 5 6 4 8 3 9 2 10 1 11 88 12 89 13
REMARK SMILES IDX 93 14 90 15 92 16 91 17 7 18 8 19 9 20 16 21 10 22 11 23
REMARK SMILES IDX 15 24 12 26 14 27 13 28 21 29 22 30 23 31 24 32 25 33 26 34
REMARK SMILES IDX 87 35 27 36 86 37 28 38 29 39 30 40 80 41 31 42 85 43 79 44
REMARK SMILES IDX 81 45 32 46 84 47 78 48 77 49 33 51 65 52 45 53 64 54 46 55
REMARK SMILES IDX 49 56 63 57 82 58 47 59 48 60 62 62 83 63 50 64 34 65 35 66
REMARK SMILES IDX 43 67 36 68 42 69 44 70 41 71 37 72 38 73 39 74 40 75 66 76
REMARK SMILES IDX 67 77 75 78 68 79 74 80 76 81 73 82 69 83 70 84 71 85 72 86
REMARK SMILES IDX 51 87 52 88 60 89 53 90 59 91 61 92 58 93 54 94 55 95 56 96
REMARK SMILES IDX 57 97
REMARK H PARENT 5 7 10 25 81 50 49 61
REMARK Flexibility Score: inf
ROOT
ATOM      1  C   UNL A   1      35.581  20.993  25.424  1.00  0.00     0.274 C 
ENDROOT
BRANCH   1   2
ATOM      2  O   UNL A   1      34.642  20.160  24.727  1.00  0.00    -0.461 OA
BRANCH   2   3
ATOM      3  C   UNL A   1      33.323  20.267  25.074  1.00  0.00     0.329 C 
ATOM      4  O   UNL A   1      32.672  19.395  25.637  1.00  0.00    -0.250 OA
BRANCH   3   5
ATOM      5  C   UNL A   1      32.743  21.630  24.645  1.00  0.00     0.194 C 
BRANCH   5   6
ATOM      6  N   UNL A   1      32.588  21.696  23.182  1.00  0.00    -0.378 N 
ATOM      7  H   UNL A   1      32.572  20.829  22.715  1.00  0.00     0.160 HD
BRANCH   6   8
ATOM      8  C   UNL A   1      32.463  22.803  22.388  1.00  0.00     0.082 C 
ATOM      9  C   UNL A   1      33.190  23.921  22.512  1.00  0.00     0.070 C 
BRANCH   9  10
ATOM     10  C   UNL A   1      33.041  25.101  21.623  1.00  0.00     0.187 C 
ATOM     11  O   UNL A   1      33.203  24.960  20.413  1.00  0.00    -0.289 OA
BRANCH  10  12
ATOM     12  C   UNL A   1      32.694  26.425  22.204  1.00  0.00     0.022 A 
ATOM     13  C   UNL A   1      33.652  27.434  22.362  1.00  0.00     0.012 A 
ATOM     14  C   UNL A   1      31.366  26.668  22.573  1.00  0.00     0.012 A 
ATOM     15  C   UNL A   1      33.293  28.652  22.939  1.00  0.00     0.001 A 
ATOM     16  C   UNL A   1      31.010  27.896  23.132  1.00  0.00     0.001 A 
ATOM     17  C   UNL A   1      31.975  28.882  23.324  1.00  0.00     0.000 A 
ENDBRANCH  10  12
ENDBRANCH   9  10
ENDBRANCH   6   8
ENDBRANCH   5   6
BRANCH   5  18
ATOM     18  C   UNL A   1      31.426  21.911  25.383  1.00  0.00     0.074 C 
BRANCH  18  19
ATOM     19  C   UNL A   1      31.283  23.327  25.860  1.00  0.00    -0.020 A 
ATOM     20  C   UNL A   1      30.107  23.931  26.262  1.00  0.00     0.087 A 
ATOM     21  C   UNL A   1      32.304  24.328  25.915  1.00  0.00     0.003 A 
ATOM     22  N   UNL A   1      30.366  25.252  26.507  1.00  0.00    -0.361 N 
ATOM     23  C   UNL A   1      31.689  25.531  26.263  1.00  0.00     0.046 A 
ATOM     24  C   UNL A   1      33.689  24.334  25.653  1.00  0.00     0.010 A 
ATOM     25  H   UNL A   1      29.699  25.908  26.814  1.00  0.00     0.166 HD
ATOM     26  C   UNL A   1      32.383  26.745  26.316  1.00  0.00     0.026 A 
ATOM     27  C   UNL A   1      34.396  25.539  25.690  1.00  0.00     0.001 A 
ATOM     28  C   UNL A   1      33.747  26.728  26.007  1.00  0.00     0.002 A 
ENDBRANCH  18  19
ENDBRANCH   5  18
ENDBRANCH   3   5
ENDBRANCH   2   3
ENDBRANCH   1   2
BRANCH   1  29
ATOM     29  C   UNL A   1      37.006  20.566  25.073  1.00  0.00     0.275 C 
BRANCH  29  30
ATOM     30  O   UNL A   1      37.924  21.646  25.319  1.00  0.00    -0.458 OA
BRANCH  30  31
ATOM     31  C   UNL A   1      38.975  21.334  26.116  1.00  0.00     0.338 C 
ATOM     32  O   UNL A   1      39.445  20.232  26.329  1.00  0.00    -0.246 OA
BRANCH  31  33
ATOM     33  C   UNL A   1      39.560  22.584  26.624  1.00  0.00     0.060 A 
ATOM     34  C   UNL A   1      39.093  23.793  26.107  1.00  0.00     0.016 A 
ATOM     35  C   UNL A   1      40.602  22.565  27.551  1.00  0.00     0.016 A 
ATOM     36  C   UNL A   1      39.675  24.994  26.500  1.00  0.00     0.010 A 
ATOM     37  C   UNL A   1      41.180  23.773  27.954  1.00  0.00     0.010 A 
ATOM     38  C   UNL A   1      40.733  24.995  27.417  1.00  0.00    -0.014 A 
BRANCH  38  39
ATOM     39  C   UNL A   1      41.415  26.268  27.756  1.00  0.00     0.031 A 
ATOM     40  C   UNL A   1      40.661  27.343  28.490  1.00  0.00     0.074 A 
ATOM     41  C   UNL A   1      42.712  26.446  27.438  1.00  0.00     0.049 A 
ATOM     42  N   UNL A   1      41.057  28.535  28.850  1.00  0.00    -0.248 NA
ATOM     43  C   UNL A   1      39.279  27.023  28.883  1.00  0.00     0.031 C 
ATOM     44  C   UNL A   1      43.561  25.455  26.775  1.00  0.00     0.029 A 
ATOM     45  N   UNL A   1      43.541  27.524  27.624  1.00  0.00    -0.354 N 
ATOM     46  C   UNL A   1      39.980  29.110  29.516  1.00  0.00     0.074 A 
ATOM     47  C   UNL A   1      38.905  28.140  29.489  1.00  0.00     0.031 C 
ATOM     48  C   UNL A   1      44.787  25.973  26.605  1.00  0.00     0.029 A 
ATOM     49  C   UNL A   1      44.798  27.349  27.096  1.00  0.00     0.049 A 
ATOM     50  H   UNL A   1      43.261  28.345  28.091  1.00  0.00     0.167 HD
ATOM     51  C   UNL A   1      39.897  30.332  30.097  1.00  0.00     0.034 A 
ATOM     52  C   UNL A   1      45.828  28.212  26.984  1.00  0.00     0.034 A 
ATOM     53  C   UNL A   1      40.963  31.305  30.080  1.00  0.00     0.049 A 
ATOM     54  C   UNL A   1      45.666  29.611  27.524  1.00  0.00     0.074 A 
ATOM     55  C   UNL A   1      40.977  32.579  30.619  1.00  0.00     0.029 A 
ATOM     56  N   UNL A   1      42.198  31.118  29.473  1.00  0.00    -0.354 N 
ATOM     57  N   UNL A   1      44.637  30.144  28.143  1.00  0.00    -0.248 NA
ATOM     58  C   UNL A   1      46.804  30.523  27.349  1.00  0.00     0.031 C 
ATOM     59  C   UNL A   1      42.192  33.186  30.278  1.00  0.00     0.029 A 
ATOM     60  C   UNL A   1      42.967  32.266  29.591  1.00  0.00     0.049 A 
ATOM     61  H   UNL A   1      42.486  30.290  29.025  1.00  0.00     0.167 HD
ATOM     62  C   UNL A   1      45.015  31.448  28.450  1.00  0.00     0.074 A 
ATOM     63  C   UNL A   1      46.369  31.615  27.963  1.00  0.00     0.031 C 
ATOM     64  C   UNL A   1      44.310  32.420  29.083  1.00  0.00     0.034 A 
BRANCH  51  65
ATOM     65  C   UNL A   1      38.580  30.701  30.733  1.00  0.00     0.023 A 
ATOM     66  C   UNL A   1      37.555  31.324  30.001  1.00  0.00     0.031 A 
ATOM     67  C   UNL A   1      38.363  30.462  32.102  1.00  0.00     0.131 A 
ATOM     68  C   UNL A   1      36.387  31.745  30.654  1.00  0.00     0.055 A 
ATOM     69  C   UNL A   1      37.171  30.821  32.731  1.00  0.00     0.041 A 
ATOM     70  F   UNL A   1      39.317  29.891  32.855  1.00  0.00    -0.206 F 
ATOM     71  C   UNL A   1      36.179  31.479  32.010  1.00  0.00     0.022 A 
BRANCH  68  72
ATOM     72  S   UNL A   1      35.196  32.760  29.736  1.00  0.00     0.124 S 
ATOM     73  O   UNL A   1      36.078  33.725  29.084  1.00  0.00    -0.237 OA
ATOM     74  O   UNL A   1      34.558  31.783  28.862  1.00  0.00    -0.237 OA
ATOM     75  O   UNL A   1      34.340  33.314  30.783  1.00  0.00    -0.744 OA
ENDBRANCH  68  72
ENDBRANCH  51  65
BRANCH  52  76
ATOM     76  C   UNL A   1      47.078  27.809  26.278  1.00  0.00     0.023 A 
ATOM     77  C   UNL A   1      47.224  27.991  24.894  1.00  0.00     0.031 A 
ATOM     78  C   UNL A   1      48.128  27.185  26.975  1.00  0.00     0.131 A 
ATOM     79  C   UNL A   1      48.376  27.517  24.245  1.00  0.00     0.055 A 
ATOM     80  C   UNL A   1      49.293  26.762  26.334  1.00  0.00     0.041 A 
ATOM     81  F   UNL A   1      48.037  26.983  28.300  1.00  0.00    -0.206 F 
ATOM     82  C   UNL A   1      49.417  26.917  24.958  1.00  0.00     0.022 A 
BRANCH  79  83
ATOM     83  S   UNL A   1      48.462  27.624  22.436  1.00  0.00     0.124 S 
ATOM     84  O   UNL A   1      47.162  28.200  22.109  1.00  0.00    -0.237 OA
ATOM     85  O   UNL A   1      49.617  28.495  22.240  1.00  0.00    -0.237 OA
ATOM     86  O   UNL A   1      48.653  26.236  22.022  1.00  0.00    -0.744 OA
ENDBRANCH  79  83
ENDBRANCH  52  76
BRANCH  64  87
ATOM     87  C   UNL A   1      45.014  33.735  29.313  1.00  0.00     0.023 A 
ATOM     88  C   UNL A   1      44.926  34.791  28.391  1.00  0.00     0.031 A 
ATOM     89  C   UNL A   1      45.797  33.922  30.466  1.00  0.00     0.131 A 
ATOM     90  C   UNL A   1      45.653  35.971  28.611  1.00  0.00     0.055 A 
ATOM     91  C   UNL A   1      46.473  35.118  30.707  1.00  0.00     0.041 A 
ATOM     92  F   UNL A   1      45.917  32.943  31.378  1.00  0.00    -0.206 F 
ATOM     93  C   UNL A   1      46.413  36.147  29.771  1.00  0.00     0.022 A 
BRANCH  90  94
ATOM     94  S   UNL A   1      45.659  37.246  27.321  1.00  0.00     0.124 S 
ATOM     95  O   UNL A   1      46.412  36.594  26.255  1.00  0.00    -0.237 OA
ATOM     96  O   UNL A   1      44.235  37.441  27.067  1.00  0.00    -0.237 OA
ATOM     97  O   UNL A   1      46.333  38.375  27.957  1.00  0.00    -0.744 OA
ENDBRANCH  90  94
ENDBRANCH  64  87
ENDBRANCH  38  39
ENDBRANCH  31  33
ENDBRANCH  30  31
ENDBRANCH  29  30
ENDBRANCH   1  29
TORSDOF 20
ENDMDL
MODEL 2
REMARK VINA RESULT:     -11.6      1.546      2.973
REMARK SMILES O=C(/C=C/N[C@@H](Cc1c[nH]c2ccccc12)C(=O)OCCOC(=O)c1ccc(-c2c3nc(c(-c4cc(S(=O)(=O)[O-])ccc4F)c4ccc([nH]4)c(-c4cc(S(=O)(=O)[O-])ccc4F)c4nc(c(-c5cc(S(=O)(=O)[O-])ccc5F)c5ccc2[nH]5)C=C4)C=C3)cc1)c1ccccc1
REMARK SMILES IDX 20 1 19 2 17 3 18 4 6 5 5 6 4 8 3 9 2 10 1 11 88 12 89 13
REMARK SMILES IDX 93 14 90 15 92 16 91 17 7 18 8 19 9 20 16 21 10 22 11 23
REMARK SMILES IDX 15 24 12 26 14 27 13 28 21 29 22 30 23 31 24 32 25 33 26 34
REMARK SMILES IDX 87 35 27 36 86 37 28 38 29 39 30 40 80 41 31 42 85 43 79 44
REMARK SMILES IDX 81 45 32 46 84 47 78 48 77 49 33 51 65 52 45 53 64 54 46 55
REMARK SMILES IDX 49 56 63 57 82 58 47 59 48 60 62 62 83 63 50 64 34 65 35 66
REMARK SMILES IDX 43 67 36 68 42 69 44 70 41 71 37 72 38 73 39 74 40 75 66 76
REMARK SMILES IDX 67 77 75 78 68 79 74 80 76 81 73 82 69 83 70 84 71 85 72 86
REMARK SMILES IDX 51 87 52 88 60 89 53 90 59 91 61 92 58 93 54 94 55 95 56 96
REMARK SMILES IDX 57 97
REMARK H PARENT 5 7 10 25 81 50 49 61
REMARK Flexibility Score: inf
ROOT
ATOM      1  C   UNL A   1      35.378  22.349  25.839  1.00  0.00     0.274 C 
ENDROOT
BRANCH   1   2
ATOM      2  O   UNL A   1      35.221  23.337  24.808  1.00  0.00    -0.461 OA
BRANCH   2   3
ATOM      3  C   UNL A   1      34.378  23.041  23.773  1.00  0.00     0.329 C 
ATOM      4  O   UNL A   1      34.642  23.193  22.586  1.00  0.00    -0.250 OA
BRANCH   3   5
ATOM      5  C   UNL A   1      33.027  22.505  24.290  1.00  0.00     0.194 C 
BRANCH   5   6
ATOM      6  N   UNL A   1      31.956  23.491  24.073  1.00  0.00    -0.378 N 
ATOM      7  H   UNL A   1      31.105  23.130  23.732  1.00  0.00     0.160 HD
BRANCH   6   8
ATOM      8  C   UNL A   1      31.986  24.843  24.282  1.00  0.00     0.082 C 
ATOM      9  C   UNL A   1      31.290  25.744  23.577  1.00  0.00     0.070 C 
BRANCH   9  10
ATOM     10  C   UNL A   1      31.332  27.205  23.839  1.00  0.00     0.187 C 
ATOM     11  O   UNL A   1      32.369  27.702  24.272  1.00  0.00    -0.289 OA
BRANCH  10  12
ATOM     12  C   UNL A   1      30.132  28.040  23.567  1.00  0.00     0.022 A 
ATOM     13  C   UNL A   1      28.860  27.473  23.415  1.00  0.00     0.012 A 
ATOM     14  C   UNL A   1      30.285  29.428  23.492  1.00  0.00     0.012 A 
ATOM     15  C   UNL A   1      27.764  28.287  23.131  1.00  0.00     0.001 A 
ATOM     16  C   UNL A   1      29.180  30.238  23.226  1.00  0.00     0.001 A 
ATOM     17  C   UNL A   1      27.924  29.667  23.036  1.00  0.00     0.000 A 
ENDBRANCH  10  12
ENDBRANCH   9  10
ENDBRANCH   6   8
ENDBRANCH   5   6
BRANCH   5  18
ATOM     18  C   UNL A   1      32.706  21.146  23.651  1.00  0.00     0.074 C 
BRANCH  18  19
ATOM     19  C   UNL A   1      32.781  19.990  24.605  1.00  0.00    -0.020 A 
ATOM     20  C   UNL A   1      32.657  20.064  25.979  1.00  0.00     0.087 A 
ATOM     21  C   UNL A   1      33.067  18.624  24.287  1.00  0.00     0.003 A 
ATOM     22  N   UNL A   1      32.903  18.823  26.499  1.00  0.00    -0.361 N 
ATOM     23  C   UNL A   1      33.197  17.935  25.493  1.00  0.00     0.046 A 
ATOM     24  C   UNL A   1      33.277  17.918  23.086  1.00  0.00     0.010 A 
ATOM     25  H   UNL A   1      32.873  18.599  27.458  1.00  0.00     0.166 HD
ATOM     26  C   UNL A   1      33.571  16.588  25.556  1.00  0.00     0.026 A 
ATOM     27  C   UNL A   1      33.663  16.576  23.128  1.00  0.00     0.001 A 
ATOM     28  C   UNL A   1      33.817  15.925  24.348  1.00  0.00     0.002 A 
ENDBRANCH  18  19
ENDBRANCH   5  18
ENDBRANCH   3   5
ENDBRANCH   2   3
ENDBRANCH   1   2
BRANCH   1  29
ATOM     29  C   UNL A   1      36.178  21.164  25.297  1.00  0.00     0.275 C 
BRANCH  29  30
ATOM     30  O   UNL A   1      37.467  21.604  24.833  1.00  0.00    -0.458 OA
BRANCH  30  31
ATOM     31  C   UNL A   1      38.516  21.206  25.594  1.00  0.00     0.338 C 
ATOM     32  O   UNL A   1      38.927  20.073  25.758  1.00  0.00    -0.246 OA
BRANCH  31  33
ATOM     33  C   UNL A   1      39.183  22.403  26.129  1.00  0.00     0.060 A 
ATOM     34  C   UNL A   1      38.662  23.655  25.799  1.00  0.00     0.016 A 
ATOM     35  C   UNL A   1      40.344  22.297  26.893  1.00  0.00     0.016 A 
ATOM     36  C   UNL A   1      39.310  24.813  26.216  1.00  0.00     0.010 A 
ATOM     37  C   UNL A   1      40.989  23.461  27.321  1.00  0.00     0.010 A 
ATOM     38  C   UNL A   1      40.486  24.728  26.970  1.00  0.00    -0.014 A 
BRANCH  38  39
ATOM     39  C   UNL A   1      41.225  25.965  27.327  1.00  0.00     0.031 A 
ATOM     40  C   UNL A   1      40.550  27.020  28.160  1.00  0.00     0.074 A 
ATOM     41  C   UNL A   1      42.504  26.124  26.937  1.00  0.00     0.049 A 
ATOM     42  N   UNL A   1      41.004  28.181  28.552  1.00  0.00    -0.248 NA
ATOM     43  C   UNL A   1      39.187  26.718  28.623  1.00  0.00     0.031 C 
ATOM     44  C   UNL A   1      43.281  25.145  26.173  1.00  0.00     0.029 A 
ATOM     45  N   UNL A   1      43.375  27.169  27.122  1.00  0.00    -0.354 N 
ATOM     46  C   UNL A   1      39.988  28.750  29.312  1.00  0.00     0.074 A 
ATOM     47  C   UNL A   1      38.885  27.812  29.306  1.00  0.00     0.031 C 
ATOM     48  C   UNL A   1      44.509  25.639  25.951  1.00  0.00     0.029 A 
ATOM     49  C   UNL A   1      44.591  26.988  26.507  1.00  0.00     0.049 A 
ATOM     50  H   UNL A   1      43.149  27.972  27.646  1.00  0.00     0.167 HD
ATOM     51  C   UNL A   1      39.977  29.943  29.956  1.00  0.00     0.034 A 
ATOM     52  C   UNL A   1      45.637  27.827  26.372  1.00  0.00     0.034 A 
ATOM     53  C   UNL A   1      41.068  30.887  29.919  1.00  0.00     0.049 A 
ATOM     54  C   UNL A   1      45.551  29.201  26.989  1.00  0.00     0.074 A 
ATOM     55  C   UNL A   1      41.153  32.132  30.518  1.00  0.00     0.029 A 
ATOM     56  N   UNL A   1      42.257  30.698  29.227  1.00  0.00    -0.354 N 
ATOM     57  N   UNL A   1      44.579  29.729  27.697  1.00  0.00    -0.248 NA
ATOM     58  C   UNL A   1      46.702  30.091  26.787  1.00  0.00     0.031 C 
ATOM     59  C   UNL A   1      42.362  32.722  30.131  1.00  0.00     0.029 A 
ATOM     60  C   UNL A   1      43.065  31.818  29.352  1.00  0.00     0.049 A 
ATOM     61  H   UNL A   1      42.492  29.887  28.721  1.00  0.00     0.167 HD
ATOM     62  C   UNL A   1      45.013  31.006  28.044  1.00  0.00     0.074 A 
ATOM     63  C   UNL A   1      46.338  31.161  27.480  1.00  0.00     0.031 C 
ATOM     64  C   UNL A   1      44.378  31.963  28.767  1.00  0.00     0.034 A 
BRANCH  51  65
ATOM     65  C   UNL A   1      38.713  30.314  30.692  1.00  0.00     0.023 A 
ATOM     66  C   UNL A   1      37.661  30.994  30.056  1.00  0.00     0.031 A 
ATOM     67  C   UNL A   1      38.578  30.018  32.060  1.00  0.00     0.131 A 
ATOM     68  C   UNL A   1      36.549  31.412  30.802  1.00  0.00     0.055 A 
ATOM     69  C   UNL A   1      37.438  30.376  32.781  1.00  0.00     0.041 A 
ATOM     70  F   UNL A   1      39.563  29.391  32.724  1.00  0.00    -0.206 F 
ATOM     71  C   UNL A   1      36.420  31.090  32.155  1.00  0.00     0.022 A 
BRANCH  68  72
ATOM     72  S   UNL A   1      35.329  32.496  30.009  1.00  0.00     0.124 S 
ATOM     73  O   UNL A   1      34.405  32.750  31.112  1.00  0.00    -0.237 OA
ATOM     74  O   UNL A   1      36.143  33.628  29.582  1.00  0.00    -0.237 OA
ATOM     75  O   UNL A   1      34.790  31.671  28.929  1.00  0.00    -0.744 OA
ENDBRANCH  68  72
ENDBRANCH  51  65
BRANCH  52  76
ATOM     76  C   UNL A   1      46.828  27.428  25.568  1.00  0.00     0.023 A 
ATOM     77  C   UNL A   1      46.987  27.853  24.241  1.00  0.00     0.031 A 
ATOM     78  C   UNL A   1      47.802  26.568  26.107  1.00  0.00     0.131 A 
ATOM     79  C   UNL A   1      48.073  27.385  23.483  1.00  0.00     0.055 A 
ATOM     80  C   UNL A   1      48.907  26.146  25.366  1.00  0.00     0.041 A 
ATOM     81  F   UNL A   1      47.695  26.128  27.372  1.00  0.00    -0.206 F 
ATOM     82  C   UNL A   1      49.041  26.546  24.041  1.00  0.00     0.022 A 
BRANCH  79  83
ATOM     83  S   UNL A   1      48.161  27.825  21.725  1.00  0.00     0.124 S 
ATOM     84  O   UNL A   1      48.283  26.515  21.096  1.00  0.00    -0.237 OA
ATOM     85  O   UNL A   1      46.893  28.519  21.524  1.00  0.00    -0.237 OA
ATOM     86  O   UNL A   1      49.351  28.670  21.645  1.00  0.00    -0.744 OA
ENDBRANCH  79  83
ENDBRANCH  52  76
BRANCH  64  87
ATOM     87  C   UNL A   1      45.133  33.245  29.016  1.00  0.00     0.023 A 
ATOM     88  C   UNL A   1      45.051  34.334  28.133  1.00  0.00     0.031 A 
ATOM     89  C   UNL A   1      45.961  33.367  30.146  1.00  0.00     0.131 A 
ATOM     90  C   UNL A   1      45.824  35.481  28.367  1.00  0.00     0.055 A 
ATOM     91  C   UNL A   1      46.684  34.531  30.404  1.00  0.00     0.041 A 
ATOM     92  F   UNL A   1      46.078  32.354  31.021  1.00  0.00    -0.206 F 
ATOM     93  C   UNL A   1      46.628  35.592  29.505  1.00  0.00     0.022 A 
BRANCH  90  94
ATOM     94  S   UNL A   1      45.830  36.799  27.120  1.00  0.00     0.124 S 
ATOM     95  O   UNL A   1      46.405  36.119  25.964  1.00  0.00    -0.237 OA
ATOM     96  O   UNL A   1      44.414  37.140  27.019  1.00  0.00    -0.237 OA
ATOM     97  O   UNL A   1      46.674  37.832  27.716  1.00  0.00    -0.744 OA
ENDBRANCH  90  94
ENDBRANCH  64  87
ENDBRANCH  38  39
ENDBRANCH  31  33
ENDBRANCH  30  31
ENDBRANCH  29  30
ENDBRANCH   1  29
TORSDOF 20
ENDMDL
MODEL 3
REMARK VINA RESULT:     -11.5      4.962      7.770
REMARK SMILES O=C(/C=C/N[C@@H](Cc1c[nH]c2ccccc12)C(=O)OCCOC(=O)c1ccc(-c2c3nc(c(-c4cc(S(=O)(=O)[O-])ccc4F)c4ccc([nH]4)c(-c4cc(S(=O)(=O)[O-])ccc4F)c4nc(c(-c5cc(S(=O)(=O)[O-])ccc5F)c5ccc2[nH]5)C=C4)C=C3)cc1)c1ccccc1
REMARK SMILES IDX 20 1 19 2 17 3 18 4 6 5 5 6 4 8 3 9 2 10 1 11 88 12 89 13
REMARK SMILES IDX 93 14 90 15 92 16 91 17 7 18 8 19 9 20 16 21 10 22 11 23
REMARK SMILES IDX 15 24 12 26 14 27 13 28 21 29 22 30 23 31 24 32 25 33 26 34
REMARK SMILES IDX 87 35 27 36 86 37 28 38 29 39 30 40 80 41 31 42 85 43 79 44
REMARK SMILES IDX 81 45 32 46 84 47 78 48 77 49 33 51 65 52 45 53 64 54 46 55
REMARK SMILES IDX 49 56 63 57 82 58 47 59 48 60 62 62 83 63 50 64 34 65 35 66
REMARK SMILES IDX 43 67 36 68 42 69 44 70 41 71 37 72 38 73 39 74 40 75 66 76
REMARK SMILES IDX 67 77 75 78 68 79 74 80 76 81 73 82 69 83 70 84 71 85 72 86
REMARK SMILES IDX 51 87 52 88 60 89 53 90 59 91 61 92 58 93 54 94 55 95 56 96
REMARK SMILES IDX 57 97
REMARK H PARENT 5 7 10 25 81 50 49 61
REMARK Flexibility Score: inf
ROOT
ATOM      1  C   UNL A   1      31.746  29.550  25.822  1.00  0.00     0.274 C 
ENDROOT
BRANCH   1   2
ATOM      2  O   UNL A   1      31.142  29.932  24.577  1.00  0.00    -0.461 OA
BRANCH   2   3
ATOM      3  C   UNL A   1      30.398  28.990  23.921  1.00  0.00     0.329 C 
ATOM      4  O   UNL A   1      29.279  29.177  23.456  1.00  0.00    -0.250 OA
BRANCH   3   5
ATOM      5  C   UNL A   1      31.140  27.640  23.855  1.00  0.00     0.194 C 
BRANCH   5   6
ATOM      6  N   UNL A   1      30.188  26.524  23.734  1.00  0.00    -0.378 N 
ATOM      7  H   UNL A   1      29.563  26.575  22.975  1.00  0.00     0.160 HD
BRANCH   6   8
ATOM      8  C   UNL A   1      30.056  25.426  24.540  1.00  0.00     0.082 C 
ATOM      9  C   UNL A   1      30.855  25.134  25.575  1.00  0.00     0.070 C 
BRANCH   9  10
ATOM     10  C   UNL A   1      30.676  23.941  26.441  1.00  0.00     0.187 C 
ATOM     11  O   UNL A   1      29.720  23.903  27.212  1.00  0.00    -0.289 OA
BRANCH  10  12
ATOM     12  C   UNL A   1      31.644  22.816  26.358  1.00  0.00     0.022 A 
ATOM     13  C   UNL A   1      31.587  21.870  25.326  1.00  0.00     0.012 A 
ATOM     14  C   UNL A   1      32.651  22.725  27.324  1.00  0.00     0.012 A 
ATOM     15  C   UNL A   1      32.494  20.811  25.299  1.00  0.00     0.001 A 
ATOM     16  C   UNL A   1      33.567  21.673  27.281  1.00  0.00     0.001 A 
ATOM     17  C   UNL A   1      33.482  20.713  26.275  1.00  0.00     0.000 A 
ENDBRANCH  10  12
ENDBRANCH   9  10
ENDBRANCH   6   8
ENDBRANCH   5   6
BRANCH   5  18
ATOM     18  C   UNL A   1      32.173  27.648  22.718  1.00  0.00     0.074 C 
BRANCH  18  19
ATOM     19  C   UNL A   1      32.669  26.284  22.333  1.00  0.00    -0.020 A 
ATOM     20  C   UNL A   1      32.312  25.584  21.197  1.00  0.00     0.087 A 
ATOM     21  C   UNL A   1      33.530  25.431  23.093  1.00  0.00     0.003 A 
ATOM     22  N   UNL A   1      32.876  24.341  21.265  1.00  0.00    -0.361 N 
ATOM     23  C   UNL A   1      33.590  24.205  22.431  1.00  0.00     0.046 A 
ATOM     24  C   UNL A   1      34.225  25.570  24.311  1.00  0.00     0.010 A 
ATOM     25  H   UNL A   1      32.784  23.642  20.576  1.00  0.00     0.166 HD
ATOM     26  C   UNL A   1      34.274  23.099  22.950  1.00  0.00     0.026 A 
ATOM     27  C   UNL A   1      34.904  24.475  24.851  1.00  0.00     0.001 A 
ATOM     28  C   UNL A   1      34.917  23.254  24.183  1.00  0.00     0.002 A 
ENDBRANCH  18  19
ENDBRANCH   5  18
ENDBRANCH   3   5
ENDBRANCH   2   3
ENDBRANCH   1   2
BRANCH   1  29
ATOM     29  C   UNL A   1      32.945  30.453  26.109  1.00  0.00     0.275 C 
BRANCH  29  30
ATOM     30  O   UNL A   1      32.801  31.077  27.398  1.00  0.00    -0.458 OA
BRANCH  30  31
ATOM     31  C   UNL A   1      33.654  32.105  27.635  1.00  0.00     0.338 C 
ATOM     32  O   UNL A   1      33.416  33.297  27.572  1.00  0.00    -0.246 OA
BRANCH  31  33
ATOM     33  C   UNL A   1      34.931  31.550  28.105  1.00  0.00     0.060 A 
ATOM     34  C   UNL A   1      34.951  30.235  28.572  1.00  0.00     0.016 A 
ATOM     35  C   UNL A   1      36.083  32.335  28.147  1.00  0.00     0.016 A 
ATOM     36  C   UNL A   1      36.120  29.698  29.102  1.00  0.00     0.010 A 
ATOM     37  C   UNL A   1      37.261  31.792  28.670  1.00  0.00     0.010 A 
ATOM     38  C   UNL A   1      37.283  30.475  29.169  1.00  0.00    -0.014 A 
BRANCH  38  39
ATOM     39  C   UNL A   1      38.498  29.931  29.824  1.00  0.00     0.031 A 
ATOM     40  C   UNL A   1      38.901  30.439  31.181  1.00  0.00     0.074 A 
ATOM     41  C   UNL A   1      39.215  28.963  29.222  1.00  0.00     0.049 A 
ATOM     42  N   UNL A   1      39.939  30.123  31.910  1.00  0.00    -0.248 NA
ATOM     43  C   UNL A   1      38.005  31.426  31.806  1.00  0.00     0.031 C 
ATOM     44  C   UNL A   1      38.890  28.353  27.932  1.00  0.00     0.029 A 
ATOM     45  N   UNL A   1      40.367  28.326  29.612  1.00  0.00    -0.354 N 
ATOM     46  C   UNL A   1      39.824  30.865  33.080  1.00  0.00     0.074 A 
ATOM     47  C   UNL A   1      38.623  31.664  32.953  1.00  0.00     0.031 C 
ATOM     48  C   UNL A   1      39.824  27.436  27.634  1.00  0.00     0.029 A 
ATOM     49  C   UNL A   1      40.841  27.430  28.683  1.00  0.00     0.049 A 
ATOM     50  H   UNL A   1      40.811  28.496  30.474  1.00  0.00     0.167 HD
ATOM     51  C   UNL A   1      40.642  30.877  34.161  1.00  0.00     0.034 A 
ATOM     52  C   UNL A   1      41.984  26.715  28.662  1.00  0.00     0.034 A 
ATOM     53  C   UNL A   1      41.859  30.106  34.257  1.00  0.00     0.049 A 
ATOM     54  C   UNL A   1      42.943  26.843  29.818  1.00  0.00     0.074 A 
ATOM     55  C   UNL A   1      42.771  30.059  35.296  1.00  0.00     0.029 A 
ATOM     56  N   UNL A   1      42.343  29.262  33.266  1.00  0.00    -0.354 N 
ATOM     57  N   UNL A   1      42.825  27.557  30.915  1.00  0.00    -0.248 NA
ATOM     58  C   UNL A   1      44.190  26.070  29.733  1.00  0.00     0.031 C 
ATOM     59  C   UNL A   1      43.840  29.243  34.905  1.00  0.00     0.029 A 
ATOM     60  C   UNL A   1      43.560  28.720  33.653  1.00  0.00     0.049 A 
ATOM     61  H   UNL A   1      41.889  29.075  32.413  1.00  0.00     0.167 HD
ATOM     62  C   UNL A   1      43.973  27.299  31.659  1.00  0.00     0.074 A 
ATOM     63  C   UNL A   1      44.762  26.355  30.894  1.00  0.00     0.031 C 
ATOM     64  C   UNL A   1      44.341  27.793  32.869  1.00  0.00     0.034 A 
BRANCH  51  65
ATOM     65  C   UNL A   1      40.276  31.808  35.289  1.00  0.00     0.023 A 
ATOM     66  C   UNL A   1      39.357  31.436  36.285  1.00  0.00     0.031 A 
ATOM     67  C   UNL A   1      40.824  33.102  35.346  1.00  0.00     0.131 A 
ATOM     68  C   UNL A   1      38.965  32.370  37.256  1.00  0.00     0.055 A 
ATOM     69  C   UNL A   1      40.482  34.002  36.355  1.00  0.00     0.041 A 
ATOM     70  F   UNL A   1      41.689  33.519  34.406  1.00  0.00    -0.206 F 
ATOM     71  C   UNL A   1      39.537  33.643  37.311  1.00  0.00     0.022 A 
BRANCH  68  72
ATOM     72  S   UNL A   1      37.601  31.940  38.373  1.00  0.00     0.124 S 
ATOM     73  O   UNL A   1      36.613  32.960  38.032  1.00  0.00    -0.237 OA
ATOM     74  O   UNL A   1      37.280  30.576  37.969  1.00  0.00    -0.237 OA
ATOM     75  O   UNL A   1      38.193  32.074  39.703  1.00  0.00    -0.744 OA
ENDBRANCH  68  72
ENDBRANCH  51  65
BRANCH  52  76
ATOM     76  C   UNL A   1      42.323  25.868  27.482  1.00  0.00     0.023 A 
ATOM     77  C   UNL A   1      41.950  24.517  27.423  1.00  0.00     0.031 A 
ATOM     78  C   UNL A   1      43.077  26.391  26.415  1.00  0.00     0.131 A 
ATOM     79  C   UNL A   1      42.364  23.725  26.341  1.00  0.00     0.055 A 
ATOM     80  C   UNL A   1      43.443  25.612  25.317  1.00  0.00     0.041 A 
ATOM     81  F   UNL A   1      43.464  27.678  26.424  1.00  0.00    -0.206 F 
ATOM     82  C   UNL A   1      43.096  24.266  25.281  1.00  0.00     0.022 A 
BRANCH  79  83
ATOM     83  S   UNL A   1      42.001  21.947  26.374  1.00  0.00     0.124 S 
ATOM     84  O   UNL A   1      42.415  21.584  27.725  1.00  0.00    -0.237 OA
ATOM     85  O   UNL A   1      40.565  21.928  26.115  1.00  0.00    -0.237 OA
ATOM     86  O   UNL A   1      42.834  21.410  25.300  1.00  0.00    -0.744 OA
ENDBRANCH  79  83
ENDBRANCH  52  76
BRANCH  64  87
ATOM     87  C   UNL A   1      45.639  27.285  33.447  1.00  0.00     0.023 A 
ATOM     88  C   UNL A   1      45.690  26.128  34.243  1.00  0.00     0.031 A 
ATOM     89  C   UNL A   1      46.838  27.981  33.210  1.00  0.00     0.131 A 
ATOM     90  C   UNL A   1      46.906  25.730  34.818  1.00  0.00     0.055 A 
ATOM     91  C   UNL A   1      48.054  27.549  33.738  1.00  0.00     0.041 A 
ATOM     92  F   UNL A   1      46.844  29.094  32.458  1.00  0.00    -0.206 F 
ATOM     93  C   UNL A   1      48.091  26.425  34.557  1.00  0.00     0.022 A 
BRANCH  90  94
ATOM     94  S   UNL A   1      46.907  24.337  35.980  1.00  0.00     0.124 S 
ATOM     95  O   UNL A   1      47.089  25.011  37.261  1.00  0.00    -0.237 OA
ATOM     96  O   UNL A   1      45.595  23.740  35.754  1.00  0.00    -0.237 OA
ATOM     97  O   UNL A   1      48.040  23.525  35.540  1.00  0.00    -0.744 OA
ENDBRANCH  90  94
ENDBRANCH  64  87
ENDBRANCH  38  39
ENDBRANCH  31  33
ENDBRANCH  30  31
ENDBRANCH  29  30
ENDBRANCH   1  29
TORSDOF 20
ENDMDL
