MODEL 1
REMARK VINA RESULT:     -10.7      0.000      0.000
REMARK SMILES Cc1nc(CSCC(=O)N2CCCC[C@@H]2C(=O)OCCOC(=O)c2ccc(-c3c4nc(c(-c5cc(S(=O)(=O)[O-])ccc5F)c5ccc([nH]5)c(-c5cc(S(=O)(=O)[O-])ccc5F)c5nc(c(-c6cc(S(=O)(=O)[O-])ccc6F)c6ccc3[nH]6)C=C5)C=C4)cc2)cs1
REMARK SMILES IDX 19 1 18 2 16 3 17 4 15 5 10 6 11 7 12 8 14 9 13 10 8 11 9 12
REMARK SMILES IDX 7 13 6 14 5 15 4 16 1 17 2 18 3 19 88 20 87 21 20 22 21 23
REMARK SMILES IDX 22 24 23 25 24 26 25 27 86 28 26 29 85 30 27 31 28 32 29 33
REMARK SMILES IDX 79 34 30 35 84 36 78 37 80 38 31 39 83 40 77 41 76 42 32 44
REMARK SMILES IDX 64 45 44 46 63 47 45 48 48 49 62 50 81 51 46 52 47 53 61 55
REMARK SMILES IDX 82 56 49 57 33 58 34 59 42 60 35 61 41 62 43 63 40 64 36 65
REMARK SMILES IDX 37 66 38 67 39 68 65 69 66 70 74 71 67 72 73 73 75 74 72 75
REMARK SMILES IDX 68 76 69 77 70 78 71 79 50 80 51 81 59 82 52 83 58 84 60 85
REMARK SMILES IDX 57 86 53 87 54 88 55 89 56 90
REMARK H PARENT 80 43 48 54
REMARK Flexibility Score: inf
ROOT
ATOM      1  C   UNL A   1      31.095  31.553  26.135  1.00  0.00     0.274 C 
ENDROOT
BRANCH   1   2
ATOM      2  O   UNL A   1      31.781  30.422  26.706  1.00  0.00    -0.461 OA
BRANCH   2   3
ATOM      3  C   UNL A   1      32.464  29.641  25.828  1.00  0.00     0.328 C 
ATOM      4  O   UNL A   1      33.686  29.517  25.822  1.00  0.00    -0.250 OA
BRANCH   3   5
ATOM      5  C   UNL A   1      31.579  28.938  24.791  1.00  0.00     0.195 C 
ATOM      6  N   UNL A   1      31.036  27.644  25.224  1.00  0.00    -0.328 N 
ATOM      7  C   UNL A   1      30.095  26.974  24.342  1.00  0.00     0.120 C 
ATOM      8  C   UNL A   1      30.571  26.973  22.887  1.00  0.00     0.022 C 
ATOM      9  C   UNL A   1      32.102  28.910  23.359  1.00  0.00     0.037 C 
ATOM     10  C   UNL A   1      31.015  28.363  22.430  1.00  0.00     0.005 C 
BRANCH   6  11
ATOM     11  C   UNL A   1      31.563  26.972  26.315  1.00  0.00     0.233 C 
ATOM     12  O   UNL A   1      31.102  27.120  27.442  1.00  0.00    -0.274 OA
BRANCH  11  13
ATOM     13  C   UNL A   1      32.713  26.037  25.926  1.00  0.00     0.170 C 
BRANCH  13  14
ATOM     14  S   UNL A   1      32.204  24.315  25.617  1.00  0.00    -0.146 SA
BRANCH  14  15
ATOM     15  C   UNL A   1      33.362  23.458  26.730  1.00  0.00     0.127 C 
BRANCH  15  16
ATOM     16  C   UNL A   1      34.416  22.704  25.990  1.00  0.00     0.061 A 
ATOM     17  C   UNL A   1      36.656  22.856  23.121  1.00  0.00     0.079 C 
ATOM     18  C   UNL A   1      35.909  22.522  24.360  1.00  0.00     0.090 A 
ATOM     19  N   UNL A   1      34.984  23.297  24.872  1.00  0.00    -0.246 NA
ATOM     20  S   UNL A   1      36.203  21.064  25.215  1.00  0.00    -0.127 S 
ATOM     21  C   UNL A   1      34.982  21.493  26.342  1.00  0.00     0.091 A 
ENDBRANCH  15  16
ENDBRANCH  14  15
ENDBRANCH  13  14
ENDBRANCH  11  13
ENDBRANCH   6  11
ENDBRANCH   3   5
ENDBRANCH   2   3
ENDBRANCH   1   2
BRANCH   1  22
ATOM     22  C   UNL A   1      31.670  32.904  26.584  1.00  0.00     0.275 C 
BRANCH  22  23
ATOM     23  O   UNL A   1      32.446  32.812  27.793  1.00  0.00    -0.458 OA
BRANCH  23  24
ATOM     24  C   UNL A   1      33.482  33.680  27.860  1.00  0.00     0.338 C 
ATOM     25  O   UNL A   1      33.408  34.904  27.821  1.00  0.00    -0.246 OA
BRANCH  24  26
ATOM     26  C   UNL A   1      34.740  32.984  28.175  1.00  0.00     0.060 A 
ATOM     27  C   UNL A   1      34.646  31.637  28.543  1.00  0.00     0.016 A 
ATOM     28  C   UNL A   1      35.969  33.642  28.225  1.00  0.00     0.016 A 
ATOM     29  C   UNL A   1      35.761  30.943  28.986  1.00  0.00     0.010 A 
ATOM     30  C   UNL A   1      37.091  32.951  28.695  1.00  0.00     0.010 A 
ATOM     31  C   UNL A   1      36.982  31.609  29.104  1.00  0.00    -0.014 A 
BRANCH  31  32
ATOM     32  C   UNL A   1      38.080  30.940  29.839  1.00  0.00     0.031 A 
ATOM     33  C   UNL A   1      38.305  31.304  31.279  1.00  0.00     0.074 A 
ATOM     34  C   UNL A   1      38.797  29.964  29.259  1.00  0.00     0.049 A 
ATOM     35  N   UNL A   1      39.236  30.906  32.104  1.00  0.00    -0.248 NA
ATOM     36  C   UNL A   1      37.337  32.246  31.864  1.00  0.00     0.031 C 
ATOM     37  C   UNL A   1      38.583  29.451  27.907  1.00  0.00     0.029 A 
ATOM     38  N   UNL A   1      39.842  29.222  29.742  1.00  0.00    -0.354 N 
ATOM     39  C   UNL A   1      38.979  31.561  33.305  1.00  0.00     0.074 A 
ATOM     40  C   UNL A   1      37.822  32.404  33.084  1.00  0.00     0.031 C 
ATOM     41  C   UNL A   1      39.473  28.472  27.668  1.00  0.00     0.029 A 
ATOM     42  C   UNL A   1      40.350  28.330  28.828  1.00  0.00     0.049 A 
ATOM     43  H   UNL A   1      40.195  29.316  30.656  1.00  0.00     0.167 HD
ATOM     44  C   UNL A   1      39.646  31.462  34.482  1.00  0.00     0.034 A 
ATOM     45  C   UNL A   1      41.422  27.520  28.912  1.00  0.00     0.034 A 
ATOM     46  C   UNL A   1      40.809  30.626  34.667  1.00  0.00     0.049 A 
ATOM     47  C   UNL A   1      42.239  27.531  30.180  1.00  0.00     0.074 A 
ATOM     48  C   UNL A   1      41.593  30.467  35.796  1.00  0.00     0.029 A 
ATOM     49  N   UNL A   1      41.362  29.813  33.683  1.00  0.00    -0.354 N 
ATOM     50  N   UNL A   1      42.033  28.201  31.291  1.00  0.00    -0.248 NA
ATOM     51  C   UNL A   1      43.438  26.686  30.197  1.00  0.00     0.031 C 
ATOM     52  C   UNL A   1      42.654  29.612  35.475  1.00  0.00     0.029 A 
ATOM     53  C   UNL A   1      42.495  29.177  34.168  1.00  0.00     0.049 A 
ATOM     54  H   UNL A   1      41.002  29.704  32.774  1.00  0.00     0.167 HD
ATOM     55  C   UNL A   1      43.065  27.837  32.151  1.00  0.00     0.074 A 
ATOM     56  C   UNL A   1      43.886  26.882  31.430  1.00  0.00     0.031 C 
ATOM     57  C   UNL A   1      43.311  28.245  33.423  1.00  0.00     0.034 A 
BRANCH  44  58
ATOM     58  C   UNL A   1      39.170  32.346  35.611  1.00  0.00     0.023 A 
ATOM     59  C   UNL A   1      39.547  33.699  35.702  1.00  0.00     0.031 A 
ATOM     60  C   UNL A   1      38.412  31.805  36.664  1.00  0.00     0.131 A 
ATOM     61  C   UNL A   1      39.256  34.431  36.865  1.00  0.00     0.055 A 
ATOM     62  C   UNL A   1      38.046  32.565  37.776  1.00  0.00     0.041 A 
ATOM     63  F   UNL A   1      38.042  30.515  36.647  1.00  0.00    -0.206 F 
ATOM     64  C   UNL A   1      38.488  33.880  37.892  1.00  0.00     0.022 A 
BRANCH  61  65
ATOM     65  S   UNL A   1      40.065  36.039  37.099  1.00  0.00     0.124 S 
ATOM     66  O   UNL A   1      39.823  36.682  35.810  1.00  0.00    -0.237 OA
ATOM     67  O   UNL A   1      39.341  36.593  38.236  1.00  0.00    -0.237 OA
ATOM     68  O   UNL A   1      41.460  35.686  37.356  1.00  0.00    -0.744 OA
ENDBRANCH  61  65
ENDBRANCH  44  58
BRANCH  45  69
ATOM     69  C   UNL A   1      41.818  26.674  27.753  1.00  0.00     0.023 A 
ATOM     70  C   UNL A   1      41.485  25.312  27.704  1.00  0.00     0.031 A 
ATOM     71  C   UNL A   1      42.558  27.212  26.685  1.00  0.00     0.131 A 
ATOM     72  C   UNL A   1      41.914  24.526  26.622  1.00  0.00     0.055 A 
ATOM     73  C   UNL A   1      42.946  26.438  25.590  1.00  0.00     0.041 A 
ATOM     74  F   UNL A   1      42.905  28.510  26.684  1.00  0.00    -0.206 F 
ATOM     75  C   UNL A   1      42.630  25.083  25.559  1.00  0.00     0.022 A 
BRANCH  72  76
ATOM     76  S   UNL A   1      41.564  22.747  26.647  1.00  0.00     0.124 S 
ATOM     77  O   UNL A   1      42.288  22.319  27.839  1.00  0.00    -0.237 OA
ATOM     78  O   UNL A   1      40.108  22.725  26.737  1.00  0.00    -0.237 OA
ATOM     79  O   UNL A   1      42.114  22.274  25.378  1.00  0.00    -0.744 OA
ENDBRANCH  72  76
ENDBRANCH  45  69
BRANCH  57  80
ATOM     80  C   UNL A   1      44.496  27.622  34.118  1.00  0.00     0.023 A 
ATOM     81  C   UNL A   1      44.376  26.444  34.874  1.00  0.00     0.031 A 
ATOM     82  C   UNL A   1      45.761  28.232  34.036  1.00  0.00     0.131 A 
ATOM     83  C   UNL A   1      45.489  25.941  35.565  1.00  0.00     0.055 A 
ATOM     84  C   UNL A   1      46.878  27.695  34.678  1.00  0.00     0.041 A 
ATOM     85  F   UNL A   1      45.930  29.361  33.328  1.00  0.00    -0.206 F 
ATOM     86  C   UNL A   1      46.742  26.551  35.459  1.00  0.00     0.022 A 
BRANCH  83  87
ATOM     87  S   UNL A   1      45.260  24.527  36.677  1.00  0.00     0.124 S 
ATOM     88  O   UNL A   1      44.146  24.973  37.508  1.00  0.00    -0.237 OA
ATOM     89  O   UNL A   1      44.968  23.441  35.747  1.00  0.00    -0.237 OA
ATOM     90  O   UNL A   1      46.544  24.422  37.368  1.00  0.00    -0.744 OA
ENDBRANCH  83  87
ENDBRANCH  57  80
ENDBRANCH  31  32
ENDBRANCH  24  26
ENDBRANCH  23  24
ENDBRANCH  22  23
ENDBRANCH   1  22
TORSDOF 19
ENDMDL
MODEL 2
REMARK VINA RESULT:     -10.7      4.986      7.816
REMARK SMILES Cc1nc(CSCC(=O)N2CCCC[C@@H]2C(=O)OCCOC(=O)c2ccc(-c3c4nc(c(-c5cc(S(=O)(=O)[O-])ccc5F)c5ccc([nH]5)c(-c5cc(S(=O)(=O)[O-])ccc5F)c5nc(c(-c6cc(S(=O)(=O)[O-])ccc6F)c6ccc3[nH]6)C=C5)C=C4)cc2)cs1
REMARK SMILES IDX 19 1 18 2 16 3 17 4 15 5 10 6 11 7 12 8 14 9 13 10 8 11 9 12
REMARK SMILES IDX 7 13 6 14 5 15 4 16 1 17 2 18 3 19 88 20 87 21 20 22 21 23
REMARK SMILES IDX 22 24 23 25 24 26 25 27 86 28 26 29 85 30 27 31 28 32 29 33
REMARK SMILES IDX 79 34 30 35 84 36 78 37 80 38 31 39 83 40 77 41 76 42 32 44
REMARK SMILES IDX 64 45 44 46 63 47 45 48 48 49 62 50 81 51 46 52 47 53 61 55
REMARK SMILES IDX 82 56 49 57 33 58 34 59 42 60 35 61 41 62 43 63 40 64 36 65
REMARK SMILES IDX 37 66 38 67 39 68 65 69 66 70 74 71 67 72 73 73 75 74 72 75
REMARK SMILES IDX 68 76 69 77 70 78 71 79 50 80 51 81 59 82 52 83 58 84 60 85
REMARK SMILES IDX 57 86 53 87 54 88 55 89 56 90
REMARK H PARENT 80 43 48 54
REMARK Flexibility Score: inf
ROOT
ATOM      1  C   UNL A   1      36.604  22.932  23.650  1.00  0.00     0.274 C 
ENDROOT
BRANCH   1   2
ATOM      2  O   UNL A   1      35.357  23.476  24.124  1.00  0.00    -0.461 OA
BRANCH   2   3
ATOM      3  C   UNL A   1      34.497  23.906  23.164  1.00  0.00     0.328 C 
ATOM      4  O   UNL A   1      34.327  23.338  22.087  1.00  0.00    -0.250 OA
BRANCH   3   5
ATOM      5  C   UNL A   1      33.763  25.206  23.512  1.00  0.00     0.195 C 
ATOM      6  N   UNL A   1      32.549  25.029  24.319  1.00  0.00    -0.328 N 
ATOM      7  C   UNL A   1      31.865  26.222  24.787  1.00  0.00     0.120 C 
ATOM      8  C   UNL A   1      31.707  27.267  23.679  1.00  0.00     0.022 C 
ATOM      9  C   UNL A   1      33.577  26.206  22.377  1.00  0.00     0.037 C 
ATOM     10  C   UNL A   1      33.021  27.518  22.938  1.00  0.00     0.005 C 
BRANCH   6  11
ATOM     11  C   UNL A   1      31.943  23.789  24.443  1.00  0.00     0.233 C 
ATOM     12  O   UNL A   1      31.388  23.250  23.492  1.00  0.00    -0.274 OA
BRANCH  11  13
ATOM     13  C   UNL A   1      32.094  23.203  25.851  1.00  0.00     0.170 C 
BRANCH  13  14
ATOM     14  S   UNL A   1      33.243  21.792  25.953  1.00  0.00    -0.146 SA
BRANCH  14  15
ATOM     15  C   UNL A   1      32.198  20.503  25.204  1.00  0.00     0.127 C 
BRANCH  15  16
ATOM     16  C   UNL A   1      32.910  19.200  25.061  1.00  0.00     0.061 A 
ATOM     17  C   UNL A   1      32.591  15.613  25.615  1.00  0.00     0.079 C 
ATOM     18  C   UNL A   1      32.999  16.990  25.239  1.00  0.00     0.090 A 
ATOM     19  N   UNL A   1      32.252  18.045  25.458  1.00  0.00    -0.246 NA
ATOM     20  S   UNL A   1      34.509  17.302  24.487  1.00  0.00    -0.127 S 
ATOM     21  C   UNL A   1      34.144  18.979  24.479  1.00  0.00     0.091 A 
ENDBRANCH  15  16
ENDBRANCH  14  15
ENDBRANCH  13  14
ENDBRANCH  11  13
ENDBRANCH   6  11
ENDBRANCH   3   5
ENDBRANCH   2   3
ENDBRANCH   1   2
BRANCH   1  22
ATOM     22  C   UNL A   1      36.936  21.557  24.247  1.00  0.00     0.275 C 
BRANCH  22  23
ATOM     23  O   UNL A   1      37.289  21.619  25.641  1.00  0.00    -0.458 OA
BRANCH  23  24
ATOM     24  C   UNL A   1      38.598  21.387  25.896  1.00  0.00     0.338 C 
ATOM     25  O   UNL A   1      39.259  20.435  25.494  1.00  0.00    -0.246 OA
BRANCH  24  26
ATOM     26  C   UNL A   1      39.216  22.532  26.584  1.00  0.00     0.060 A 
ATOM     27  C   UNL A   1      38.691  23.799  26.309  1.00  0.00     0.016 A 
ATOM     28  C   UNL A   1      40.348  22.399  27.389  1.00  0.00     0.016 A 
ATOM     29  C   UNL A   1      39.297  24.942  26.805  1.00  0.00     0.010 A 
ATOM     30  C   UNL A   1      40.977  23.553  27.872  1.00  0.00     0.010 A 
ATOM     31  C   UNL A   1      40.469  24.826  27.556  1.00  0.00    -0.014 A 
BRANCH  31  32
ATOM     32  C   UNL A   1      41.250  26.053  27.833  1.00  0.00     0.031 A 
ATOM     33  C   UNL A   1      40.607  27.145  28.640  1.00  0.00     0.074 A 
ATOM     34  C   UNL A   1      42.535  26.148  27.453  1.00  0.00     0.049 A 
ATOM     35  N   UNL A   1      41.062  28.328  28.954  1.00  0.00    -0.248 NA
ATOM     36  C   UNL A   1      39.265  26.852  29.166  1.00  0.00     0.031 C 
ATOM     37  C   UNL A   1      43.291  25.100  26.770  1.00  0.00     0.029 A 
ATOM     38  N   UNL A   1      43.432  27.172  27.601  1.00  0.00    -0.354 N 
ATOM     39  C   UNL A   1      40.056  28.932  29.703  1.00  0.00     0.074 A 
ATOM     40  C   UNL A   1      38.957  27.990  29.765  1.00  0.00     0.031 C 
ATOM     41  C   UNL A   1      44.545  25.537  26.559  1.00  0.00     0.029 A 
ATOM     42  C   UNL A   1      44.660  26.910  27.042  1.00  0.00     0.049 A 
ATOM     43  H   UNL A   1      43.220  28.014  28.065  1.00  0.00     0.167 HD
ATOM     44  C   UNL A   1      40.054  30.157  30.286  1.00  0.00     0.034 A 
ATOM     45  C   UNL A   1      45.738  27.707  26.906  1.00  0.00     0.034 A 
ATOM     46  C   UNL A   1      41.159  31.082  30.191  1.00  0.00     0.049 A 
ATOM     47  C   UNL A   1      45.665  29.118  27.434  1.00  0.00     0.074 A 
ATOM     48  C   UNL A   1      41.265  32.362  30.705  1.00  0.00     0.029 A 
ATOM     49  N   UNL A   1      42.351  30.824  29.523  1.00  0.00    -0.354 N 
ATOM     50  N   UNL A   1      44.687  29.709  28.083  1.00  0.00    -0.248 NA
ATOM     51  C   UNL A   1      46.837  29.969  27.200  1.00  0.00     0.031 C 
ATOM     52  C   UNL A   1      42.491  32.899  30.292  1.00  0.00     0.029 A 
ATOM     53  C   UNL A   1      43.184  31.931  29.582  1.00  0.00     0.049 A 
ATOM     54  H   UNL A   1      42.573  29.977  29.072  1.00  0.00     0.167 HD
ATOM     55  C   UNL A   1      45.138  30.997  28.358  1.00  0.00     0.074 A 
ATOM     56  C   UNL A   1      46.478  31.091  27.810  1.00  0.00     0.031 C 
ATOM     57  C   UNL A   1      44.509  32.009  29.009  1.00  0.00     0.034 A 
BRANCH  44  58
ATOM     58  C   UNL A   1      38.786  30.572  30.994  1.00  0.00     0.023 A 
ATOM     59  C   UNL A   1      37.670  31.060  30.288  1.00  0.00     0.031 A 
ATOM     60  C   UNL A   1      38.726  30.576  32.398  1.00  0.00     0.131 A 
ATOM     61  C   UNL A   1      36.591  31.625  30.988  1.00  0.00     0.055 A 
ATOM     62  C   UNL A   1      37.611  31.055  33.088  1.00  0.00     0.041 A 
ATOM     63  F   UNL A   1      39.768  30.146  33.128  1.00  0.00    -0.206 F 
ATOM     64  C   UNL A   1      36.544  31.604  32.383  1.00  0.00     0.022 A 
BRANCH  61  65
ATOM     65  S   UNL A   1      35.351  32.564  30.052  1.00  0.00     0.124 S 
ATOM     66  O   UNL A   1      34.995  31.616  28.999  1.00  0.00    -0.237 OA
ATOM     67  O   UNL A   1      34.326  32.819  31.056  1.00  0.00    -0.237 OA
ATOM     68  O   UNL A   1      36.087  33.741  29.594  1.00  0.00    -0.744 OA
ENDBRANCH  61  65
ENDBRANCH  44  58
BRANCH  45  69
ATOM     69  C   UNL A   1      46.952  27.215  26.200  1.00  0.00     0.023 A 
ATOM     70  C   UNL A   1      47.968  26.539  26.893  1.00  0.00     0.031 A 
ATOM     71  C   UNL A   1      47.127  27.435  24.822  1.00  0.00     0.131 A 
ATOM     72  C   UNL A   1      49.125  26.129  26.212  1.00  0.00     0.055 A 
ATOM     73  C   UNL A   1      48.259  26.988  24.140  1.00  0.00     0.041 A 
ATOM     74  F   UNL A   1      46.185  28.080  24.113  1.00  0.00    -0.206 F 
ATOM     75  C   UNL A   1      49.271  26.337  24.838  1.00  0.00     0.022 A 
BRANCH  72  76
ATOM     76  S   UNL A   1      50.466  25.360  27.161  1.00  0.00     0.124 S 
ATOM     77  O   UNL A   1      50.858  26.444  28.054  1.00  0.00    -0.237 OA
ATOM     78  O   UNL A   1      49.787  24.229  27.784  1.00  0.00    -0.237 OA
ATOM     79  O   UNL A   1      51.448  25.007  26.137  1.00  0.00    -0.744 OA
ENDBRANCH  72  76
ENDBRANCH  45  69
BRANCH  57  80
ATOM     80  C   UNL A   1      45.290  33.286  29.193  1.00  0.00     0.023 A 
ATOM     81  C   UNL A   1      45.233  34.330  28.254  1.00  0.00     0.031 A 
ATOM     82  C   UNL A   1      46.118  33.450  30.318  1.00  0.00     0.131 A 
ATOM     83  C   UNL A   1      46.034  35.470  28.427  1.00  0.00     0.055 A 
ATOM     84  C   UNL A   1      46.868  34.610  30.514  1.00  0.00     0.041 A 
ATOM     85  F   UNL A   1      46.210  32.483  31.245  1.00  0.00    -0.206 F 
ATOM     86  C   UNL A   1      46.839  35.622  29.559  1.00  0.00     0.022 A 
BRANCH  83  87
ATOM     87  S   UNL A   1      46.078  36.714  27.108  1.00  0.00     0.124 S 
ATOM     88  O   UNL A   1      46.915  37.753  27.700  1.00  0.00    -0.237 OA
ATOM     89  O   UNL A   1      46.670  35.973  25.999  1.00  0.00    -0.237 OA
ATOM     90  O   UNL A   1      44.674  37.076  26.932  1.00  0.00    -0.744 OA
ENDBRANCH  83  87
ENDBRANCH  57  80
ENDBRANCH  31  32
ENDBRANCH  24  26
ENDBRANCH  23  24
ENDBRANCH  22  23
ENDBRANCH   1  22
TORSDOF 19
ENDMDL
MODEL 3
REMARK VINA RESULT:     -10.6      4.873      8.205
REMARK SMILES Cc1nc(CSCC(=O)N2CCCC[C@@H]2C(=O)OCCOC(=O)c2ccc(-c3c4nc(c(-c5cc(S(=O)(=O)[O-])ccc5F)c5ccc([nH]5)c(-c5cc(S(=O)(=O)[O-])ccc5F)c5nc(c(-c6cc(S(=O)(=O)[O-])ccc6F)c6ccc3[nH]6)C=C5)C=C4)cc2)cs1
REMARK SMILES IDX 19 1 18 2 16 3 17 4 15 5 10 6 11 7 12 8 14 9 13 10 8 11 9 12
REMARK SMILES IDX 7 13 6 14 5 15 4 16 1 17 2 18 3 19 88 20 87 21 20 22 21 23
REMARK SMILES IDX 22 24 23 25 24 26 25 27 86 28 26 29 85 30 27 31 28 32 29 33
REMARK SMILES IDX 79 34 30 35 84 36 78 37 80 38 31 39 83 40 77 41 76 42 32 44
REMARK SMILES IDX 64 45 44 46 63 47 45 48 48 49 62 50 81 51 46 52 47 53 61 55
REMARK SMILES IDX 82 56 49 57 33 58 34 59 42 60 35 61 41 62 43 63 40 64 36 65
REMARK SMILES IDX 37 66 38 67 39 68 65 69 66 70 74 71 67 72 73 73 75 74 72 75
REMARK SMILES IDX 68 76 69 77 70 78 71 79 50 80 51 81 59 82 52 83 58 84 60 85
REMARK SMILES IDX 57 86 53 87 54 88 55 89 56 90
REMARK H PARENT 80 43 48 54
REMARK Flexibility Score: inf
ROOT
ATOM      1  C   UNL A   1      35.635  20.842  24.956  1.00  0.00     0.274 C 
ENDROOT
BRANCH   1   2
ATOM      2  O   UNL A   1      35.443  22.050  24.194  1.00  0.00    -0.461 OA
BRANCH   2   3
ATOM      3  C   UNL A   1      35.026  23.133  24.901  1.00  0.00     0.328 C 
ATOM      4  O   UNL A   1      35.774  24.015  25.317  1.00  0.00    -0.250 OA
BRANCH   3   5
ATOM      5  C   UNL A   1      33.519  23.157  25.185  1.00  0.00     0.195 C 
ATOM      6  N   UNL A   1      32.698  23.706  24.098  1.00  0.00    -0.328 N 
ATOM      7  C   UNL A   1      31.254  23.654  24.245  1.00  0.00     0.120 C 
ATOM      8  C   UNL A   1      30.801  24.110  25.634  1.00  0.00     0.022 C 
ATOM      9  C   UNL A   1      33.095  23.663  26.559  1.00  0.00     0.037 C 
ATOM     10  C   UNL A   1      31.594  23.426  26.748  1.00  0.00     0.005 C 
BRANCH   6  11
ATOM     11  C   UNL A   1      33.265  24.452  23.075  1.00  0.00     0.233 C 
ATOM     12  O   UNL A   1      33.541  23.947  21.993  1.00  0.00    -0.274 OA
BRANCH  11  13
ATOM     13  C   UNL A   1      33.447  25.924  23.459  1.00  0.00     0.170 C 
BRANCH  13  14
ATOM     14  S   UNL A   1      32.065  27.002  22.958  1.00  0.00    -0.146 SA
BRANCH  14  15
ATOM     15  C   UNL A   1      32.850  28.626  23.204  1.00  0.00     0.127 C 
BRANCH  15  16
ATOM     16  C   UNL A   1      32.827  29.063  24.631  1.00  0.00     0.061 A 
ATOM     17  C   UNL A   1      34.855  29.321  27.647  1.00  0.00     0.079 C 
ATOM     18  C   UNL A   1      33.811  29.384  26.594  1.00  0.00     0.090 A 
ATOM     19  N   UNL A   1      33.989  28.928  25.377  1.00  0.00    -0.246 NA
ATOM     20  S   UNL A   1      32.266  30.061  26.905  1.00  0.00    -0.127 S 
ATOM     21  C   UNL A   1      31.792  29.692  25.298  1.00  0.00     0.091 A 
ENDBRANCH  15  16
ENDBRANCH  14  15
ENDBRANCH  13  14
ENDBRANCH  11  13
ENDBRANCH   6  11
ENDBRANCH   3   5
ENDBRANCH   2   3
ENDBRANCH   1   2
BRANCH   1  22
ATOM     22  C   UNL A   1      37.089  20.348  24.961  1.00  0.00     0.275 C 
BRANCH  22  23
ATOM     23  O   UNL A   1      38.044  21.416  25.108  1.00  0.00    -0.458 OA
BRANCH  23  24
ATOM     24  C   UNL A   1      39.081  21.128  25.930  1.00  0.00     0.338 C 
ATOM     25  O   UNL A   1      39.655  20.048  26.023  1.00  0.00    -0.246 OA
BRANCH  24  26
ATOM     26  C   UNL A   1      39.584  22.340  26.596  1.00  0.00     0.060 A 
ATOM     27  C   UNL A   1      39.108  23.569  26.124  1.00  0.00     0.016 A 
ATOM     28  C   UNL A   1      40.575  22.299  27.576  1.00  0.00     0.016 A 
ATOM     29  C   UNL A   1      39.629  24.761  26.600  1.00  0.00     0.010 A 
ATOM     30  C   UNL A   1      41.120  23.502  28.041  1.00  0.00     0.010 A 
ATOM     31  C   UNL A   1      40.669  24.733  27.532  1.00  0.00    -0.014 A 
BRANCH  31  32
ATOM     32  C   UNL A   1      41.397  25.991  27.812  1.00  0.00     0.031 A 
ATOM     33  C   UNL A   1      40.699  27.062  28.601  1.00  0.00     0.074 A 
ATOM     34  C   UNL A   1      42.683  26.134  27.451  1.00  0.00     0.049 A 
ATOM     35  N   UNL A   1      41.103  28.265  28.913  1.00  0.00    -0.248 NA
ATOM     36  C   UNL A   1      39.361  26.720  29.109  1.00  0.00     0.031 C 
ATOM     37  C   UNL A   1      43.490  25.112  26.787  1.00  0.00     0.029 A 
ATOM     38  N   UNL A   1      43.537  27.193  27.605  1.00  0.00    -0.354 N 
ATOM     39  C   UNL A   1      40.062  28.834  29.642  1.00  0.00     0.074 A 
ATOM     40  C   UNL A   1      39.001  27.850  29.695  1.00  0.00     0.031 C 
ATOM     41  C   UNL A   1      44.728  25.596  26.591  1.00  0.00     0.029 A 
ATOM     42  C   UNL A   1      44.782  26.976  27.065  1.00  0.00     0.049 A 
ATOM     43  H   UNL A   1      43.284  28.030  28.059  1.00  0.00     0.167 HD
ATOM     44  C   UNL A   1      40.004  30.061  30.217  1.00  0.00     0.034 A 
ATOM     45  C   UNL A   1      45.830  27.814  26.940  1.00  0.00     0.034 A 
ATOM     46  C   UNL A   1      41.073  31.028  30.131  1.00  0.00     0.049 A 
ATOM     47  C   UNL A   1      45.693  29.224  27.456  1.00  0.00     0.074 A 
ATOM     48  C   UNL A   1      41.121  32.315  30.637  1.00  0.00     0.029 A 
ATOM     49  N   UNL A   1      42.284  30.813  29.483  1.00  0.00    -0.354 N 
ATOM     50  N   UNL A   1      44.684  29.781  28.087  1.00  0.00    -0.248 NA
ATOM     51  C   UNL A   1      46.834  30.120  27.234  1.00  0.00     0.031 C 
ATOM     52  C   UNL A   1      42.331  32.898  30.238  1.00  0.00     0.029 A 
ATOM     53  C   UNL A   1      43.072  31.952  29.546  1.00  0.00     0.049 A 
ATOM     54  H   UNL A   1      42.545  29.972  29.042  1.00  0.00     0.167 HD
ATOM     55  C   UNL A   1      45.079  31.087  28.358  1.00  0.00     0.074 A 
ATOM     56  C   UNL A   1      46.423  31.230  27.830  1.00  0.00     0.031 C 
ATOM     57  C   UNL A   1      44.401  32.079  28.993  1.00  0.00     0.034 A 
BRANCH  44  58
ATOM     58  C   UNL A   1      38.709  30.431  30.902  1.00  0.00     0.023 A 
ATOM     59  C   UNL A   1      37.740  31.234  30.271  1.00  0.00     0.031 A 
ATOM     60  C   UNL A   1      38.485  30.062  32.239  1.00  0.00     0.131 A 
ATOM     61  C   UNL A   1      36.649  31.724  31.007  1.00  0.00     0.055 A 
ATOM     62  C   UNL A   1      37.350  30.477  32.939  1.00  0.00     0.041 A 
ATOM     63  F   UNL A   1      39.384  29.318  32.903  1.00  0.00    -0.206 F 
ATOM     64  C   UNL A   1      36.436  31.332  32.331  1.00  0.00     0.022 A 
BRANCH  61  65
ATOM     65  S   UNL A   1      35.630  33.035  30.274  1.00  0.00     0.124 S 
ATOM     66  O   UNL A   1      36.385  33.354  29.064  1.00  0.00    -0.237 OA
ATOM     67  O   UNL A   1      34.352  32.365  30.073  1.00  0.00    -0.237 OA
ATOM     68  O   UNL A   1      35.635  34.082  31.293  1.00  0.00    -0.744 OA
ENDBRANCH  61  65
ENDBRANCH  44  58
BRANCH  45  69
ATOM     69  C   UNL A   1      47.073  27.365  26.256  1.00  0.00     0.023 A 
ATOM     70  C   UNL A   1      48.128  26.786  26.979  1.00  0.00     0.031 A 
ATOM     71  C   UNL A   1      47.236  27.530  24.869  1.00  0.00     0.131 A 
ATOM     72  C   UNL A   1      49.309  26.417  26.316  1.00  0.00     0.055 A 
ATOM     73  C   UNL A   1      48.394  27.123  24.207  1.00  0.00     0.041 A 
ATOM     74  F   UNL A   1      46.257  28.082  24.132  1.00  0.00    -0.206 F 
ATOM     75  C   UNL A   1      49.443  26.569  24.933  1.00  0.00     0.022 A 
BRANCH  72  76
ATOM     76  S   UNL A   1      50.693  25.778  27.297  1.00  0.00     0.124 S 
ATOM     77  O   UNL A   1      50.680  26.673  28.448  1.00  0.00    -0.237 OA
ATOM     78  O   UNL A   1      50.277  24.402  27.549  1.00  0.00    -0.237 OA
ATOM     79  O   UNL A   1      51.841  25.924  26.403  1.00  0.00    -0.744 OA
ENDBRANCH  72  76
ENDBRANCH  45  69
BRANCH  57  80
ATOM     80  C   UNL A   1      45.129  33.387  29.179  1.00  0.00     0.023 A 
ATOM     81  C   UNL A   1      44.897  34.489  28.338  1.00  0.00     0.031 A 
ATOM     82  C   UNL A   1      46.082  33.523  30.204  1.00  0.00     0.131 A 
ATOM     83  C   UNL A   1      45.651  35.662  28.500  1.00  0.00     0.055 A 
ATOM     84  C   UNL A   1      46.787  34.712  30.397  1.00  0.00     0.041 A 
ATOM     85  F   UNL A   1      46.343  32.501  31.034  1.00  0.00    -0.206 F 
ATOM     86  C   UNL A   1      46.583  35.785  29.534  1.00  0.00     0.022 A 
BRANCH  83  87
ATOM     87  S   UNL A   1      45.460  36.996  27.286  1.00  0.00     0.124 S 
ATOM     88  O   UNL A   1      44.128  36.731  26.752  1.00  0.00    -0.237 OA
ATOM     89  O   UNL A   1      45.590  38.191  28.113  1.00  0.00    -0.237 OA
ATOM     90  O   UNL A   1      46.560  36.768  26.351  1.00  0.00    -0.744 OA
ENDBRANCH  83  87
ENDBRANCH  57  80
ENDBRANCH  31  32
ENDBRANCH  24  26
ENDBRANCH  23  24
ENDBRANCH  22  23
ENDBRANCH   1  22
TORSDOF 19
ENDMDL
