MODEL 1
REMARK VINA RESULT:     -13.6      0.000      0.000
REMARK SMILES CCc1ccc(-c2cc(Cl)cc3c2O[C@H](C(F)(F)F)C(C(=O)OCCOC(=O)c2ccc(-c4c5nc(c(-c6cc(S(=O)(=O)[O-])ccc6F)c6ccc([nH]6)c(-c6cc(S(=O)(=O)[O-])ccc6F)c6nc(c(-c7cc(S(=O)(=O)[O-])ccc7F)c7ccc4[nH]7)C=C6)C=C5)cc2)=C3)cc1
REMARK SMILES IDX 25 1 24 2 23 3 21 4 22 5 20 6 7 7 8 8 13 9 9 10 12 11 14 12
REMARK SMILES IDX 10 13 11 14 92 15 15 16 6 17 3 18 4 19 94 20 5 21 93 22 2 23
REMARK SMILES IDX 1 24 16 25 17 26 18 27 19 28 26 29 27 30 28 31 29 32 30 33
REMARK SMILES IDX 91 34 31 35 90 36 32 37 33 38 34 39 84 40 35 41 89 42 83 43
REMARK SMILES IDX 85 44 36 45 88 46 82 47 81 48 37 50 69 51 49 52 68 53 50 54
REMARK SMILES IDX 53 55 67 56 86 57 51 58 52 59 66 61 87 62 54 63 38 64 39 65
REMARK SMILES IDX 47 66 40 67 46 68 48 69 45 70 41 71 42 72 43 73 44 74 70 75
REMARK SMILES IDX 71 76 79 77 72 78 78 79 80 80 77 81 73 82 74 83 75 84 76 85
REMARK SMILES IDX 55 86 56 87 64 88 57 89 63 90 65 91 62 92 58 93 59 94 60 95
REMARK SMILES IDX 61 96
REMARK H PARENT 85 49 53 60
REMARK Flexibility Score: inf
ROOT
ATOM      1  C   UNL A   1      32.203  30.268  25.871  1.00  0.00     0.275 C 
ENDROOT
BRANCH   1   2
ATOM      2  C   UNL A   1      31.876  29.130  24.898  1.00  0.00     0.275 C 
BRANCH   2   3
ATOM      3  O   UNL A   1      31.159  28.038  25.521  1.00  0.00    -0.459 OA
BRANCH   3   4
ATOM      4  C   UNL A   1      30.896  27.031  24.649  1.00  0.00     0.338 C 
ATOM      5  O   UNL A   1      29.799  26.833  24.135  1.00  0.00    -0.246 OA
BRANCH   4   6
ATOM      6  C   UNL A   1      32.084  26.228  24.278  1.00  0.00     0.087 C 
ATOM      7  C   UNL A   1      32.094  22.159  24.489  1.00  0.00     0.026 A 
ATOM      8  C   UNL A   1      31.128  21.909  25.496  1.00  0.00     0.033 A 
ATOM      9  C   UNL A   1      32.452  23.500  24.368  1.00  0.00     0.135 A 
ATOM     10  C   UNL A   1      30.686  22.868  26.414  1.00  0.00     0.042 A 
ATOM     11  C   UNL A   1      32.203  24.383  25.449  1.00  0.00     0.019 A 
ATOM     12  O   UNL A   1      32.889  24.095  23.193  1.00  0.00    -0.475 OA
ATOM     13  Cl  UNL A   1      29.389  22.623  27.510  1.00  0.00    -0.084 Cl
ATOM     14  C   UNL A   1      31.309  24.085  26.460  1.00  0.00     0.032 A 
ATOM     15  C   UNL A   1      32.722  25.760  25.362  1.00  0.00     0.027 C 
ATOM     16  C   UNL A   1      32.239  25.438  22.987  1.00  0.00     0.316 C 
BRANCH   7  17
ATOM     17  C   UNL A   1      32.733  20.931  23.913  1.00  0.00    -0.015 A 
ATOM     18  C   UNL A   1      33.313  18.115  23.753  1.00  0.00    -0.048 A 
ATOM     19  C   UNL A   1      32.391  18.715  22.889  1.00  0.00     0.004 A 
ATOM     20  C   UNL A   1      34.040  18.955  24.602  1.00  0.00     0.004 A 
ATOM     21  C   UNL A   1      32.138  20.110  22.942  1.00  0.00     0.009 A 
ATOM     22  C   UNL A   1      33.754  20.330  24.678  1.00  0.00     0.009 A 
BRANCH  18  23
ATOM     23  C   UNL A   1      33.388  16.615  23.950  1.00  0.00     0.032 C 
ATOM     24  C   UNL A   1      33.711  16.066  25.329  1.00  0.00     0.009 C 
ENDBRANCH  18  23
ENDBRANCH   7  17
BRANCH  16  25
ATOM     25  C   UNL A   1      33.092  26.317  22.068  1.00  0.00     0.430 C 
ATOM     26  F   UNL A   1      34.381  26.379  22.482  1.00  0.00    -0.167 F 
ATOM     27  F   UNL A   1      33.090  25.890  20.788  1.00  0.00    -0.167 F 
ATOM     28  F   UNL A   1      32.627  27.595  22.056  1.00  0.00    -0.167 F 
ENDBRANCH  16  25
ENDBRANCH   4   6
ENDBRANCH   3   4
ENDBRANCH   2   3
ENDBRANCH   1   2
BRANCH   1  29
ATOM     29  O   UNL A   1      33.533  30.135  26.413  1.00  0.00    -0.458 OA
BRANCH  29  30
ATOM     30  C   UNL A   1      33.878  31.127  27.273  1.00  0.00     0.338 C 
ATOM     31  O   UNL A   1      33.129  32.021  27.652  1.00  0.00    -0.246 OA
BRANCH  30  32
ATOM     32  C   UNL A   1      35.250  30.947  27.819  1.00  0.00     0.060 A 
ATOM     33  C   UNL A   1      35.627  29.641  28.115  1.00  0.00     0.016 A 
ATOM     34  C   UNL A   1      36.171  31.978  28.061  1.00  0.00     0.016 A 
ATOM     35  C   UNL A   1      36.916  29.376  28.582  1.00  0.00     0.010 A 
ATOM     36  C   UNL A   1      37.486  31.691  28.522  1.00  0.00     0.010 A 
ATOM     37  C   UNL A   1      37.898  30.372  28.749  1.00  0.00    -0.014 A 
BRANCH  37  38
ATOM     38  C   UNL A   1      39.260  29.910  29.232  1.00  0.00     0.031 A 
ATOM     39  C   UNL A   1      39.645  30.266  30.640  1.00  0.00     0.074 A 
ATOM     40  C   UNL A   1      40.049  29.019  28.584  1.00  0.00     0.049 A 
ATOM     41  N   UNL A   1      40.541  29.726  31.423  1.00  0.00    -0.248 NA
ATOM     42  C   UNL A   1      38.897  31.380  31.239  1.00  0.00     0.031 C 
ATOM     43  C   UNL A   1      39.837  28.554  27.230  1.00  0.00     0.029 A 
ATOM     44  N   UNL A   1      41.117  28.242  29.007  1.00  0.00    -0.354 N 
ATOM     45  C   UNL A   1      40.455  30.422  32.620  1.00  0.00     0.074 A 
ATOM     46  C   UNL A   1      39.412  31.416  32.456  1.00  0.00     0.031 C 
ATOM     47  C   UNL A   1      40.532  27.426  27.015  1.00  0.00     0.029 A 
ATOM     48  C   UNL A   1      41.409  27.181  28.156  1.00  0.00     0.049 A 
ATOM     49  H   UNL A   1      41.622  28.424  29.832  1.00  0.00     0.167 HD
ATOM     50  C   UNL A   1      41.196  30.270  33.744  1.00  0.00     0.034 A 
ATOM     51  C   UNL A   1      42.267  26.135  28.266  1.00  0.00     0.034 A 
ATOM     52  C   UNL A   1      42.312  29.364  33.868  1.00  0.00     0.049 A 
ATOM     53  C   UNL A   1      43.205  26.091  29.454  1.00  0.00     0.074 A 
ATOM     54  C   UNL A   1      43.147  29.183  34.956  1.00  0.00     0.029 A 
ATOM     55  N   UNL A   1      42.783  28.519  32.868  1.00  0.00    -0.354 N 
ATOM     56  N   UNL A   1      43.247  26.883  30.500  1.00  0.00    -0.248 NA
ATOM     57  C   UNL A   1      44.214  25.022  29.477  1.00  0.00     0.031 C 
ATOM     58  C   UNL A   1      44.169  28.301  34.587  1.00  0.00     0.029 A 
ATOM     59  C   UNL A   1      43.897  27.820  33.316  1.00  0.00     0.049 A 
ATOM     60  H   UNL A   1      42.384  28.431  31.971  1.00  0.00     0.167 HD
ATOM     61  C   UNL A   1      44.223  26.358  31.341  1.00  0.00     0.074 A 
ATOM     62  C   UNL A   1      44.787  25.214  30.657  1.00  0.00     0.031 C 
ATOM     63  C   UNL A   1      44.564  26.754  32.596  1.00  0.00     0.034 A 
BRANCH  50  64
ATOM     64  C   UNL A   1      40.883  31.222  34.871  1.00  0.00     0.023 A 
ATOM     65  C   UNL A   1      39.834  30.980  35.777  1.00  0.00     0.031 A 
ATOM     66  C   UNL A   1      41.565  32.447  34.963  1.00  0.00     0.131 A 
ATOM     67  C   UNL A   1      39.433  31.990  36.663  1.00  0.00     0.055 A 
ATOM     68  C   UNL A   1      41.222  33.410  35.910  1.00  0.00     0.041 A 
ATOM     69  F   UNL A   1      42.548  32.748  34.100  1.00  0.00    -0.206 F 
ATOM     70  C   UNL A   1      40.135  33.194  36.753  1.00  0.00     0.022 A 
BRANCH  67  71
ATOM     71  S   UNL A   1      37.850  31.802  37.532  1.00  0.00     0.124 S 
ATOM     72  O   UNL A   1      37.007  32.765  36.827  1.00  0.00    -0.237 OA
ATOM     73  O   UNL A   1      37.537  30.396  37.314  1.00  0.00    -0.237 OA
ATOM     74  O   UNL A   1      38.172  32.165  38.911  1.00  0.00    -0.744 OA
ENDBRANCH  67  71
ENDBRANCH  50  64
BRANCH  51  75
ATOM     75  C   UNL A   1      42.307  25.022  27.247  1.00  0.00     0.023 A 
ATOM     76  C   UNL A   1      41.487  23.879  27.369  1.00  0.00     0.031 A 
ATOM     77  C   UNL A   1      43.201  25.048  26.162  1.00  0.00     0.131 A 
ATOM     78  C   UNL A   1      41.593  22.819  26.447  1.00  0.00     0.055 A 
ATOM     79  C   UNL A   1      43.255  24.024  25.209  1.00  0.00     0.041 A 
ATOM     80  F   UNL A   1      44.045  26.079  26.001  1.00  0.00    -0.206 F 
ATOM     81  C   UNL A   1      42.455  22.897  25.353  1.00  0.00     0.022 A 
BRANCH  78  82
ATOM     82  S   UNL A   1      40.668  21.279  26.741  1.00  0.00     0.124 S 
ATOM     83  O   UNL A   1      39.413  21.548  26.049  1.00  0.00    -0.237 OA
ATOM     84  O   UNL A   1      41.542  20.284  26.128  1.00  0.00    -0.237 OA
ATOM     85  O   UNL A   1      40.574  21.212  28.198  1.00  0.00    -0.744 OA
ENDBRANCH  78  82
ENDBRANCH  51  75
BRANCH  63  86
ATOM     86  C   UNL A   1      45.612  25.936  33.322  1.00  0.00     0.023 A 
ATOM     87  C   UNL A   1      45.288  24.807  34.097  1.00  0.00     0.031 A 
ATOM     88  C   UNL A   1      46.966  26.315  33.255  1.00  0.00     0.131 A 
ATOM     89  C   UNL A   1      46.293  24.142  34.821  1.00  0.00     0.055 A 
ATOM     90  C   UNL A   1      47.971  25.601  33.910  1.00  0.00     0.041 A 
ATOM     91  F   UNL A   1      47.341  27.395  32.550  1.00  0.00    -0.206 F 
ATOM     92  C   UNL A   1      47.634  24.516  34.712  1.00  0.00     0.022 A 
BRANCH  89  93
ATOM     93  S   UNL A   1      45.812  22.846  35.998  1.00  0.00     0.124 S 
ATOM     94  O   UNL A   1      47.044  22.072  36.111  1.00  0.00    -0.237 OA
ATOM     95  O   UNL A   1      45.434  23.617  37.178  1.00  0.00    -0.237 OA
ATOM     96  O   UNL A   1      44.708  22.163  35.325  1.00  0.00    -0.744 OA
ENDBRANCH  89  93
ENDBRANCH  63  86
ENDBRANCH  37  38
ENDBRANCH  30  32
ENDBRANCH  29  30
ENDBRANCH   1  29
TORSDOF 17
ENDMDL
MODEL 2
REMARK VINA RESULT:     -13.5      2.137      2.619
REMARK SMILES CCc1ccc(-c2cc(Cl)cc3c2O[C@H](C(F)(F)F)C(C(=O)OCCOC(=O)c2ccc(-c4c5nc(c(-c6cc(S(=O)(=O)[O-])ccc6F)c6ccc([nH]6)c(-c6cc(S(=O)(=O)[O-])ccc6F)c6nc(c(-c7cc(S(=O)(=O)[O-])ccc7F)c7ccc4[nH]7)C=C6)C=C5)cc2)=C3)cc1
REMARK SMILES IDX 25 1 24 2 23 3 21 4 22 5 20 6 7 7 8 8 13 9 9 10 12 11 14 12
REMARK SMILES IDX 10 13 11 14 92 15 15 16 6 17 3 18 4 19 94 20 5 21 93 22 2 23
REMARK SMILES IDX 1 24 16 25 17 26 18 27 19 28 26 29 27 30 28 31 29 32 30 33
REMARK SMILES IDX 91 34 31 35 90 36 32 37 33 38 34 39 84 40 35 41 89 42 83 43
REMARK SMILES IDX 85 44 36 45 88 46 82 47 81 48 37 50 69 51 49 52 68 53 50 54
REMARK SMILES IDX 53 55 67 56 86 57 51 58 52 59 66 61 87 62 54 63 38 64 39 65
REMARK SMILES IDX 47 66 40 67 46 68 48 69 45 70 41 71 42 72 43 73 44 74 70 75
REMARK SMILES IDX 71 76 79 77 72 78 78 79 80 80 77 81 73 82 74 83 75 84 76 85
REMARK SMILES IDX 55 86 56 87 64 88 57 89 63 90 65 91 62 92 58 93 59 94 60 95
REMARK SMILES IDX 61 96
REMARK H PARENT 85 49 53 60
REMARK Flexibility Score: inf
ROOT
ATOM      1  C   UNL A   1      31.668  29.845  25.336  1.00  0.00     0.275 C 
ENDROOT
BRANCH   1   2
ATOM      2  C   UNL A   1      31.608  28.611  24.430  1.00  0.00     0.275 C 
BRANCH   2   3
ATOM      3  O   UNL A   1      32.909  28.038  24.162  1.00  0.00    -0.459 OA
BRANCH   3   4
ATOM      4  C   UNL A   1      33.113  26.881  24.843  1.00  0.00     0.338 C 
ATOM      5  O   UNL A   1      33.977  26.730  25.701  1.00  0.00    -0.246 OA
BRANCH   4   6
ATOM      6  C   UNL A   1      32.128  25.818  24.535  1.00  0.00     0.087 C 
ATOM      7  C   UNL A   1      33.166  21.881  24.402  1.00  0.00     0.026 A 
ATOM      8  C   UNL A   1      34.542  21.945  24.065  1.00  0.00     0.033 A 
ATOM      9  C   UNL A   1      32.500  23.100  24.297  1.00  0.00     0.135 A 
ATOM     10  C   UNL A   1      35.162  23.070  23.511  1.00  0.00     0.042 A 
ATOM     11  C   UNL A   1      33.064  24.130  23.503  1.00  0.00     0.019 A 
ATOM     12  O   UNL A   1      31.393  23.459  25.052  1.00  0.00    -0.475 OA
ATOM     13  Cl  UNL A   1      36.856  23.217  23.275  1.00  0.00    -0.084 Cl
ATOM     14  C   UNL A   1      34.393  24.134  23.126  1.00  0.00     0.032 A 
ATOM     15  C   UNL A   1      32.275  25.356  23.284  1.00  0.00     0.027 C 
ATOM     16  C   UNL A   1      31.511  24.874  25.556  1.00  0.00     0.316 C 
BRANCH   7  17
ATOM     17  C   UNL A   1      32.624  20.493  24.565  1.00  0.00    -0.015 A 
ATOM     18  C   UNL A   1      32.735  17.616  24.489  1.00  0.00    -0.048 A 
ATOM     19  C   UNL A   1      32.840  18.313  25.697  1.00  0.00     0.004 A 
ATOM     20  C   UNL A   1      32.438  18.358  23.343  1.00  0.00     0.004 A 
ATOM     21  C   UNL A   1      32.744  19.729  25.737  1.00  0.00     0.009 A 
ATOM     22  C   UNL A   1      32.384  19.762  23.382  1.00  0.00     0.009 A 
BRANCH  18  23
ATOM     23  C   UNL A   1      33.138  16.162  24.351  1.00  0.00     0.032 C 
ATOM     24  C   UNL A   1      32.759  15.183  25.450  1.00  0.00     0.009 C 
ENDBRANCH  18  23
ENDBRANCH   7  17
BRANCH  16  25
ATOM     25  C   UNL A   1      30.130  25.454  25.870  1.00  0.00     0.430 C 
ATOM     26  F   UNL A   1      30.215  26.592  26.601  1.00  0.00    -0.167 F 
ATOM     27  F   UNL A   1      29.415  25.730  24.759  1.00  0.00    -0.167 F 
ATOM     28  F   UNL A   1      29.393  24.576  26.602  1.00  0.00    -0.167 F 
ENDBRANCH  16  25
ENDBRANCH   4   6
ENDBRANCH   3   4
ENDBRANCH   2   3
ENDBRANCH   1   2
BRANCH   1  29
ATOM     29  O   UNL A   1      33.007  30.088  25.813  1.00  0.00    -0.458 OA
BRANCH  29  30
ATOM     30  C   UNL A   1      33.079  31.014  26.802  1.00  0.00     0.338 C 
ATOM     31  O   UNL A   1      32.145  31.712  27.181  1.00  0.00    -0.246 OA
BRANCH  30  32
ATOM     32  C   UNL A   1      34.403  31.011  27.481  1.00  0.00     0.060 A 
ATOM     33  C   UNL A   1      34.880  29.770  27.891  1.00  0.00     0.016 A 
ATOM     34  C   UNL A   1      35.186  32.146  27.741  1.00  0.00     0.016 A 
ATOM     35  C   UNL A   1      36.138  29.669  28.490  1.00  0.00     0.010 A 
ATOM     36  C   UNL A   1      36.473  32.026  28.337  1.00  0.00     0.010 A 
ATOM     37  C   UNL A   1      36.992  30.772  28.683  1.00  0.00    -0.014 A 
BRANCH  37  38
ATOM     38  C   UNL A   1      38.341  30.485  29.316  1.00  0.00     0.031 A 
ATOM     39  C   UNL A   1      38.518  30.873  30.756  1.00  0.00     0.074 A 
ATOM     40  C   UNL A   1      39.305  29.709  28.762  1.00  0.00     0.049 A 
ATOM     41  N   UNL A   1      39.385  30.445  31.636  1.00  0.00    -0.248 NA
ATOM     42  C   UNL A   1      37.571  31.875  31.264  1.00  0.00     0.031 C 
ATOM     43  C   UNL A   1      39.306  29.235  27.395  1.00  0.00     0.029 A 
ATOM     44  N   UNL A   1      40.412  29.072  29.304  1.00  0.00    -0.354 N 
ATOM     45  C   UNL A   1      39.078  31.111  32.813  1.00  0.00     0.074 A 
ATOM     46  C   UNL A   1      37.940  31.964  32.530  1.00  0.00     0.031 C 
ATOM     47  C   UNL A   1      40.161  28.208  27.264  1.00  0.00     0.029 A 
ATOM     48  C   UNL A   1      40.930  28.066  28.495  1.00  0.00     0.049 A 
ATOM     49  H   UNL A   1      40.795  29.310  30.180  1.00  0.00     0.167 HD
ATOM     50  C   UNL A   1      39.703  31.045  34.013  1.00  0.00     0.034 A 
ATOM     51  C   UNL A   1      41.899  27.139  28.704  1.00  0.00     0.034 A 
ATOM     52  C   UNL A   1      40.907  30.288  34.264  1.00  0.00     0.049 A 
ATOM     53  C   UNL A   1      42.698  27.204  29.989  1.00  0.00     0.074 A 
ATOM     54  C   UNL A   1      41.633  30.206  35.439  1.00  0.00     0.029 A 
ATOM     55  N   UNL A   1      41.590  29.522  33.326  1.00  0.00    -0.354 N 
ATOM     56  N   UNL A   1      42.521  27.984  31.030  1.00  0.00    -0.248 NA
ATOM     57  C   UNL A   1      43.828  26.274  30.129  1.00  0.00     0.031 C 
ATOM     58  C   UNL A   1      42.794  29.467  35.189  1.00  0.00     0.029 A 
ATOM     59  C   UNL A   1      42.729  28.968  33.897  1.00  0.00     0.049 A 
ATOM     60  H   UNL A   1      41.308  29.392  32.391  1.00  0.00     0.167 HD
ATOM     61  C   UNL A   1      43.458  27.581  31.977  1.00  0.00     0.074 A 
ATOM     62  C   UNL A   1      44.237  26.526  31.364  1.00  0.00     0.031 C 
ATOM     63  C   UNL A   1      43.604  28.004  33.260  1.00  0.00     0.034 A 
BRANCH  50  64
ATOM     64  C   UNL A   1      39.147  31.937  35.095  1.00  0.00     0.023 A 
ATOM     65  C   UNL A   1      39.531  33.285  35.214  1.00  0.00     0.031 A 
ATOM     66  C   UNL A   1      38.319  31.395  36.092  1.00  0.00     0.131 A 
ATOM     67  C   UNL A   1      39.172  34.012  36.358  1.00  0.00     0.055 A 
ATOM     68  C   UNL A   1      37.887  32.152  37.180  1.00  0.00     0.041 A 
ATOM     69  F   UNL A   1      37.954  30.104  36.050  1.00  0.00    -0.206 F 
ATOM     70  C   UNL A   1      38.331  33.463  37.330  1.00  0.00     0.022 A 
BRANCH  67  71
ATOM     71  S   UNL A   1      39.996  35.599  36.671  1.00  0.00     0.124 S 
ATOM     72  O   UNL A   1      41.404  35.204  36.688  1.00  0.00    -0.237 OA
ATOM     73  O   UNL A   1      39.570  36.403  35.534  1.00  0.00    -0.237 OA
ATOM     74  O   UNL A   1      39.462  36.012  37.967  1.00  0.00    -0.744 OA
ENDBRANCH  67  71
ENDBRANCH  50  64
BRANCH  51  75
ATOM     75  C   UNL A   1      42.195  26.051  27.700  1.00  0.00     0.023 A 
ATOM     76  C   UNL A   1      41.425  24.869  27.644  1.00  0.00     0.031 A 
ATOM     77  C   UNL A   1      43.284  26.141  26.816  1.00  0.00     0.131 A 
ATOM     78  C   UNL A   1      41.763  23.835  26.748  1.00  0.00     0.055 A 
ATOM     79  C   UNL A   1      43.576  25.142  25.880  1.00  0.00     0.041 A 
ATOM     80  F   UNL A   1      44.091  27.213  26.838  1.00  0.00    -0.206 F 
ATOM     81  C   UNL A   1      42.820  23.976  25.849  1.00  0.00     0.022 A 
BRANCH  78  82
ATOM     82  S   UNL A   1      40.876  22.249  26.834  1.00  0.00     0.124 S 
ATOM     83  O   UNL A   1      39.496  22.665  26.611  1.00  0.00    -0.237 OA
ATOM     84  O   UNL A   1      41.505  21.495  25.755  1.00  0.00    -0.237 OA
ATOM     85  O   UNL A   1      41.169  21.767  28.183  1.00  0.00    -0.744 OA
ENDBRANCH  78  82
ENDBRANCH  51  75
BRANCH  63  86
ATOM     86  C   UNL A   1      44.662  27.321  34.102  1.00  0.00     0.023 A 
ATOM     87  C   UNL A   1      44.453  26.070  34.711  1.00  0.00     0.031 A 
ATOM     88  C   UNL A   1      45.902  27.953  34.316  1.00  0.00     0.131 A 
ATOM     89  C   UNL A   1      45.439  25.528  35.554  1.00  0.00     0.055 A 
ATOM     90  C   UNL A   1      46.908  27.371  35.088  1.00  0.00     0.041 A 
ATOM     91  F   UNL A   1      46.158  29.157  33.780  1.00  0.00    -0.206 F 
ATOM     92  C   UNL A   1      46.673  26.158  35.725  1.00  0.00     0.022 A 
BRANCH  89  93
ATOM     93  S   UNL A   1      45.046  24.039  36.517  1.00  0.00     0.124 S 
ATOM     94  O   UNL A   1      46.246  23.232  36.324  1.00  0.00    -0.237 OA
ATOM     95  O   UNL A   1      44.848  24.575  37.859  1.00  0.00    -0.237 OA
ATOM     96  O   UNL A   1      43.839  23.523  35.873  1.00  0.00    -0.744 OA
ENDBRANCH  89  93
ENDBRANCH  63  86
ENDBRANCH  37  38
ENDBRANCH  30  32
ENDBRANCH  29  30
ENDBRANCH   1  29
TORSDOF 17
ENDMDL
MODEL 3
REMARK VINA RESULT:     -13.4      4.957     10.126
REMARK SMILES CCc1ccc(-c2cc(Cl)cc3c2O[C@H](C(F)(F)F)C(C(=O)OCCOC(=O)c2ccc(-c4c5nc(c(-c6cc(S(=O)(=O)[O-])ccc6F)c6ccc([nH]6)c(-c6cc(S(=O)(=O)[O-])ccc6F)c6nc(c(-c7cc(S(=O)(=O)[O-])ccc7F)c7ccc4[nH]7)C=C6)C=C5)cc2)=C3)cc1
REMARK SMILES IDX 25 1 24 2 23 3 21 4 22 5 20 6 7 7 8 8 13 9 9 10 12 11 14 12
REMARK SMILES IDX 10 13 11 14 92 15 15 16 6 17 3 18 4 19 94 20 5 21 93 22 2 23
REMARK SMILES IDX 1 24 16 25 17 26 18 27 19 28 26 29 27 30 28 31 29 32 30 33
REMARK SMILES IDX 91 34 31 35 90 36 32 37 33 38 34 39 84 40 35 41 89 42 83 43
REMARK SMILES IDX 85 44 36 45 88 46 82 47 81 48 37 50 69 51 49 52 68 53 50 54
REMARK SMILES IDX 53 55 67 56 86 57 51 58 52 59 66 61 87 62 54 63 38 64 39 65
REMARK SMILES IDX 47 66 40 67 46 68 48 69 45 70 41 71 42 72 43 73 44 74 70 75
REMARK SMILES IDX 71 76 79 77 72 78 78 79 80 80 77 81 73 82 74 83 75 84 76 85
REMARK SMILES IDX 55 86 56 87 64 88 57 89 63 90 65 91 62 92 58 93 59 94 60 95
REMARK SMILES IDX 61 96
REMARK H PARENT 85 49 53 60
REMARK Flexibility Score: inf
ROOT
ATOM      1  C   UNL A   1      37.252  21.431  24.744  1.00  0.00     0.275 C 
ENDROOT
BRANCH   1   2
ATOM      2  C   UNL A   1      35.883  21.842  24.193  1.00  0.00     0.275 C 
BRANCH   2   3
ATOM      3  O   UNL A   1      35.485  23.174  24.594  1.00  0.00    -0.459 OA
BRANCH   3   4
ATOM      4  C   UNL A   1      34.509  23.158  25.539  1.00  0.00     0.338 C 
ATOM      5  O   UNL A   1      34.719  23.086  26.746  1.00  0.00    -0.246 OA
BRANCH   4   6
ATOM      6  C   UNL A   1      33.142  23.339  24.997  1.00  0.00     0.087 C 
ATOM      7  C   UNL A   1      31.671  27.011  24.023  1.00  0.00     0.026 A 
ATOM      8  C   UNL A   1      32.410  27.866  24.878  1.00  0.00     0.033 A 
ATOM      9  C   UNL A   1      31.822  25.656  24.309  1.00  0.00     0.135 A 
ATOM     10  C   UNL A   1      33.099  27.433  26.016  1.00  0.00     0.042 A 
ATOM     11  C   UNL A   1      32.292  25.267  25.589  1.00  0.00     0.019 A 
ATOM     12  O   UNL A   1      31.710  24.637  23.374  1.00  0.00    -0.475 OA
ATOM     13  Cl  UNL A   1      34.144  28.429  26.945  1.00  0.00    -0.084 Cl
ATOM     14  C   UNL A   1      32.948  26.140  26.435  1.00  0.00     0.032 A 
ATOM     15  C   UNL A   1      32.304  23.831  25.923  1.00  0.00     0.027 C 
ATOM     16  C   UNL A   1      32.808  23.619  23.540  1.00  0.00     0.316 C 
BRANCH   7  17
ATOM     17  C   UNL A   1      30.679  27.709  23.142  1.00  0.00    -0.015 A 
ATOM     18  C   UNL A   1      28.653  29.658  22.516  1.00  0.00    -0.048 A 
ATOM     19  C   UNL A   1      29.978  29.832  22.103  1.00  0.00     0.004 A 
ATOM     20  C   UNL A   1      28.323  28.442  23.122  1.00  0.00     0.004 A 
ATOM     21  C   UNL A   1      30.966  28.851  22.377  1.00  0.00     0.009 A 
ATOM     22  C   UNL A   1      29.314  27.493  23.426  1.00  0.00     0.009 A 
BRANCH  18  23
ATOM     23  C   UNL A   1      27.648  30.791  22.528  1.00  0.00     0.032 C 
ATOM     24  C   UNL A   1      27.857  31.953  23.485  1.00  0.00     0.009 C 
ENDBRANCH  18  23
ENDBRANCH   7  17
BRANCH  16  25
ATOM     25  C   UNL A   1      32.391  22.271  22.947  1.00  0.00     0.430 C 
ATOM     26  F   UNL A   1      32.864  22.105  21.688  1.00  0.00    -0.167 F 
ATOM     27  F   UNL A   1      32.810  21.223  23.687  1.00  0.00    -0.167 F 
ATOM     28  F   UNL A   1      31.036  22.178  22.868  1.00  0.00    -0.167 F 
ENDBRANCH  16  25
ENDBRANCH   4   6
ENDBRANCH   3   4
ENDBRANCH   2   3
ENDBRANCH   1   2
BRANCH   1  29
ATOM     29  O   UNL A   1      37.860  22.497  25.502  1.00  0.00    -0.458 OA
BRANCH  29  30
ATOM     30  C   UNL A   1      38.979  22.125  26.173  1.00  0.00     0.338 C 
ATOM     31  O   UNL A   1      39.471  21.002  26.154  1.00  0.00    -0.246 OA
BRANCH  30  32
ATOM     32  C   UNL A   1      39.637  23.275  26.851  1.00  0.00     0.060 A 
ATOM     33  C   UNL A   1      39.184  24.540  26.494  1.00  0.00     0.016 A 
ATOM     34  C   UNL A   1      40.667  23.178  27.801  1.00  0.00     0.016 A 
ATOM     35  C   UNL A   1      39.709  25.673  27.120  1.00  0.00     0.010 A 
ATOM     36  C   UNL A   1      41.181  24.340  28.442  1.00  0.00     0.010 A 
ATOM     37  C   UNL A   1      40.676  25.611  28.143  1.00  0.00    -0.014 A 
BRANCH  37  38
ATOM     38  C   UNL A   1      41.116  26.934  28.743  1.00  0.00     0.031 A 
ATOM     39  C   UNL A   1      42.473  27.446  28.353  1.00  0.00     0.074 A 
ATOM     40  C   UNL A   1      40.302  27.788  29.411  1.00  0.00     0.049 A 
ATOM     41  N   UNL A   1      42.954  28.659  28.407  1.00  0.00    -0.248 NA
ATOM     42  C   UNL A   1      43.401  26.440  27.819  1.00  0.00     0.031 C 
ATOM     43  C   UNL A   1      38.963  27.476  29.864  1.00  0.00     0.029 A 
ATOM     44  N   UNL A   1      40.419  29.135  29.719  1.00  0.00    -0.354 N 
ATOM     45  C   UNL A   1      44.240  28.571  27.894  1.00  0.00     0.074 A 
ATOM     46  C   UNL A   1      44.454  27.184  27.530  1.00  0.00     0.031 C 
ATOM     47  C   UNL A   1      38.294  28.607  30.136  1.00  0.00     0.029 A 
ATOM     48  C   UNL A   1      39.215  29.737  30.069  1.00  0.00     0.049 A 
ATOM     49  H   UNL A   1      41.276  29.621  29.692  1.00  0.00     0.167 HD
ATOM     50  C   UNL A   1      45.171  29.547  27.765  1.00  0.00     0.034 A 
ATOM     51  C   UNL A   1      38.878  31.030  30.307  1.00  0.00     0.034 A 
ATOM     52  C   UNL A   1      45.003  30.901  28.236  1.00  0.00     0.049 A 
ATOM     53  C   UNL A   1      39.977  32.071  30.327  1.00  0.00     0.074 A 
ATOM     54  C   UNL A   1      45.915  31.940  28.189  1.00  0.00     0.029 A 
ATOM     55  N   UNL A   1      43.874  31.399  28.878  1.00  0.00    -0.354 N 
ATOM     56  N   UNL A   1      41.249  31.934  30.028  1.00  0.00    -0.248 NA
ATOM     57  C   UNL A   1      39.605  33.438  30.721  1.00  0.00     0.031 C 
ATOM     58  C   UNL A   1      45.376  33.032  28.877  1.00  0.00     0.029 A 
ATOM     59  C   UNL A   1      44.071  32.728  29.233  1.00  0.00     0.049 A 
ATOM     60  H   UNL A   1      43.053  30.883  29.057  1.00  0.00     0.167 HD
ATOM     61  C   UNL A   1      41.805  33.206  30.114  1.00  0.00     0.074 A 
ATOM     62  C   UNL A   1      40.745  34.091  30.548  1.00  0.00     0.031 C 
ATOM     63  C   UNL A   1      43.062  33.606  29.790  1.00  0.00     0.034 A 
BRANCH  50  64
ATOM     64  C   UNL A   1      46.504  29.115  27.206  1.00  0.00     0.023 A 
ATOM     65  C   UNL A   1      46.675  28.824  25.840  1.00  0.00     0.031 A 
ATOM     66  C   UNL A   1      47.582  28.874  28.073  1.00  0.00     0.131 A 
ATOM     67  C   UNL A   1      47.859  28.211  25.403  1.00  0.00     0.055 A 
ATOM     68  C   UNL A   1      48.791  28.353  27.615  1.00  0.00     0.041 A 
ATOM     69  F   UNL A   1      47.462  29.097  29.392  1.00  0.00    -0.206 F 
ATOM     70  C   UNL A   1      48.928  27.997  26.276  1.00  0.00     0.022 A 
BRANCH  67  71
ATOM     71  S   UNL A   1      47.899  27.495  23.735  1.00  0.00     0.124 S 
ATOM     72  O   UNL A   1      49.254  27.831  23.301  1.00  0.00    -0.237 OA
ATOM     73  O   UNL A   1      47.640  26.085  23.993  1.00  0.00    -0.237 OA
ATOM     74  O   UNL A   1      46.837  28.210  23.030  1.00  0.00    -0.744 OA
ENDBRANCH  67  71
ENDBRANCH  50  64
BRANCH  51  75
ATOM     75  C   UNL A   1      37.450  31.453  30.547  1.00  0.00     0.023 A 
ATOM     76  C   UNL A   1      36.615  31.867  29.485  1.00  0.00     0.031 A 
ATOM     77  C   UNL A   1      36.904  31.510  31.841  1.00  0.00     0.131 A 
ATOM     78  C   UNL A   1      35.308  32.328  29.740  1.00  0.00     0.055 A 
ATOM     79  C   UNL A   1      35.583  31.903  32.083  1.00  0.00     0.041 A 
ATOM     80  F   UNL A   1      37.649  31.176  32.907  1.00  0.00    -0.206 F 
ATOM     81  C   UNL A   1      34.779  32.324  31.030  1.00  0.00     0.022 A 
BRANCH  78  82
ATOM     82  S   UNL A   1      34.327  33.037  28.380  1.00  0.00     0.124 S 
ATOM     83  O   UNL A   1      33.839  31.839  27.707  1.00  0.00    -0.237 OA
ATOM     84  O   UNL A   1      33.332  33.819  29.106  1.00  0.00    -0.237 OA
ATOM     85  O   UNL A   1      35.305  33.819  27.627  1.00  0.00    -0.744 OA
ENDBRANCH  78  82
ENDBRANCH  51  75
BRANCH  63  86
ATOM     86  C   UNL A   1      43.371  35.085  29.898  1.00  0.00     0.023 A 
ATOM     87  C   UNL A   1      43.234  35.968  28.812  1.00  0.00     0.031 A 
ATOM     88  C   UNL A   1      43.838  35.616  31.116  1.00  0.00     0.131 A 
ATOM     89  C   UNL A   1      43.622  37.313  28.947  1.00  0.00     0.055 A 
ATOM     90  C   UNL A   1      44.143  36.969  31.267  1.00  0.00     0.041 A 
ATOM     91  F   UNL A   1      44.011  34.824  32.187  1.00  0.00    -0.206 F 
ATOM     92  C   UNL A   1      44.050  37.824  30.174  1.00  0.00     0.022 A 
BRANCH  89  93
ATOM     93  S   UNL A   1      43.665  38.365  27.468  1.00  0.00     0.124 S 
ATOM     94  O   UNL A   1      42.335  38.149  26.908  1.00  0.00    -0.237 OA
ATOM     95  O   UNL A   1      43.911  39.689  28.030  1.00  0.00    -0.237 OA
ATOM     96  O   UNL A   1      44.767  37.810  26.684  1.00  0.00    -0.744 OA
ENDBRANCH  89  93
ENDBRANCH  63  86
ENDBRANCH  37  38
ENDBRANCH  30  32
ENDBRANCH  29  30
ENDBRANCH   1  29
TORSDOF 17
ENDMDL
