MODEL 1
REMARK VINA RESULT:     -12.3      0.000      0.000
REMARK SMILES CCCc1cc(OC(F)(F)F)cc2c1O[C@H](C(F)(F)F)C(C(=O)OCCOC(=O)c1ccc(-c3c4nc(c(-c5cc(S(=O)(=O)[O-])ccc5F)c5ccc([nH]5)c(-c5cc(S(=O)(=O)[O-])ccc5F)c5nc(c(-c6cc(S(=O)(=O)[O-])ccc6F)c6ccc3[nH]6)C=C5)C=C4)cc1)=C2
REMARK SMILES IDX 26 1 25 2 24 3 22 4 23 5 21 6 4 7 5 8 14 9 6 10 13 11 15 12
REMARK SMILES IDX 12 13 93 14 16 15 3 16 2 17 1 18 7 19 8 20 9 21 10 22 11 23
REMARK SMILES IDX 17 24 18 25 19 26 20 27 27 28 28 29 29 30 30 31 31 32 92 33
REMARK SMILES IDX 32 34 91 35 33 36 34 37 35 38 85 39 36 40 90 41 84 42 86 43
REMARK SMILES IDX 37 44 89 45 83 46 82 47 38 49 70 50 50 51 69 52 51 53 54 54
REMARK SMILES IDX 68 55 87 56 52 57 53 58 67 60 88 61 55 62 39 63 40 64 48 65
REMARK SMILES IDX 41 66 47 67 49 68 46 69 42 70 43 71 44 72 45 73 71 74 72 75
REMARK SMILES IDX 80 76 73 77 79 78 81 79 78 80 74 81 75 82 76 83 77 84 56 85
REMARK SMILES IDX 57 86 65 87 58 88 64 89 66 90 63 91 59 92 60 93 61 94 62 95
REMARK H PARENT 86 48 54 59
REMARK Flexibility Score: inf
ROOT
ATOM      1  C   UNL A   1      35.852  21.196  25.714  1.00  0.00     0.275 C 
ENDROOT
BRANCH   1   2
ATOM      2  C   UNL A   1      34.785  20.869  24.672  1.00  0.00     0.275 C 
BRANCH   2   3
ATOM      3  O   UNL A   1      33.504  21.436  25.021  1.00  0.00    -0.459 OA
BRANCH   3   4
ATOM      4  C   UNL A   1      32.820  21.976  23.984  1.00  0.00     0.338 C 
ATOM      5  O   UNL A   1      32.408  21.372  23.005  1.00  0.00    -0.246 OA
BRANCH   4   6
ATOM      6  C   UNL A   1      32.608  23.423  24.142  1.00  0.00     0.087 C 
ATOM      7  C   UNL A   1      31.266  27.121  25.502  1.00  0.00    -0.002 A 
ATOM      8  C   UNL A   1      30.778  28.039  24.561  1.00  0.00     0.054 A 
ATOM      9  C   UNL A   1      31.632  25.850  25.044  1.00  0.00     0.131 A 
ATOM     10  C   UNL A   1      30.597  27.675  23.220  1.00  0.00     0.130 A 
ATOM     11  C   UNL A   1      31.485  25.475  23.696  1.00  0.00     0.021 A 
ATOM     12  O   UNL A   1      32.131  24.966  25.969  1.00  0.00    -0.475 OA
ATOM     13  C   UNL A   1      30.958  26.392  22.792  1.00  0.00     0.058 A 
ATOM     14  C   UNL A   1      31.838  24.114  23.289  1.00  0.00     0.027 C 
ATOM     15  C   UNL A   1      33.109  24.051  25.420  1.00  0.00     0.316 C 
BRANCH   7  16
ATOM     16  C   UNL A   1      31.492  27.511  26.951  1.00  0.00     0.039 C 
BRANCH  16  17
ATOM     17  C   UNL A   1      32.214  28.840  27.192  1.00  0.00     0.001 C 
ATOM     18  C   UNL A   1      33.708  28.771  26.905  1.00  0.00     0.004 C 
ENDBRANCH  16  17
ENDBRANCH   7  16
BRANCH  10  19
ATOM     19  O   UNL A   1      30.093  28.475  22.233  1.00  0.00    -0.406 OA
BRANCH  19  20
ATOM     20  C   UNL A   1      28.884  29.162  22.508  1.00  0.00     0.573 C 
ATOM     21  F   UNL A   1      27.932  28.320  22.965  1.00  0.00    -0.132 F 
ATOM     22  F   UNL A   1      29.078  30.156  23.398  1.00  0.00    -0.132 F 
ATOM     23  F   UNL A   1      28.432  29.711  21.358  1.00  0.00    -0.132 F 
ENDBRANCH  19  20
ENDBRANCH  10  19
BRANCH  15  24
ATOM     24  C   UNL A   1      34.480  24.738  25.269  1.00  0.00     0.430 C 
ATOM     25  F   UNL A   1      35.328  24.340  26.247  1.00  0.00    -0.167 F 
ATOM     26  F   UNL A   1      35.055  24.426  24.087  1.00  0.00    -0.167 F 
ATOM     27  F   UNL A   1      34.402  26.087  25.322  1.00  0.00    -0.167 F 
ENDBRANCH  15  24
ENDBRANCH   4   6
ENDBRANCH   3   4
ENDBRANCH   2   3
ENDBRANCH   1   2
BRANCH   1  28
ATOM     28  O   UNL A   1      36.990  21.812  25.086  1.00  0.00    -0.458 OA
BRANCH  28  29
ATOM     29  C   UNL A   1      38.196  21.414  25.558  1.00  0.00     0.338 C 
ATOM     30  O   UNL A   1      38.701  20.312  25.435  1.00  0.00    -0.246 OA
BRANCH  29  31
ATOM     31  C   UNL A   1      38.845  22.522  26.283  1.00  0.00     0.060 A 
ATOM     32  C   UNL A   1      38.418  23.837  26.099  1.00  0.00     0.016 A 
ATOM     33  C   UNL A   1      39.987  22.261  27.035  1.00  0.00     0.016 A 
ATOM     34  C   UNL A   1      39.197  24.899  26.558  1.00  0.00     0.010 A 
ATOM     35  C   UNL A   1      40.696  23.323  27.601  1.00  0.00     0.010 A 
ATOM     36  C   UNL A   1      40.335  24.659  27.337  1.00  0.00    -0.014 A 
BRANCH  36  37
ATOM     37  C   UNL A   1      41.183  25.771  27.857  1.00  0.00     0.031 A 
ATOM     38  C   UNL A   1      40.551  26.849  28.699  1.00  0.00     0.074 A 
ATOM     39  C   UNL A   1      42.492  25.855  27.547  1.00  0.00     0.049 A 
ATOM     40  N   UNL A   1      40.977  28.059  28.961  1.00  0.00    -0.248 NA
ATOM     41  C   UNL A   1      39.251  26.526  29.306  1.00  0.00     0.031 C 
ATOM     42  C   UNL A   1      43.263  24.848  26.817  1.00  0.00     0.029 A 
ATOM     43  N   UNL A   1      43.407  26.853  27.793  1.00  0.00    -0.354 N 
ATOM     44  C   UNL A   1      39.964  28.666  29.697  1.00  0.00     0.074 A 
ATOM     45  C   UNL A   1      38.906  27.688  29.840  1.00  0.00     0.031 C 
ATOM     46  C   UNL A   1      44.530  25.270  26.685  1.00  0.00     0.029 A 
ATOM     47  C   UNL A   1      44.634  26.625  27.213  1.00  0.00     0.049 A 
ATOM     48  H   UNL A   1      43.203  27.651  28.331  1.00  0.00     0.167 HD
ATOM     49  C   UNL A   1      39.924  29.929  30.193  1.00  0.00     0.034 A 
ATOM     50  C   UNL A   1      45.698  27.436  27.048  1.00  0.00     0.034 A 
ATOM     51  C   UNL A   1      41.018  30.866  30.079  1.00  0.00     0.049 A 
ATOM     52  C   UNL A   1      45.615  28.854  27.548  1.00  0.00     0.074 A 
ATOM     53  C   UNL A   1      41.094  32.167  30.543  1.00  0.00     0.029 A 
ATOM     54  N   UNL A   1      42.235  30.593  29.467  1.00  0.00    -0.354 N 
ATOM     55  N   UNL A   1      44.617  29.458  28.149  1.00  0.00    -0.248 NA
ATOM     56  C   UNL A   1      46.793  29.705  27.332  1.00  0.00     0.031 C 
ATOM     57  C   UNL A   1      42.331  32.699  30.165  1.00  0.00     0.029 A 
ATOM     58  C   UNL A   1      43.059  31.706  29.529  1.00  0.00     0.049 A 
ATOM     59  H   UNL A   1      42.477  29.734  29.050  1.00  0.00     0.167 HD
ATOM     60  C   UNL A   1      45.060  30.752  28.412  1.00  0.00     0.074 A 
ATOM     61  C   UNL A   1      46.414  30.839  27.903  1.00  0.00     0.031 C 
ATOM     62  C   UNL A   1      44.409  31.771  29.024  1.00  0.00     0.034 A 
BRANCH  49  63
ATOM     63  C   UNL A   1      38.636  30.392  30.833  1.00  0.00     0.023 A 
ATOM     64  C   UNL A   1      37.604  30.996  30.096  1.00  0.00     0.031 A 
ATOM     65  C   UNL A   1      38.452  30.243  32.221  1.00  0.00     0.131 A 
ATOM     66  C   UNL A   1      36.469  31.490  30.758  1.00  0.00     0.055 A 
ATOM     67  C   UNL A   1      37.285  30.665  32.862  1.00  0.00     0.041 A 
ATOM     68  F   UNL A   1      39.411  29.692  32.982  1.00  0.00    -0.206 F 
ATOM     69  C   UNL A   1      36.291  31.307  32.132  1.00  0.00     0.022 A 
BRANCH  66  70
ATOM     70  S   UNL A   1      35.289  32.502  29.822  1.00  0.00     0.124 S 
ATOM     71  O   UNL A   1      34.320  32.858  30.857  1.00  0.00    -0.237 OA
ATOM     72  O   UNL A   1      36.127  33.589  29.330  1.00  0.00    -0.237 OA
ATOM     73  O   UNL A   1      34.788  31.587  28.798  1.00  0.00    -0.744 OA
ENDBRANCH  66  70
ENDBRANCH  49  63
BRANCH  50  74
ATOM     74  C   UNL A   1      46.898  26.957  26.302  1.00  0.00     0.023 A 
ATOM     75  C   UNL A   1      47.979  26.364  26.973  1.00  0.00     0.031 A 
ATOM     76  C   UNL A   1      46.991  27.107  24.906  1.00  0.00     0.131 A 
ATOM     77  C   UNL A   1      49.119  25.973  26.252  1.00  0.00     0.055 A 
ATOM     78  C   UNL A   1      48.102  26.664  24.186  1.00  0.00     0.041 A 
ATOM     79  F   UNL A   1      45.987  27.669  24.214  1.00  0.00    -0.206 F 
ATOM     80  C   UNL A   1      49.180  26.103  24.862  1.00  0.00     0.022 A 
BRANCH  77  81
ATOM     81  S   UNL A   1      50.559  25.364  27.169  1.00  0.00     0.124 S 
ATOM     82  O   UNL A   1      51.467  24.998  26.087  1.00  0.00    -0.237 OA
ATOM     83  O   UNL A   1      50.935  26.533  27.956  1.00  0.00    -0.237 OA
ATOM     84  O   UNL A   1      50.022  24.243  27.939  1.00  0.00    -0.744 OA
ENDBRANCH  77  81
ENDBRANCH  50  74
BRANCH  62  85
ATOM     85  C   UNL A   1      45.184  33.043  29.252  1.00  0.00     0.023 A 
ATOM     86  C   UNL A   1      45.124  34.123  28.356  1.00  0.00     0.031 A 
ATOM     87  C   UNL A   1      45.981  33.174  30.404  1.00  0.00     0.131 A 
ATOM     88  C   UNL A   1      45.878  35.280  28.611  1.00  0.00     0.055 A 
ATOM     89  C   UNL A   1      46.690  34.343  30.675  1.00  0.00     0.041 A 
ATOM     90  F   UNL A   1      46.070  32.169  31.289  1.00  0.00    -0.206 F 
ATOM     91  C   UNL A   1      46.646  35.402  29.773  1.00  0.00     0.022 A 
BRANCH  88  92
ATOM     92  S   UNL A   1      45.880  36.613  27.381  1.00  0.00     0.124 S 
ATOM     93  O   UNL A   1      44.476  36.664  26.986  1.00  0.00    -0.237 OA
ATOM     94  O   UNL A   1      46.367  37.751  28.153  1.00  0.00    -0.237 OA
ATOM     95  O   UNL A   1      46.797  36.127  26.351  1.00  0.00    -0.744 OA
ENDBRANCH  88  92
ENDBRANCH  62  85
ENDBRANCH  36  37
ENDBRANCH  29  31
ENDBRANCH  28  29
ENDBRANCH   1  28
TORSDOF 19
ENDMDL
MODEL 2
REMARK VINA RESULT:     -12.2      4.551      9.827
REMARK SMILES CCCc1cc(OC(F)(F)F)cc2c1O[C@H](C(F)(F)F)C(C(=O)OCCOC(=O)c1ccc(-c3c4nc(c(-c5cc(S(=O)(=O)[O-])ccc5F)c5ccc([nH]5)c(-c5cc(S(=O)(=O)[O-])ccc5F)c5nc(c(-c6cc(S(=O)(=O)[O-])ccc6F)c6ccc3[nH]6)C=C5)C=C4)cc1)=C2
REMARK SMILES IDX 26 1 25 2 24 3 22 4 23 5 21 6 4 7 5 8 14 9 6 10 13 11 15 12
REMARK SMILES IDX 12 13 93 14 16 15 3 16 2 17 1 18 7 19 8 20 9 21 10 22 11 23
REMARK SMILES IDX 17 24 18 25 19 26 20 27 27 28 28 29 29 30 30 31 31 32 92 33
REMARK SMILES IDX 32 34 91 35 33 36 34 37 35 38 85 39 36 40 90 41 84 42 86 43
REMARK SMILES IDX 37 44 89 45 83 46 82 47 38 49 70 50 50 51 69 52 51 53 54 54
REMARK SMILES IDX 68 55 87 56 52 57 53 58 67 60 88 61 55 62 39 63 40 64 48 65
REMARK SMILES IDX 41 66 47 67 49 68 46 69 42 70 43 71 44 72 45 73 71 74 72 75
REMARK SMILES IDX 80 76 73 77 79 78 81 79 78 80 74 81 75 82 76 83 77 84 56 85
REMARK SMILES IDX 57 86 65 87 58 88 64 89 66 90 63 91 59 92 60 93 61 94 62 95
REMARK H PARENT 86 48 54 59
REMARK Flexibility Score: inf
ROOT
ATOM      1  C   UNL A   1      31.613  29.810  25.644  1.00  0.00     0.275 C 
ENDROOT
BRANCH   1   2
ATOM      2  C   UNL A   1      31.398  29.118  24.300  1.00  0.00     0.275 C 
BRANCH   2   3
ATOM      3  O   UNL A   1      30.816  27.807  24.461  1.00  0.00    -0.459 OA
BRANCH   3   4
ATOM      4  C   UNL A   1      31.049  26.952  23.437  1.00  0.00     0.338 C 
ATOM      5  O   UNL A   1      30.664  27.090  22.286  1.00  0.00    -0.246 OA
BRANCH   4   6
ATOM      6  C   UNL A   1      31.841  25.782  23.850  1.00  0.00     0.087 C 
ATOM      7  C   UNL A   1      34.518  22.595  23.863  1.00  0.00    -0.002 A 
ATOM      8  C   UNL A   1      34.061  21.344  24.302  1.00  0.00     0.054 A 
ATOM      9  C   UNL A   1      33.586  23.637  23.779  1.00  0.00     0.131 A 
ATOM     10  C   UNL A   1      32.706  21.125  24.583  1.00  0.00     0.130 A 
ATOM     11  C   UNL A   1      32.227  23.444  24.085  1.00  0.00     0.021 A 
ATOM     12  O   UNL A   1      34.048  24.864  23.371  1.00  0.00    -0.475 OA
ATOM     13  C   UNL A   1      31.793  22.181  24.477  1.00  0.00     0.058 A 
ATOM     14  C   UNL A   1      31.293  24.561  23.929  1.00  0.00     0.027 C 
ATOM     15  C   UNL A   1      33.334  25.974  23.964  1.00  0.00     0.316 C 
BRANCH   7  16
ATOM     16  C   UNL A   1      35.986  22.852  23.582  1.00  0.00     0.039 C 
BRANCH  16  17
ATOM     17  C   UNL A   1      36.928  22.804  24.790  1.00  0.00     0.001 C 
ATOM     18  C   UNL A   1      37.730  21.513  24.872  1.00  0.00     0.004 C 
ENDBRANCH  16  17
ENDBRANCH   7  16
BRANCH  10  19
ATOM     19  O   UNL A   1      32.150  19.940  24.977  1.00  0.00    -0.406 OA
BRANCH  19  20
ATOM     20  C   UNL A   1      32.494  18.783  24.235  1.00  0.00     0.573 C 
ATOM     21  F   UNL A   1      31.768  17.713  24.625  1.00  0.00    -0.132 F 
ATOM     22  F   UNL A   1      32.332  18.984  22.911  1.00  0.00    -0.132 F 
ATOM     23  F   UNL A   1      33.798  18.501  24.460  1.00  0.00    -0.132 F 
ENDBRANCH  19  20
ENDBRANCH  10  19
BRANCH  15  24
ATOM     24  C   UNL A   1      33.810  26.224  25.409  1.00  0.00     0.430 C 
ATOM     25  F   UNL A   1      34.297  27.480  25.544  1.00  0.00    -0.167 F 
ATOM     26  F   UNL A   1      32.793  26.091  26.288  1.00  0.00    -0.167 F 
ATOM     27  F   UNL A   1      34.780  25.367  25.800  1.00  0.00    -0.167 F 
ENDBRANCH  15  24
ENDBRANCH   4   6
ENDBRANCH   3   4
ENDBRANCH   2   3
ENDBRANCH   1   2
BRANCH   1  28
ATOM     28  O   UNL A   1      32.993  30.183  25.799  1.00  0.00    -0.458 OA
BRANCH  28  29
ATOM     29  C   UNL A   1      33.250  31.040  26.815  1.00  0.00     0.338 C 
ATOM     30  O   UNL A   1      32.497  31.888  27.264  1.00  0.00    -0.246 OA
BRANCH  29  31
ATOM     31  C   UNL A   1      34.616  30.824  27.326  1.00  0.00     0.060 A 
ATOM     32  C   UNL A   1      35.071  29.538  27.614  1.00  0.00     0.016 A 
ATOM     33  C   UNL A   1      35.393  31.928  27.665  1.00  0.00     0.016 A 
ATOM     34  C   UNL A   1      36.241  29.354  28.349  1.00  0.00     0.010 A 
ATOM     35  C   UNL A   1      36.628  31.734  28.290  1.00  0.00     0.010 A 
ATOM     36  C   UNL A   1      37.051  30.448  28.678  1.00  0.00    -0.014 A 
BRANCH  36  37
ATOM     37  C   UNL A   1      38.317  30.287  29.451  1.00  0.00     0.031 A 
ATOM     38  C   UNL A   1      39.417  29.420  28.895  1.00  0.00     0.074 A 
ATOM     39  C   UNL A   1      38.476  30.864  30.660  1.00  0.00     0.049 A 
ATOM     40  N   UNL A   1      40.424  28.855  29.509  1.00  0.00    -0.248 NA
ATOM     41  C   UNL A   1      39.353  29.130  27.454  1.00  0.00     0.031 C 
ATOM     42  C   UNL A   1      37.541  31.797  31.290  1.00  0.00     0.029 A 
ATOM     43  N   UNL A   1      39.482  30.730  31.588  1.00  0.00    -0.354 N 
ATOM     44  C   UNL A   1      41.071  28.084  28.549  1.00  0.00     0.074 A 
ATOM     45  C   UNL A   1      40.339  28.256  27.311  1.00  0.00     0.031 C 
ATOM     46  C   UNL A   1      38.020  32.159  32.489  1.00  0.00     0.029 A 
ATOM     47  C   UNL A   1      39.231  31.396  32.766  1.00  0.00     0.049 A 
ATOM     48  H   UNL A   1      40.301  30.208  31.426  1.00  0.00     0.167 HD
ATOM     49  C   UNL A   1      42.166  27.295  28.698  1.00  0.00     0.034 A 
ATOM     50  C   UNL A   1      39.852  31.343  33.962  1.00  0.00     0.034 A 
ATOM     51  C   UNL A   1      42.906  27.183  29.933  1.00  0.00     0.049 A 
ATOM     52  C   UNL A   1      41.027  30.417  34.129  1.00  0.00     0.074 A 
ATOM     53  C   UNL A   1      44.030  26.422  30.203  1.00  0.00     0.029 A 
ATOM     54  N   UNL A   1      42.602  27.866  31.104  1.00  0.00    -0.354 N 
ATOM     55  N   UNL A   1      41.571  29.609  33.250  1.00  0.00    -0.248 NA
ATOM     56  C   UNL A   1      41.662  30.382  35.453  1.00  0.00     0.031 C 
ATOM     57  C   UNL A   1      44.372  26.601  31.547  1.00  0.00     0.029 A 
ATOM     58  C   UNL A   1      43.506  27.531  32.099  1.00  0.00     0.049 A 
ATOM     59  H   UNL A   1      41.853  28.497  31.212  1.00  0.00     0.167 HD
ATOM     60  C   UNL A   1      42.632  28.992  33.907  1.00  0.00     0.074 A 
ATOM     61  C   UNL A   1      42.651  29.522  35.255  1.00  0.00     0.031 C 
ATOM     62  C   UNL A   1      43.514  28.076  33.436  1.00  0.00     0.034 A 
BRANCH  49  63
ATOM     63  C   UNL A   1      42.581  26.441  27.523  1.00  0.00     0.023 A 
ATOM     64  C   UNL A   1      42.132  25.120  27.358  1.00  0.00     0.031 A 
ATOM     65  C   UNL A   1      43.468  26.958  26.560  1.00  0.00     0.131 A 
ATOM     66  C   UNL A   1      42.624  24.342  26.297  1.00  0.00     0.055 A 
ATOM     67  C   UNL A   1      43.891  26.205  25.463  1.00  0.00     0.041 A 
ATOM     68  F   UNL A   1      43.948  28.207  26.675  1.00  0.00    -0.206 F 
ATOM     69  C   UNL A   1      43.480  24.883  25.336  1.00  0.00     0.022 A 
BRANCH  66  70
ATOM     70  S   UNL A   1      42.239  22.569  26.269  1.00  0.00     0.124 S 
ATOM     71  O   UNL A   1      42.872  22.110  27.504  1.00  0.00    -0.237 OA
ATOM     72  O   UNL A   1      40.781  22.563  26.258  1.00  0.00    -0.237 OA
ATOM     73  O   UNL A   1      42.876  22.098  25.039  1.00  0.00    -0.744 OA
ENDBRANCH  66  70
ENDBRANCH  49  63
BRANCH  50  74
ATOM     74  C   UNL A   1      39.322  32.124  35.117  1.00  0.00     0.023 A 
ATOM     75  C   UNL A   1      39.768  33.428  35.377  1.00  0.00     0.031 A 
ATOM     76  C   UNL A   1      38.375  31.565  35.995  1.00  0.00     0.131 A 
ATOM     77  C   UNL A   1      39.294  34.118  36.505  1.00  0.00     0.055 A 
ATOM     78  C   UNL A   1      37.862  32.275  37.081  1.00  0.00     0.041 A 
ATOM     79  F   UNL A   1      37.913  30.319  35.796  1.00  0.00    -0.206 F 
ATOM     80  C   UNL A   1      38.331  33.557  37.347  1.00  0.00     0.022 A 
BRANCH  77  81
ATOM     81  S   UNL A   1      40.014  35.734  36.900  1.00  0.00     0.124 S 
ATOM     82  O   UNL A   1      39.308  36.081  38.129  1.00  0.00    -0.237 OA
ATOM     83  O   UNL A   1      41.429  35.409  37.042  1.00  0.00    -0.237 OA
ATOM     84  O   UNL A   1      39.678  36.550  35.736  1.00  0.00    -0.744 OA
ENDBRANCH  77  81
ENDBRANCH  50  74
BRANCH  62  85
ATOM     85  C   UNL A   1      44.626  27.654  34.361  1.00  0.00     0.023 A 
ATOM     86  C   UNL A   1      44.498  26.553  35.224  1.00  0.00     0.031 A 
ATOM     87  C   UNL A   1      45.841  28.362  34.357  1.00  0.00     0.131 A 
ATOM     88  C   UNL A   1      45.561  26.211  36.075  1.00  0.00     0.055 A 
ATOM     89  C   UNL A   1      46.909  27.989  35.170  1.00  0.00     0.041 A 
ATOM     90  F   UNL A   1      46.010  29.421  33.550  1.00  0.00    -0.206 F 
ATOM     91  C   UNL A   1      46.770  26.911  36.041  1.00  0.00     0.022 A 
BRANCH  88  92
ATOM     92  S   UNL A   1      45.330  24.862  37.265  1.00  0.00     0.124 S 
ATOM     93  O   UNL A   1      43.923  25.009  37.622  1.00  0.00    -0.237 OA
ATOM     94  O   UNL A   1      45.668  23.683  36.474  1.00  0.00    -0.237 OA
ATOM     95  O   UNL A   1      46.277  25.181  38.332  1.00  0.00    -0.744 OA
ENDBRANCH  88  92
ENDBRANCH  62  85
ENDBRANCH  36  37
ENDBRANCH  29  31
ENDBRANCH  28  29
ENDBRANCH   1  28
TORSDOF 19
ENDMDL
MODEL 3
REMARK VINA RESULT:     -11.9      4.508      9.943
REMARK SMILES CCCc1cc(OC(F)(F)F)cc2c1O[C@H](C(F)(F)F)C(C(=O)OCCOC(=O)c1ccc(-c3c4nc(c(-c5cc(S(=O)(=O)[O-])ccc5F)c5ccc([nH]5)c(-c5cc(S(=O)(=O)[O-])ccc5F)c5nc(c(-c6cc(S(=O)(=O)[O-])ccc6F)c6ccc3[nH]6)C=C5)C=C4)cc1)=C2
REMARK SMILES IDX 26 1 25 2 24 3 22 4 23 5 21 6 4 7 5 8 14 9 6 10 13 11 15 12
REMARK SMILES IDX 12 13 93 14 16 15 3 16 2 17 1 18 7 19 8 20 9 21 10 22 11 23
REMARK SMILES IDX 17 24 18 25 19 26 20 27 27 28 28 29 29 30 30 31 31 32 92 33
REMARK SMILES IDX 32 34 91 35 33 36 34 37 35 38 85 39 36 40 90 41 84 42 86 43
REMARK SMILES IDX 37 44 89 45 83 46 82 47 38 49 70 50 50 51 69 52 51 53 54 54
REMARK SMILES IDX 68 55 87 56 52 57 53 58 67 60 88 61 55 62 39 63 40 64 48 65
REMARK SMILES IDX 41 66 47 67 49 68 46 69 42 70 43 71 44 72 45 73 71 74 72 75
REMARK SMILES IDX 80 76 73 77 79 78 81 79 78 80 74 81 75 82 76 83 77 84 56 85
REMARK SMILES IDX 57 86 65 87 58 88 64 89 66 90 63 91 59 92 60 93 61 94 62 95
REMARK H PARENT 86 48 54 59
REMARK Flexibility Score: inf
ROOT
ATOM      1  C   UNL A   1      32.098  29.566  24.825  1.00  0.00     0.275 C 
ENDROOT
BRANCH   1   2
ATOM      2  C   UNL A   1      32.049  28.123  24.329  1.00  0.00     0.275 C 
BRANCH   2   3
ATOM      3  O   UNL A   1      30.999  27.371  24.973  1.00  0.00    -0.459 OA
BRANCH   3   4
ATOM      4  C   UNL A   1      31.395  26.641  26.042  1.00  0.00     0.338 C 
ATOM      5  O   UNL A   1      31.229  26.939  27.215  1.00  0.00    -0.246 OA
BRANCH   4   6
ATOM      6  C   UNL A   1      32.082  25.399  25.652  1.00  0.00     0.087 C 
ATOM      7  C   UNL A   1      33.171  21.397  25.307  1.00  0.00    -0.002 A 
ATOM      8  C   UNL A   1      34.523  21.058  25.473  1.00  0.00     0.054 A 
ATOM      9  C   UNL A   1      32.804  22.732  25.513  1.00  0.00     0.131 A 
ATOM     10  C   UNL A   1      35.461  22.009  25.895  1.00  0.00     0.130 A 
ATOM     11  C   UNL A   1      33.737  23.707  25.909  1.00  0.00     0.021 A 
ATOM     12  O   UNL A   1      31.483  23.059  25.325  1.00  0.00    -0.475 OA
ATOM     13  C   UNL A   1      35.063  23.334  26.107  1.00  0.00     0.058 A 
ATOM     14  C   UNL A   1      33.281  25.075  26.157  1.00  0.00     0.027 C 
ATOM     15  C   UNL A   1      31.288  24.407  24.838  1.00  0.00     0.316 C 
BRANCH   7  16
ATOM     16  C   UNL A   1      32.151  20.384  24.824  1.00  0.00     0.039 C 
BRANCH  16  17
ATOM     17  C   UNL A   1      32.525  19.588  23.570  1.00  0.00     0.001 C 
ATOM     18  C   UNL A   1      32.563  18.084  23.805  1.00  0.00     0.004 C 
ENDBRANCH  16  17
ENDBRANCH   7  16
BRANCH  10  19
ATOM     19  O   UNL A   1      36.788  21.778  26.125  1.00  0.00    -0.406 OA
BRANCH  19  20
ATOM     20  C   UNL A   1      37.598  21.469  25.003  1.00  0.00     0.573 C 
ATOM     21  F   UNL A   1      37.121  22.043  23.878  1.00  0.00    -0.132 F 
ATOM     22  F   UNL A   1      38.876  21.850  25.202  1.00  0.00    -0.132 F 
ATOM     23  F   UNL A   1      37.583  20.129  24.820  1.00  0.00    -0.132 F 
ENDBRANCH  19  20
ENDBRANCH  10  19
BRANCH  15  24
ATOM     24  C   UNL A   1      31.570  24.490  23.325  1.00  0.00     0.430 C 
ATOM     25  F   UNL A   1      32.796  25.016  23.092  1.00  0.00    -0.167 F 
ATOM     26  F   UNL A   1      31.544  23.264  22.756  1.00  0.00    -0.167 F 
ATOM     27  F   UNL A   1      30.669  25.248  22.661  1.00  0.00    -0.167 F 
ENDBRANCH  15  24
ENDBRANCH   4   6
ENDBRANCH   3   4
ENDBRANCH   2   3
ENDBRANCH   1   2
BRANCH   1  28
ATOM     28  O   UNL A   1      33.245  29.765  25.669  1.00  0.00    -0.458 OA
BRANCH  28  29
ATOM     29  C   UNL A   1      33.112  30.737  26.604  1.00  0.00     0.338 C 
ATOM     30  O   UNL A   1      32.205  31.546  26.694  1.00  0.00    -0.246 OA
BRANCH  29  31
ATOM     31  C   UNL A   1      34.256  30.704  27.533  1.00  0.00     0.060 A 
ATOM     32  C   UNL A   1      35.008  31.854  27.775  1.00  0.00     0.016 A 
ATOM     33  C   UNL A   1      34.674  29.480  28.048  1.00  0.00     0.016 A 
ATOM     34  C   UNL A   1      36.239  31.765  28.423  1.00  0.00     0.010 A 
ATOM     35  C   UNL A   1      35.846  29.417  28.806  1.00  0.00     0.010 A 
ATOM     36  C   UNL A   1      36.667  30.549  28.971  1.00  0.00    -0.014 A 
BRANCH  36  37
ATOM     37  C   UNL A   1      37.971  30.422  29.683  1.00  0.00     0.031 A 
ATOM     38  C   UNL A   1      39.047  29.541  29.103  1.00  0.00     0.074 A 
ATOM     39  C   UNL A   1      38.186  31.042  30.861  1.00  0.00     0.049 A 
ATOM     40  N   UNL A   1      40.088  29.004  29.685  1.00  0.00    -0.248 NA
ATOM     41  C   UNL A   1      38.914  29.201  27.678  1.00  0.00     0.031 C 
ATOM     42  C   UNL A   1      37.278  31.992  31.505  1.00  0.00     0.029 A 
ATOM     43  N   UNL A   1      39.239  30.946  31.742  1.00  0.00    -0.354 N 
ATOM     44  C   UNL A   1      40.691  28.202  28.721  1.00  0.00     0.074 A 
ATOM     45  C   UNL A   1      39.897  28.328  27.516  1.00  0.00     0.031 C 
ATOM     46  C   UNL A   1      37.814  32.399  32.665  1.00  0.00     0.029 A 
ATOM     47  C   UNL A   1      39.043  31.652  32.907  1.00  0.00     0.049 A 
ATOM     48  H   UNL A   1      40.052  30.423  31.557  1.00  0.00     0.167 HD
ATOM     49  C   UNL A   1      41.798  27.426  28.841  1.00  0.00     0.034 A 
ATOM     50  C   UNL A   1      39.723  31.645  34.071  1.00  0.00     0.034 A 
ATOM     51  C   UNL A   1      42.600  27.362  30.041  1.00  0.00     0.049 A 
ATOM     52  C   UNL A   1      40.913  30.731  34.211  1.00  0.00     0.074 A 
ATOM     53  C   UNL A   1      43.741  26.616  30.280  1.00  0.00     0.029 A 
ATOM     54  N   UNL A   1      42.351  28.084  31.202  1.00  0.00    -0.354 N 
ATOM     55  N   UNL A   1      41.416  29.895  33.334  1.00  0.00    -0.248 NA
ATOM     56  C   UNL A   1      41.613  30.746  35.502  1.00  0.00     0.031 C 
ATOM     57  C   UNL A   1      44.150  26.844  31.598  1.00  0.00     0.029 A 
ATOM     58  C   UNL A   1      43.306  27.789  32.161  1.00  0.00     0.049 A 
ATOM     59  H   UNL A   1      41.604  28.714  31.325  1.00  0.00     0.167 HD
ATOM     60  C   UNL A   1      42.514  29.308  33.958  1.00  0.00     0.074 A 
ATOM     61  C   UNL A   1      42.597  29.885  35.284  1.00  0.00     0.031 C 
ATOM     62  C   UNL A   1      43.378  28.381  33.475  1.00  0.00     0.034 A 
BRANCH  49  63
ATOM     63  C   UNL A   1      42.160  26.532  27.678  1.00  0.00     0.023 A 
ATOM     64  C   UNL A   1      41.875  25.157  27.669  1.00  0.00     0.031 A 
ATOM     65  C   UNL A   1      42.827  27.073  26.562  1.00  0.00     0.131 A 
ATOM     66  C   UNL A   1      42.317  24.358  26.602  1.00  0.00     0.055 A 
ATOM     67  C   UNL A   1      43.194  26.287  25.468  1.00  0.00     0.041 A 
ATOM     68  F   UNL A   1      43.145  28.376  26.522  1.00  0.00    -0.206 F 
ATOM     69  C   UNL A   1      42.952  24.918  25.490  1.00  0.00     0.022 A 
BRANCH  66  70
ATOM     70  S   UNL A   1      42.177  22.555  26.749  1.00  0.00     0.124 S 
ATOM     71  O   UNL A   1      43.474  22.204  27.322  1.00  0.00    -0.237 OA
ATOM     72  O   UNL A   1      41.025  22.400  27.630  1.00  0.00    -0.237 OA
ATOM     73  O   UNL A   1      41.972  22.113  25.370  1.00  0.00    -0.744 OA
ENDBRANCH  66  70
ENDBRANCH  49  63
BRANCH  50  74
ATOM     74  C   UNL A   1      39.247  32.463  35.224  1.00  0.00     0.023 A 
ATOM     75  C   UNL A   1      39.739  33.758  35.446  1.00  0.00     0.031 A 
ATOM     76  C   UNL A   1      38.306  31.950  36.136  1.00  0.00     0.131 A 
ATOM     77  C   UNL A   1      39.314  34.482  36.572  1.00  0.00     0.055 A 
ATOM     78  C   UNL A   1      37.843  32.696  37.220  1.00  0.00     0.041 A 
ATOM     79  F   UNL A   1      37.802  30.715  35.972  1.00  0.00    -0.206 F 
ATOM     80  C   UNL A   1      38.356  33.967  37.449  1.00  0.00     0.022 A 
BRANCH  77  81
ATOM     81  S   UNL A   1      40.093  36.083  36.918  1.00  0.00     0.124 S 
ATOM     82  O   UNL A   1      39.281  36.574  38.026  1.00  0.00    -0.237 OA
ATOM     83  O   UNL A   1      41.459  35.691  37.245  1.00  0.00    -0.237 OA
ATOM     84  O   UNL A   1      39.940  36.813  35.661  1.00  0.00    -0.744 OA
ENDBRANCH  77  81
ENDBRANCH  50  74
BRANCH  62  85
ATOM     85  C   UNL A   1      44.537  27.997  34.357  1.00  0.00     0.023 A 
ATOM     86  C   UNL A   1      44.478  26.898  35.229  1.00  0.00     0.031 A 
ATOM     87  C   UNL A   1      45.730  28.741  34.301  1.00  0.00     0.131 A 
ATOM     88  C   UNL A   1      45.583  26.593  36.039  1.00  0.00     0.055 A 
ATOM     89  C   UNL A   1      46.840  28.405  35.073  1.00  0.00     0.041 A 
ATOM     90  F   UNL A   1      45.834  29.801  33.483  1.00  0.00    -0.206 F 
ATOM     91  C   UNL A   1      46.769  27.329  35.954  1.00  0.00     0.022 A 
BRANCH  88  92
ATOM     92  S   UNL A   1      45.441  25.245  37.244  1.00  0.00     0.124 S 
ATOM     93  O   UNL A   1      44.403  24.412  36.646  1.00  0.00    -0.237 OA
ATOM     94  O   UNL A   1      46.787  24.682  37.247  1.00  0.00    -0.237 OA
ATOM     95  O   UNL A   1      45.055  25.927  38.478  1.00  0.00    -0.744 OA
ENDBRANCH  88  92
ENDBRANCH  62  85
ENDBRANCH  36  37
ENDBRANCH  29  31
ENDBRANCH  28  29
ENDBRANCH   1  28
TORSDOF 19
ENDMDL
