MODEL 1
REMARK VINA RESULT:     -12.3      0.000      0.000
REMARK SMILES CC(C)c1ccc([C@]2(C(=O)OCCOC(=O)c3ccc(-c4c5nc(c(-c6cc(S(=O)(=O)[O-])ccc6F)c6ccc([nH]6)c(-c6cc(S(=O)(=O)[O-])ccc6F)c6nc(c(-c7cc(S(=O)(=O)[O-])ccc7F)c7ccc4[nH]7)C=C6)C=C5)cc3)CCC[C@@H]2C)cc1
REMARK SMILES IDX 13 1 12 2 11 3 9 4 10 5 8 6 80 7 83 8 81 9 82 10 84 11 7 12
REMARK SMILES IDX 4 13 5 14 86 15 6 16 85 17 2 18 1 19 3 20 14 21 15 22 16 23
REMARK SMILES IDX 17 24 18 25 79 26 19 27 78 28 20 29 21 30 22 31 72 32 23 33
REMARK SMILES IDX 77 34 71 35 73 36 24 37 76 38 70 39 69 40 25 42 57 43 37 44
REMARK SMILES IDX 56 45 38 46 41 47 55 48 74 49 39 50 40 51 54 53 75 54 42 55
REMARK SMILES IDX 26 56 27 57 35 58 28 59 34 60 36 61 33 62 29 63 30 64 31 65
REMARK SMILES IDX 32 66 58 67 59 68 67 69 60 70 66 71 68 72 65 73 61 74 62 75
REMARK SMILES IDX 63 76 64 77 43 78 44 79 52 80 45 81 51 82 53 83 50 84 46 85
REMARK SMILES IDX 47 86 48 87 49 88
REMARK H PARENT 73 41 41 52
REMARK Flexibility Score: inf
ROOT
ATOM      1  C   UNL A   1      31.780  30.130  26.850  1.00  0.00     0.275 C 
ENDROOT
BRANCH   1   2
ATOM      2  C   UNL A   1      31.740  28.733  27.458  1.00  0.00     0.274 C 
BRANCH   2   3
ATOM      3  O   UNL A   1      32.492  27.820  26.635  1.00  0.00    -0.461 OA
BRANCH   3   4
ATOM      4  C   UNL A   1      31.831  26.736  26.138  1.00  0.00     0.316 C 
ATOM      5  O   UNL A   1      31.290  25.890  26.844  1.00  0.00    -0.251 OA
BRANCH   4   6
ATOM      6  C   UNL A   1      31.930  26.631  24.585  1.00  0.00     0.095 C 
ATOM      7  C   UNL A   1      33.365  26.901  24.064  1.00  0.00     0.024 C 
ATOM      8  C   UNL A   1      31.771  25.112  24.238  1.00  0.00     0.008 C 
ATOM      9  C   UNL A   1      34.158  25.606  24.271  1.00  0.00     0.002 C 
ATOM     10  C   UNL A   1      33.138  24.527  24.624  1.00  0.00     0.005 C 
ATOM     11  C   UNL A   1      31.479  24.793  22.765  1.00  0.00     0.009 C 
BRANCH   6  12
ATOM     12  C   UNL A   1      30.870  27.554  23.961  1.00  0.00    -0.030 A 
ATOM     13  C   UNL A   1      28.853  29.270  22.863  1.00  0.00    -0.045 A 
ATOM     14  C   UNL A   1      28.541  27.987  23.326  1.00  0.00     0.004 A 
ATOM     15  C   UNL A   1      30.191  29.681  22.965  1.00  0.00     0.004 A 
ATOM     16  C   UNL A   1      29.525  27.154  23.877  1.00  0.00     0.005 A 
ATOM     17  C   UNL A   1      31.179  28.844  23.506  1.00  0.00     0.005 A 
BRANCH  13  18
ATOM     18  C   UNL A   1      27.803  30.257  22.357  1.00  0.00     0.013 C 
ATOM     19  C   UNL A   1      27.625  31.445  23.306  1.00  0.00     0.012 C 
ATOM     20  C   UNL A   1      28.022  30.778  20.930  1.00  0.00     0.012 C 
ENDBRANCH  13  18
ENDBRANCH   6  12
ENDBRANCH   4   6
ENDBRANCH   3   4
ENDBRANCH   2   3
ENDBRANCH   1   2
BRANCH   1  21
ATOM     21  O   UNL A   1      33.147  30.460  26.561  1.00  0.00    -0.458 OA
BRANCH  21  22
ATOM     22  C   UNL A   1      33.686  31.462  27.286  1.00  0.00     0.338 C 
ATOM     23  O   UNL A   1      33.174  32.545  27.549  1.00  0.00    -0.246 OA
BRANCH  22  24
ATOM     24  C   UNL A   1      35.026  31.061  27.740  1.00  0.00     0.060 A 
ATOM     25  C   UNL A   1      35.300  29.718  27.984  1.00  0.00     0.016 A 
ATOM     26  C   UNL A   1      35.987  32.033  28.024  1.00  0.00     0.016 A 
ATOM     27  C   UNL A   1      36.498  29.359  28.595  1.00  0.00     0.010 A 
ATOM     28  C   UNL A   1      37.224  31.651  28.561  1.00  0.00     0.010 A 
ATOM     29  C   UNL A   1      37.479  30.311  28.904  1.00  0.00    -0.014 A 
BRANCH  29  30
ATOM     30  C   UNL A   1      38.708  29.923  29.668  1.00  0.00     0.031 A 
ATOM     31  C   UNL A   1      39.735  29.011  29.035  1.00  0.00     0.074 A 
ATOM     32  C   UNL A   1      38.969  30.435  30.890  1.00  0.00     0.049 A 
ATOM     33  N   UNL A   1      40.746  28.388  29.587  1.00  0.00    -0.248 NA
ATOM     34  C   UNL A   1      39.596  28.760  27.592  1.00  0.00     0.031 C 
ATOM     35  C   UNL A   1      38.132  31.400  31.604  1.00  0.00     0.029 A 
ATOM     36  N   UNL A   1      40.034  30.240  31.737  1.00  0.00    -0.354 N 
ATOM     37  C   UNL A   1      41.304  27.599  28.583  1.00  0.00     0.074 A 
ATOM     38  C   UNL A   1      40.529  27.841  27.384  1.00  0.00     0.031 C 
ATOM     39  C   UNL A   1      38.750  31.769  32.736  1.00  0.00     0.029 A 
ATOM     40  C   UNL A   1      39.963  30.977  32.897  1.00  0.00     0.049 A 
ATOM     41  H   UNL A   1      40.779  29.629  31.532  1.00  0.00     0.167 HD
ATOM     42  C   UNL A   1      42.354  26.743  28.662  1.00  0.00     0.034 A 
ATOM     43  C   UNL A   1      40.749  30.982  33.994  1.00  0.00     0.034 A 
ATOM     44  C   UNL A   1      43.169  26.573  29.841  1.00  0.00     0.049 A 
ATOM     45  C   UNL A   1      41.904  30.019  34.068  1.00  0.00     0.074 A 
ATOM     46  C   UNL A   1      44.243  25.720  30.035  1.00  0.00     0.029 A 
ATOM     47  N   UNL A   1      43.022  27.294  31.019  1.00  0.00    -0.354 N 
ATOM     48  N   UNL A   1      42.320  29.157  33.168  1.00  0.00    -0.248 NA
ATOM     49  C   UNL A   1      42.672  30.002  35.319  1.00  0.00     0.031 C 
ATOM     50  C   UNL A   1      44.715  25.893  31.342  1.00  0.00     0.029 A 
ATOM     51  C   UNL A   1      43.977  26.898  31.944  1.00  0.00     0.049 A 
ATOM     52  H   UNL A   1      42.339  27.986  31.175  1.00  0.00     0.167 HD
ATOM     53  C   UNL A   1      43.389  28.487  33.754  1.00  0.00     0.074 A 
ATOM     54  C   UNL A   1      43.581  29.073  35.065  1.00  0.00     0.031 C 
ATOM     55  C   UNL A   1      44.137  27.468  33.260  1.00  0.00     0.034 A 
BRANCH  42  56
ATOM     56  C   UNL A   1      42.627  25.862  27.465  1.00  0.00     0.023 A 
ATOM     57  C   UNL A   1      42.142  24.548  27.365  1.00  0.00     0.031 A 
ATOM     58  C   UNL A   1      43.419  26.355  26.409  1.00  0.00     0.131 A 
ATOM     59  C   UNL A   1      42.504  23.753  26.265  1.00  0.00     0.055 A 
ATOM     60  C   UNL A   1      43.713  25.583  25.284  1.00  0.00     0.041 A 
ATOM     61  F   UNL A   1      43.928  27.596  26.459  1.00  0.00    -0.206 F 
ATOM     62  C   UNL A   1      43.265  24.269  25.212  1.00  0.00     0.022 A 
BRANCH  59  63
ATOM     63  S   UNL A   1      42.074  21.991  26.287  1.00  0.00     0.124 S 
ATOM     64  O   UNL A   1      42.913  21.468  25.212  1.00  0.00    -0.237 OA
ATOM     65  O   UNL A   1      42.445  21.592  27.639  1.00  0.00    -0.237 OA
ATOM     66  O   UNL A   1      40.639  21.984  26.005  1.00  0.00    -0.744 OA
ENDBRANCH  59  63
ENDBRANCH  42  56
BRANCH  43  67
ATOM     67  C   UNL A   1      40.416  31.859  35.155  1.00  0.00     0.023 A 
ATOM     68  C   UNL A   1      39.396  31.516  36.056  1.00  0.00     0.031 A 
ATOM     69  C   UNL A   1      41.095  33.075  35.357  1.00  0.00     0.131 A 
ATOM     70  C   UNL A   1      39.069  32.392  37.104  1.00  0.00     0.055 A 
ATOM     71  C   UNL A   1      40.805  33.912  36.434  1.00  0.00     0.041 A 
ATOM     72  F   UNL A   1      42.071  33.456  34.517  1.00  0.00    -0.206 F 
ATOM     73  C   UNL A   1      39.779  33.577  37.310  1.00  0.00     0.022 A 
BRANCH  70  74
ATOM     74  S   UNL A   1      37.647  31.995  38.160  1.00  0.00     0.124 S 
ATOM     75  O   UNL A   1      37.388  30.606  37.799  1.00  0.00    -0.237 OA
ATOM     76  O   UNL A   1      38.187  32.221  39.496  1.00  0.00    -0.237 OA
ATOM     77  O   UNL A   1      36.628  32.952  37.731  1.00  0.00    -0.744 OA
ENDBRANCH  70  74
ENDBRANCH  43  67
BRANCH  55  78
ATOM     78  C   UNL A   1      45.231  26.938  34.148  1.00  0.00     0.023 A 
ATOM     79  C   UNL A   1      45.038  25.793  34.942  1.00  0.00     0.031 A 
ATOM     80  C   UNL A   1      46.470  27.597  34.223  1.00  0.00     0.131 A 
ATOM     81  C   UNL A   1      46.051  25.372  35.816  1.00  0.00     0.055 A 
ATOM     82  C   UNL A   1      47.491  27.145  35.059  1.00  0.00     0.041 A 
ATOM     83  F   UNL A   1      46.704  28.695  33.486  1.00  0.00    -0.206 F 
ATOM     84  C   UNL A   1      47.281  26.034  35.870  1.00  0.00     0.022 A 
BRANCH  81  85
ATOM     85  S   UNL A   1      45.712  23.992  36.945  1.00  0.00     0.124 S 
ATOM     86  O   UNL A   1      47.058  23.560  37.309  1.00  0.00    -0.237 OA
ATOM     87  O   UNL A   1      44.941  24.636  38.004  1.00  0.00    -0.237 OA
ATOM     88  O   UNL A   1      44.961  23.049  36.119  1.00  0.00    -0.744 OA
ENDBRANCH  81  85
ENDBRANCH  55  78
ENDBRANCH  29  30
ENDBRANCH  22  24
ENDBRANCH  21  22
ENDBRANCH   1  21
TORSDOF 16
ENDMDL
MODEL 2
REMARK VINA RESULT:     -12.3      5.431     10.513
REMARK SMILES CC(C)c1ccc([C@]2(C(=O)OCCOC(=O)c3ccc(-c4c5nc(c(-c6cc(S(=O)(=O)[O-])ccc6F)c6ccc([nH]6)c(-c6cc(S(=O)(=O)[O-])ccc6F)c6nc(c(-c7cc(S(=O)(=O)[O-])ccc7F)c7ccc4[nH]7)C=C6)C=C5)cc3)CCC[C@@H]2C)cc1
REMARK SMILES IDX 13 1 12 2 11 3 9 4 10 5 8 6 80 7 83 8 81 9 82 10 84 11 7 12
REMARK SMILES IDX 4 13 5 14 86 15 6 16 85 17 2 18 1 19 3 20 14 21 15 22 16 23
REMARK SMILES IDX 17 24 18 25 79 26 19 27 78 28 20 29 21 30 22 31 72 32 23 33
REMARK SMILES IDX 77 34 71 35 73 36 24 37 76 38 70 39 69 40 25 42 57 43 37 44
REMARK SMILES IDX 56 45 38 46 41 47 55 48 74 49 39 50 40 51 54 53 75 54 42 55
REMARK SMILES IDX 26 56 27 57 35 58 28 59 34 60 36 61 33 62 29 63 30 64 31 65
REMARK SMILES IDX 32 66 58 67 59 68 67 69 60 70 66 71 68 72 65 73 61 74 62 75
REMARK SMILES IDX 63 76 64 77 43 78 44 79 52 80 45 81 51 82 53 83 50 84 46 85
REMARK SMILES IDX 47 86 48 87 49 88
REMARK H PARENT 73 41 41 52
REMARK Flexibility Score: inf
ROOT
ATOM      1  C   UNL A   1      36.885  21.618  23.935  1.00  0.00     0.275 C 
ENDROOT
BRANCH   1   2
ATOM      2  C   UNL A   1      36.599  22.920  23.196  1.00  0.00     0.274 C 
BRANCH   2   3
ATOM      3  O   UNL A   1      35.723  23.748  23.987  1.00  0.00    -0.461 OA
BRANCH   3   4
ATOM      4  C   UNL A   1      34.447  23.917  23.536  1.00  0.00     0.316 C 
ATOM      5  O   UNL A   1      34.174  24.421  22.451  1.00  0.00    -0.251 OA
BRANCH   4   6
ATOM      6  C   UNL A   1      33.377  23.502  24.592  1.00  0.00     0.095 C 
ATOM      7  C   UNL A   1      33.751  23.959  26.025  1.00  0.00     0.024 C 
ATOM      8  C   UNL A   1      32.120  24.396  24.316  1.00  0.00     0.008 C 
ATOM      9  C   UNL A   1      33.376  25.441  26.126  1.00  0.00     0.002 C 
ATOM     10  C   UNL A   1      32.537  25.759  24.892  1.00  0.00     0.005 C 
ATOM     11  C   UNL A   1      30.818  23.937  24.986  1.00  0.00     0.009 C 
BRANCH   6  12
ATOM     12  C   UNL A   1      33.134  21.989  24.477  1.00  0.00    -0.030 A 
ATOM     13  C   UNL A   1      32.725  19.164  24.199  1.00  0.00    -0.045 A 
ATOM     14  C   UNL A   1      32.386  20.051  23.171  1.00  0.00     0.004 A 
ATOM     15  C   UNL A   1      33.278  19.715  25.366  1.00  0.00     0.004 A 
ATOM     16  C   UNL A   1      32.601  21.431  23.302  1.00  0.00     0.005 A 
ATOM     17  C   UNL A   1      33.482  21.097  25.502  1.00  0.00     0.005 A 
BRANCH  13  18
ATOM     18  C   UNL A   1      32.615  17.647  24.067  1.00  0.00     0.013 C 
ATOM     19  C   UNL A   1      33.742  17.059  23.213  1.00  0.00     0.012 C 
ATOM     20  C   UNL A   1      32.530  16.874  25.390  1.00  0.00     0.012 C 
ENDBRANCH  13  18
ENDBRANCH   6  12
ENDBRANCH   4   6
ENDBRANCH   3   4
ENDBRANCH   2   3
ENDBRANCH   1   2
BRANCH   1  21
ATOM     21  O   UNL A   1      37.176  21.929  25.306  1.00  0.00    -0.458 OA
BRANCH  21  22
ATOM     22  C   UNL A   1      38.390  21.552  25.760  1.00  0.00     0.338 C 
ATOM     23  O   UNL A   1      38.901  20.441  25.673  1.00  0.00    -0.246 OA
BRANCH  22  24
ATOM     24  C   UNL A   1      39.045  22.705  26.398  1.00  0.00     0.060 A 
ATOM     25  C   UNL A   1      38.508  23.979  26.240  1.00  0.00     0.016 A 
ATOM     26  C   UNL A   1      40.256  22.535  27.070  1.00  0.00     0.016 A 
ATOM     27  C   UNL A   1      39.226  25.089  26.675  1.00  0.00     0.010 A 
ATOM     28  C   UNL A   1      40.931  23.653  27.580  1.00  0.00     0.010 A 
ATOM     29  C   UNL A   1      40.451  24.954  27.345  1.00  0.00    -0.014 A 
BRANCH  29  30
ATOM     30  C   UNL A   1      41.266  26.160  27.699  1.00  0.00     0.031 A 
ATOM     31  C   UNL A   1      40.703  27.203  28.638  1.00  0.00     0.074 A 
ATOM     32  C   UNL A   1      42.536  26.306  27.263  1.00  0.00     0.049 A 
ATOM     33  N   UNL A   1      41.143  28.408  28.903  1.00  0.00    -0.248 NA
ATOM     34  C   UNL A   1      39.475  26.845  29.364  1.00  0.00     0.031 C 
ATOM     35  C   UNL A   1      43.263  25.348  26.429  1.00  0.00     0.029 A 
ATOM     36  N   UNL A   1      43.455  27.303  27.491  1.00  0.00    -0.354 N 
ATOM     37  C   UNL A   1      40.199  28.984  29.751  1.00  0.00     0.074 A 
ATOM     38  C   UNL A   1      39.173  27.985  29.969  1.00  0.00     0.031 C 
ATOM     39  C   UNL A   1      44.530  25.763  26.282  1.00  0.00     0.029 A 
ATOM     40  C   UNL A   1      44.677  27.076  26.900  1.00  0.00     0.049 A 
ATOM     41  H   UNL A   1      43.257  28.105  28.027  1.00  0.00     0.167 HD
ATOM     42  C   UNL A   1      40.184  30.232  30.281  1.00  0.00     0.034 A 
ATOM     43  C   UNL A   1      45.777  27.852  26.812  1.00  0.00     0.034 A 
ATOM     44  C   UNL A   1      41.254  31.189  30.122  1.00  0.00     0.049 A 
ATOM     45  C   UNL A   1      45.739  29.239  27.397  1.00  0.00     0.074 A 
ATOM     46  C   UNL A   1      41.333  32.486  30.599  1.00  0.00     0.029 A 
ATOM     47  N   UNL A   1      42.449  30.941  29.459  1.00  0.00    -0.354 N 
ATOM     48  N   UNL A   1      44.770  29.831  28.056  1.00  0.00    -0.248 NA
ATOM     49  C   UNL A   1      46.930  30.074  27.196  1.00  0.00     0.031 C 
ATOM     50  C   UNL A   1      42.554  33.036  30.188  1.00  0.00     0.029 A 
ATOM     51  C   UNL A   1      43.264  32.062  29.506  1.00  0.00     0.049 A 
ATOM     52  H   UNL A   1      42.683  30.092  29.018  1.00  0.00     0.167 HD
ATOM     53  C   UNL A   1      45.232  31.114  28.332  1.00  0.00     0.074 A 
ATOM     54  C   UNL A   1      46.580  31.196  27.808  1.00  0.00     0.031 C 
ATOM     55  C   UNL A   1      44.593  32.140  28.951  1.00  0.00     0.034 A 
BRANCH  42  56
ATOM     56  C   UNL A   1      38.935  30.666  31.011  1.00  0.00     0.023 A 
ATOM     57  C   UNL A   1      37.819  31.204  30.350  1.00  0.00     0.031 A 
ATOM     58  C   UNL A   1      38.880  30.555  32.414  1.00  0.00     0.131 A 
ATOM     59  C   UNL A   1      36.722  31.666  31.097  1.00  0.00     0.055 A 
ATOM     60  C   UNL A   1      37.756  30.948  33.144  1.00  0.00     0.041 A 
ATOM     61  F   UNL A   1      39.925  30.068  33.102  1.00  0.00    -0.206 F 
ATOM     62  C   UNL A   1      36.673  31.520  32.486  1.00  0.00     0.022 A 
BRANCH  59  63
ATOM     63  S   UNL A   1      35.411  32.582  30.240  1.00  0.00     0.124 S 
ATOM     64  O   UNL A   1      34.400  32.702  31.287  1.00  0.00    -0.237 OA
ATOM     65  O   UNL A   1      36.086  33.816  29.858  1.00  0.00    -0.237 OA
ATOM     66  O   UNL A   1      35.046  31.701  29.131  1.00  0.00    -0.744 OA
ENDBRANCH  59  63
ENDBRANCH  42  56
BRANCH  43  67
ATOM     67  C   UNL A   1      46.975  27.379  26.058  1.00  0.00     0.023 A 
ATOM     68  C   UNL A   1      47.178  27.738  24.716  1.00  0.00     0.031 A 
ATOM     69  C   UNL A   1      47.917  26.528  26.663  1.00  0.00     0.131 A 
ATOM     70  C   UNL A   1      48.285  27.228  24.018  1.00  0.00     0.055 A 
ATOM     71  C   UNL A   1      49.046  26.072  25.983  1.00  0.00     0.041 A 
ATOM     72  F   UNL A   1      47.764  26.144  27.941  1.00  0.00    -0.206 F 
ATOM     73  C   UNL A   1      49.230  26.414  24.648  1.00  0.00     0.022 A 
BRANCH  70  74
ATOM     74  S   UNL A   1      48.438  27.586  22.246  1.00  0.00     0.124 S 
ATOM     75  O   UNL A   1      48.654  26.255  21.691  1.00  0.00    -0.237 OA
ATOM     76  O   UNL A   1      47.151  28.206  21.948  1.00  0.00    -0.237 OA
ATOM     77  O   UNL A   1      49.590  28.484  22.179  1.00  0.00    -0.744 OA
ENDBRANCH  70  74
ENDBRANCH  43  67
BRANCH  55  78
ATOM     78  C   UNL A   1      45.361  33.428  29.094  1.00  0.00     0.023 A 
ATOM     79  C   UNL A   1      45.262  34.448  28.131  1.00  0.00     0.031 A 
ATOM     80  C   UNL A   1      46.219  33.628  30.188  1.00  0.00     0.131 A 
ATOM     81  C   UNL A   1      46.050  35.602  28.254  1.00  0.00     0.055 A 
ATOM     82  C   UNL A   1      46.965  34.799  30.331  1.00  0.00     0.041 A 
ATOM     83  F   UNL A   1      46.350  32.684  31.134  1.00  0.00    -0.206 F 
ATOM     84  C   UNL A   1      46.891  35.789  29.355  1.00  0.00     0.022 A 
BRANCH  81  85
ATOM     85  S   UNL A   1      46.023  36.825  26.914  1.00  0.00     0.124 S 
ATOM     86  O   UNL A   1      44.615  37.208  26.880  1.00  0.00    -0.237 OA
ATOM     87  O   UNL A   1      46.949  37.843  27.401  1.00  0.00    -0.237 OA
ATOM     88  O   UNL A   1      46.489  36.071  25.752  1.00  0.00    -0.744 OA
ENDBRANCH  81  85
ENDBRANCH  55  78
ENDBRANCH  29  30
ENDBRANCH  22  24
ENDBRANCH  21  22
ENDBRANCH   1  21
TORSDOF 16
ENDMDL
MODEL 3
REMARK VINA RESULT:     -12.1      1.074      3.205
REMARK SMILES CC(C)c1ccc([C@]2(C(=O)OCCOC(=O)c3ccc(-c4c5nc(c(-c6cc(S(=O)(=O)[O-])ccc6F)c6ccc([nH]6)c(-c6cc(S(=O)(=O)[O-])ccc6F)c6nc(c(-c7cc(S(=O)(=O)[O-])ccc7F)c7ccc4[nH]7)C=C6)C=C5)cc3)CCC[C@@H]2C)cc1
REMARK SMILES IDX 13 1 12 2 11 3 9 4 10 5 8 6 80 7 83 8 81 9 82 10 84 11 7 12
REMARK SMILES IDX 4 13 5 14 86 15 6 16 85 17 2 18 1 19 3 20 14 21 15 22 16 23
REMARK SMILES IDX 17 24 18 25 79 26 19 27 78 28 20 29 21 30 22 31 72 32 23 33
REMARK SMILES IDX 77 34 71 35 73 36 24 37 76 38 70 39 69 40 25 42 57 43 37 44
REMARK SMILES IDX 56 45 38 46 41 47 55 48 74 49 39 50 40 51 54 53 75 54 42 55
REMARK SMILES IDX 26 56 27 57 35 58 28 59 34 60 36 61 33 62 29 63 30 64 31 65
REMARK SMILES IDX 32 66 58 67 59 68 67 69 60 70 66 71 68 72 65 73 61 74 62 75
REMARK SMILES IDX 63 76 64 77 43 78 44 79 52 80 45 81 51 82 53 83 50 84 46 85
REMARK SMILES IDX 47 86 48 87 49 88
REMARK H PARENT 73 41 41 52
REMARK Flexibility Score: inf
ROOT
ATOM      1  C   UNL A   1      31.672  30.213  26.708  1.00  0.00     0.275 C 
ENDROOT
BRANCH   1   2
ATOM      2  C   UNL A   1      31.778  28.771  27.192  1.00  0.00     0.274 C 
BRANCH   2   3
ATOM      3  O   UNL A   1      32.485  27.979  26.217  1.00  0.00    -0.461 OA
BRANCH   3   4
ATOM      4  C   UNL A   1      31.770  27.037  25.538  1.00  0.00     0.316 C 
ATOM      5  O   UNL A   1      30.845  26.403  26.034  1.00  0.00    -0.251 OA
BRANCH   4   6
ATOM      6  C   UNL A   1      32.326  26.780  24.104  1.00  0.00     0.095 C 
ATOM      7  C   UNL A   1      31.199  26.552  23.064  1.00  0.00     0.024 C 
ATOM      8  C   UNL A   1      32.911  28.146  23.610  1.00  0.00     0.008 C 
ATOM      9  C   UNL A   1      30.666  27.937  22.683  1.00  0.00     0.002 C 
ATOM     10  C   UNL A   1      31.651  28.951  23.258  1.00  0.00     0.005 C 
ATOM     11  C   UNL A   1      33.827  28.071  22.381  1.00  0.00     0.009 C 
BRANCH   6  12
ATOM     12  C   UNL A   1      33.339  25.625  24.169  1.00  0.00    -0.030 A 
ATOM     13  C   UNL A   1      35.200  23.453  24.360  1.00  0.00    -0.045 A 
ATOM     14  C   UNL A   1      35.150  24.453  25.337  1.00  0.00     0.004 A 
ATOM     15  C   UNL A   1      34.299  23.555  23.289  1.00  0.00     0.004 A 
ATOM     16  C   UNL A   1      34.229  25.507  25.251  1.00  0.00     0.005 A 
ATOM     17  C   UNL A   1      33.384  24.616  23.197  1.00  0.00     0.005 A 
BRANCH  13  18
ATOM     18  C   UNL A   1      36.106  22.227  24.461  1.00  0.00     0.013 C 
ATOM     19  C   UNL A   1      37.373  22.512  25.272  1.00  0.00     0.012 C 
ATOM     20  C   UNL A   1      35.437  20.956  25.001  1.00  0.00     0.012 C 
ENDBRANCH  13  18
ENDBRANCH   6  12
ENDBRANCH   4   6
ENDBRANCH   3   4
ENDBRANCH   2   3
ENDBRANCH   1   2
BRANCH   1  21
ATOM     21  O   UNL A   1      32.995  30.693  26.423  1.00  0.00    -0.458 OA
BRANCH  21  22
ATOM     22  C   UNL A   1      33.468  31.661  27.236  1.00  0.00     0.338 C 
ATOM     23  O   UNL A   1      32.909  32.707  27.546  1.00  0.00    -0.246 OA
BRANCH  22  24
ATOM     24  C   UNL A   1      34.801  31.273  27.723  1.00  0.00     0.060 A 
ATOM     25  C   UNL A   1      35.084  29.931  27.966  1.00  0.00     0.016 A 
ATOM     26  C   UNL A   1      35.742  32.254  28.039  1.00  0.00     0.016 A 
ATOM     27  C   UNL A   1      36.269  29.582  28.606  1.00  0.00     0.010 A 
ATOM     28  C   UNL A   1      36.968  31.883  28.606  1.00  0.00     0.010 A 
ATOM     29  C   UNL A   1      37.231  30.544  28.947  1.00  0.00    -0.014 A 
BRANCH  29  30
ATOM     30  C   UNL A   1      38.443  30.166  29.741  1.00  0.00     0.031 A 
ATOM     31  C   UNL A   1      39.516  29.302  29.117  1.00  0.00     0.074 A 
ATOM     32  C   UNL A   1      38.648  30.646  30.986  1.00  0.00     0.049 A 
ATOM     33  N   UNL A   1      40.525  28.689  29.684  1.00  0.00    -0.248 NA
ATOM     34  C   UNL A   1      39.433  29.092  27.663  1.00  0.00     0.031 C 
ATOM     35  C   UNL A   1      37.761  31.566  31.700  1.00  0.00     0.029 A 
ATOM     36  N   UNL A   1      39.689  30.453  31.863  1.00  0.00    -0.354 N 
ATOM     37  C   UNL A   1      41.139  27.947  28.676  1.00  0.00     0.074 A 
ATOM     38  C   UNL A   1      40.398  28.206  27.460  1.00  0.00     0.031 C 
ATOM     39  C   UNL A   1      38.330  31.915  32.863  1.00  0.00     0.029 A 
ATOM     40  C   UNL A   1      39.559  31.151  33.042  1.00  0.00     0.049 A 
ATOM     41  H   UNL A   1      40.458  29.869  31.666  1.00  0.00     0.167 HD
ATOM     42  C   UNL A   1      42.208  27.117  28.766  1.00  0.00     0.034 A 
ATOM     43  C   UNL A   1      40.306  31.143  34.165  1.00  0.00     0.034 A 
ATOM     44  C   UNL A   1      42.988  26.933  29.967  1.00  0.00     0.049 A 
ATOM     45  C   UNL A   1      41.485  30.209  34.250  1.00  0.00     0.074 A 
ATOM     46  C   UNL A   1      44.078  26.103  30.172  1.00  0.00     0.029 A 
ATOM     47  N   UNL A   1      42.781  27.612  31.160  1.00  0.00    -0.354 N 
ATOM     48  N   UNL A   1      41.954  29.388  33.339  1.00  0.00    -0.248 NA
ATOM     49  C   UNL A   1      42.210  30.174  35.526  1.00  0.00     0.031 C 
ATOM     50  C   UNL A   1      44.501  26.248  31.499  1.00  0.00     0.029 A 
ATOM     51  C   UNL A   1      43.715  27.214  32.106  1.00  0.00     0.049 A 
ATOM     52  H   UNL A   1      42.074  28.280  31.313  1.00  0.00     0.167 HD
ATOM     53  C   UNL A   1      43.022  28.729  33.942  1.00  0.00     0.074 A 
ATOM     54  C   UNL A   1      43.153  29.278  35.276  1.00  0.00     0.031 C 
ATOM     55  C   UNL A   1      43.814  27.747  33.442  1.00  0.00     0.034 A 
BRANCH  42  56
ATOM     56  C   UNL A   1      42.547  26.282  27.553  1.00  0.00     0.023 A 
ATOM     57  C   UNL A   1      42.111  24.955  27.402  1.00  0.00     0.031 A 
ATOM     58  C   UNL A   1      43.350  26.833  26.535  1.00  0.00     0.131 A 
ATOM     59  C   UNL A   1      42.532  24.206  26.290  1.00  0.00     0.055 A 
ATOM     60  C   UNL A   1      43.703  26.105  25.397  1.00  0.00     0.041 A 
ATOM     61  F   UNL A   1      43.813  28.089  26.635  1.00  0.00    -0.206 F 
ATOM     62  C   UNL A   1      43.304  24.779  25.276  1.00  0.00     0.022 A 
BRANCH  59  63
ATOM     63  S   UNL A   1      42.164  22.430  26.250  1.00  0.00     0.124 S 
ATOM     64  O   UNL A   1      42.831  21.962  27.463  1.00  0.00    -0.237 OA
ATOM     65  O   UNL A   1      40.707  22.408  26.273  1.00  0.00    -0.237 OA
ATOM     66  O   UNL A   1      42.776  21.982  25.001  1.00  0.00    -0.744 OA
ENDBRANCH  59  63
ENDBRANCH  42  56
BRANCH  43  67
ATOM     67  C   UNL A   1      39.911  31.975  35.340  1.00  0.00     0.023 A 
ATOM     68  C   UNL A   1      39.014  31.489  36.305  1.00  0.00     0.031 A 
ATOM     69  C   UNL A   1      40.399  33.285  35.493  1.00  0.00     0.131 A 
ATOM     70  C   UNL A   1      38.617  32.318  37.367  1.00  0.00     0.055 A 
ATOM     71  C   UNL A   1      40.047  34.082  36.581  1.00  0.00     0.041 A 
ATOM     72  F   UNL A   1      41.250  33.803  34.592  1.00  0.00    -0.206 F 
ATOM     73  C   UNL A   1      39.142  33.603  37.522  1.00  0.00     0.022 A 
BRANCH  70  74
ATOM     74  S   UNL A   1      37.343  31.717  38.511  1.00  0.00     0.124 S 
ATOM     75  O   UNL A   1      36.288  32.707  38.327  1.00  0.00    -0.237 OA
ATOM     76  O   UNL A   1      37.070  30.382  37.990  1.00  0.00    -0.237 OA
ATOM     77  O   UNL A   1      38.011  31.752  39.811  1.00  0.00    -0.744 OA
ENDBRANCH  70  74
ENDBRANCH  43  67
BRANCH  55  78
ATOM     78  C   UNL A   1      44.892  27.218  34.352  1.00  0.00     0.023 A 
ATOM     79  C   UNL A   1      44.693  26.062  35.128  1.00  0.00     0.031 A 
ATOM     80  C   UNL A   1      46.121  27.890  34.464  1.00  0.00     0.131 A 
ATOM     81  C   UNL A   1      45.689  25.643  36.023  1.00  0.00     0.055 A 
ATOM     82  C   UNL A   1      47.127  27.441  35.321  1.00  0.00     0.041 A 
ATOM     83  F   UNL A   1      46.360  28.999  33.746  1.00  0.00    -0.206 F 
ATOM     84  C   UNL A   1      46.909  26.318  36.114  1.00  0.00     0.022 A 
BRANCH  81  85
ATOM     85  S   UNL A   1      45.338  24.247  37.127  1.00  0.00     0.124 S 
ATOM     86  O   UNL A   1      44.561  23.364  36.263  1.00  0.00    -0.237 OA
ATOM     87  O   UNL A   1      46.676  23.781  37.477  1.00  0.00    -0.237 OA
ATOM     88  O   UNL A   1      44.589  24.856  38.224  1.00  0.00    -0.744 OA
ENDBRANCH  81  85
ENDBRANCH  55  78
ENDBRANCH  29  30
ENDBRANCH  22  24
ENDBRANCH  21  22
ENDBRANCH   1  21
TORSDOF 16
ENDMDL
