MODEL 1
REMARK VINA RESULT:     -12.0      0.000      0.000
REMARK SMILES Cc1nc(-c2ccc(C3CC3)cc2)sc1C(=O)OCCOC(=O)c1ccc(-c2c3nc(c(-c4cc(S(=O)(=O)[O-])ccc4F)c4ccc([nH]4)c(-c4cc(S(=O)(=O)[O-])ccc4F)c4nc(c(-c5cc(S(=O)(=O)[O-])ccc5F)c5ccc2[nH]5)C=C4)C=C3)cc1
REMARK SMILES IDX 20 1 19 2 18 3 16 4 17 5 15 6 1 7 2 8 3 9 4 10 14 11 5 12
REMARK SMILES IDX 6 13 13 14 7 15 12 16 8 17 9 18 10 19 11 20 21 21 22 22
REMARK SMILES IDX 23 23 24 24 25 25 86 26 26 27 85 28 27 29 28 30 29 31 79 32
REMARK SMILES IDX 30 33 84 34 78 35 80 36 31 37 83 38 77 39 76 40 32 42 64 43
REMARK SMILES IDX 44 44 63 45 45 46 48 47 62 48 81 49 46 50 47 51 61 53 82 54
REMARK SMILES IDX 49 55 33 56 34 57 42 58 35 59 41 60 43 61 40 62 36 63 37 64
REMARK SMILES IDX 38 65 39 66 65 67 66 68 74 69 67 70 73 71 75 72 72 73 68 74
REMARK SMILES IDX 69 75 70 76 71 77 50 78 51 79 59 80 52 81 58 82 60 83 57 84
REMARK SMILES IDX 53 85 54 86 55 87 56 88
REMARK H PARENT 80 41 48 52
REMARK Flexibility Score: inf
ROOT
ATOM      1  C   UNL A   1      36.231  20.576  25.016  1.00  0.00     0.275 C 
ENDROOT
BRANCH   1   2
ATOM      2  C   UNL A   1      34.827  21.168  24.862  1.00  0.00     0.275 C 
BRANCH   2   3
ATOM      3  O   UNL A   1      34.850  22.611  24.871  1.00  0.00    -0.458 OA
BRANCH   3   4
ATOM      4  C   UNL A   1      34.260  23.233  25.936  1.00  0.00     0.350 C 
ATOM      5  O   UNL A   1      34.739  23.237  27.062  1.00  0.00    -0.245 OA
BRANCH   4   6
ATOM      6  C   UNL A   1      33.053  23.928  25.530  1.00  0.00     0.135 A 
ATOM      7  C   UNL A   1      31.102  22.242  25.786  1.00  0.00     0.068 C 
ATOM      8  C   UNL A   1      31.730  23.531  25.394  1.00  0.00     0.064 A 
ATOM      9  N   UNL A   1      30.877  24.499  24.864  1.00  0.00    -0.240 NA
ATOM     10  C   UNL A   1      31.539  25.607  24.611  1.00  0.00     0.124 A 
ATOM     11  S   UNL A   1      33.161  25.610  25.153  1.00  0.00    -0.106 S 
BRANCH  10  12
ATOM     12  C   UNL A   1      30.984  26.837  24.049  1.00  0.00     0.010 A 
ATOM     13  C   UNL A   1      29.641  26.878  23.676  1.00  0.00     0.011 A 
ATOM     14  C   UNL A   1      31.750  28.001  23.923  1.00  0.00     0.011 A 
ATOM     15  C   UNL A   1      29.064  28.072  23.232  1.00  0.00     0.005 A 
ATOM     16  C   UNL A   1      31.163  29.195  23.473  1.00  0.00     0.005 A 
ATOM     17  C   UNL A   1      29.800  29.268  23.139  1.00  0.00    -0.045 A 
BRANCH  17  18
ATOM     18  C   UNL A   1      29.079  30.542  22.742  1.00  0.00     0.019 C 
ATOM     19  C   UNL A   1      27.589  30.737  22.863  1.00  0.00     0.009 C 
ATOM     20  C   UNL A   1      28.512  31.452  23.804  1.00  0.00     0.009 C 
ENDBRANCH  17  18
ENDBRANCH  10  12
ENDBRANCH   4   6
ENDBRANCH   3   4
ENDBRANCH   2   3
ENDBRANCH   1   2
BRANCH   1  21
ATOM     21  O   UNL A   1      37.228  21.606  25.145  1.00  0.00    -0.458 OA
BRANCH  21  22
ATOM     22  C   UNL A   1      38.400  21.194  25.683  1.00  0.00     0.338 C 
ATOM     23  O   UNL A   1      38.898  20.085  25.588  1.00  0.00    -0.246 OA
BRANCH  22  24
ATOM     24  C   UNL A   1      39.105  22.337  26.278  1.00  0.00     0.060 A 
ATOM     25  C   UNL A   1      38.587  23.600  26.012  1.00  0.00     0.016 A 
ATOM     26  C   UNL A   1      40.303  22.202  26.975  1.00  0.00     0.016 A 
ATOM     27  C   UNL A   1      39.278  24.745  26.385  1.00  0.00     0.010 A 
ATOM     28  C   UNL A   1      40.977  23.357  27.400  1.00  0.00     0.010 A 
ATOM     29  C   UNL A   1      40.481  24.639  27.089  1.00  0.00    -0.014 A 
BRANCH  29  30
ATOM     30  C   UNL A   1      41.225  25.876  27.451  1.00  0.00     0.031 A 
ATOM     31  C   UNL A   1      40.574  26.915  28.323  1.00  0.00     0.074 A 
ATOM     32  C   UNL A   1      42.497  26.043  27.037  1.00  0.00     0.049 A 
ATOM     33  N   UNL A   1      41.003  28.105  28.656  1.00  0.00    -0.248 NA
ATOM     34  C   UNL A   1      39.262  26.568  28.889  1.00  0.00     0.031 C 
ATOM     35  C   UNL A   1      43.261  25.075  26.246  1.00  0.00     0.029 A 
ATOM     36  N   UNL A   1      43.377  27.080  27.227  1.00  0.00    -0.354 N 
ATOM     37  C   UNL A   1      40.003  28.663  29.446  1.00  0.00     0.074 A 
ATOM     38  C   UNL A   1      38.933  27.689  29.515  1.00  0.00     0.031 C 
ATOM     39  C   UNL A   1      44.496  25.555  26.036  1.00  0.00     0.029 A 
ATOM     40  C   UNL A   1      44.588  26.897  26.599  1.00  0.00     0.049 A 
ATOM     41  H   UNL A   1      43.162  27.879  27.762  1.00  0.00     0.167 HD
ATOM     42  C   UNL A   1      39.984  29.875  30.057  1.00  0.00     0.034 A 
ATOM     43  C   UNL A   1      45.636  27.732  26.452  1.00  0.00     0.034 A 
ATOM     44  C   UNL A   1      41.070  30.824  29.984  1.00  0.00     0.049 A 
ATOM     45  C   UNL A   1      45.555  29.108  27.063  1.00  0.00     0.074 A 
ATOM     46  C   UNL A   1      41.158  32.080  30.561  1.00  0.00     0.029 A 
ATOM     47  N   UNL A   1      42.258  30.626  29.291  1.00  0.00    -0.354 N 
ATOM     48  N   UNL A   1      44.584  29.643  27.770  1.00  0.00    -0.248 NA
ATOM     49  C   UNL A   1      46.707  29.993  26.856  1.00  0.00     0.031 C 
ATOM     50  C   UNL A   1      42.360  32.667  30.156  1.00  0.00     0.029 A 
ATOM     51  C   UNL A   1      43.068  31.747  29.400  1.00  0.00     0.049 A 
ATOM     52  H   UNL A   1      42.492  29.808  28.795  1.00  0.00     0.167 HD
ATOM     53  C   UNL A   1      45.024  30.917  28.113  1.00  0.00     0.074 A 
ATOM     54  C   UNL A   1      46.353  31.062  27.553  1.00  0.00     0.031 C 
ATOM     55  C   UNL A   1      44.388  31.881  28.828  1.00  0.00     0.034 A 
BRANCH  42  56
ATOM     56  C   UNL A   1      38.727  30.262  30.802  1.00  0.00     0.023 A 
ATOM     57  C   UNL A   1      37.655  30.914  30.170  1.00  0.00     0.031 A 
ATOM     58  C   UNL A   1      38.613  29.996  32.179  1.00  0.00     0.131 A 
ATOM     59  C   UNL A   1      36.552  31.342  30.925  1.00  0.00     0.055 A 
ATOM     60  C   UNL A   1      37.475  30.348  32.908  1.00  0.00     0.041 A 
ATOM     61  F   UNL A   1      39.613  29.396  32.844  1.00  0.00    -0.206 F 
ATOM     62  C   UNL A   1      36.442  31.040  32.284  1.00  0.00     0.022 A 
BRANCH  59  63
ATOM     63  S   UNL A   1      35.330  32.429  30.138  1.00  0.00     0.124 S 
ATOM     64  O   UNL A   1      34.902  31.616  29.002  1.00  0.00    -0.237 OA
ATOM     65  O   UNL A   1      34.346  32.616  31.197  1.00  0.00    -0.237 OA
ATOM     66  O   UNL A   1      36.105  33.617  29.787  1.00  0.00    -0.744 OA
ENDBRANCH  59  63
ENDBRANCH  42  56
BRANCH  43  67
ATOM     67  C   UNL A   1      46.818  27.325  25.636  1.00  0.00     0.023 A 
ATOM     68  C   UNL A   1      46.994  27.788  24.323  1.00  0.00     0.031 A 
ATOM     69  C   UNL A   1      47.768  26.419  26.145  1.00  0.00     0.131 A 
ATOM     70  C   UNL A   1      48.064  27.310  23.549  1.00  0.00     0.055 A 
ATOM     71  C   UNL A   1      48.867  25.998  25.395  1.00  0.00     0.041 A 
ATOM     72  F   UNL A   1      47.648  25.937  27.392  1.00  0.00    -0.206 F 
ATOM     73  C   UNL A   1      49.011  26.433  24.082  1.00  0.00     0.022 A 
BRANCH  70  74
ATOM     74  S   UNL A   1      48.142  27.770  21.796  1.00  0.00     0.124 S 
ATOM     75  O   UNL A   1      48.315  26.470  21.157  1.00  0.00    -0.237 OA
ATOM     76  O   UNL A   1      46.851  28.419  21.594  1.00  0.00    -0.237 OA
ATOM     77  O   UNL A   1      49.302  28.658  21.729  1.00  0.00    -0.744 OA
ENDBRANCH  70  74
ENDBRANCH  43  67
BRANCH  55  78
ATOM     78  C   UNL A   1      45.152  33.158  29.086  1.00  0.00     0.023 A 
ATOM     79  C   UNL A   1      45.163  34.218  28.163  1.00  0.00     0.031 A 
ATOM     80  C   UNL A   1      45.894  33.307  30.272  1.00  0.00     0.131 A 
ATOM     81  C   UNL A   1      45.948  35.354  28.413  1.00  0.00     0.055 A 
ATOM     82  C   UNL A   1      46.620  34.467  30.546  1.00  0.00     0.041 A 
ATOM     83  F   UNL A   1      45.926  32.325  31.187  1.00  0.00    -0.206 F 
ATOM     84  C   UNL A   1      46.660  35.493  29.606  1.00  0.00     0.022 A 
BRANCH  81  85
ATOM     85  S   UNL A   1      46.110  36.605  27.109  1.00  0.00     0.124 S 
ATOM     86  O   UNL A   1      44.874  37.365  27.264  1.00  0.00    -0.237 OA
ATOM     87  O   UNL A   1      47.336  37.297  27.492  1.00  0.00    -0.237 OA
ATOM     88  O   UNL A   1      46.202  35.814  25.884  1.00  0.00    -0.744 OA
ENDBRANCH  81  85
ENDBRANCH  55  78
ENDBRANCH  29  30
ENDBRANCH  22  24
ENDBRANCH  21  22
ENDBRANCH   1  21
TORSDOF 16
ENDMDL
MODEL 2
REMARK VINA RESULT:     -11.9      5.205     10.548
REMARK SMILES Cc1nc(-c2ccc(C3CC3)cc2)sc1C(=O)OCCOC(=O)c1ccc(-c2c3nc(c(-c4cc(S(=O)(=O)[O-])ccc4F)c4ccc([nH]4)c(-c4cc(S(=O)(=O)[O-])ccc4F)c4nc(c(-c5cc(S(=O)(=O)[O-])ccc5F)c5ccc2[nH]5)C=C4)C=C3)cc1
REMARK SMILES IDX 20 1 19 2 18 3 16 4 17 5 15 6 1 7 2 8 3 9 4 10 14 11 5 12
REMARK SMILES IDX 6 13 13 14 7 15 12 16 8 17 9 18 10 19 11 20 21 21 22 22
REMARK SMILES IDX 23 23 24 24 25 25 86 26 26 27 85 28 27 29 28 30 29 31 79 32
REMARK SMILES IDX 30 33 84 34 78 35 80 36 31 37 83 38 77 39 76 40 32 42 64 43
REMARK SMILES IDX 44 44 63 45 45 46 48 47 62 48 81 49 46 50 47 51 61 53 82 54
REMARK SMILES IDX 49 55 33 56 34 57 42 58 35 59 41 60 43 61 40 62 36 63 37 64
REMARK SMILES IDX 38 65 39 66 65 67 66 68 74 69 67 70 73 71 75 72 72 73 68 74
REMARK SMILES IDX 69 75 70 76 71 77 50 78 51 79 59 80 52 81 58 82 60 83 57 84
REMARK SMILES IDX 53 85 54 86 55 87 56 88
REMARK H PARENT 80 41 48 52
REMARK Flexibility Score: inf
ROOT
ATOM      1  C   UNL A   1      31.417  30.857  25.913  1.00  0.00     0.275 C 
ENDROOT
BRANCH   1   2
ATOM      2  C   UNL A   1      31.186  29.664  24.979  1.00  0.00     0.275 C 
BRANCH   2   3
ATOM      3  O   UNL A   1      30.274  29.991  23.909  1.00  0.00    -0.458 OA
BRANCH   3   4
ATOM      4  C   UNL A   1      30.377  29.256  22.762  1.00  0.00     0.350 C 
ATOM      5  O   UNL A   1      30.202  29.724  21.645  1.00  0.00    -0.245 OA
BRANCH   4   6
ATOM      6  C   UNL A   1      30.783  27.893  23.051  1.00  0.00     0.135 A 
ATOM      7  C   UNL A   1      28.667  26.647  23.877  1.00  0.00     0.068 C 
ATOM      8  C   UNL A   1      30.114  26.796  23.576  1.00  0.00     0.064 A 
ATOM      9  N   UNL A   1      30.912  25.672  23.798  1.00  0.00    -0.240 NA
ATOM     10  C   UNL A   1      32.154  25.913  23.442  1.00  0.00     0.124 A 
ATOM     11  S   UNL A   1      32.397  27.417  22.666  1.00  0.00    -0.106 S 
BRANCH  10  12
ATOM     12  C   UNL A   1      33.275  24.978  23.530  1.00  0.00     0.010 A 
ATOM     13  C   UNL A   1      34.222  25.134  24.542  1.00  0.00     0.011 A 
ATOM     14  C   UNL A   1      33.399  23.891  22.658  1.00  0.00     0.011 A 
ATOM     15  C   UNL A   1      35.245  24.194  24.707  1.00  0.00     0.005 A 
ATOM     16  C   UNL A   1      34.431  22.954  22.830  1.00  0.00     0.005 A 
ATOM     17  C   UNL A   1      35.365  23.067  23.873  1.00  0.00    -0.045 A 
BRANCH  17  18
ATOM     18  C   UNL A   1      36.443  22.044  24.177  1.00  0.00     0.019 C 
ATOM     19  C   UNL A   1      37.065  21.858  25.538  1.00  0.00     0.009 C 
ATOM     20  C   UNL A   1      36.114  20.826  25.006  1.00  0.00     0.009 C 
ENDBRANCH  17  18
ENDBRANCH  10  12
ENDBRANCH   4   6
ENDBRANCH   3   4
ENDBRANCH   2   3
ENDBRANCH   1   2
BRANCH   1  21
ATOM     21  O   UNL A   1      32.562  30.651  26.760  1.00  0.00    -0.458 OA
BRANCH  21  22
ATOM     22  C   UNL A   1      33.165  31.788  27.181  1.00  0.00     0.338 C 
ATOM     23  O   UNL A   1      32.666  32.899  27.245  1.00  0.00    -0.246 OA
BRANCH  22  24
ATOM     24  C   UNL A   1      34.491  31.476  27.729  1.00  0.00     0.060 A 
ATOM     25  C   UNL A   1      34.727  30.151  28.083  1.00  0.00     0.016 A 
ATOM     26  C   UNL A   1      35.441  32.455  28.004  1.00  0.00     0.016 A 
ATOM     27  C   UNL A   1      35.882  29.793  28.765  1.00  0.00     0.010 A 
ATOM     28  C   UNL A   1      36.634  32.087  28.645  1.00  0.00     0.010 A 
ATOM     29  C   UNL A   1      36.855  30.755  29.051  1.00  0.00    -0.014 A 
BRANCH  29  30
ATOM     30  C   UNL A   1      38.070  30.358  29.812  1.00  0.00     0.031 A 
ATOM     31  C   UNL A   1      39.066  29.415  29.196  1.00  0.00     0.074 A 
ATOM     32  C   UNL A   1      38.302  30.882  31.032  1.00  0.00     0.049 A 
ATOM     33  N   UNL A   1      40.122  28.858  29.731  1.00  0.00    -0.248 NA
ATOM     34  C   UNL A   1      38.837  29.043  27.792  1.00  0.00     0.031 C 
ATOM     35  C   UNL A   1      37.447  31.862  31.707  1.00  0.00     0.029 A 
ATOM     36  N   UNL A   1      39.327  30.673  31.922  1.00  0.00    -0.354 N 
ATOM     37  C   UNL A   1      40.668  28.048  28.741  1.00  0.00     0.074 A 
ATOM     38  C   UNL A   1      39.807  28.164  27.584  1.00  0.00     0.031 C 
ATOM     39  C   UNL A   1      37.991  32.181  32.891  1.00  0.00     0.029 A 
ATOM     40  C   UNL A   1      39.184  31.370  33.101  1.00  0.00     0.049 A 
ATOM     41  H   UNL A   1      40.092  30.082  31.734  1.00  0.00     0.167 HD
ATOM     42  C   UNL A   1      41.787  27.281  28.797  1.00  0.00     0.034 A 
ATOM     43  C   UNL A   1      39.903  31.324  34.240  1.00  0.00     0.034 A 
ATOM     44  C   UNL A   1      42.639  27.192  29.960  1.00  0.00     0.049 A 
ATOM     45  C   UNL A   1      41.090  30.397  34.310  1.00  0.00     0.074 A 
ATOM     46  C   UNL A   1      43.794  26.447  30.128  1.00  0.00     0.029 A 
ATOM     47  N   UNL A   1      42.430  27.868  31.156  1.00  0.00    -0.354 N 
ATOM     48  N   UNL A   1      41.570  29.599  33.383  1.00  0.00    -0.248 NA
ATOM     49  C   UNL A   1      41.828  30.360  35.577  1.00  0.00     0.031 C 
ATOM     50  C   UNL A   1      44.237  26.613  31.444  1.00  0.00     0.029 A 
ATOM     51  C   UNL A   1      43.414  27.532  32.074  1.00  0.00     0.049 A 
ATOM     52  H   UNL A   1      41.690  28.495  31.328  1.00  0.00     0.167 HD
ATOM     53  C   UNL A   1      42.684  28.988  33.949  1.00  0.00     0.074 A 
ATOM     54  C   UNL A   1      42.814  29.524  35.290  1.00  0.00     0.031 C 
ATOM     55  C   UNL A   1      43.525  28.068  33.412  1.00  0.00     0.034 A 
BRANCH  42  56
ATOM     56  C   UNL A   1      42.114  26.435  27.588  1.00  0.00     0.023 A 
ATOM     57  C   UNL A   1      41.751  25.080  27.504  1.00  0.00     0.031 A 
ATOM     58  C   UNL A   1      42.829  26.989  26.511  1.00  0.00     0.131 A 
ATOM     59  C   UNL A   1      42.164  24.310  26.406  1.00  0.00     0.055 A 
ATOM     60  C   UNL A   1      43.163  26.239  25.381  1.00  0.00     0.041 A 
ATOM     61  F   UNL A   1      43.225  28.272  26.542  1.00  0.00    -0.206 F 
ATOM     62  C   UNL A   1      42.844  24.887  25.331  1.00  0.00     0.022 A 
BRANCH  59  63
ATOM     63  S   UNL A   1      41.930  22.511  26.468  1.00  0.00     0.124 S 
ATOM     64  O   UNL A   1      42.649  22.080  25.272  1.00  0.00    -0.237 OA
ATOM     65  O   UNL A   1      42.541  22.158  27.743  1.00  0.00    -0.237 OA
ATOM     66  O   UNL A   1      40.479  22.352  26.405  1.00  0.00    -0.744 OA
ENDBRANCH  59  63
ENDBRANCH  42  56
BRANCH  43  67
ATOM     67  C   UNL A   1      39.485  32.123  35.431  1.00  0.00     0.023 A 
ATOM     68  C   UNL A   1      38.766  31.540  36.485  1.00  0.00     0.031 A 
ATOM     69  C   UNL A   1      39.755  33.502  35.505  1.00  0.00     0.131 A 
ATOM     70  C   UNL A   1      38.303  32.339  37.544  1.00  0.00     0.055 A 
ATOM     71  C   UNL A   1      39.351  34.280  36.591  1.00  0.00     0.041 A 
ATOM     72  F   UNL A   1      40.433  34.117  34.521  1.00  0.00    -0.206 F 
ATOM     73  C   UNL A   1      38.606  33.700  37.612  1.00  0.00     0.022 A 
BRANCH  70  74
ATOM     74  S   UNL A   1      37.206  31.593  38.780  1.00  0.00     0.124 S 
ATOM     75  O   UNL A   1      36.042  32.469  38.711  1.00  0.00    -0.237 OA
ATOM     76  O   UNL A   1      37.027  30.244  38.254  1.00  0.00    -0.237 OA
ATOM     77  O   UNL A   1      37.980  31.679  40.018  1.00  0.00    -0.744 OA
ENDBRANCH  70  74
ENDBRANCH  43  67
BRANCH  55  78
ATOM     78  C   UNL A   1      44.692  27.626  34.262  1.00  0.00     0.023 A 
ATOM     79  C   UNL A   1      44.637  26.466  35.055  1.00  0.00     0.031 A 
ATOM     80  C   UNL A   1      45.873  28.390  34.290  1.00  0.00     0.131 A 
ATOM     81  C   UNL A   1      45.718  26.137  35.887  1.00  0.00     0.055 A 
ATOM     82  C   UNL A   1      46.971  28.021  35.069  1.00  0.00     0.041 A 
ATOM     83  F   UNL A   1      45.980  29.510  33.558  1.00  0.00    -0.206 F 
ATOM     84  C   UNL A   1      46.891  26.896  35.884  1.00  0.00     0.022 A 
BRANCH  81  85
ATOM     85  S   UNL A   1      45.532  24.761  37.054  1.00  0.00     0.124 S 
ATOM     86  O   UNL A   1      45.232  25.458  38.300  1.00  0.00    -0.237 OA
ATOM     87  O   UNL A   1      44.431  24.002  36.468  1.00  0.00    -0.237 OA
ATOM     88  O   UNL A   1      46.833  24.097  37.012  1.00  0.00    -0.744 OA
ENDBRANCH  81  85
ENDBRANCH  55  78
ENDBRANCH  29  30
ENDBRANCH  22  24
ENDBRANCH  21  22
ENDBRANCH   1  21
TORSDOF 16
ENDMDL
MODEL 3
REMARK VINA RESULT:     -11.9      5.251     10.485
REMARK SMILES Cc1nc(-c2ccc(C3CC3)cc2)sc1C(=O)OCCOC(=O)c1ccc(-c2c3nc(c(-c4cc(S(=O)(=O)[O-])ccc4F)c4ccc([nH]4)c(-c4cc(S(=O)(=O)[O-])ccc4F)c4nc(c(-c5cc(S(=O)(=O)[O-])ccc5F)c5ccc2[nH]5)C=C4)C=C3)cc1
REMARK SMILES IDX 20 1 19 2 18 3 16 4 17 5 15 6 1 7 2 8 3 9 4 10 14 11 5 12
REMARK SMILES IDX 6 13 13 14 7 15 12 16 8 17 9 18 10 19 11 20 21 21 22 22
REMARK SMILES IDX 23 23 24 24 25 25 86 26 26 27 85 28 27 29 28 30 29 31 79 32
REMARK SMILES IDX 30 33 84 34 78 35 80 36 31 37 83 38 77 39 76 40 32 42 64 43
REMARK SMILES IDX 44 44 63 45 45 46 48 47 62 48 81 49 46 50 47 51 61 53 82 54
REMARK SMILES IDX 49 55 33 56 34 57 42 58 35 59 41 60 43 61 40 62 36 63 37 64
REMARK SMILES IDX 38 65 39 66 65 67 66 68 74 69 67 70 73 71 75 72 72 73 68 74
REMARK SMILES IDX 69 75 70 76 71 77 50 78 51 79 59 80 52 81 58 82 60 83 57 84
REMARK SMILES IDX 53 85 54 86 55 87 56 88
REMARK H PARENT 80 41 48 52
REMARK Flexibility Score: inf
ROOT
ATOM      1  C   UNL A   1      31.401  30.545  25.746  1.00  0.00     0.275 C 
ENDROOT
BRANCH   1   2
ATOM      2  C   UNL A   1      31.334  29.625  24.523  1.00  0.00     0.275 C 
BRANCH   2   3
ATOM      3  O   UNL A   1      31.126  28.248  24.899  1.00  0.00    -0.458 OA
BRANCH   3   4
ATOM      4  C   UNL A   1      30.594  27.420  23.950  1.00  0.00     0.350 C 
ATOM      5  O   UNL A   1      29.591  27.693  23.305  1.00  0.00    -0.245 OA
BRANCH   4   6
ATOM      6  C   UNL A   1      31.414  26.235  23.774  1.00  0.00     0.135 A 
ATOM      7  C   UNL A   1      33.508  26.972  22.438  1.00  0.00     0.068 C 
ATOM      8  C   UNL A   1      32.602  25.996  23.097  1.00  0.00     0.064 A 
ATOM      9  N   UNL A   1      33.014  24.663  23.086  1.00  0.00    -0.240 NA
ATOM     10  C   UNL A   1      32.160  23.912  23.747  1.00  0.00     0.124 A 
ATOM     11  S   UNL A   1      30.927  24.776  24.558  1.00  0.00    -0.106 S 
BRANCH  10  12
ATOM     12  C   UNL A   1      32.255  22.467  23.948  1.00  0.00     0.010 A 
ATOM     13  C   UNL A   1      32.152  21.612  22.850  1.00  0.00     0.011 A 
ATOM     14  C   UNL A   1      32.502  21.913  25.209  1.00  0.00     0.011 A 
ATOM     15  C   UNL A   1      32.341  20.235  23.004  1.00  0.00     0.005 A 
ATOM     16  C   UNL A   1      32.688  20.528  25.354  1.00  0.00     0.005 A 
ATOM     17  C   UNL A   1      32.637  19.656  24.253  1.00  0.00    -0.045 A 
BRANCH  17  18
ATOM     18  C   UNL A   1      32.923  18.169  24.320  1.00  0.00     0.019 C 
ATOM     19  C   UNL A   1      33.298  17.330  23.124  1.00  0.00     0.009 C 
ATOM     20  C   UNL A   1      34.336  17.664  24.155  1.00  0.00     0.009 C 
ENDBRANCH  17  18
ENDBRANCH  10  12
ENDBRANCH   4   6
ENDBRANCH   3   4
ENDBRANCH   2   3
ENDBRANCH   1   2
BRANCH   1  21
ATOM     21  O   UNL A   1      32.629  30.366  26.476  1.00  0.00    -0.458 OA
BRANCH  21  22
ATOM     22  C   UNL A   1      33.100  31.487  27.070  1.00  0.00     0.338 C 
ATOM     23  O   UNL A   1      32.495  32.531  27.245  1.00  0.00    -0.246 OA
BRANCH  22  24
ATOM     24  C   UNL A   1      34.425  31.226  27.648  1.00  0.00     0.060 A 
ATOM     25  C   UNL A   1      34.704  29.911  28.007  1.00  0.00     0.016 A 
ATOM     26  C   UNL A   1      35.330  32.241  27.946  1.00  0.00     0.016 A 
ATOM     27  C   UNL A   1      35.855  29.596  28.715  1.00  0.00     0.010 A 
ATOM     28  C   UNL A   1      36.521  31.918  28.614  1.00  0.00     0.010 A 
ATOM     29  C   UNL A   1      36.784  30.595  29.024  1.00  0.00    -0.014 A 
BRANCH  29  30
ATOM     30  C   UNL A   1      37.996  30.245  29.812  1.00  0.00     0.031 A 
ATOM     31  C   UNL A   1      39.033  29.327  29.225  1.00  0.00     0.074 A 
ATOM     32  C   UNL A   1      38.187  30.787  31.031  1.00  0.00     0.049 A 
ATOM     33  N   UNL A   1      40.096  28.810  29.786  1.00  0.00    -0.248 NA
ATOM     34  C   UNL A   1      38.843  28.935  27.820  1.00  0.00     0.031 C 
ATOM     35  C   UNL A   1      37.288  31.746  31.679  1.00  0.00     0.029 A 
ATOM     36  N   UNL A   1      39.201  30.619  31.943  1.00  0.00    -0.354 N 
ATOM     37  C   UNL A   1      40.686  28.007  28.815  1.00  0.00     0.074 A 
ATOM     38  C   UNL A   1      39.844  28.085  27.640  1.00  0.00     0.031 C 
ATOM     39  C   UNL A   1      37.799  32.093  32.870  1.00  0.00     0.029 A 
ATOM     40  C   UNL A   1      39.013  31.322  33.111  1.00  0.00     0.049 A 
ATOM     41  H   UNL A   1      39.987  30.051  31.776  1.00  0.00     0.167 HD
ATOM     42  C   UNL A   1      41.827  27.277  28.901  1.00  0.00     0.034 A 
ATOM     43  C   UNL A   1      39.710  31.310  34.265  1.00  0.00     0.034 A 
ATOM     44  C   UNL A   1      42.658  27.226  30.080  1.00  0.00     0.049 A 
ATOM     45  C   UNL A   1      40.924  30.422  34.367  1.00  0.00     0.074 A 
ATOM     46  C   UNL A   1      43.833  26.520  30.278  1.00  0.00     0.029 A 
ATOM     47  N   UNL A   1      42.404  27.907  31.265  1.00  0.00    -0.354 N 
ATOM     48  N   UNL A   1      41.447  29.631  33.457  1.00  0.00    -0.248 NA
ATOM     49  C   UNL A   1      41.637  30.420  35.649  1.00  0.00     0.031 C 
ATOM     50  C   UNL A   1      44.245  26.712  31.601  1.00  0.00     0.029 A 
ATOM     51  C   UNL A   1      43.380  27.611  32.205  1.00  0.00     0.049 A 
ATOM     52  H   UNL A   1      41.642  28.512  31.416  1.00  0.00     0.167 HD
ATOM     53  C   UNL A   1      42.569  29.061  34.052  1.00  0.00     0.074 A 
ATOM     54  C   UNL A   1      42.655  29.613  35.389  1.00  0.00     0.031 C 
ATOM     55  C   UNL A   1      43.449  28.163  33.540  1.00  0.00     0.034 A 
BRANCH  42  56
ATOM     56  C   UNL A   1      42.205  26.430  27.707  1.00  0.00     0.023 A 
ATOM     57  C   UNL A   1      41.780  25.097  27.573  1.00  0.00     0.031 A 
ATOM     58  C   UNL A   1      43.029  26.960  26.697  1.00  0.00     0.131 A 
ATOM     59  C   UNL A   1      42.238  24.321  26.497  1.00  0.00     0.055 A 
ATOM     60  C   UNL A   1      43.412  26.208  25.585  1.00  0.00     0.041 A 
ATOM     61  F   UNL A   1      43.486  28.220  26.780  1.00  0.00    -0.206 F 
ATOM     62  C   UNL A   1      43.030  24.875  25.488  1.00  0.00     0.022 A 
BRANCH  59  63
ATOM     63  S   UNL A   1      41.909  22.536  26.511  1.00  0.00     0.124 S 
ATOM     64  O   UNL A   1      42.587  22.102  25.291  1.00  0.00    -0.237 OA
ATOM     65  O   UNL A   1      42.519  22.113  27.765  1.00  0.00    -0.237 OA
ATOM     66  O   UNL A   1      40.451  22.457  26.466  1.00  0.00    -0.744 OA
ENDBRANCH  59  63
ENDBRANCH  42  56
BRANCH  43  67
ATOM     67  C   UNL A   1      39.243  32.106  35.439  1.00  0.00     0.023 A 
ATOM     68  C   UNL A   1      39.654  33.435  35.630  1.00  0.00     0.031 A 
ATOM     69  C   UNL A   1      38.417  31.527  36.421  1.00  0.00     0.131 A 
ATOM     70  C   UNL A   1      39.277  34.124  36.794  1.00  0.00     0.055 A 
ATOM     71  C   UNL A   1      37.991  32.237  37.544  1.00  0.00     0.041 A 
ATOM     72  F   UNL A   1      38.000  30.257  36.296  1.00  0.00    -0.206 F 
ATOM     73  C   UNL A   1      38.434  33.540  37.743  1.00  0.00     0.022 A 
BRANCH  70  74
ATOM     74  S   UNL A   1      39.992  35.761  37.105  1.00  0.00     0.124 S 
ATOM     75  O   UNL A   1      39.653  36.471  35.877  1.00  0.00    -0.237 OA
ATOM     76  O   UNL A   1      39.279  36.181  38.307  1.00  0.00    -0.237 OA
ATOM     77  O   UNL A   1      41.414  35.481  37.292  1.00  0.00    -0.744 OA
ENDBRANCH  70  74
ENDBRANCH  43  67
BRANCH  55  78
ATOM     78  C   UNL A   1      44.612  27.766  34.417  1.00  0.00     0.023 A 
ATOM     79  C   UNL A   1      44.552  26.652  35.273  1.00  0.00     0.031 A 
ATOM     80  C   UNL A   1      45.794  28.528  34.407  1.00  0.00     0.131 A 
ATOM     81  C   UNL A   1      45.629  26.367  36.125  1.00  0.00     0.055 A 
ATOM     82  C   UNL A   1      46.889  28.200  35.208  1.00  0.00     0.041 A 
ATOM     83  F   UNL A   1      45.906  29.606  33.614  1.00  0.00    -0.206 F 
ATOM     84  C   UNL A   1      46.804  27.122  36.084  1.00  0.00     0.022 A 
BRANCH  81  85
ATOM     85  S   UNL A   1      45.436  25.058  37.366  1.00  0.00     0.124 S 
ATOM     86  O   UNL A   1      45.456  25.816  38.612  1.00  0.00    -0.237 OA
ATOM     87  O   UNL A   1      44.153  24.468  36.999  1.00  0.00    -0.237 OA
ATOM     88  O   UNL A   1      46.599  24.201  37.143  1.00  0.00    -0.744 OA
ENDBRANCH  81  85
ENDBRANCH  55  78
ENDBRANCH  29  30
ENDBRANCH  22  24
ENDBRANCH  21  22
ENDBRANCH   1  21
TORSDOF 16
ENDMDL
