MODEL 1
REMARK VINA RESULT:     -11.4      0.000      0.000
REMARK SMILES Cc1ccc(OCCC(=O)N2C[C@H](O)C[C@@H]2C(=O)OCCOC(=O)c2ccc(-c3c4nc(c(-c5cc(S(=O)(=O)[O-])ccc5F)c5ccc([nH]5)c(-c5cc(S(=O)(=O)[O-])ccc5F)c5nc(c(-c6cc(S(=O)(=O)[O-])ccc6F)c6ccc3[nH]6)C=C5)C=C4)cc2)cc1
REMARK SMILES IDX 20 1 19 2 17 3 18 4 16 5 11 6 12 7 13 8 15 9 9 10 10 11 8 12
REMARK SMILES IDX 7 13 6 14 5 15 1 16 2 17 3 18 89 19 4 20 88 21 14 22 21 24
REMARK SMILES IDX 22 25 23 26 24 27 25 28 26 29 87 30 27 31 86 32 28 33 29 34
REMARK SMILES IDX 30 35 80 36 31 37 85 38 79 39 81 40 32 41 84 42 78 43 77 44
REMARK SMILES IDX 33 46 65 47 45 48 64 49 46 50 49 51 63 52 82 53 47 54 48 55
REMARK SMILES IDX 62 57 83 58 50 59 34 60 35 61 43 62 36 63 42 64 44 65 41 66
REMARK SMILES IDX 37 67 38 68 39 69 40 70 66 71 67 72 75 73 68 74 74 75 76 76
REMARK SMILES IDX 73 77 69 78 70 79 71 80 72 81 51 82 52 83 60 84 53 85 59 86
REMARK SMILES IDX 61 87 58 88 54 89 55 90 56 91 57 92
REMARK H PARENT 14 23 81 45 49 56
REMARK Flexibility Score: inf
ROOT
ATOM      1  C   UNL A   1      33.530  28.944  25.672  1.00  0.00     0.274 C 
ENDROOT
BRANCH   1   2
ATOM      2  O   UNL A   1      32.291  28.247  25.804  1.00  0.00    -0.461 OA
BRANCH   2   3
ATOM      3  C   UNL A   1      31.294  28.741  25.039  1.00  0.00     0.329 C 
ATOM      4  O   UNL A   1      31.060  29.928  24.932  1.00  0.00    -0.250 OA
BRANCH   3   5
ATOM      5  C   UNL A   1      30.512  27.609  24.349  1.00  0.00     0.197 C 
ATOM      6  N   UNL A   1      31.433  26.769  23.617  1.00  0.00    -0.326 N 
ATOM      7  C   UNL A   1      31.815  27.451  22.390  1.00  0.00     0.152 C 
ATOM      8  C   UNL A   1      30.630  28.395  22.085  1.00  0.00     0.136 C 
ATOM      9  C   UNL A   1      29.640  28.188  23.240  1.00  0.00     0.070 C 
BRANCH   6  10
ATOM     10  C   UNL A   1      31.510  25.418  23.865  1.00  0.00     0.226 C 
ATOM     11  O   UNL A   1      31.334  24.936  24.982  1.00  0.00    -0.275 OA
BRANCH  10  12
ATOM     12  C   UNL A   1      31.903  24.534  22.712  1.00  0.00     0.141 C 
BRANCH  12  13
ATOM     13  C   UNL A   1      33.405  24.330  22.550  1.00  0.00     0.239 C 
BRANCH  13  14
ATOM     14  O   UNL A   1      34.192  24.784  23.657  1.00  0.00    -0.493 OA
BRANCH  14  15
ATOM     15  C   UNL A   1      35.132  23.923  24.163  1.00  0.00     0.119 A 
ATOM     16  C   UNL A   1      38.608  21.982  25.791  1.00  0.00     0.044 C 
ATOM     17  C   UNL A   1      37.319  22.556  25.283  1.00  0.00    -0.051 A 
ATOM     18  C   UNL A   1      36.633  23.520  26.027  1.00  0.00     0.007 A 
ATOM     19  C   UNL A   1      36.841  22.217  24.016  1.00  0.00     0.007 A 
ATOM     20  C   UNL A   1      35.535  24.188  25.474  1.00  0.00     0.046 A 
ATOM     21  C   UNL A   1      35.744  22.886  23.466  1.00  0.00     0.046 A 
ENDBRANCH  14  15
ENDBRANCH  13  14
ENDBRANCH  12  13
ENDBRANCH  10  12
ENDBRANCH   6  10
BRANCH   8  22
ATOM     22  O   UNL A   1      31.044  29.757  22.006  1.00  0.00    -0.391 OA
ATOM     23  H   UNL A   1      30.514  30.293  22.616  1.00  0.00     0.211 HD
ENDBRANCH   8  22
ENDBRANCH   3   5
ENDBRANCH   2   3
ENDBRANCH   1   2
BRANCH   1  24
ATOM     24  C   UNL A   1      34.345  29.082  26.996  1.00  0.00     0.275 C 
BRANCH  24  25
ATOM     25  O   UNL A   1      34.476  30.410  27.633  1.00  0.00    -0.458 OA
BRANCH  25  26
ATOM     26  C   UNL A   1      35.550  31.242  27.871  1.00  0.00     0.338 C 
ATOM     27  O   UNL A   1      35.396  32.449  28.027  1.00  0.00    -0.246 OA
BRANCH  26  28
ATOM     28  C   UNL A   1      36.779  30.611  28.390  1.00  0.00     0.060 A 
ATOM     29  C   UNL A   1      36.885  30.054  29.684  1.00  0.00     0.016 A 
ATOM     30  C   UNL A   1      37.757  30.358  27.477  1.00  0.00     0.016 A 
ATOM     31  C   UNL A   1      37.954  29.196  29.977  1.00  0.00     0.010 A 
ATOM     32  C   UNL A   1      38.461  29.204  27.615  1.00  0.00     0.010 A 
ATOM     33  C   UNL A   1      38.727  28.763  28.905  1.00  0.00    -0.014 A 
BRANCH  33  34
ATOM     34  C   UNL A   1      40.065  28.186  28.919  1.00  0.00     0.031 A 
ATOM     35  C   UNL A   1      40.296  26.784  28.578  1.00  0.00     0.074 A 
ATOM     36  C   UNL A   1      41.005  29.167  28.876  1.00  0.00     0.049 A 
ATOM     37  N   UNL A   1      41.254  26.064  29.038  1.00  0.00    -0.248 NA
ATOM     38  C   UNL A   1      39.423  26.054  27.663  1.00  0.00     0.031 C 
ATOM     39  C   UNL A   1      42.389  29.215  28.456  1.00  0.00     0.029 A 
ATOM     40  N   UNL A   1      40.763  30.491  29.267  1.00  0.00    -0.354 N 
ATOM     41  C   UNL A   1      41.352  24.975  28.191  1.00  0.00     0.074 A 
ATOM     42  C   UNL A   1      40.076  24.893  27.526  1.00  0.00     0.031 C 
ATOM     43  C   UNL A   1      42.936  30.356  28.939  1.00  0.00     0.029 A 
ATOM     44  C   UNL A   1      41.933  31.039  29.755  1.00  0.00     0.049 A 
ATOM     45  H   UNL A   1      39.898  30.957  29.203  1.00  0.00     0.167 HD
ATOM     46  C   UNL A   1      42.583  24.453  27.915  1.00  0.00     0.034 A 
ATOM     47  C   UNL A   1      41.901  31.237  31.106  1.00  0.00     0.034 A 
ATOM     48  C   UNL A   1      43.615  25.314  28.509  1.00  0.00     0.049 A 
ATOM     49  C   UNL A   1      42.691  30.131  31.771  1.00  0.00     0.074 A 
ATOM     50  C   UNL A   1      44.428  26.296  27.965  1.00  0.00     0.029 A 
ATOM     51  N   UNL A   1      43.630  25.517  29.883  1.00  0.00    -0.354 N 
ATOM     52  N   UNL A   1      43.028  29.009  31.189  1.00  0.00    -0.248 NA
ATOM     53  C   UNL A   1      43.246  30.254  33.106  1.00  0.00     0.031 C 
ATOM     54  C   UNL A   1      44.845  27.154  29.027  1.00  0.00     0.029 A 
ATOM     55  C   UNL A   1      44.295  26.687  30.210  1.00  0.00     0.049 A 
ATOM     56  H   UNL A   1      43.222  24.908  30.539  1.00  0.00     0.167 HD
ATOM     57  C   UNL A   1      43.869  28.294  31.987  1.00  0.00     0.074 A 
ATOM     58  C   UNL A   1      43.991  29.138  33.172  1.00  0.00     0.031 C 
ATOM     59  C   UNL A   1      44.395  27.082  31.613  1.00  0.00     0.034 A 
BRANCH  46  60
ATOM     60  C   UNL A   1      42.897  23.411  26.856  1.00  0.00     0.023 A 
ATOM     61  C   UNL A   1      42.524  22.068  27.084  1.00  0.00     0.031 A 
ATOM     62  C   UNL A   1      43.504  23.658  25.607  1.00  0.00     0.131 A 
ATOM     63  C   UNL A   1      42.806  21.048  26.155  1.00  0.00     0.055 A 
ATOM     64  C   UNL A   1      43.821  22.636  24.695  1.00  0.00     0.041 A 
ATOM     65  F   UNL A   1      43.766  24.901  25.181  1.00  0.00    -0.206 F 
ATOM     66  C   UNL A   1      43.475  21.321  24.967  1.00  0.00     0.022 A 
BRANCH  63  67
ATOM     67  S   UNL A   1      42.250  19.357  26.510  1.00  0.00     0.124 S 
ATOM     68  O   UNL A   1      41.974  19.419  27.940  1.00  0.00    -0.237 OA
ATOM     69  O   UNL A   1      41.093  19.218  25.632  1.00  0.00    -0.237 OA
ATOM     70  O   UNL A   1      43.403  18.536  26.139  1.00  0.00    -0.744 OA
ENDBRANCH  63  67
ENDBRANCH  46  60
BRANCH  47  71
ATOM     71  C   UNL A   1      40.574  31.832  31.562  1.00  0.00     0.023 A 
ATOM     72  C   UNL A   1      39.886  31.154  32.606  1.00  0.00     0.031 A 
ATOM     73  C   UNL A   1      40.170  33.153  31.311  1.00  0.00     0.131 A 
ATOM     74  C   UNL A   1      38.972  31.822  33.443  1.00  0.00     0.055 A 
ATOM     75  C   UNL A   1      39.185  33.791  32.096  1.00  0.00     0.041 A 
ATOM     76  F   UNL A   1      40.783  33.890  30.374  1.00  0.00    -0.206 F 
ATOM     77  C   UNL A   1      38.607  33.141  33.189  1.00  0.00     0.022 A 
BRANCH  74  78
ATOM     78  S   UNL A   1      38.521  31.027  35.022  1.00  0.00     0.124 S 
ATOM     79  O   UNL A   1      38.121  29.692  34.597  1.00  0.00    -0.237 OA
ATOM     80  O   UNL A   1      39.771  31.115  35.779  1.00  0.00    -0.237 OA
ATOM     81  O   UNL A   1      37.452  31.869  35.548  1.00  0.00    -0.744 OA
ENDBRANCH  74  78
ENDBRANCH  47  71
BRANCH  59  82
ATOM     82  C   UNL A   1      45.119  26.147  32.552  1.00  0.00     0.023 A 
ATOM     83  C   UNL A   1      44.441  25.226  33.346  1.00  0.00     0.031 A 
ATOM     84  C   UNL A   1      46.533  26.104  32.638  1.00  0.00     0.131 A 
ATOM     85  C   UNL A   1      45.114  24.447  34.291  1.00  0.00     0.055 A 
ATOM     86  C   UNL A   1      47.214  25.212  33.469  1.00  0.00     0.041 A 
ATOM     87  F   UNL A   1      47.322  26.918  31.922  1.00  0.00    -0.206 F 
ATOM     88  C   UNL A   1      46.502  24.401  34.336  1.00  0.00     0.022 A 
BRANCH  85  89
ATOM     89  S   UNL A   1      44.102  23.630  35.542  1.00  0.00     0.124 S 
ATOM     90  O   UNL A   1      42.984  23.137  34.742  1.00  0.00    -0.237 OA
ATOM     91  O   UNL A   1      45.004  22.607  36.059  1.00  0.00    -0.237 OA
ATOM     92  O   UNL A   1      43.774  24.707  36.472  1.00  0.00    -0.744 OA
ENDBRANCH  85  89
ENDBRANCH  59  82
ENDBRANCH  33  34
ENDBRANCH  26  28
ENDBRANCH  25  26
ENDBRANCH  24  25
ENDBRANCH   1  24
TORSDOF 20
ENDMDL
MODEL 2
REMARK VINA RESULT:     -11.3      1.730      2.112
REMARK SMILES Cc1ccc(OCCC(=O)N2C[C@H](O)C[C@@H]2C(=O)OCCOC(=O)c2ccc(-c3c4nc(c(-c5cc(S(=O)(=O)[O-])ccc5F)c5ccc([nH]5)c(-c5cc(S(=O)(=O)[O-])ccc5F)c5nc(c(-c6cc(S(=O)(=O)[O-])ccc6F)c6ccc3[nH]6)C=C5)C=C4)cc2)cc1
REMARK SMILES IDX 20 1 19 2 17 3 18 4 16 5 11 6 12 7 13 8 15 9 9 10 10 11 8 12
REMARK SMILES IDX 7 13 6 14 5 15 1 16 2 17 3 18 89 19 4 20 88 21 14 22 21 24
REMARK SMILES IDX 22 25 23 26 24 27 25 28 26 29 87 30 27 31 86 32 28 33 29 34
REMARK SMILES IDX 30 35 80 36 31 37 85 38 79 39 81 40 32 41 84 42 78 43 77 44
REMARK SMILES IDX 33 46 65 47 45 48 64 49 46 50 49 51 63 52 82 53 47 54 48 55
REMARK SMILES IDX 62 57 83 58 50 59 34 60 35 61 43 62 36 63 42 64 44 65 41 66
REMARK SMILES IDX 37 67 38 68 39 69 40 70 66 71 67 72 75 73 68 74 74 75 76 76
REMARK SMILES IDX 73 77 69 78 70 79 71 80 72 81 51 82 52 83 60 84 53 85 59 86
REMARK SMILES IDX 61 87 58 88 54 89 55 90 56 91 57 92
REMARK H PARENT 14 23 81 45 49 56
REMARK Flexibility Score: inf
ROOT
ATOM      1  C   UNL A   1      32.550  29.456  26.873  1.00  0.00     0.274 C 
ENDROOT
BRANCH   1   2
ATOM      2  O   UNL A   1      32.570  29.482  25.446  1.00  0.00    -0.461 OA
BRANCH   2   3
ATOM      3  C   UNL A   1      31.393  29.156  24.870  1.00  0.00     0.329 C 
ATOM      4  O   UNL A   1      30.610  29.979  24.440  1.00  0.00    -0.250 OA
BRANCH   3   5
ATOM      5  C   UNL A   1      31.190  27.631  24.850  1.00  0.00     0.197 C 
ATOM      6  N   UNL A   1      32.350  27.003  24.257  1.00  0.00    -0.326 N 
ATOM      7  C   UNL A   1      32.292  27.177  22.814  1.00  0.00     0.152 C 
ATOM      8  C   UNL A   1      30.787  27.337  22.503  1.00  0.00     0.136 C 
ATOM      9  C   UNL A   1      30.083  27.272  23.866  1.00  0.00     0.070 C 
BRANCH   6  10
ATOM     10  C   UNL A   1      33.066  26.048  24.942  1.00  0.00     0.226 C 
ATOM     11  O   UNL A   1      34.261  26.171  25.202  1.00  0.00    -0.275 OA
BRANCH  10  12
ATOM     12  C   UNL A   1      32.340  24.779  25.304  1.00  0.00     0.141 C 
BRANCH  12  13
ATOM     13  C   UNL A   1      32.360  23.705  24.222  1.00  0.00     0.239 C 
BRANCH  13  14
ATOM     14  O   UNL A   1      33.602  23.588  23.519  1.00  0.00    -0.493 OA
BRANCH  14  15
ATOM     15  C   UNL A   1      34.563  22.772  24.059  1.00  0.00     0.119 A 
ATOM     16  C   UNL A   1      37.836  20.101  24.867  1.00  0.00     0.044 C 
ATOM     17  C   UNL A   1      36.713  21.084  24.716  1.00  0.00    -0.051 A 
ATOM     18  C   UNL A   1      36.950  22.349  24.174  1.00  0.00     0.007 A 
ATOM     19  C   UNL A   1      35.400  20.714  25.015  1.00  0.00     0.007 A 
ATOM     20  C   UNL A   1      35.880  23.194  23.861  1.00  0.00     0.046 A 
ATOM     21  C   UNL A   1      34.332  21.560  24.702  1.00  0.00     0.046 A 
ENDBRANCH  14  15
ENDBRANCH  13  14
ENDBRANCH  12  13
ENDBRANCH  10  12
ENDBRANCH   6  10
BRANCH   8  22
ATOM     22  O   UNL A   1      30.509  28.570  21.843  1.00  0.00    -0.391 OA
ATOM     23  H   UNL A   1      30.620  29.303  22.468  1.00  0.00     0.211 HD
ENDBRANCH   8  22
ENDBRANCH   3   5
ENDBRANCH   2   3
ENDBRANCH   1   2
BRANCH   1  24
ATOM     24  C   UNL A   1      33.914  29.095  27.539  1.00  0.00     0.275 C 
BRANCH  24  25
ATOM     25  O   UNL A   1      34.937  30.148  27.715  1.00  0.00    -0.458 OA
BRANCH  25  26
ATOM     26  C   UNL A   1      36.006  30.294  28.574  1.00  0.00     0.338 C 
ATOM     27  O   UNL A   1      35.845  30.665  29.732  1.00  0.00    -0.246 OA
BRANCH  26  28
ATOM     28  C   UNL A   1      37.241  29.565  28.229  1.00  0.00     0.060 A 
ATOM     29  C   UNL A   1      37.970  29.781  27.038  1.00  0.00     0.016 A 
ATOM     30  C   UNL A   1      37.807  28.831  29.228  1.00  0.00     0.016 A 
ATOM     31  C   UNL A   1      39.283  29.300  26.939  1.00  0.00     0.010 A 
ATOM     32  C   UNL A   1      39.163  28.812  29.302  1.00  0.00     0.010 A 
ATOM     33  C   UNL A   1      39.873  28.832  28.108  1.00  0.00    -0.014 A 
BRANCH  33  34
ATOM     34  C   UNL A   1      41.039  27.971  28.261  1.00  0.00     0.031 A 
ATOM     35  C   UNL A   1      40.919  26.515  28.253  1.00  0.00     0.074 A 
ATOM     36  C   UNL A   1      42.179  28.664  27.999  1.00  0.00     0.049 A 
ATOM     37  N   UNL A   1      41.704  25.709  28.871  1.00  0.00    -0.248 NA
ATOM     38  C   UNL A   1      39.855  25.828  27.526  1.00  0.00     0.031 C 
ATOM     39  C   UNL A   1      43.513  28.285  27.588  1.00  0.00     0.029 A 
ATOM     40  N   UNL A   1      42.273  30.061  28.075  1.00  0.00    -0.354 N 
ATOM     41  C   UNL A   1      41.502  24.467  28.297  1.00  0.00     0.074 A 
ATOM     42  C   UNL A   1      40.211  24.545  27.663  1.00  0.00     0.031 C 
ATOM     43  C   UNL A   1      44.334  29.341  27.799  1.00  0.00     0.029 A 
ATOM     44  C   UNL A   1      43.561  30.409  28.430  1.00  0.00     0.049 A 
ATOM     45  H   UNL A   1      41.539  30.693  27.901  1.00  0.00     0.167 HD
ATOM     46  C   UNL A   1      42.563  23.618  28.156  1.00  0.00     0.034 A 
ATOM     47  C   UNL A   1      43.643  30.906  29.700  1.00  0.00     0.034 A 
ATOM     48  C   UNL A   1      43.795  24.318  28.542  1.00  0.00     0.049 A 
ATOM     49  C   UNL A   1      44.185  29.821  30.605  1.00  0.00     0.074 A 
ATOM     50  C   UNL A   1      44.787  24.930  27.791  1.00  0.00     0.029 A 
ATOM     51  N   UNL A   1      43.926  24.815  29.832  1.00  0.00    -0.354 N 
ATOM     52  N   UNL A   1      44.221  28.551  30.298  1.00  0.00    -0.248 NA
ATOM     53  C   UNL A   1      44.819  30.105  31.879  1.00  0.00     0.031 C 
ATOM     54  C   UNL A   1      45.445  25.879  28.629  1.00  0.00     0.029 A 
ATOM     55  C   UNL A   1      44.861  25.835  29.886  1.00  0.00     0.049 A 
ATOM     56  H   UNL A   1      43.420  24.483  30.608  1.00  0.00     0.167 HD
ATOM     57  C   UNL A   1      44.910  27.853  31.243  1.00  0.00     0.074 A 
ATOM     58  C   UNL A   1      45.285  28.887  32.203  1.00  0.00     0.031 C 
ATOM     59  C   UNL A   1      45.120  26.499  31.161  1.00  0.00     0.034 A 
BRANCH  46  60
ATOM     60  C   UNL A   1      42.572  22.321  27.366  1.00  0.00     0.023 A 
ATOM     61  C   UNL A   1      43.556  22.132  26.370  1.00  0.00     0.031 A 
ATOM     62  C   UNL A   1      41.700  21.228  27.559  1.00  0.00     0.131 A 
ATOM     63  C   UNL A   1      43.607  20.964  25.585  1.00  0.00     0.055 A 
ATOM     64  C   UNL A   1      41.726  20.078  26.751  1.00  0.00     0.041 A 
ATOM     65  F   UNL A   1      40.824  21.193  28.571  1.00  0.00    -0.206 F 
ATOM     66  C   UNL A   1      42.681  19.941  25.755  1.00  0.00     0.022 A 
BRANCH  63  67
ATOM     67  S   UNL A   1      44.932  20.787  24.357  1.00  0.00     0.124 S 
ATOM     68  O   UNL A   1      44.623  19.494  23.757  1.00  0.00    -0.237 OA
ATOM     69  O   UNL A   1      44.733  21.959  23.512  1.00  0.00    -0.237 OA
ATOM     70  O   UNL A   1      46.150  20.815  25.167  1.00  0.00    -0.744 OA
ENDBRANCH  63  67
ENDBRANCH  46  60
BRANCH  47  71
ATOM     71  C   UNL A   1      42.516  31.888  29.999  1.00  0.00     0.023 A 
ATOM     72  C   UNL A   1      41.410  31.394  30.745  1.00  0.00     0.031 A 
ATOM     73  C   UNL A   1      42.642  33.284  29.931  1.00  0.00     0.131 A 
ATOM     74  C   UNL A   1      40.590  32.251  31.504  1.00  0.00     0.055 A 
ATOM     75  C   UNL A   1      41.761  34.145  30.621  1.00  0.00     0.041 A 
ATOM     76  F   UNL A   1      43.673  33.847  29.285  1.00  0.00    -0.206 F 
ATOM     77  C   UNL A   1      40.752  33.631  31.440  1.00  0.00     0.022 A 
BRANCH  74  78
ATOM     78  S   UNL A   1      39.531  31.504  32.789  1.00  0.00     0.124 S 
ATOM     79  O   UNL A   1      38.234  31.443  32.127  1.00  0.00    -0.237 OA
ATOM     80  O   UNL A   1      40.195  30.220  33.027  1.00  0.00    -0.237 OA
ATOM     81  O   UNL A   1      39.626  32.434  33.908  1.00  0.00    -0.744 OA
ENDBRANCH  74  78
ENDBRANCH  47  71
BRANCH  59  82
ATOM     82  C   UNL A   1      45.651  25.653  32.293  1.00  0.00     0.023 A 
ATOM     83  C   UNL A   1      44.845  24.751  32.983  1.00  0.00     0.031 A 
ATOM     84  C   UNL A   1      47.013  25.677  32.683  1.00  0.00     0.131 A 
ATOM     85  C   UNL A   1      45.321  24.058  34.099  1.00  0.00     0.055 A 
ATOM     86  C   UNL A   1      47.525  24.866  33.698  1.00  0.00     0.041 A 
ATOM     87  F   UNL A   1      47.914  26.483  32.101  1.00  0.00    -0.206 F 
ATOM     88  C   UNL A   1      46.666  24.077  34.444  1.00  0.00     0.022 A 
BRANCH  85  89
ATOM     89  S   UNL A   1      44.087  23.272  35.156  1.00  0.00     0.124 S 
ATOM     90  O   UNL A   1      42.851  23.886  34.674  1.00  0.00    -0.237 OA
ATOM     91  O   UNL A   1      44.252  21.858  34.836  1.00  0.00    -0.237 OA
ATOM     92  O   UNL A   1      44.491  23.664  36.503  1.00  0.00    -0.744 OA
ENDBRANCH  85  89
ENDBRANCH  59  82
ENDBRANCH  33  34
ENDBRANCH  26  28
ENDBRANCH  25  26
ENDBRANCH  24  25
ENDBRANCH   1  24
TORSDOF 20
ENDMDL
MODEL 3
REMARK VINA RESULT:     -11.2      2.218      2.835
REMARK SMILES Cc1ccc(OCCC(=O)N2C[C@H](O)C[C@@H]2C(=O)OCCOC(=O)c2ccc(-c3c4nc(c(-c5cc(S(=O)(=O)[O-])ccc5F)c5ccc([nH]5)c(-c5cc(S(=O)(=O)[O-])ccc5F)c5nc(c(-c6cc(S(=O)(=O)[O-])ccc6F)c6ccc3[nH]6)C=C5)C=C4)cc2)cc1
REMARK SMILES IDX 20 1 19 2 17 3 18 4 16 5 11 6 12 7 13 8 15 9 9 10 10 11 8 12
REMARK SMILES IDX 7 13 6 14 5 15 1 16 2 17 3 18 89 19 4 20 88 21 14 22 21 24
REMARK SMILES IDX 22 25 23 26 24 27 25 28 26 29 87 30 27 31 86 32 28 33 29 34
REMARK SMILES IDX 30 35 80 36 31 37 85 38 79 39 81 40 32 41 84 42 78 43 77 44
REMARK SMILES IDX 33 46 65 47 45 48 64 49 46 50 49 51 63 52 82 53 47 54 48 55
REMARK SMILES IDX 62 57 83 58 50 59 34 60 35 61 43 62 36 63 42 64 44 65 41 66
REMARK SMILES IDX 37 67 38 68 39 69 40 70 66 71 67 72 75 73 68 74 74 75 76 76
REMARK SMILES IDX 73 77 69 78 70 79 71 80 72 81 51 82 52 83 60 84 53 85 59 86
REMARK SMILES IDX 61 87 58 88 54 89 55 90 56 91 57 92
REMARK H PARENT 14 23 81 45 49 56
REMARK Flexibility Score: inf
ROOT
ATOM      1  C   UNL A   1      33.146  30.211  26.815  1.00  0.00     0.274 C 
ENDROOT
BRANCH   1   2
ATOM      2  O   UNL A   1      33.123  30.148  25.389  1.00  0.00    -0.461 OA
BRANCH   2   3
ATOM      3  C   UNL A   1      33.052  28.894  24.893  1.00  0.00     0.329 C 
ATOM      4  O   UNL A   1      34.004  28.309  24.419  1.00  0.00    -0.250 OA
BRANCH   3   5
ATOM      5  C   UNL A   1      31.622  28.336  25.002  1.00  0.00     0.197 C 
ATOM      6  N   UNL A   1      31.558  27.055  24.335  1.00  0.00    -0.326 N 
ATOM      7  C   UNL A   1      31.518  27.276  22.898  1.00  0.00     0.152 C 
ATOM      8  C   UNL A   1      30.907  28.686  22.739  1.00  0.00     0.136 C 
ATOM      9  C   UNL A   1      30.671  29.188  24.170  1.00  0.00     0.070 C 
BRANCH   6  10
ATOM     10  C   UNL A   1      31.142  25.927  25.004  1.00  0.00     0.226 C 
ATOM     11  O   UNL A   1      30.152  25.280  24.667  1.00  0.00    -0.275 OA
BRANCH  10  12
ATOM     12  C   UNL A   1      31.910  25.545  26.241  1.00  0.00     0.141 C 
BRANCH  12  13
ATOM     13  C   UNL A   1      33.357  25.136  25.989  1.00  0.00     0.239 C 
BRANCH  13  14
ATOM     14  O   UNL A   1      33.583  23.722  25.966  1.00  0.00    -0.493 OA
BRANCH  14  15
ATOM     15  C   UNL A   1      34.854  23.287  25.686  1.00  0.00     0.119 A 
ATOM     16  C   UNL A   1      38.700  21.367  25.541  1.00  0.00     0.044 C 
ATOM     17  C   UNL A   1      37.373  22.060  25.453  1.00  0.00    -0.051 A 
ATOM     18  C   UNL A   1      36.206  21.326  25.223  1.00  0.00     0.007 A 
ATOM     19  C   UNL A   1      37.268  23.430  25.703  1.00  0.00     0.007 A 
ATOM     20  C   UNL A   1      34.955  21.942  25.325  1.00  0.00     0.046 A 
ATOM     21  C   UNL A   1      36.016  24.042  25.804  1.00  0.00     0.046 A 
ENDBRANCH  14  15
ENDBRANCH  13  14
ENDBRANCH  12  13
ENDBRANCH  10  12
ENDBRANCH   6  10
BRANCH   8  22
ATOM     22  O   UNL A   1      31.776  29.564  22.027  1.00  0.00    -0.391 OA
ATOM     23  H   UNL A   1      31.814  29.296  21.095  1.00  0.00     0.211 HD
ENDBRANCH   8  22
ENDBRANCH   3   5
ENDBRANCH   2   3
ENDBRANCH   1   2
BRANCH   1  24
ATOM     24  C   UNL A   1      34.266  29.358  27.488  1.00  0.00     0.275 C 
BRANCH  24  25
ATOM     25  O   UNL A   1      35.644  29.890  27.553  1.00  0.00    -0.458 OA
BRANCH  25  26
ATOM     26  C   UNL A   1      36.603  29.914  28.544  1.00  0.00     0.338 C 
ATOM     27  O   UNL A   1      36.323  30.240  29.692  1.00  0.00    -0.246 OA
BRANCH  26  28
ATOM     28  C   UNL A   1      37.818  29.109  28.313  1.00  0.00     0.060 A 
ATOM     29  C   UNL A   1      38.756  29.386  27.292  1.00  0.00     0.016 A 
ATOM     30  C   UNL A   1      38.144  28.216  29.287  1.00  0.00     0.016 A 
ATOM     31  C   UNL A   1      40.025  28.792  27.346  1.00  0.00     0.010 A 
ATOM     32  C   UNL A   1      39.461  28.054  29.576  1.00  0.00     0.010 A 
ATOM     33  C   UNL A   1      40.366  28.138  28.525  1.00  0.00    -0.014 A 
BRANCH  33  34
ATOM     34  C   UNL A   1      41.416  27.155  28.753  1.00  0.00     0.031 A 
ATOM     35  C   UNL A   1      41.193  25.731  28.516  1.00  0.00     0.074 A 
ATOM     36  C   UNL A   1      42.633  27.760  28.794  1.00  0.00     0.049 A 
ATOM     37  N   UNL A   1      41.789  24.779  29.139  1.00  0.00    -0.248 NA
ATOM     38  C   UNL A   1      40.235  25.249  27.525  1.00  0.00     0.031 C 
ATOM     39  C   UNL A   1      43.989  27.307  28.570  1.00  0.00     0.029 A 
ATOM     40  N   UNL A   1      42.814  29.120  29.084  1.00  0.00    -0.354 N 
ATOM     41  C   UNL A   1      41.606  23.646  28.368  1.00  0.00     0.074 A 
ATOM     42  C   UNL A   1      40.464  23.931  27.537  1.00  0.00     0.031 C 
ATOM     43  C   UNL A   1      44.832  28.242  29.069  1.00  0.00     0.029 A 
ATOM     44  C   UNL A   1      44.036  29.292  29.704  1.00  0.00     0.049 A 
ATOM     45  H   UNL A   1      42.173  29.838  28.878  1.00  0.00     0.167 HD
ATOM     46  C   UNL A   1      42.609  22.722  28.292  1.00  0.00     0.034 A 
ATOM     47  C   UNL A   1      43.918  29.612  31.026  1.00  0.00     0.034 A 
ATOM     48  C   UNL A   1      43.797  23.243  28.982  1.00  0.00     0.049 A 
ATOM     49  C   UNL A   1      44.202  28.374  31.846  1.00  0.00     0.074 A 
ATOM     50  C   UNL A   1      44.953  23.845  28.509  1.00  0.00     0.029 A 
ATOM     51  N   UNL A   1      43.723  23.556  30.333  1.00  0.00    -0.354 N 
ATOM     52  N   UNL A   1      44.201  27.156  31.372  1.00  0.00    -0.248 NA
ATOM     53  C   UNL A   1      44.608  28.429  33.238  1.00  0.00     0.031 C 
ATOM     54  C   UNL A   1      45.512  24.611  29.576  1.00  0.00     0.029 A 
ATOM     55  C   UNL A   1      44.704  24.464  30.693  1.00  0.00     0.049 A 
ATOM     56  H   UNL A   1      43.059  23.180  30.954  1.00  0.00     0.167 HD
ATOM     57  C   UNL A   1      44.650  26.278  32.313  1.00  0.00     0.074 A 
ATOM     58  C   UNL A   1      44.916  27.140  33.461  1.00  0.00     0.031 C 
ATOM     59  C   UNL A   1      44.771  24.932  32.075  1.00  0.00     0.034 A 
BRANCH  46  60
ATOM     60  C   UNL A   1      42.669  21.542  27.339  1.00  0.00     0.023 A 
ATOM     61  C   UNL A   1      43.701  21.491  26.375  1.00  0.00     0.031 A 
ATOM     62  C   UNL A   1      41.800  20.430  27.343  1.00  0.00     0.131 A 
ATOM     63  C   UNL A   1      43.801  20.437  25.445  1.00  0.00     0.055 A 
ATOM     64  C   UNL A   1      41.876  19.397  26.392  1.00  0.00     0.041 A 
ATOM     65  F   UNL A   1      40.877  20.257  28.298  1.00  0.00    -0.206 F 
ATOM     66  C   UNL A   1      42.878  19.397  25.434  1.00  0.00     0.022 A 
BRANCH  63  67
ATOM     67  S   UNL A   1      45.184  20.430  24.270  1.00  0.00     0.124 S 
ATOM     68  O   UNL A   1      44.827  21.520  23.370  1.00  0.00    -0.237 OA
ATOM     69  O   UNL A   1      46.333  20.657  25.140  1.00  0.00    -0.237 OA
ATOM     70  O   UNL A   1      45.118  19.094  23.677  1.00  0.00    -0.744 OA
ENDBRANCH  63  67
ENDBRANCH  46  60
BRANCH  47  71
ATOM     71  C   UNL A   1      42.831  30.654  31.263  1.00  0.00     0.023 A 
ATOM     72  C   UNL A   1      41.677  30.232  31.980  1.00  0.00     0.031 A 
ATOM     73  C   UNL A   1      43.027  32.041  31.168  1.00  0.00     0.131 A 
ATOM     74  C   UNL A   1      40.874  31.145  32.689  1.00  0.00     0.055 A 
ATOM     75  C   UNL A   1      42.165  32.959  31.806  1.00  0.00     0.041 A 
ATOM     76  F   UNL A   1      44.106  32.538  30.546  1.00  0.00    -0.206 F 
ATOM     77  C   UNL A   1      41.105  32.514  32.601  1.00  0.00     0.022 A 
BRANCH  74  78
ATOM     78  S   UNL A   1      39.736  30.481  33.952  1.00  0.00     0.124 S 
ATOM     79  O   UNL A   1      38.536  31.283  33.744  1.00  0.00    -0.237 OA
ATOM     80  O   UNL A   1      39.642  29.070  33.571  1.00  0.00    -0.237 OA
ATOM     81  O   UNL A   1      40.436  30.707  35.211  1.00  0.00    -0.744 OA
ENDBRANCH  74  78
ENDBRANCH  47  71
BRANCH  59  82
ATOM     82  C   UNL A   1      45.020  23.901  33.149  1.00  0.00     0.023 A 
ATOM     83  C   UNL A   1      46.275  23.724  33.726  1.00  0.00     0.031 A 
ATOM     84  C   UNL A   1      43.984  23.094  33.682  1.00  0.00     0.131 A 
ATOM     85  C   UNL A   1      46.517  22.691  34.637  1.00  0.00     0.055 A 
ATOM     86  C   UNL A   1      44.195  22.170  34.706  1.00  0.00     0.041 A 
ATOM     87  F   UNL A   1      42.720  23.163  33.239  1.00  0.00    -0.206 F 
ATOM     88  C   UNL A   1      45.480  21.933  35.164  1.00  0.00     0.022 A 
BRANCH  85  89
ATOM     89  S   UNL A   1      48.244  22.290  34.972  1.00  0.00     0.124 S 
ATOM     90  O   UNL A   1      48.934  23.433  34.378  1.00  0.00    -0.237 OA
ATOM     91  O   UNL A   1      48.276  22.226  36.430  1.00  0.00    -0.237 OA
ATOM     92  O   UNL A   1      48.440  21.018  34.282  1.00  0.00    -0.744 OA
ENDBRANCH  85  89
ENDBRANCH  59  82
ENDBRANCH  33  34
ENDBRANCH  26  28
ENDBRANCH  25  26
ENDBRANCH  24  25
ENDBRANCH   1  24
TORSDOF 20
ENDMDL
