MODEL 1
REMARK VINA RESULT:     -11.9      0.000      0.000
REMARK SMILES Cc1coc2cc3c(cc12)[C@@H](C)[C@H](CCC(=O)N[C@@H](Cc1c[nH]c2ccccc12)C(=O)OCCOC(=O)c1ccc(-c2c4nc(c(-c5cc(S(=O)(=O)[O-])ccc5F)c5ccc([nH]5)c(-c5cc(S(=O)(=O)[O-])ccc5F)c5nc(c(-c6cc(S(=O)(=O)[O-])ccc6F)c6ccc2[nH]6)C=C5)C=C4)cc1)C(=O)O3
REMARK SMILES IDX 33 1 32 2 30 3 31 4 19 5 18 6 16 7 17 8 15 10 14 11 13 12
REMARK SMILES IDX 1 13 2 14 3 15 10 16 4 17 5 18 9 19 6 20 8 21 7 22 11 23
REMARK SMILES IDX 103 24 12 25 101 26 102 27 20 28 21 29 22 30 29 31 23 32
REMARK SMILES IDX 24 33 28 34 25 36 27 37 26 38 34 39 35 40 36 41 37 42 38 43
REMARK SMILES IDX 39 44 100 45 40 46 99 47 41 48 42 49 43 50 93 51 44 52 98 53
REMARK SMILES IDX 92 54 94 55 45 56 97 57 91 58 90 59 46 61 78 62 58 63 77 64
REMARK SMILES IDX 59 65 62 66 76 67 95 68 60 69 61 70 75 72 96 73 63 74 47 75
REMARK SMILES IDX 48 76 56 77 49 78 55 79 57 80 54 81 50 82 51 83 52 84 53 85
REMARK SMILES IDX 79 86 80 87 88 88 81 89 87 90 89 91 86 92 82 93 83 94 84 95
REMARK SMILES IDX 85 96 64 97 65 98 73 99 66 100 72 101 74 102 71 103 67 104
REMARK SMILES IDX 68 105 69 106 70 107
REMARK H PARENT 18 9 23 35 94 60 62 71
REMARK Flexibility Score: inf
ROOT
ATOM      1  C   UNL A   1      44.284  25.591  25.154  1.00  0.00     0.274 C 
ENDROOT
BRANCH   1   2
ATOM      2  O   UNL A   1      44.127  26.078  26.512  1.00  0.00    -0.461 OA
BRANCH   2   3
ATOM      3  C   UNL A   1      45.220  26.633  27.088  1.00  0.00     0.329 C 
ATOM      4  O   UNL A   1      45.551  27.787  26.824  1.00  0.00    -0.250 OA
BRANCH   3   5
ATOM      5  C   UNL A   1      46.256  25.631  28.008  1.00  0.00     0.196 C 
BRANCH   5   6
ATOM      6  N   UNL A   1      48.195  25.023  27.716  1.00  0.00    -0.342 N 
ATOM      7  C   UNL A   1      49.588  25.187  27.518  1.00  0.00     0.220 C 
ATOM      8  O   UNL A   1      50.279  24.178  27.685  1.00  0.00    -0.275 OA
ATOM      9  H   UNL A   1      48.102  24.043  27.708  1.00  0.00     0.164 HD
BRANCH   7  10
ATOM     10  C   UNL A   1      50.230  26.511  27.231  1.00  0.00     0.101 C 
BRANCH  10  11
ATOM     11  C   UNL A   1      50.739  26.398  25.842  1.00  0.00     0.026 C 
BRANCH  11  12
ATOM     12  C   UNL A   1      49.909  27.404  25.058  1.00  0.00     0.107 C 
ATOM     13  C   UNL A   1      53.818  29.203  18.614  1.00  0.00     0.048 C 
ATOM     14  C   UNL A   1      52.552  28.437  18.654  1.00  0.00    -0.005 A 
ATOM     15  C   UNL A   1      51.955  27.750  17.622  1.00  0.00     0.199 A 
ATOM     16  C   UNL A   1      51.707  28.260  19.798  1.00  0.00     0.024 A 
ATOM     17  O   UNL A   1      50.784  27.201  18.014  1.00  0.00    -0.464 OA
ATOM     18  C   UNL A   1      50.592  27.524  19.328  1.00  0.00     0.137 A 
ATOM     19  C   UNL A   1      51.888  28.656  21.158  1.00  0.00     0.020 A 
ATOM     20  C   UNL A   1      49.436  27.117  20.010  1.00  0.00     0.095 A 
ATOM     21  C   UNL A   1      50.847  28.333  21.992  1.00  0.00    -0.001 A 
ATOM     22  C   UNL A   1      49.473  27.618  21.283  1.00  0.00     0.138 A 
ATOM     23  C   UNL A   1      51.189  28.285  23.860  1.00  0.00     0.034 C 
ATOM     24  O   UNL A   1      48.362  26.722  22.398  1.00  0.00    -0.426 OA
ATOM     25  C   UNL A   1      51.757  29.500  24.564  1.00  0.00     0.014 C 
ATOM     26  C   UNL A   1      48.356  26.542  24.177  1.00  0.00     0.314 C 
ATOM     27  O   UNL A   1      47.527  25.806  24.684  1.00  0.00    -0.251 OA
ENDBRANCH  11  12
ENDBRANCH  10  11
ENDBRANCH   7  10
ENDBRANCH   5   6
BRANCH   5  28
ATOM     28  C   UNL A   1      45.381  25.931  29.474  1.00  0.00     0.074 C 
BRANCH  28  29
ATOM     29  C   UNL A   1      45.633  25.527  30.924  1.00  0.00    -0.020 A 
ATOM     30  C   UNL A   1      46.655  26.197  31.599  1.00  0.00     0.087 A 
ATOM     31  C   UNL A   1      45.073  24.634  31.903  1.00  0.00     0.003 A 
ATOM     32  N   UNL A   1      46.612  25.889  32.922  1.00  0.00    -0.361 N 
ATOM     33  C   UNL A   1      45.604  24.994  33.151  1.00  0.00     0.046 A 
ATOM     34  C   UNL A   1      44.121  23.600  31.923  1.00  0.00     0.010 A 
ATOM     35  H   UNL A   1      47.214  26.254  33.610  1.00  0.00     0.166 HD
ATOM     36  C   UNL A   1      45.126  24.495  34.371  1.00  0.00     0.026 A 
ATOM     37  C   UNL A   1      43.615  23.093  33.127  1.00  0.00     0.001 A 
ATOM     38  C   UNL A   1      44.092  23.564  34.338  1.00  0.00     0.002 A 
ENDBRANCH  28  29
ENDBRANCH   5  28
ENDBRANCH   3   5
ENDBRANCH   2   3
ENDBRANCH   1   2
BRANCH   1  39
ATOM     39  C   UNL A   1      43.425  24.348  24.915  1.00  0.00     0.275 C 
BRANCH  39  40
ATOM     40  O   UNL A   1      43.558  23.500  26.063  1.00  0.00    -0.458 OA
BRANCH  40  41
ATOM     41  C   UNL A   1      42.462  22.792  26.422  1.00  0.00     0.338 C 
ATOM     42  O   UNL A   1      42.253  21.619  26.166  1.00  0.00    -0.246 OA
BRANCH  41  43
ATOM     43  C   UNL A   1      41.706  23.617  27.406  1.00  0.00     0.060 A 
ATOM     44  C   UNL A   1      40.471  24.197  27.085  1.00  0.00     0.016 A 
ATOM     45  C   UNL A   1      42.399  24.066  28.518  1.00  0.00     0.016 A 
ATOM     46  C   UNL A   1      40.088  25.403  27.679  1.00  0.00     0.010 A 
ATOM     47  C   UNL A   1      42.007  25.267  29.103  1.00  0.00     0.010 A 
ATOM     48  C   UNL A   1      40.935  26.025  28.591  1.00  0.00    -0.014 A 
BRANCH  48  49
ATOM     49  C   UNL A   1      40.752  27.432  29.020  1.00  0.00     0.031 A 
ATOM     50  C   UNL A   1      41.602  28.435  28.340  1.00  0.00     0.074 A 
ATOM     51  C   UNL A   1      39.852  27.964  29.887  1.00  0.00     0.049 A 
ATOM     52  N   UNL A   1      42.715  28.893  28.803  1.00  0.00    -0.248 NA
ATOM     53  C   UNL A   1      41.257  28.929  27.007  1.00  0.00     0.031 C 
ATOM     54  C   UNL A   1      38.789  27.326  30.664  1.00  0.00     0.029 A 
ATOM     55  N   UNL A   1      39.696  29.290  30.226  1.00  0.00    -0.354 N 
ATOM     56  C   UNL A   1      43.145  29.849  27.897  1.00  0.00     0.074 A 
ATOM     57  C   UNL A   1      42.297  29.717  26.739  1.00  0.00     0.031 C 
ATOM     58  C   UNL A   1      38.007  28.261  31.260  1.00  0.00     0.029 A 
ATOM     59  C   UNL A   1      38.599  29.570  31.032  1.00  0.00     0.049 A 
ATOM     60  H   UNL A   1      40.317  29.989  29.920  1.00  0.00     0.167 HD
ATOM     61  C   UNL A   1      44.065  30.792  28.235  1.00  0.00     0.034 A 
ATOM     62  C   UNL A   1      38.339  30.704  31.730  1.00  0.00     0.034 A 
ATOM     63  C   UNL A   1      44.640  30.536  29.530  1.00  0.00     0.049 A 
ATOM     64  C   UNL A   1      39.638  31.324  32.052  1.00  0.00     0.074 A 
ATOM     65  C   UNL A   1      45.387  29.512  30.078  1.00  0.00     0.029 A 
ATOM     66  N   UNL A   1      44.113  31.230  30.591  1.00  0.00    -0.354 N 
ATOM     67  N   UNL A   1      40.493  30.833  32.904  1.00  0.00    -0.248 NA
ATOM     68  C   UNL A   1      40.142  32.377  31.191  1.00  0.00     0.031 C 
ATOM     69  C   UNL A   1      44.930  29.388  31.425  1.00  0.00     0.029 A 
ATOM     70  C   UNL A   1      43.944  30.354  31.637  1.00  0.00     0.049 A 
ATOM     71  H   UNL A   1      43.894  32.190  30.601  1.00  0.00     0.167 HD
ATOM     72  C   UNL A   1      41.728  31.187  32.394  1.00  0.00     0.074 A 
ATOM     73  C   UNL A   1      41.445  32.269  31.458  1.00  0.00     0.031 C 
ATOM     74  C   UNL A   1      42.827  30.394  32.569  1.00  0.00     0.034 A 
BRANCH  61  75
ATOM     75  C   UNL A   1      44.244  32.082  27.491  1.00  0.00     0.023 A 
ATOM     76  C   UNL A   1      43.665  33.289  27.923  1.00  0.00     0.031 A 
ATOM     77  C   UNL A   1      45.113  32.168  26.391  1.00  0.00     0.131 A 
ATOM     78  C   UNL A   1      43.855  34.484  27.222  1.00  0.00     0.055 A 
ATOM     79  C   UNL A   1      45.373  33.380  25.740  1.00  0.00     0.041 A 
ATOM     80  F   UNL A   1      45.754  31.082  25.933  1.00  0.00    -0.206 F 
ATOM     81  C   UNL A   1      44.725  34.544  26.139  1.00  0.00     0.022 A 
BRANCH  78  82
ATOM     82  S   UNL A   1      42.906  35.960  27.675  1.00  0.00     0.124 S 
ATOM     83  O   UNL A   1      42.568  36.508  26.366  1.00  0.00    -0.237 OA
ATOM     84  O   UNL A   1      41.794  35.385  28.429  1.00  0.00    -0.237 OA
ATOM     85  O   UNL A   1      43.852  36.737  28.472  1.00  0.00    -0.744 OA
ENDBRANCH  78  82
ENDBRANCH  61  75
BRANCH  62  86
ATOM     86  C   UNL A   1      37.078  31.466  31.895  1.00  0.00     0.023 A 
ATOM     87  C   UNL A   1      36.439  32.024  30.771  1.00  0.00     0.031 A 
ATOM     88  C   UNL A   1      36.655  31.918  33.154  1.00  0.00     0.131 A 
ATOM     89  C   UNL A   1      35.400  32.960  30.915  1.00  0.00     0.055 A 
ATOM     90  C   UNL A   1      35.639  32.873  33.301  1.00  0.00     0.041 A 
ATOM     91  F   UNL A   1      37.262  31.486  34.270  1.00  0.00    -0.206 F 
ATOM     92  C   UNL A   1      35.003  33.394  32.179  1.00  0.00     0.022 A 
BRANCH  89  93
ATOM     93  S   UNL A   1      34.542  33.683  29.481  1.00  0.00     0.124 S 
ATOM     94  O   UNL A   1      35.567  34.562  28.923  1.00  0.00    -0.237 OA
ATOM     95  O   UNL A   1      34.228  32.499  28.689  1.00  0.00    -0.237 OA
ATOM     96  O   UNL A   1      33.399  34.375  30.063  1.00  0.00    -0.744 OA
ENDBRANCH  89  93
ENDBRANCH  62  86
BRANCH  74  97
ATOM     97  C   UNL A   1      42.783  29.304  33.627  1.00  0.00     0.023 A 
ATOM     98  C   UNL A   1      43.379  29.578  34.874  1.00  0.00     0.031 A 
ATOM     99  C   UNL A   1      42.353  27.983  33.401  1.00  0.00     0.131 A 
ATOM    100  C   UNL A   1      43.557  28.557  35.819  1.00  0.00     0.055 A 
ATOM    101  C   UNL A   1      42.471  26.982  34.373  1.00  0.00     0.041 A 
ATOM    102  F   UNL A   1      41.872  27.596  32.214  1.00  0.00    -0.206 F 
ATOM    103  C   UNL A   1      43.089  27.262  35.584  1.00  0.00     0.022 A 
BRANCH 100 104
ATOM    104  S   UNL A   1      44.515  28.851  37.329  1.00  0.00     0.124 S 
ATOM    105  O   UNL A   1      45.865  29.043  36.807  1.00  0.00    -0.237 OA
ATOM    106  O   UNL A   1      43.879  30.050  37.869  1.00  0.00    -0.237 OA
ATOM    107  O   UNL A   1      44.317  27.636  38.115  1.00  0.00    -0.744 OA
ENDBRANCH 100 104
ENDBRANCH  74  97
ENDBRANCH  48  49
ENDBRANCH  41  43
ENDBRANCH  40  41
ENDBRANCH  39  40
ENDBRANCH   1  39
TORSDOF 20
ENDMDL
MODEL 2
REMARK VINA RESULT:     -11.0      3.200      8.957
REMARK SMILES Cc1coc2cc3c(cc12)[C@@H](C)[C@H](CCC(=O)N[C@@H](Cc1c[nH]c2ccccc12)C(=O)OCCOC(=O)c1ccc(-c2c4nc(c(-c5cc(S(=O)(=O)[O-])ccc5F)c5ccc([nH]5)c(-c5cc(S(=O)(=O)[O-])ccc5F)c5nc(c(-c6cc(S(=O)(=O)[O-])ccc6F)c6ccc2[nH]6)C=C5)C=C4)cc1)C(=O)O3
REMARK SMILES IDX 33 1 32 2 30 3 31 4 19 5 18 6 16 7 17 8 15 10 14 11 13 12
REMARK SMILES IDX 1 13 2 14 3 15 10 16 4 17 5 18 9 19 6 20 8 21 7 22 11 23
REMARK SMILES IDX 103 24 12 25 101 26 102 27 20 28 21 29 22 30 29 31 23 32
REMARK SMILES IDX 24 33 28 34 25 36 27 37 26 38 34 39 35 40 36 41 37 42 38 43
REMARK SMILES IDX 39 44 100 45 40 46 99 47 41 48 42 49 43 50 93 51 44 52 98 53
REMARK SMILES IDX 92 54 94 55 45 56 97 57 91 58 90 59 46 61 78 62 58 63 77 64
REMARK SMILES IDX 59 65 62 66 76 67 95 68 60 69 61 70 75 72 96 73 63 74 47 75
REMARK SMILES IDX 48 76 56 77 49 78 55 79 57 80 54 81 50 82 51 83 52 84 53 85
REMARK SMILES IDX 79 86 80 87 88 88 81 89 87 90 89 91 86 92 82 93 83 94 84 95
REMARK SMILES IDX 85 96 64 97 65 98 73 99 66 100 72 101 74 102 71 103 67 104
REMARK SMILES IDX 68 105 69 106 70 107
REMARK H PARENT 18 9 23 35 94 60 62 71
REMARK Flexibility Score: inf
ROOT
ATOM      1  C   UNL A   1      49.313  33.777  26.211  1.00  0.00     0.274 C 
ENDROOT
BRANCH   1   2
ATOM      2  O   UNL A   1      48.722  32.452  26.165  1.00  0.00    -0.461 OA
BRANCH   2   3
ATOM      3  C   UNL A   1      49.054  31.605  27.167  1.00  0.00     0.329 C 
ATOM      4  O   UNL A   1      49.768  31.978  28.096  1.00  0.00    -0.250 OA
BRANCH   3   5
ATOM      5  C   UNL A   1      48.654  29.950  27.004  1.00  0.00     0.196 C 
BRANCH   5   6
ATOM      6  N   UNL A   1      49.806  28.286  26.661  1.00  0.00    -0.342 N 
ATOM      7  C   UNL A   1      50.150  27.049  26.060  1.00  0.00     0.220 C 
ATOM      8  O   UNL A   1      51.318  26.683  26.210  1.00  0.00    -0.275 OA
ATOM      9  H   UNL A   1      50.563  28.432  27.273  1.00  0.00     0.164 HD
BRANCH   7  10
ATOM     10  C   UNL A   1      49.208  26.262  25.198  1.00  0.00     0.101 C 
BRANCH  10  11
ATOM     11  C   UNL A   1      47.928  26.240  25.948  1.00  0.00     0.026 C 
BRANCH  11  12
ATOM     12  C   UNL A   1      46.861  26.234  24.863  1.00  0.00     0.107 C 
ATOM     13  C   UNL A   1      40.871  22.053  27.448  1.00  0.00     0.048 C 
ATOM     14  C   UNL A   1      40.853  23.517  27.227  1.00  0.00    -0.005 A 
ATOM     15  C   UNL A   1      39.881  24.411  27.612  1.00  0.00     0.199 A 
ATOM     16  C   UNL A   1      41.869  24.284  26.567  1.00  0.00     0.024 A 
ATOM     17  O   UNL A   1      40.181  25.664  27.205  1.00  0.00    -0.464 OA
ATOM     18  C   UNL A   1      41.373  25.611  26.537  1.00  0.00     0.137 A 
ATOM     19  C   UNL A   1      43.148  23.897  26.065  1.00  0.00     0.020 A 
ATOM     20  C   UNL A   1      41.933  26.762  25.965  1.00  0.00     0.095 A 
ATOM     21  C   UNL A   1      43.858  24.907  25.466  1.00  0.00    -0.001 A 
ATOM     22  C   UNL A   1      43.087  26.418  25.315  1.00  0.00     0.138 A 
ATOM     23  C   UNL A   1      45.734  24.682  25.278  1.00  0.00     0.034 C 
ATOM     24  O   UNL A   1      44.161  27.849  25.036  1.00  0.00    -0.426 OA
ATOM     25  C   UNL A   1      46.290  23.471  24.556  1.00  0.00     0.014 C 
ATOM     26  C   UNL A   1      45.922  27.976  24.751  1.00  0.00     0.314 C 
ATOM     27  O   UNL A   1      46.419  29.085  24.669  1.00  0.00    -0.251 OA
ENDBRANCH  11  12
ENDBRANCH  10  11
ENDBRANCH   7  10
ENDBRANCH   5   6
BRANCH   5  28
ATOM     28  C   UNL A   1      47.181  30.132  27.898  1.00  0.00     0.074 C 
BRANCH  28  29
ATOM     29  C   UNL A   1      46.101  29.138  28.316  1.00  0.00    -0.020 A 
ATOM     30  C   UNL A   1      44.774  29.552  28.184  1.00  0.00     0.087 A 
ATOM     31  C   UNL A   1      46.015  27.785  28.797  1.00  0.00     0.003 A 
ATOM     32  N   UNL A   1      43.941  28.497  28.381  1.00  0.00    -0.361 N 
ATOM     33  C   UNL A   1      44.675  27.383  28.682  1.00  0.00     0.046 A 
ATOM     34  C   UNL A   1      46.907  26.799  29.254  1.00  0.00     0.010 A 
ATOM     35  H   UNL A   1      42.959  28.530  28.319  1.00  0.00     0.166 HD
ATOM     36  C   UNL A   1      44.244  26.059  28.846  1.00  0.00     0.026 A 
ATOM     37  C   UNL A   1      46.509  25.466  29.411  1.00  0.00     0.001 A 
ATOM     38  C   UNL A   1      45.195  25.097  29.176  1.00  0.00     0.002 A 
ENDBRANCH  28  29
ENDBRANCH   5  28
ENDBRANCH   3   5
ENDBRANCH   2   3
ENDBRANCH   1   2
BRANCH   1  39
ATOM     39  C   UNL A   1      48.458  34.786  25.442  1.00  0.00     0.275 C 
BRANCH  39  40
ATOM     40  O   UNL A   1      47.085  34.405  25.605  1.00  0.00    -0.458 OA
BRANCH  40  41
ATOM     41  C   UNL A   1      46.425  34.953  26.652  1.00  0.00     0.338 C 
ATOM     42  O   UNL A   1      46.067  36.114  26.742  1.00  0.00    -0.246 OA
BRANCH  41  43
ATOM     43  C   UNL A   1      45.982  33.833  27.529  1.00  0.00     0.060 A 
ATOM     44  C   UNL A   1      44.709  33.260  27.404  1.00  0.00     0.016 A 
ATOM     45  C   UNL A   1      46.724  33.595  28.673  1.00  0.00     0.016 A 
ATOM     46  C   UNL A   1      44.070  32.721  28.525  1.00  0.00     0.010 A 
ATOM     47  C   UNL A   1      46.079  33.055  29.782  1.00  0.00     0.010 A 
ATOM     48  C   UNL A   1      44.703  32.753  29.763  1.00  0.00    -0.014 A 
BRANCH  48  49
ATOM     49  C   UNL A   1      43.984  32.495  31.034  1.00  0.00     0.031 A 
ATOM     50  C   UNL A   1      44.011  31.099  31.525  1.00  0.00     0.074 A 
ATOM     51  C   UNL A   1      43.370  33.367  31.875  1.00  0.00     0.049 A 
ATOM     52  N   UNL A   1      43.080  30.229  31.325  1.00  0.00    -0.248 NA
ATOM     53  C   UNL A   1      45.181  30.576  32.229  1.00  0.00     0.031 C 
ATOM     54  C   UNL A   1      43.227  34.821  31.796  1.00  0.00     0.029 A 
ATOM     55  N   UNL A   1      42.744  33.083  33.069  1.00  0.00    -0.354 N 
ATOM     56  C   UNL A   1      43.469  29.086  32.005  1.00  0.00     0.074 A 
ATOM     57  C   UNL A   1      44.836  29.302  32.407  1.00  0.00     0.031 C 
ATOM     58  C   UNL A   1      42.700  35.311  32.947  1.00  0.00     0.029 A 
ATOM     59  C   UNL A   1      42.326  34.190  33.796  1.00  0.00     0.049 A 
ATOM     60  H   UNL A   1      42.603  32.161  33.384  1.00  0.00     0.167 HD
ATOM     61  C   UNL A   1      42.579  28.109  32.329  1.00  0.00     0.034 A 
ATOM     62  C   UNL A   1      41.471  34.228  34.848  1.00  0.00     0.034 A 
ATOM     63  C   UNL A   1      41.295  28.334  31.717  1.00  0.00     0.049 A 
ATOM     64  C   UNL A   1      40.555  33.080  34.706  1.00  0.00     0.074 A 
ATOM     65  C   UNL A   1      40.836  28.415  30.417  1.00  0.00     0.029 A 
ATOM     66  N   UNL A   1      40.332  28.928  32.496  1.00  0.00    -0.354 N 
ATOM     67  N   UNL A   1      39.636  32.986  33.786  1.00  0.00    -0.248 NA
ATOM     68  C   UNL A   1      40.850  31.857  35.429  1.00  0.00     0.031 C 
ATOM     69  C   UNL A   1      39.827  29.424  30.433  1.00  0.00     0.029 A 
ATOM     70  C   UNL A   1      39.706  29.893  31.743  1.00  0.00     0.049 A 
ATOM     71  H   UNL A   1      40.127  28.702  33.432  1.00  0.00     0.167 HD
ATOM     72  C   UNL A   1      39.563  31.633  33.512  1.00  0.00     0.074 A 
ATOM     73  C   UNL A   1      40.189  30.988  34.661  1.00  0.00     0.031 C 
ATOM     74  C   UNL A   1      39.249  31.173  32.264  1.00  0.00     0.034 A 
BRANCH  61  75
ATOM     75  C   UNL A   1      42.815  27.097  33.409  1.00  0.00     0.023 A 
ATOM     76  C   UNL A   1      42.072  27.079  34.603  1.00  0.00     0.031 A 
ATOM     77  C   UNL A   1      43.710  26.030  33.219  1.00  0.00     0.131 A 
ATOM     78  C   UNL A   1      42.299  26.117  35.593  1.00  0.00     0.055 A 
ATOM     79  C   UNL A   1      43.876  25.017  34.171  1.00  0.00     0.041 A 
ATOM     80  F   UNL A   1      44.430  25.929  32.091  1.00  0.00    -0.206 F 
ATOM     81  C   UNL A   1      43.186  25.069  35.377  1.00  0.00     0.022 A 
BRANCH  78  82
ATOM     82  S   UNL A   1      41.488  26.270  37.207  1.00  0.00     0.124 S 
ATOM     83  O   UNL A   1      42.632  26.321  38.109  1.00  0.00    -0.237 OA
ATOM     84  O   UNL A   1      40.743  27.518  37.054  1.00  0.00    -0.237 OA
ATOM     85  O   UNL A   1      40.663  25.068  37.284  1.00  0.00    -0.744 OA
ENDBRANCH  78  82
ENDBRANCH  61  75
BRANCH  62  86
ATOM     86  C   UNL A   1      41.545  34.979  36.124  1.00  0.00     0.023 A 
ATOM     87  C   UNL A   1      42.783  35.142  36.776  1.00  0.00     0.031 A 
ATOM     88  C   UNL A   1      40.392  35.273  36.869  1.00  0.00     0.131 A 
ATOM     89  C   UNL A   1      42.852  35.615  38.098  1.00  0.00     0.055 A 
ATOM     90  C   UNL A   1      40.457  35.717  38.198  1.00  0.00     0.041 A 
ATOM     91  F   UNL A   1      39.174  35.076  36.342  1.00  0.00    -0.206 F 
ATOM     92  C   UNL A   1      41.690  35.895  38.815  1.00  0.00     0.022 A 
BRANCH  89  93
ATOM     93  S   UNL A   1      44.439  35.855  38.958  1.00  0.00     0.124 S 
ATOM     94  O   UNL A   1      45.402  35.426  37.948  1.00  0.00    -0.237 OA
ATOM     95  O   UNL A   1      44.416  37.286  39.239  1.00  0.00    -0.237 OA
ATOM     96  O   UNL A   1      44.347  34.982  40.121  1.00  0.00    -0.744 OA
ENDBRANCH  89  93
ENDBRANCH  62  86
BRANCH  74  97
ATOM     97  C   UNL A   1      38.628  32.133  31.264  1.00  0.00     0.023 A 
ATOM     98  C   UNL A   1      37.223  32.216  31.221  1.00  0.00     0.031 A 
ATOM     99  C   UNL A   1      39.340  32.814  30.257  1.00  0.00     0.131 A 
ATOM    100  C   UNL A   1      36.581  32.921  30.192  1.00  0.00     0.055 A 
ATOM    101  C   UNL A   1      38.698  33.572  29.271  1.00  0.00     0.041 A 
ATOM    102  F   UNL A   1      40.669  32.711  30.147  1.00  0.00    -0.206 F 
ATOM    103  C   UNL A   1      37.311  33.617  29.226  1.00  0.00     0.022 A 
BRANCH 100 104
ATOM    104  S   UNL A   1      34.781  32.850  30.006  1.00  0.00     0.124 S 
ATOM    105  O   UNL A   1      34.462  34.199  29.547  1.00  0.00    -0.237 OA
ATOM    106  O   UNL A   1      34.616  31.797  29.006  1.00  0.00    -0.237 OA
ATOM    107  O   UNL A   1      34.299  32.516  31.343  1.00  0.00    -0.744 OA
ENDBRANCH 100 104
ENDBRANCH  74  97
ENDBRANCH  48  49
ENDBRANCH  41  43
ENDBRANCH  40  41
ENDBRANCH  39  40
ENDBRANCH   1  39
TORSDOF 20
ENDMDL
MODEL 3
REMARK VINA RESULT:     -11.0      2.973      4.605
REMARK SMILES Cc1coc2cc3c(cc12)[C@@H](C)[C@H](CCC(=O)N[C@@H](Cc1c[nH]c2ccccc12)C(=O)OCCOC(=O)c1ccc(-c2c4nc(c(-c5cc(S(=O)(=O)[O-])ccc5F)c5ccc([nH]5)c(-c5cc(S(=O)(=O)[O-])ccc5F)c5nc(c(-c6cc(S(=O)(=O)[O-])ccc6F)c6ccc2[nH]6)C=C5)C=C4)cc1)C(=O)O3
REMARK SMILES IDX 33 1 32 2 30 3 31 4 19 5 18 6 16 7 17 8 15 10 14 11 13 12
REMARK SMILES IDX 1 13 2 14 3 15 10 16 4 17 5 18 9 19 6 20 8 21 7 22 11 23
REMARK SMILES IDX 103 24 12 25 101 26 102 27 20 28 21 29 22 30 29 31 23 32
REMARK SMILES IDX 24 33 28 34 25 36 27 37 26 38 34 39 35 40 36 41 37 42 38 43
REMARK SMILES IDX 39 44 100 45 40 46 99 47 41 48 42 49 43 50 93 51 44 52 98 53
REMARK SMILES IDX 92 54 94 55 45 56 97 57 91 58 90 59 46 61 78 62 58 63 77 64
REMARK SMILES IDX 59 65 62 66 76 67 95 68 60 69 61 70 75 72 96 73 63 74 47 75
REMARK SMILES IDX 48 76 56 77 49 78 55 79 57 80 54 81 50 82 51 83 52 84 53 85
REMARK SMILES IDX 79 86 80 87 88 88 81 89 87 90 89 91 86 92 82 93 83 94 84 95
REMARK SMILES IDX 85 96 64 97 65 98 73 99 66 100 72 101 74 102 71 103 67 104
REMARK SMILES IDX 68 105 69 106 70 107
REMARK H PARENT 18 9 23 35 94 60 62 71
REMARK Flexibility Score: inf
ROOT
ATOM      1  C   UNL A   1      45.065  25.527  25.171  1.00  0.00     0.274 C 
ENDROOT
BRANCH   1   2
ATOM      2  O   UNL A   1      44.598  26.362  26.263  1.00  0.00    -0.461 OA
BRANCH   2   3
ATOM      3  C   UNL A   1      45.548  26.905  27.059  1.00  0.00     0.329 C 
ATOM      4  O   UNL A   1      45.823  28.101  26.985  1.00  0.00    -0.250 OA
BRANCH   3   5
ATOM      5  C   UNL A   1      46.515  25.861  28.008  1.00  0.00     0.196 C 
BRANCH   5   6
ATOM      6  N   UNL A   1      48.459  25.234  27.814  1.00  0.00    -0.342 N 
ATOM      7  C   UNL A   1      49.849  25.216  28.091  1.00  0.00     0.220 C 
ATOM      8  O   UNL A   1      50.470  24.236  27.673  1.00  0.00    -0.275 OA
ATOM      9  H   UNL A   1      48.381  24.539  27.121  1.00  0.00     0.164 HD
BRANCH   7  10
ATOM     10  C   UNL A   1      50.535  26.252  28.930  1.00  0.00     0.101 C 
BRANCH  10  11
ATOM     11  C   UNL A   1      49.655  26.433  30.112  1.00  0.00     0.026 C 
BRANCH  11  12
ATOM     12  C   UNL A   1      50.329  27.539  30.911  1.00  0.00     0.107 C 
ATOM     13  C   UNL A   1      47.185  34.283  28.748  1.00  0.00     0.048 C 
ATOM     14  C   UNL A   1      47.013  33.652  30.076  1.00  0.00    -0.005 A 
ATOM     15  C   UNL A   1      46.138  34.020  31.072  1.00  0.00     0.199 A 
ATOM     16  C   UNL A   1      47.735  32.518  30.573  1.00  0.00     0.024 A 
ATOM     17  O   UNL A   1      46.286  33.241  32.165  1.00  0.00    -0.464 OA
ATOM     18  C   UNL A   1      47.277  32.337  31.901  1.00  0.00     0.137 A 
ATOM     19  C   UNL A   1      48.684  31.665  29.931  1.00  0.00     0.020 A 
ATOM     20  C   UNL A   1      47.682  31.405  32.868  1.00  0.00     0.095 A 
ATOM     21  C   UNL A   1      49.195  30.673  30.729  1.00  0.00    -0.001 A 
ATOM     22  C   UNL A   1      48.717  30.666  32.364  1.00  0.00     0.138 A 
ATOM     23  C   UNL A   1      49.996  29.176  29.881  1.00  0.00     0.034 C 
ATOM     24  O   UNL A   1      48.939  29.110  33.264  1.00  0.00    -0.426 OA
ATOM     25  C   UNL A   1      51.134  29.372  28.900  1.00  0.00     0.014 C 
ATOM     26  C   UNL A   1      49.706  27.564  32.793  1.00  0.00     0.314 C 
ATOM     27  O   UNL A   1      49.653  26.628  33.571  1.00  0.00    -0.251 OA
ENDBRANCH  11  12
ENDBRANCH  10  11
ENDBRANCH   7  10
ENDBRANCH   5   6
BRANCH   5  28
ATOM     28  C   UNL A   1      45.556  26.127  29.428  1.00  0.00     0.074 C 
BRANCH  28  29
ATOM     29  C   UNL A   1      45.727  25.693  30.881  1.00  0.00    -0.020 A 
ATOM     30  C   UNL A   1      46.668  26.389  31.642  1.00  0.00     0.087 A 
ATOM     31  C   UNL A   1      45.143  24.749  31.795  1.00  0.00     0.003 A 
ATOM     32  N   UNL A   1      46.548  26.042  32.950  1.00  0.00    -0.361 N 
ATOM     33  C   UNL A   1      45.570  25.096  33.086  1.00  0.00     0.046 A 
ATOM     34  C   UNL A   1      44.240  23.673  31.723  1.00  0.00     0.010 A 
ATOM     35  H   UNL A   1      47.084  26.413  33.688  1.00  0.00     0.166 HD
ATOM     36  C   UNL A   1      45.034  24.542  34.257  1.00  0.00     0.026 A 
ATOM     37  C   UNL A   1      43.677  23.110  32.875  1.00  0.00     0.001 A 
ATOM     38  C   UNL A   1      44.048  23.567  34.129  1.00  0.00     0.002 A 
ENDBRANCH  28  29
ENDBRANCH   5  28
ENDBRANCH   3   5
ENDBRANCH   2   3
ENDBRANCH   1   2
BRANCH   1  39
ATOM     39  C   UNL A   1      44.076  24.397  24.882  1.00  0.00     0.275 C 
BRANCH  39  40
ATOM     40  O   UNL A   1      44.049  23.539  26.031  1.00  0.00    -0.458 OA
BRANCH  40  41
ATOM     41  C   UNL A   1      42.897  22.865  26.255  1.00  0.00     0.338 C 
ATOM     42  O   UNL A   1      42.650  21.730  25.887  1.00  0.00    -0.246 OA
BRANCH  41  43
ATOM     43  C   UNL A   1      42.116  23.647  27.254  1.00  0.00     0.060 A 
ATOM     44  C   UNL A   1      40.830  24.127  26.970  1.00  0.00     0.016 A 
ATOM     45  C   UNL A   1      42.811  24.165  28.334  1.00  0.00     0.016 A 
ATOM     46  C   UNL A   1      40.377  25.310  27.561  1.00  0.00     0.010 A 
ATOM     47  C   UNL A   1      42.350  25.342  28.916  1.00  0.00     0.010 A 
ATOM     48  C   UNL A   1      41.206  26.008  28.433  1.00  0.00    -0.014 A 
BRANCH  48  49
ATOM     49  C   UNL A   1      40.931  27.405  28.848  1.00  0.00     0.031 A 
ATOM     50  C   UNL A   1      41.760  28.449  28.206  1.00  0.00     0.074 A 
ATOM     51  C   UNL A   1      39.966  27.891  29.671  1.00  0.00     0.049 A 
ATOM     52  N   UNL A   1      42.826  28.965  28.719  1.00  0.00    -0.248 NA
ATOM     53  C   UNL A   1      41.453  28.925  26.857  1.00  0.00     0.031 C 
ATOM     54  C   UNL A   1      38.902  27.200  30.399  1.00  0.00     0.029 A 
ATOM     55  N   UNL A   1      39.727  29.208  29.998  1.00  0.00    -0.354 N 
ATOM     56  C   UNL A   1      43.248  29.941  27.832  1.00  0.00     0.074 A 
ATOM     57  C   UNL A   1      42.463  29.764  26.635  1.00  0.00     0.031 C 
ATOM     58  C   UNL A   1      38.046  28.094  30.955  1.00  0.00     0.029 A 
ATOM     59  C   UNL A   1      38.581  29.431  30.751  1.00  0.00     0.049 A 
ATOM     60  H   UNL A   1      40.325  29.937  29.719  1.00  0.00     0.167 HD
ATOM     61  C   UNL A   1      44.102  30.929  28.209  1.00  0.00     0.034 A 
ATOM     62  C   UNL A   1      38.230  30.551  31.432  1.00  0.00     0.034 A 
ATOM     63  C   UNL A   1      44.628  30.703  29.530  1.00  0.00     0.049 A 
ATOM     64  C   UNL A   1      39.479  31.237  31.813  1.00  0.00     0.074 A 
ATOM     65  C   UNL A   1      45.400  29.720  30.116  1.00  0.00     0.029 A 
ATOM     66  N   UNL A   1      44.017  31.371  30.564  1.00  0.00    -0.354 N 
ATOM     67  N   UNL A   1      40.317  30.790  32.706  1.00  0.00    -0.248 NA
ATOM     68  C   UNL A   1      39.969  32.314  30.974  1.00  0.00     0.031 C 
ATOM     69  C   UNL A   1      44.887  29.573  31.440  1.00  0.00     0.029 A 
ATOM     70  C   UNL A   1      43.844  30.487  31.603  1.00  0.00     0.049 A 
ATOM     71  H   UNL A   1      43.749  32.318  30.560  1.00  0.00     0.167 HD
ATOM     72  C   UNL A   1      41.555  31.207  32.253  1.00  0.00     0.074 A 
ATOM     73  C   UNL A   1      41.262  32.272  31.302  1.00  0.00     0.031 C 
ATOM     74  C   UNL A   1      42.684  30.471  32.482  1.00  0.00     0.034 A 
BRANCH  61  75
ATOM     75  C   UNL A   1      44.249  32.226  27.471  1.00  0.00     0.023 A 
ATOM     76  C   UNL A   1      43.672  33.425  27.927  1.00  0.00     0.031 A 
ATOM     77  C   UNL A   1      45.088  32.328  26.348  1.00  0.00     0.131 A 
ATOM     78  C   UNL A   1      43.833  34.627  27.230  1.00  0.00     0.055 A 
ATOM     79  C   UNL A   1      45.320  33.547  25.699  1.00  0.00     0.041 A 
ATOM     80  F   UNL A   1      45.725  31.251  25.864  1.00  0.00    -0.206 F 
ATOM     81  C   UNL A   1      44.673  34.702  26.124  1.00  0.00     0.022 A 
BRANCH  78  82
ATOM     82  S   UNL A   1      42.884  36.091  27.720  1.00  0.00     0.124 S 
ATOM     83  O   UNL A   1      42.017  35.548  28.760  1.00  0.00    -0.237 OA
ATOM     84  O   UNL A   1      43.937  36.995  28.179  1.00  0.00    -0.237 OA
ATOM     85  O   UNL A   1      42.225  36.494  26.481  1.00  0.00    -0.744 OA
ENDBRANCH  78  82
ENDBRANCH  61  75
BRANCH  62  86
ATOM     86  C   UNL A   1      36.926  31.247  31.536  1.00  0.00     0.023 A 
ATOM     87  C   UNL A   1      36.310  31.766  30.381  1.00  0.00     0.031 A 
ATOM     88  C   UNL A   1      36.425  31.684  32.772  1.00  0.00     0.131 A 
ATOM     89  C   UNL A   1      35.218  32.648  30.472  1.00  0.00     0.055 A 
ATOM     90  C   UNL A   1      35.355  32.586  32.867  1.00  0.00     0.041 A 
ATOM     91  F   UNL A   1      37.003  31.290  33.917  1.00  0.00    -0.206 F 
ATOM     92  C   UNL A   1      34.744  33.067  31.714  1.00  0.00     0.022 A 
BRANCH  89  93
ATOM     93  S   UNL A   1      34.388  33.317  28.996  1.00  0.00     0.124 S 
ATOM     94  O   UNL A   1      33.813  32.115  28.397  1.00  0.00    -0.237 OA
ATOM     95  O   UNL A   1      33.433  34.248  29.584  1.00  0.00    -0.237 OA
ATOM     96  O   UNL A   1      35.468  33.922  28.226  1.00  0.00    -0.744 OA
ENDBRANCH  89  93
ENDBRANCH  62  86
BRANCH  74  97
ATOM     97  C   UNL A   1      42.647  29.381  33.540  1.00  0.00     0.023 A 
ATOM     98  C   UNL A   1      43.241  29.658  34.786  1.00  0.00     0.031 A 
ATOM     99  C   UNL A   1      42.223  28.058  33.314  1.00  0.00     0.131 A 
ATOM    100  C   UNL A   1      43.424  28.638  35.732  1.00  0.00     0.055 A 
ATOM    101  C   UNL A   1      42.347  27.057  34.286  1.00  0.00     0.041 A 
ATOM    102  F   UNL A   1      41.745  27.668  32.127  1.00  0.00    -0.206 F 
ATOM    103  C   UNL A   1      42.963  27.341  35.497  1.00  0.00     0.022 A 
BRANCH 100 104
ATOM    104  S   UNL A   1      44.381  28.937  37.241  1.00  0.00     0.124 S 
ATOM    105  O   UNL A   1      43.672  30.065  37.840  1.00  0.00    -0.237 OA
ATOM    106  O   UNL A   1      44.243  27.667  37.950  1.00  0.00    -0.237 OA
ATOM    107  O   UNL A   1      45.725  29.234  36.755  1.00  0.00    -0.744 OA
ENDBRANCH 100 104
ENDBRANCH  74  97
ENDBRANCH  48  49
ENDBRANCH  41  43
ENDBRANCH  40  41
ENDBRANCH  39  40
ENDBRANCH   1  39
TORSDOF 20
ENDMDL
