MODEL 1
REMARK VINA RESULT:     -13.1      0.000      0.000
REMARK SMILES O=C(OCCOC(=O)[C@@H](c1cccc(O)c1)[NH+]1CC[NH+](C2CCCC2)CC1)c1ccc(-c2c3nc(c(-c4cc(S(=O)(=O)[O-])ccc4F)c4ccc([nH]4)c(-c4cc(S(=O)(=O)[O-])ccc4F)c4nc(c(-c5cc(S(=O)(=O)[O-])ccc5F)c5ccc2[nH]5)C=C4)C=C3)cc1
REMARK SMILES IDX 4 1 3 2 2 3 1 4 28 5 29 6 90 7 30 8 89 9 31 10 32 11 33 12
REMARK SMILES IDX 83 13 34 14 88 15 82 16 84 17 35 18 87 19 81 20 80 21 36 23
REMARK SMILES IDX 68 24 48 25 67 26 49 27 52 28 66 29 85 30 50 31 51 32 65 34
REMARK SMILES IDX 86 35 53 36 37 37 38 38 46 39 39 40 45 41 47 42 44 43 40 44
REMARK SMILES IDX 41 45 42 46 43 47 69 48 70 49 78 50 71 51 77 52 79 53 76 54
REMARK SMILES IDX 72 55 73 56 74 57 75 58 54 59 55 60 63 61 56 62 62 63 64 64
REMARK SMILES IDX 61 65 57 66 58 67 59 68 60 69 5 70 6 71 7 72 8 73 9 74 10 75
REMARK SMILES IDX 11 76 16 77 12 78 14 79 13 80 15 81 17 83 18 84 27 85 19 87
REMARK SMILES IDX 26 88 20 89 21 91 22 92 25 93 23 94 24 95
REMARK H PARENT 84 22 52 33 15 82 17 86 20 90
REMARK Flexibility Score: inf
ROOT
ATOM      1  C   UNL A   1      32.696  30.662  26.914  1.00  0.00     0.275 C 
ENDROOT
BRANCH   1   2
ATOM      2  O   UNL A   1      33.557  30.999  27.994  1.00  0.00    -0.458 OA
BRANCH   2   3
ATOM      3  C   UNL A   1      34.691  31.718  27.896  1.00  0.00     0.338 C 
ATOM      4  O   UNL A   1      34.590  32.910  27.612  1.00  0.00    -0.246 OA
BRANCH   3   5
ATOM      5  C   UNL A   1      36.053  31.098  28.033  1.00  0.00     0.060 A 
ATOM      6  C   UNL A   1      37.300  31.725  28.204  1.00  0.00     0.016 A 
ATOM      7  C   UNL A   1      36.023  29.718  28.115  1.00  0.00     0.016 A 
ATOM      8  C   UNL A   1      38.432  31.021  28.651  1.00  0.00     0.010 A 
ATOM      9  C   UNL A   1      37.113  29.032  28.619  1.00  0.00     0.010 A 
ATOM     10  C   UNL A   1      38.336  29.669  28.922  1.00  0.00    -0.014 A 
BRANCH  10  11
ATOM     11  C   UNL A   1      39.382  28.845  29.583  1.00  0.00     0.031 A 
ATOM     12  C   UNL A   1      39.992  29.429  30.865  1.00  0.00     0.074 A 
ATOM     13  C   UNL A   1      39.917  27.734  28.976  1.00  0.00     0.049 A 
ATOM     14  N   UNL A   1      41.029  29.057  31.573  1.00  0.00    -0.248 NA
ATOM     15  C   UNL A   1      39.302  30.602  31.448  1.00  0.00     0.031 C 
ATOM     16  C   UNL A   1      39.255  26.536  27.544  1.00  0.00     0.029 A 
ATOM     17  N   UNL A   1      41.589  27.038  29.408  1.00  0.00    -0.354 N 
ATOM     18  C   UNL A   1      41.044  29.885  32.689  1.00  0.00     0.074 A 
ATOM     19  C   UNL A   1      40.109  30.950  32.435  1.00  0.00     0.031 C 
ATOM     20  C   UNL A   1      40.358  25.218  27.344  1.00  0.00     0.029 A 
ATOM     21  C   UNL A   1      41.954  25.514  28.459  1.00  0.00     0.049 A 
ATOM     22  H   UNL A   1      42.202  27.440  30.064  1.00  0.00     0.167 HD
ATOM     23  C   UNL A   1      41.629  29.691  33.895  1.00  0.00     0.034 A 
ATOM     24  C   UNL A   1      42.954  24.629  28.694  1.00  0.00     0.034 A 
ATOM     25  C   UNL A   1      42.413  28.528  34.227  1.00  0.00     0.049 A 
ATOM     26  C   UNL A   1      43.646  24.669  30.056  1.00  0.00     0.074 A 
ATOM     27  C   UNL A   1      42.910  28.190  35.470  1.00  0.00     0.029 A 
ATOM     28  N   UNL A   1      42.803  27.520  33.345  1.00  0.00    -0.354 N 
ATOM     29  N   UNL A   1      43.547  25.550  31.033  1.00  0.00    -0.248 NA
ATOM     30  C   UNL A   1      44.443  23.488  30.423  1.00  0.00     0.031 C 
ATOM     31  C   UNL A   1      43.689  27.043  35.323  1.00  0.00     0.029 A 
ATOM     32  C   UNL A   1      43.600  26.597  34.009  1.00  0.00     0.049 A 
ATOM     33  H   UNL A   1      42.552  27.471  32.394  1.00  0.00     0.167 HD
ATOM     34  C   UNL A   1      44.134  24.971  32.158  1.00  0.00     0.074 A 
ATOM     35  C   UNL A   1      44.660  23.692  31.715  1.00  0.00     0.031 C 
ATOM     36  C   UNL A   1      44.192  25.395  33.453  1.00  0.00     0.034 A 
BRANCH  23  37
ATOM     37  C   UNL A   1      41.398  30.747  34.963  1.00  0.00     0.023 A 
ATOM     38  C   UNL A   1      40.217  30.811  35.732  1.00  0.00     0.031 A 
ATOM     39  C   UNL A   1      42.377  31.729  35.190  1.00  0.00     0.131 A 
ATOM     40  C   UNL A   1      40.011  31.880  36.618  1.00  0.00     0.055 A 
ATOM     41  C   UNL A   1      42.202  32.739  36.139  1.00  0.00     0.041 A 
ATOM     42  F   UNL A   1      43.515  31.734  34.478  1.00  0.00    -0.206 F 
ATOM     43  C   UNL A   1      41.008  32.830  36.847  1.00  0.00     0.022 A 
BRANCH  40  44
ATOM     44  S   UNL A   1      38.363  32.111  37.349  1.00  0.00     0.124 S 
ATOM     45  O   UNL A   1      38.696  32.387  38.746  1.00  0.00    -0.237 OA
ATOM     46  O   UNL A   1      37.831  33.234  36.588  1.00  0.00    -0.237 OA
ATOM     47  O   UNL A   1      37.701  30.829  37.117  1.00  0.00    -0.744 OA
ENDBRANCH  40  44
ENDBRANCH  23  37
BRANCH  24  48
ATOM     48  C   UNL A   1      43.162  23.524  27.725  1.00  0.00     0.023 A 
ATOM     49  C   UNL A   1      44.118  23.579  26.698  1.00  0.00     0.031 A 
ATOM     50  C   UNL A   1      42.330  22.391  27.782  1.00  0.00     0.131 A 
ATOM     51  C   UNL A   1      44.188  22.546  25.747  1.00  0.00     0.055 A 
ATOM     52  C   UNL A   1      42.431  21.347  26.859  1.00  0.00     0.041 A 
ATOM     53  F   UNL A   1      41.380  22.293  28.725  1.00  0.00    -0.206 F 
ATOM     54  C   UNL A   1      43.359  21.425  25.827  1.00  0.00     0.022 A 
BRANCH  51  55
ATOM     55  S   UNL A   1      45.309  22.732  24.330  1.00  0.00     0.124 S 
ATOM     56  O   UNL A   1      45.552  24.170  24.323  1.00  0.00    -0.237 OA
ATOM     57  O   UNL A   1      46.435  21.894  24.730  1.00  0.00    -0.237 OA
ATOM     58  O   UNL A   1      44.524  22.228  23.206  1.00  0.00    -0.744 OA
ENDBRANCH  51  55
ENDBRANCH  24  48
BRANCH  36  59
ATOM     59  C   UNL A   1      44.977  24.525  34.416  1.00  0.00     0.023 A 
ATOM     60  C   UNL A   1      46.356  24.730  34.576  1.00  0.00     0.031 A 
ATOM     61  C   UNL A   1      44.358  23.551  35.223  1.00  0.00     0.131 A 
ATOM     62  C   UNL A   1      47.085  23.944  35.476  1.00  0.00     0.055 A 
ATOM     63  C   UNL A   1      45.077  22.823  36.176  1.00  0.00     0.041 A 
ATOM     64  F   UNL A   1      43.039  23.315  35.126  1.00  0.00    -0.206 F 
ATOM     65  C   UNL A   1      46.451  23.010  36.297  1.00  0.00     0.022 A 
BRANCH  62  66
ATOM     66  S   UNL A   1      48.887  24.115  35.489  1.00  0.00     0.124 S 
ATOM     67  O   UNL A   1      49.296  22.915  36.211  1.00  0.00    -0.237 OA
ATOM     68  O   UNL A   1      49.210  24.145  34.067  1.00  0.00    -0.237 OA
ATOM     69  O   UNL A   1      49.105  25.373  36.201  1.00  0.00    -0.744 OA
ENDBRANCH  62  66
ENDBRANCH  36  59
ENDBRANCH  10  11
ENDBRANCH   3   5
ENDBRANCH   2   3
ENDBRANCH   1   2
BRANCH   1  70
ATOM     70  C   UNL A   1      31.859  29.368  27.060  1.00  0.00     0.274 C 
BRANCH  70  71
ATOM     71  O   UNL A   1      31.456  28.611  25.871  1.00  0.00    -0.457 OA
BRANCH  71  72
ATOM     72  C   UNL A   1      31.059  27.310  26.068  1.00  0.00     0.370 C 
ATOM     73  O   UNL A   1      31.135  26.787  27.183  1.00  0.00    -0.245 OA
BRANCH  72  74
ATOM     74  C   UNL A   1      30.559  26.475  24.822  1.00  0.00     0.326 C 
BRANCH  74  75
ATOM     75  C   UNL A   1      29.761  27.252  23.695  1.00  0.00     0.025 A 
ATOM     76  C   UNL A   1      30.519  28.109  22.843  1.00  0.00     0.011 A 
ATOM     77  C   UNL A   1      28.370  27.380  23.624  1.00  0.00     0.056 A 
ATOM     78  C   UNL A   1      29.962  29.255  22.267  1.00  0.00     0.004 A 
ATOM     79  C   UNL A   1      27.808  28.476  22.935  1.00  0.00     0.116 A 
ATOM     80  C   UNL A   1      28.596  29.457  22.337  1.00  0.00     0.046 A 
BRANCH  79  81
ATOM     81  O   UNL A   1      26.449  28.633  22.959  1.00  0.00    -0.508 OA
ATOM     82  H   UNL A   1      26.028  29.174  22.319  1.00  0.00     0.293 HD
ENDBRANCH  79  81
ENDBRANCH  74  75
BRANCH  74  83
ATOM     83  N   UNL A   1      31.537  25.556  24.154  1.00  0.00    -0.310 N 
ATOM     84  C   UNL A   1      31.521  24.098  24.176  1.00  0.00     0.325 C 
ATOM     85  C   UNL A   1      32.913  25.940  24.366  1.00  0.00     0.325 C 
ATOM     86  H   UNL A   1      31.106  25.736  23.247  1.00  0.00     0.349 HD
ATOM     87  C   UNL A   1      32.754  23.430  23.324  1.00  0.00     0.324 C 
ATOM     88  C   UNL A   1      33.797  25.575  23.144  1.00  0.00     0.324 C 
ATOM     89  N   UNL A   1      34.355  24.130  23.370  1.00  0.00    -0.323 N 
ATOM     90  H   UNL A   1      35.199  23.720  22.972  1.00  0.00     0.348 HD
BRANCH  89  91
ATOM     91  C   UNL A   1      36.247  23.417  24.144  1.00  0.00     0.184 C 
ATOM     92  C   UNL A   1      37.027  23.684  25.741  1.00  0.00     0.065 C 
ATOM     93  C   UNL A   1      37.005  21.770  24.049  1.00  0.00     0.065 C 
ATOM     94  C   UNL A   1      38.209  22.762  25.901  1.00  0.00     0.006 C 
ATOM     95  C   UNL A   1      37.747  21.459  25.335  1.00  0.00     0.006 C 
ENDBRANCH  89  91
ENDBRANCH  74  83
ENDBRANCH  72  74
ENDBRANCH  71  72
ENDBRANCH  70  71
ENDBRANCH   1  70
TORSDOF 18
ENDMDL
MODEL 2
REMARK VINA RESULT:     -12.8      1.352      1.617
REMARK SMILES O=C(OCCOC(=O)[C@@H](c1cccc(O)c1)[NH+]1CC[NH+](C2CCCC2)CC1)c1ccc(-c2c3nc(c(-c4cc(S(=O)(=O)[O-])ccc4F)c4ccc([nH]4)c(-c4cc(S(=O)(=O)[O-])ccc4F)c4nc(c(-c5cc(S(=O)(=O)[O-])ccc5F)c5ccc2[nH]5)C=C4)C=C3)cc1
REMARK SMILES IDX 4 1 3 2 2 3 1 4 28 5 29 6 90 7 30 8 89 9 31 10 32 11 33 12
REMARK SMILES IDX 83 13 34 14 88 15 82 16 84 17 35 18 87 19 81 20 80 21 36 23
REMARK SMILES IDX 68 24 48 25 67 26 49 27 52 28 66 29 85 30 50 31 51 32 65 34
REMARK SMILES IDX 86 35 53 36 37 37 38 38 46 39 39 40 45 41 47 42 44 43 40 44
REMARK SMILES IDX 41 45 42 46 43 47 69 48 70 49 78 50 71 51 77 52 79 53 76 54
REMARK SMILES IDX 72 55 73 56 74 57 75 58 54 59 55 60 63 61 56 62 62 63 64 64
REMARK SMILES IDX 61 65 57 66 58 67 59 68 60 69 5 70 6 71 7 72 8 73 9 74 10 75
REMARK SMILES IDX 11 76 16 77 12 78 14 79 13 80 15 81 17 83 18 84 27 85 19 87
REMARK SMILES IDX 26 88 20 89 21 91 22 92 25 93 23 94 24 95
REMARK H PARENT 84 22 52 33 15 82 17 86 20 90
REMARK Flexibility Score: inf
ROOT
ATOM      1  C   UNL A   1      32.114  31.010  26.896  1.00  0.00     0.275 C 
ENDROOT
BRANCH   1   2
ATOM      2  O   UNL A   1      33.427  30.596  27.252  1.00  0.00    -0.458 OA
BRANCH   2   3
ATOM      3  C   UNL A   1      34.412  31.405  27.684  1.00  0.00     0.338 C 
ATOM      4  O   UNL A   1      34.147  32.596  27.840  1.00  0.00    -0.246 OA
BRANCH   3   5
ATOM      5  C   UNL A   1      35.819  30.922  27.893  1.00  0.00     0.060 A 
ATOM      6  C   UNL A   1      36.951  31.642  28.314  1.00  0.00     0.016 A 
ATOM      7  C   UNL A   1      35.956  29.553  27.756  1.00  0.00     0.016 A 
ATOM      8  C   UNL A   1      38.110  30.999  28.785  1.00  0.00     0.010 A 
ATOM      9  C   UNL A   1      37.065  28.914  28.279  1.00  0.00     0.010 A 
ATOM     10  C   UNL A   1      38.158  29.619  28.828  1.00  0.00    -0.014 A 
BRANCH  10  11
ATOM     11  C   UNL A   1      39.223  28.813  29.480  1.00  0.00     0.031 A 
ATOM     12  C   UNL A   1      39.800  29.382  30.784  1.00  0.00     0.074 A 
ATOM     13  C   UNL A   1      39.802  27.737  28.850  1.00  0.00     0.049 A 
ATOM     14  N   UNL A   1      40.841  29.026  31.493  1.00  0.00    -0.248 NA
ATOM     15  C   UNL A   1      39.065  30.515  31.390  1.00  0.00     0.031 C 
ATOM     16  C   UNL A   1      39.197  26.556  27.379  1.00  0.00     0.029 A 
ATOM     17  N   UNL A   1      41.492  27.085  29.282  1.00  0.00    -0.354 N 
ATOM     18  C   UNL A   1      40.817  29.823  32.631  1.00  0.00     0.074 A 
ATOM     19  C   UNL A   1      39.849  30.863  32.395  1.00  0.00     0.031 C 
ATOM     20  C   UNL A   1      40.345  25.281  27.157  1.00  0.00     0.029 A 
ATOM     21  C   UNL A   1      41.918  25.600  28.298  1.00  0.00     0.049 A 
ATOM     22  H   UNL A   1      42.084  27.490  29.956  1.00  0.00     0.167 HD
ATOM     23  C   UNL A   1      41.395  29.617  33.838  1.00  0.00     0.034 A 
ATOM     24  C   UNL A   1      42.945  24.744  28.521  1.00  0.00     0.034 A 
ATOM     25  C   UNL A   1      42.214  28.473  34.148  1.00  0.00     0.049 A 
ATOM     26  C   UNL A   1      43.620  24.770  29.891  1.00  0.00     0.074 A 
ATOM     27  C   UNL A   1      42.709  28.117  35.387  1.00  0.00     0.029 A 
ATOM     28  N   UNL A   1      42.648  27.502  33.244  1.00  0.00    -0.354 N 
ATOM     29  N   UNL A   1      43.481  25.620  30.890  1.00  0.00    -0.248 NA
ATOM     30  C   UNL A   1      44.453  23.607  30.235  1.00  0.00     0.031 C 
ATOM     31  C   UNL A   1      43.528  27.002  35.219  1.00  0.00     0.029 A 
ATOM     32  C   UNL A   1      43.468  26.588  33.893  1.00  0.00     0.049 A 
ATOM     33  H   UNL A   1      42.409  27.470  32.290  1.00  0.00     0.167 HD
ATOM     34  C   UNL A   1      44.076  25.031  32.005  1.00  0.00     0.074 A 
ATOM     35  C   UNL A   1      44.649  23.783  31.535  1.00  0.00     0.031 C 
ATOM     36  C   UNL A   1      44.105  25.422  33.311  1.00  0.00     0.034 A 
BRANCH  23  37
ATOM     37  C   UNL A   1      41.118  30.635  34.931  1.00  0.00     0.023 A 
ATOM     38  C   UNL A   1      39.908  30.668  35.656  1.00  0.00     0.031 A 
ATOM     39  C   UNL A   1      42.081  31.614  35.228  1.00  0.00     0.131 A 
ATOM     40  C   UNL A   1      39.662  31.706  36.569  1.00  0.00     0.055 A 
ATOM     41  C   UNL A   1      41.865  32.592  36.202  1.00  0.00     0.041 A 
ATOM     42  F   UNL A   1      43.245  31.648  34.560  1.00  0.00    -0.206 F 
ATOM     43  C   UNL A   1      40.644  32.653  36.866  1.00  0.00     0.022 A 
BRANCH  40  44
ATOM     44  S   UNL A   1      37.987  31.904  37.244  1.00  0.00     0.124 S 
ATOM     45  O   UNL A   1      37.324  32.649  36.175  1.00  0.00    -0.237 OA
ATOM     46  O   UNL A   1      37.550  30.525  37.424  1.00  0.00    -0.237 OA
ATOM     47  O   UNL A   1      38.199  32.658  38.478  1.00  0.00    -0.744 OA
ENDBRANCH  40  44
ENDBRANCH  23  37
BRANCH  24  48
ATOM     48  C   UNL A   1      43.200  23.673  27.525  1.00  0.00     0.023 A 
ATOM     49  C   UNL A   1      42.388  22.533  27.403  1.00  0.00     0.031 A 
ATOM     50  C   UNL A   1      44.337  23.755  26.701  1.00  0.00     0.131 A 
ATOM     51  C   UNL A   1      42.749  21.505  26.515  1.00  0.00     0.055 A 
ATOM     52  C   UNL A   1      44.669  22.749  25.789  1.00  0.00     0.041 A 
ATOM     53  F   UNL A   1      45.165  24.807  26.788  1.00  0.00    -0.206 F 
ATOM     54  C   UNL A   1      43.877  21.610  25.699  1.00  0.00     0.022 A 
BRANCH  51  55
ATOM     55  S   UNL A   1      41.781  19.968  26.513  1.00  0.00     0.124 S 
ATOM     56  O   UNL A   1      40.413  20.471  26.491  1.00  0.00    -0.237 OA
ATOM     57  O   UNL A   1      42.248  19.324  25.290  1.00  0.00    -0.237 OA
ATOM     58  O   UNL A   1      42.183  19.312  27.755  1.00  0.00    -0.744 OA
ENDBRANCH  51  55
ENDBRANCH  24  48
BRANCH  36  59
ATOM     59  C   UNL A   1      44.909  24.553  34.261  1.00  0.00     0.023 A 
ATOM     60  C   UNL A   1      46.275  24.811  34.455  1.00  0.00     0.031 A 
ATOM     61  C   UNL A   1      44.318  23.527  35.022  1.00  0.00     0.131 A 
ATOM     62  C   UNL A   1      47.021  24.025  35.342  1.00  0.00     0.055 A 
ATOM     63  C   UNL A   1      45.049  22.797  35.964  1.00  0.00     0.041 A 
ATOM     64  F   UNL A   1      43.013  23.239  34.891  1.00  0.00    -0.206 F 
ATOM     65  C   UNL A   1      46.412  23.038  36.119  1.00  0.00     0.022 A 
BRANCH  62  66
ATOM     66  S   UNL A   1      48.813  24.272  35.396  1.00  0.00     0.124 S 
ATOM     67  O   UNL A   1      49.223  23.268  36.373  1.00  0.00    -0.237 OA
ATOM     68  O   UNL A   1      49.207  24.017  34.016  1.00  0.00    -0.237 OA
ATOM     69  O   UNL A   1      48.954  25.659  35.836  1.00  0.00    -0.744 OA
ENDBRANCH  62  66
ENDBRANCH  36  59
ENDBRANCH  10  11
ENDBRANCH   3   5
ENDBRANCH   2   3
ENDBRANCH   1   2
BRANCH   1  70
ATOM     70  C   UNL A   1      31.523  30.427  25.590  1.00  0.00     0.274 C 
BRANCH  70  71
ATOM     71  O   UNL A   1      32.003  29.143  25.068  1.00  0.00    -0.457 OA
BRANCH  71  72
ATOM     72  C   UNL A   1      31.336  28.015  25.481  1.00  0.00     0.370 C 
ATOM     73  O   UNL A   1      31.306  27.699  26.674  1.00  0.00    -0.245 OA
BRANCH  72  74
ATOM     74  C   UNL A   1      30.659  27.095  24.389  1.00  0.00     0.326 C 
BRANCH  74  75
ATOM     75  C   UNL A   1      29.623  27.775  23.401  1.00  0.00     0.025 A 
ATOM     76  C   UNL A   1      30.123  28.814  22.560  1.00  0.00     0.011 A 
ATOM     77  C   UNL A   1      28.232  27.639  23.459  1.00  0.00     0.056 A 
ATOM     78  C   UNL A   1      29.310  29.868  22.130  1.00  0.00     0.004 A 
ATOM     79  C   UNL A   1      27.413  28.649  22.911  1.00  0.00     0.116 A 
ATOM     80  C   UNL A   1      27.943  29.800  22.331  1.00  0.00     0.046 A 
BRANCH  79  81
ATOM     81  O   UNL A   1      26.057  28.542  23.063  1.00  0.00    -0.508 OA
ATOM     82  H   UNL A   1      25.695  28.319  23.899  1.00  0.00     0.293 HD
ENDBRANCH  79  81
ENDBRANCH  74  75
BRANCH  74  83
ATOM     83  N   UNL A   1      31.543  26.187  23.589  1.00  0.00    -0.310 N 
ATOM     84  C   UNL A   1      31.169  24.914  22.984  1.00  0.00     0.325 C 
ATOM     85  C   UNL A   1      32.835  25.973  24.195  1.00  0.00     0.325 C 
ATOM     86  H   UNL A   1      31.471  26.808  22.782  1.00  0.00     0.349 HD
ATOM     87  C   UNL A   1      32.404  24.200  22.175  1.00  0.00     0.324 C 
ATOM     88  C   UNL A   1      33.938  25.773  23.123  1.00  0.00     0.324 C 
ATOM     89  N   UNL A   1      34.032  24.242  22.811  1.00  0.00    -0.323 N 
ATOM     90  H   UNL A   1      34.832  23.729  22.442  1.00  0.00     0.348 HD
BRANCH  89  91
ATOM     91  C   UNL A   1      35.361  22.697  23.546  1.00  0.00     0.184 C 
ATOM     92  C   UNL A   1      37.045  22.806  24.164  1.00  0.00     0.065 C 
ATOM     93  C   UNL A   1      35.035  21.313  24.676  1.00  0.00     0.065 C 
ATOM     94  C   UNL A   1      37.445  21.503  24.807  1.00  0.00     0.006 C 
ATOM     95  C   UNL A   1      36.236  21.074  25.571  1.00  0.00     0.006 C 
ENDBRANCH  89  91
ENDBRANCH  74  83
ENDBRANCH  72  74
ENDBRANCH  71  72
ENDBRANCH  70  71
ENDBRANCH   1  70
TORSDOF 18
ENDMDL
MODEL 3
REMARK VINA RESULT:     -12.8      2.493      3.223
REMARK SMILES O=C(OCCOC(=O)[C@@H](c1cccc(O)c1)[NH+]1CC[NH+](C2CCCC2)CC1)c1ccc(-c2c3nc(c(-c4cc(S(=O)(=O)[O-])ccc4F)c4ccc([nH]4)c(-c4cc(S(=O)(=O)[O-])ccc4F)c4nc(c(-c5cc(S(=O)(=O)[O-])ccc5F)c5ccc2[nH]5)C=C4)C=C3)cc1
REMARK SMILES IDX 4 1 3 2 2 3 1 4 28 5 29 6 90 7 30 8 89 9 31 10 32 11 33 12
REMARK SMILES IDX 83 13 34 14 88 15 82 16 84 17 35 18 87 19 81 20 80 21 36 23
REMARK SMILES IDX 68 24 48 25 67 26 49 27 52 28 66 29 85 30 50 31 51 32 65 34
REMARK SMILES IDX 86 35 53 36 37 37 38 38 46 39 39 40 45 41 47 42 44 43 40 44
REMARK SMILES IDX 41 45 42 46 43 47 69 48 70 49 78 50 71 51 77 52 79 53 76 54
REMARK SMILES IDX 72 55 73 56 74 57 75 58 54 59 55 60 63 61 56 62 62 63 64 64
REMARK SMILES IDX 61 65 57 66 58 67 59 68 60 69 5 70 6 71 7 72 8 73 9 74 10 75
REMARK SMILES IDX 11 76 16 77 12 78 14 79 13 80 15 81 17 83 18 84 27 85 19 87
REMARK SMILES IDX 26 88 20 89 21 91 22 92 25 93 23 94 24 95
REMARK H PARENT 84 22 52 33 15 82 17 86 20 90
REMARK Flexibility Score: inf
ROOT
ATOM      1  C   UNL A   1      31.772  32.709  26.627  1.00  0.00     0.275 C 
ENDROOT
BRANCH   1   2
ATOM      2  O   UNL A   1      32.096  33.277  27.890  1.00  0.00    -0.458 OA
BRANCH   2   3
ATOM      3  C   UNL A   1      33.251  33.898  28.195  1.00  0.00     0.338 C 
ATOM      4  O   UNL A   1      33.220  35.118  28.350  1.00  0.00    -0.246 OA
BRANCH   3   5
ATOM      5  C   UNL A   1      34.564  33.172  28.262  1.00  0.00     0.060 A 
ATOM      6  C   UNL A   1      35.861  33.659  28.021  1.00  0.00     0.016 A 
ATOM      7  C   UNL A   1      34.454  31.881  28.746  1.00  0.00     0.016 A 
ATOM      8  C   UNL A   1      37.008  32.965  28.446  1.00  0.00     0.010 A 
ATOM      9  C   UNL A   1      35.573  31.225  29.226  1.00  0.00     0.010 A 
ATOM     10  C   UNL A   1      36.874  31.760  29.109  1.00  0.00    -0.014 A 
BRANCH  10  11
ATOM     11  C   UNL A   1      37.972  31.021  29.786  1.00  0.00     0.031 A 
ATOM     12  C   UNL A   1      38.365  31.524  31.182  1.00  0.00     0.074 A 
ATOM     13  C   UNL A   1      38.727  30.084  29.122  1.00  0.00     0.049 A 
ATOM     14  N   UNL A   1      39.380  31.221  31.952  1.00  0.00    -0.248 NA
ATOM     15  C   UNL A   1      37.451  32.502  31.812  1.00  0.00     0.031 C 
ATOM     16  C   UNL A   1      38.393  28.990  27.505  1.00  0.00     0.029 A 
ATOM     17  N   UNL A   1      40.442  29.589  29.653  1.00  0.00    -0.354 N 
ATOM     18  C   UNL A   1      39.165  31.897  33.147  1.00  0.00     0.074 A 
ATOM     19  C   UNL A   1      38.101  32.838  32.912  1.00  0.00     0.031 C 
ATOM     20  C   UNL A   1      39.702  27.881  27.282  1.00  0.00     0.029 A 
ATOM     21  C   UNL A   1      41.125  28.264  28.588  1.00  0.00     0.049 A 
ATOM     22  H   UNL A   1      40.922  29.992  30.411  1.00  0.00     0.167 HD
ATOM     23  C   UNL A   1      39.662  31.642  34.381  1.00  0.00     0.034 A 
ATOM     24  C   UNL A   1      42.226  27.512  28.832  1.00  0.00     0.034 A 
ATOM     25  C   UNL A   1      40.585  30.573  34.666  1.00  0.00     0.049 A 
ATOM     26  C   UNL A   1      42.778  27.482  30.256  1.00  0.00     0.074 A 
ATOM     27  C   UNL A   1      41.016  30.158  35.911  1.00  0.00     0.029 A 
ATOM     28  N   UNL A   1      41.207  29.750  33.727  1.00  0.00    -0.354 N 
ATOM     29  N   UNL A   1      42.454  28.211  31.307  1.00  0.00    -0.248 NA
ATOM     30  C   UNL A   1      43.715  26.393  30.575  1.00  0.00     0.031 C 
ATOM     31  C   UNL A   1      41.975  29.164  35.724  1.00  0.00     0.029 A 
ATOM     32  C   UNL A   1      42.075  28.876  34.368  1.00  0.00     0.049 A 
ATOM     33  H   UNL A   1      41.053  29.783  32.755  1.00  0.00     0.167 HD
ATOM     34  C   UNL A   1      43.022  27.588  32.418  1.00  0.00     0.074 A 
ATOM     35  C   UNL A   1      43.779  26.464  31.898  1.00  0.00     0.031 C 
ATOM     36  C   UNL A   1      42.896  27.851  33.750  1.00  0.00     0.034 A 
BRANCH  23  37
ATOM     37  C   UNL A   1      39.174  32.512  35.527  1.00  0.00     0.023 A 
ATOM     38  C   UNL A   1      39.628  33.831  35.732  1.00  0.00     0.031 A 
ATOM     39  C   UNL A   1      38.254  31.989  36.451  1.00  0.00     0.131 A 
ATOM     40  C   UNL A   1      39.232  34.542  36.877  1.00  0.00     0.055 A 
ATOM     41  C   UNL A   1      37.796  32.735  37.540  1.00  0.00     0.041 A 
ATOM     42  F   UNL A   1      37.798  30.733  36.322  1.00  0.00    -0.206 F 
ATOM     43  C   UNL A   1      38.297  34.012  37.768  1.00  0.00     0.022 A 
BRANCH  40  44
ATOM     44  S   UNL A   1      40.075  36.101  37.278  1.00  0.00     0.124 S 
ATOM     45  O   UNL A   1      41.394  35.625  37.691  1.00  0.00    -0.237 OA
ATOM     46  O   UNL A   1      40.027  36.824  36.013  1.00  0.00    -0.237 OA
ATOM     47  O   UNL A   1      39.261  36.667  38.351  1.00  0.00    -0.744 OA
ENDBRANCH  40  44
ENDBRANCH  23  37
BRANCH  24  48
ATOM     48  C   UNL A   1      42.691  26.578  27.775  1.00  0.00     0.023 A 
ATOM     49  C   UNL A   1      42.150  25.294  27.599  1.00  0.00     0.031 A 
ATOM     50  C   UNL A   1      43.763  26.954  26.946  1.00  0.00     0.131 A 
ATOM     51  C   UNL A   1      42.711  24.419  26.651  1.00  0.00     0.055 A 
ATOM     52  C   UNL A   1      44.290  26.096  25.976  1.00  0.00     0.041 A 
ATOM     53  F   UNL A   1      44.338  28.159  27.083  1.00  0.00    -0.206 F 
ATOM     54  C   UNL A   1      43.769  24.816  25.831  1.00  0.00     0.022 A 
BRANCH  51  55
ATOM     55  S   UNL A   1      42.109  22.707  26.574  1.00  0.00     0.124 S 
ATOM     56  O   UNL A   1      42.730  22.223  25.347  1.00  0.00    -0.237 OA
ATOM     57  O   UNL A   1      42.630  22.153  27.819  1.00  0.00    -0.237 OA
ATOM     58  O   UNL A   1      40.657  22.860  26.519  1.00  0.00    -0.744 OA
ENDBRANCH  51  55
ENDBRANCH  24  48
BRANCH  36  59
ATOM     59  C   UNL A   1      43.718  26.992  34.692  1.00  0.00     0.023 A 
ATOM     60  C   UNL A   1      44.972  27.442  35.133  1.00  0.00     0.031 A 
ATOM     61  C   UNL A   1      43.238  25.773  35.208  1.00  0.00     0.131 A 
ATOM     62  C   UNL A   1      45.730  26.664  36.015  1.00  0.00     0.055 A 
ATOM     63  C   UNL A   1      43.964  25.037  36.150  1.00  0.00     0.041 A 
ATOM     64  F   UNL A   1      42.040  25.293  34.835  1.00  0.00    -0.206 F 
ATOM     65  C   UNL A   1      45.224  25.477  36.549  1.00  0.00     0.022 A 
BRANCH  62  66
ATOM     66  S   UNL A   1      47.419  27.197  36.385  1.00  0.00     0.124 S 
ATOM     67  O   UNL A   1      48.153  25.938  36.315  1.00  0.00    -0.237 OA
ATOM     68  O   UNL A   1      47.688  28.153  35.317  1.00  0.00    -0.237 OA
ATOM     69  O   UNL A   1      47.309  27.777  37.723  1.00  0.00    -0.744 OA
ENDBRANCH  62  66
ENDBRANCH  36  59
ENDBRANCH  10  11
ENDBRANCH   3   5
ENDBRANCH   2   3
ENDBRANCH   1   2
BRANCH   1  70
ATOM     70  C   UNL A   1      31.780  31.164  26.529  1.00  0.00     0.274 C 
BRANCH  70  71
ATOM     71  O   UNL A   1      31.212  30.495  25.355  1.00  0.00    -0.457 OA
BRANCH  71  72
ATOM     72  C   UNL A   1      31.952  29.477  24.801  1.00  0.00     0.370 C 
ATOM     73  O   UNL A   1      33.184  29.534  24.773  1.00  0.00    -0.245 OA
BRANCH  72  74
ATOM     74  C   UNL A   1      31.189  28.259  24.143  1.00  0.00     0.326 C 
BRANCH  74  75
ATOM     75  C   UNL A   1      29.987  28.593  23.164  1.00  0.00     0.025 A 
ATOM     76  C   UNL A   1      30.216  29.606  22.186  1.00  0.00     0.011 A 
ATOM     77  C   UNL A   1      28.661  28.183  23.334  1.00  0.00     0.056 A 
ATOM     78  C   UNL A   1      29.179  30.413  21.706  1.00  0.00     0.004 A 
ATOM     79  C   UNL A   1      27.621  28.932  22.744  1.00  0.00     0.116 A 
ATOM     80  C   UNL A   1      27.869  30.091  22.010  1.00  0.00     0.046 A 
BRANCH  79  81
ATOM     81  O   UNL A   1      26.328  28.569  23.002  1.00  0.00    -0.508 OA
ATOM     82  H   UNL A   1      25.844  29.004  23.677  1.00  0.00     0.293 HD
ENDBRANCH  79  81
ENDBRANCH  74  75
BRANCH  74  83
ATOM     83  N   UNL A   1      32.009  27.169  23.522  1.00  0.00    -0.310 N 
ATOM     84  C   UNL A   1      31.681  26.403  22.325  1.00  0.00     0.325 C 
ATOM     85  C   UNL A   1      32.500  26.211  24.484  1.00  0.00     0.325 C 
ATOM     86  H   UNL A   1      32.655  27.857  23.135  1.00  0.00     0.349 HD
ATOM     87  C   UNL A   1      32.824  25.291  21.942  1.00  0.00     0.324 C 
ATOM     88  C   UNL A   1      33.879  25.640  24.061  1.00  0.00     0.324 C 
ATOM     89  N   UNL A   1      33.624  24.364  23.190  1.00  0.00    -0.323 N 
ATOM     90  H   UNL A   1      34.254  23.576  23.040  1.00  0.00     0.348 HD
BRANCH  89  91
ATOM     91  C   UNL A   1      33.618  22.256  23.684  1.00  0.00     0.184 C 
ATOM     92  C   UNL A   1      34.789  21.278  24.634  1.00  0.00     0.065 C 
ATOM     93  C   UNL A   1      32.263  21.192  24.260  1.00  0.00     0.065 C 
ATOM     94  C   UNL A   1      34.211  19.917  24.927  1.00  0.00     0.006 C 
ATOM     95  C   UNL A   1      32.781  20.183  25.267  1.00  0.00     0.006 C 
ENDBRANCH  89  91
ENDBRANCH  74  83
ENDBRANCH  72  74
ENDBRANCH  71  72
ENDBRANCH  70  71
ENDBRANCH   1  70
TORSDOF 18
ENDMDL
