MODEL 1
REMARK VINA RESULT:     -11.8      0.000      0.000
REMARK SMILES COc1ccc2c(c1)c(CC(=O)OCCOC(=O)c1ccc(-c3c4nc(c(-c5cc(S(=O)(=O)[O-])ccc5F)c5ccc([nH]5)c(-c5cc(S(=O)(=O)[O-])ccc5F)c5nc(c(-c6cc(S(=O)(=O)[O-])ccc6F)c6ccc3[nH]6)C=C5)C=C4)cc1)c(C(F)(F)F)n2C(=O)c1ccc(Cl)cc1
REMARK SMILES IDX 14 1 13 2 11 3 12 4 10 5 9 6 3 7 4 8 8 9 5 10 7 11 6 12
REMARK SMILES IDX 87 13 82 14 2 15 1 16 88 17 89 18 90 19 91 20 96 21 92 22
REMARK SMILES IDX 95 23 93 24 94 25 83 26 84 27 85 28 86 29 15 30 16 31 17 32
REMARK SMILES IDX 18 33 19 34 20 35 81 36 21 37 80 38 22 39 23 40 24 41 74 42
REMARK SMILES IDX 25 43 79 44 73 45 75 46 26 47 78 48 72 49 71 50 27 52 59 53
REMARK SMILES IDX 39 54 58 55 40 56 43 57 57 58 76 59 41 60 42 61 56 63 77 64
REMARK SMILES IDX 44 65 28 66 29 67 37 68 30 69 36 70 38 71 35 72 31 73 32 74
REMARK SMILES IDX 33 75 34 76 60 77 61 78 69 79 62 80 68 81 70 82 67 83 63 84
REMARK SMILES IDX 64 85 65 86 66 87 45 88 46 89 54 90 47 91 53 92 55 93 52 94
REMARK SMILES IDX 48 95 49 96 50 97 51 98
REMARK H PARENT 75 51 43 62
REMARK Flexibility Score: inf
ROOT
ATOM      1  C   UNL A   1      39.887  20.976  26.140  1.00  0.00     0.274 C 
ENDROOT
BRANCH   1   2
ATOM      2  O   UNL A   1      38.789  21.540  25.388  1.00  0.00    -0.462 OA
BRANCH   2   3
ATOM      3  C   UNL A   1      37.719  20.721  25.260  1.00  0.00     0.310 C 
ATOM      4  O   UNL A   1      37.729  19.681  24.606  1.00  0.00    -0.252 OA
BRANCH   3   5
ATOM      5  C   UNL A   1      36.449  21.234  25.869  1.00  0.00     0.161 C 
BRANCH   5   6
ATOM      6  C   UNL A   1      35.165  21.406  25.090  1.00  0.00     0.002 A 
ATOM      7  C   UNL A   1      32.813  18.438  24.160  1.00  0.00     0.119 A 
ATOM      8  C   UNL A   1      32.050  19.135  23.255  1.00  0.00     0.048 A 
ATOM      9  C   UNL A   1      33.794  19.129  24.894  1.00  0.00     0.057 A 
ATOM     10  C   UNL A   1      32.280  20.502  23.060  1.00  0.00     0.031 A 
ATOM     11  C   UNL A   1      34.134  20.489  24.664  1.00  0.00     0.008 A 
ATOM     12  C   UNL A   1      33.308  21.179  23.765  1.00  0.00     0.057 A 
ATOM     13  N   UNL A   1      33.663  22.535  23.843  1.00  0.00    -0.271 N 
ATOM     14  C   UNL A   1      34.915  22.606  24.419  1.00  0.00     0.135 A 
BRANCH   7  15
ATOM     15  O   UNL A   1      32.705  17.105  24.451  1.00  0.00    -0.497 OA
ATOM     16  C   UNL A   1      33.876  16.401  24.848  1.00  0.00     0.278 C 
ENDBRANCH   7  15
BRANCH  13  17
ATOM     17  C   UNL A   1      32.851  23.639  23.494  1.00  0.00     0.262 C 
ATOM     18  O   UNL A   1      32.478  23.760  22.332  1.00  0.00    -0.268 OA
BRANCH  17  19
ATOM     19  C   UNL A   1      32.549  24.743  24.405  1.00  0.00     0.040 A 
ATOM     20  C   UNL A   1      32.372  24.455  25.762  1.00  0.00     0.015 A 
ATOM     21  C   UNL A   1      32.319  26.020  23.888  1.00  0.00     0.015 A 
ATOM     22  C   UNL A   1      31.899  25.452  26.609  1.00  0.00     0.021 A 
ATOM     23  C   UNL A   1      31.854  27.016  24.746  1.00  0.00     0.021 A 
ATOM     24  C   UNL A   1      31.633  26.725  26.096  1.00  0.00     0.041 A 
ATOM     25  Cl  UNL A   1      30.991  27.935  27.135  1.00  0.00    -0.084 Cl
ENDBRANCH  17  19
ENDBRANCH  13  17
BRANCH  14  26
ATOM     26  C   UNL A   1      35.789  23.824  24.345  1.00  0.00     0.432 C 
ATOM     27  F   UNL A   1      37.004  23.508  23.830  1.00  0.00    -0.165 F 
ATOM     28  F   UNL A   1      35.248  24.743  23.501  1.00  0.00    -0.165 F 
ATOM     29  F   UNL A   1      35.970  24.470  25.516  1.00  0.00    -0.165 F 
ENDBRANCH  14  26
ENDBRANCH   5   6
ENDBRANCH   3   5
ENDBRANCH   2   3
ENDBRANCH   1   2
BRANCH   1  30
ATOM     30  C   UNL A   1      40.347  21.945  27.229  1.00  0.00     0.275 C 
BRANCH  30  31
ATOM     31  O   UNL A   1      41.782  21.911  27.309  1.00  0.00    -0.458 OA
BRANCH  31  32
ATOM     32  C   UNL A   1      42.453  22.633  26.377  1.00  0.00     0.338 C 
ATOM     33  O   UNL A   1      42.667  22.315  25.219  1.00  0.00    -0.246 OA
BRANCH  32  34
ATOM     34  C   UNL A   1      42.528  24.007  26.902  1.00  0.00     0.060 A 
ATOM     35  C   UNL A   1      43.032  24.308  28.162  1.00  0.00     0.016 A 
ATOM     36  C   UNL A   1      41.858  24.983  26.168  1.00  0.00     0.016 A 
ATOM     37  C   UNL A   1      42.707  25.539  28.726  1.00  0.00     0.010 A 
ATOM     38  C   UNL A   1      41.516  26.189  26.725  1.00  0.00     0.010 A 
ATOM     39  C   UNL A   1      41.862  26.424  28.037  1.00  0.00    -0.014 A 
BRANCH  39  40
ATOM     40  C   UNL A   1      41.475  27.703  28.583  1.00  0.00     0.031 A 
ATOM     41  C   UNL A   1      42.286  28.809  28.048  1.00  0.00     0.074 A 
ATOM     42  C   UNL A   1      40.383  27.971  29.321  1.00  0.00     0.049 A 
ATOM     43  N   UNL A   1      43.348  29.293  28.590  1.00  0.00    -0.248 NA
ATOM     44  C   UNL A   1      42.025  29.279  26.682  1.00  0.00     0.031 C 
ATOM     45  C   UNL A   1      39.233  27.127  29.651  1.00  0.00     0.029 A 
ATOM     46  N   UNL A   1      40.082  29.151  29.926  1.00  0.00    -0.354 N 
ATOM     47  C   UNL A   1      43.776  30.295  27.735  1.00  0.00     0.074 A 
ATOM     48  C   UNL A   1      43.065  30.094  26.496  1.00  0.00     0.031 C 
ATOM     49  C   UNL A   1      38.282  27.876  30.264  1.00  0.00     0.029 A 
ATOM     50  C   UNL A   1      38.841  29.190  30.536  1.00  0.00     0.049 A 
ATOM     51  H   UNL A   1      40.700  29.918  29.930  1.00  0.00     0.167 HD
ATOM     52  C   UNL A   1      44.505  31.343  28.205  1.00  0.00     0.034 A 
ATOM     53  C   UNL A   1      38.337  30.221  31.253  1.00  0.00     0.034 A 
ATOM     54  C   UNL A   1      44.900  31.123  29.576  1.00  0.00     0.049 A 
ATOM     55  C   UNL A   1      39.484  31.042  31.714  1.00  0.00     0.074 A 
ATOM     56  C   UNL A   1      45.741  30.245  30.225  1.00  0.00     0.029 A 
ATOM     57  N   UNL A   1      44.049  31.632  30.528  1.00  0.00    -0.354 N 
ATOM     58  N   UNL A   1      40.365  30.643  32.588  1.00  0.00    -0.248 NA
ATOM     59  C   UNL A   1      39.877  32.197  30.920  1.00  0.00     0.031 C 
ATOM     60  C   UNL A   1      45.126  29.989  31.485  1.00  0.00     0.029 A 
ATOM     61  C   UNL A   1      43.949  30.742  31.567  1.00  0.00     0.049 A 
ATOM     62  H   UNL A   1      43.584  32.498  30.474  1.00  0.00     0.167 HD
ATOM     63  C   UNL A   1      41.561  31.197  32.161  1.00  0.00     0.074 A 
ATOM     64  C   UNL A   1      41.173  32.257  31.237  1.00  0.00     0.031 C 
ATOM     65  C   UNL A   1      42.754  30.568  32.381  1.00  0.00     0.034 A 
BRANCH  52  66
ATOM     66  C   UNL A   1      44.533  32.706  27.571  1.00  0.00     0.023 A 
ATOM     67  C   UNL A   1      43.689  33.758  27.971  1.00  0.00     0.031 A 
ATOM     68  C   UNL A   1      45.566  33.050  26.677  1.00  0.00     0.131 A 
ATOM     69  C   UNL A   1      43.852  35.058  27.482  1.00  0.00     0.055 A 
ATOM     70  C   UNL A   1      45.776  34.364  26.244  1.00  0.00     0.041 A 
ATOM     71  F   UNL A   1      46.436  32.125  26.239  1.00  0.00    -0.206 F 
ATOM     72  C   UNL A   1      44.914  35.377  26.642  1.00  0.00     0.022 A 
BRANCH  69  73
ATOM     73  S   UNL A   1      42.674  36.358  27.938  1.00  0.00     0.124 S 
ATOM     74  O   UNL A   1      43.486  37.209  28.799  1.00  0.00    -0.237 OA
ATOM     75  O   UNL A   1      42.332  36.919  26.632  1.00  0.00    -0.237 OA
ATOM     76  O   UNL A   1      41.595  35.626  28.594  1.00  0.00    -0.744 OA
ENDBRANCH  69  73
ENDBRANCH  52  66
BRANCH  53  77
ATOM     77  C   UNL A   1      36.975  30.787  31.159  1.00  0.00     0.023 A 
ATOM     78  C   UNL A   1      36.442  31.101  29.895  1.00  0.00     0.031 A 
ATOM     79  C   UNL A   1      36.349  31.344  32.289  1.00  0.00     0.131 A 
ATOM     80  C   UNL A   1      35.373  32.001  29.785  1.00  0.00     0.055 A 
ATOM     81  C   UNL A   1      35.267  32.225  32.176  1.00  0.00     0.041 A 
ATOM     82  F   UNL A   1      36.830  31.107  33.519  1.00  0.00    -0.206 F 
ATOM     83  C   UNL A   1      34.788  32.572  30.917  1.00  0.00     0.022 A 
BRANCH  80  84
ATOM     84  S   UNL A   1      34.788  32.544  28.155  1.00  0.00     0.124 S 
ATOM     85  O   UNL A   1      34.495  31.273  27.495  1.00  0.00    -0.237 OA
ATOM     86  O   UNL A   1      33.624  33.347  28.511  1.00  0.00    -0.237 OA
ATOM     87  O   UNL A   1      35.925  33.278  27.608  1.00  0.00    -0.744 OA
ENDBRANCH  80  84
ENDBRANCH  53  77
BRANCH  65  88
ATOM     88  C   UNL A   1      42.798  29.444  33.394  1.00  0.00     0.023 A 
ATOM     89  C   UNL A   1      43.214  29.771  34.697  1.00  0.00     0.031 A 
ATOM     90  C   UNL A   1      42.658  28.079  33.081  1.00  0.00     0.131 A 
ATOM     91  C   UNL A   1      43.533  28.763  35.615  1.00  0.00     0.055 A 
ATOM     92  C   UNL A   1      42.907  27.075  34.024  1.00  0.00     0.041 A 
ATOM     93  F   UNL A   1      42.354  27.673  31.843  1.00  0.00    -0.206 F 
ATOM     94  C   UNL A   1      43.364  27.413  35.293  1.00  0.00     0.022 A 
BRANCH  91  95
ATOM     95  S   UNL A   1      44.315  29.178  37.194  1.00  0.00     0.124 S 
ATOM     96  O   UNL A   1      44.288  27.901  37.901  1.00  0.00    -0.237 OA
ATOM     97  O   UNL A   1      45.640  29.628  36.770  1.00  0.00    -0.237 OA
ATOM     98  O   UNL A   1      43.458  30.218  37.753  1.00  0.00    -0.744 OA
ENDBRANCH  91  95
ENDBRANCH  65  88
ENDBRANCH  39  40
ENDBRANCH  32  34
ENDBRANCH  31  32
ENDBRANCH  30  31
ENDBRANCH   1  30
TORSDOF 19
ENDMDL
MODEL 2
REMARK VINA RESULT:     -11.4      5.396     12.546
REMARK SMILES COc1ccc2c(c1)c(CC(=O)OCCOC(=O)c1ccc(-c3c4nc(c(-c5cc(S(=O)(=O)[O-])ccc5F)c5ccc([nH]5)c(-c5cc(S(=O)(=O)[O-])ccc5F)c5nc(c(-c6cc(S(=O)(=O)[O-])ccc6F)c6ccc3[nH]6)C=C5)C=C4)cc1)c(C(F)(F)F)n2C(=O)c1ccc(Cl)cc1
REMARK SMILES IDX 14 1 13 2 11 3 12 4 10 5 9 6 3 7 4 8 8 9 5 10 7 11 6 12
REMARK SMILES IDX 87 13 82 14 2 15 1 16 88 17 89 18 90 19 91 20 96 21 92 22
REMARK SMILES IDX 95 23 93 24 94 25 83 26 84 27 85 28 86 29 15 30 16 31 17 32
REMARK SMILES IDX 18 33 19 34 20 35 81 36 21 37 80 38 22 39 23 40 24 41 74 42
REMARK SMILES IDX 25 43 79 44 73 45 75 46 26 47 78 48 72 49 71 50 27 52 59 53
REMARK SMILES IDX 39 54 58 55 40 56 43 57 57 58 76 59 41 60 42 61 56 63 77 64
REMARK SMILES IDX 44 65 28 66 29 67 37 68 30 69 36 70 38 71 35 72 31 73 32 74
REMARK SMILES IDX 33 75 34 76 60 77 61 78 69 79 62 80 68 81 70 82 67 83 63 84
REMARK SMILES IDX 64 85 65 86 66 87 45 88 46 89 54 90 47 91 53 92 55 93 52 94
REMARK SMILES IDX 48 95 49 96 50 97 51 98
REMARK H PARENT 75 51 43 62
REMARK Flexibility Score: inf
ROOT
ATOM      1  C   UNL A   1      34.436  33.921  31.925  1.00  0.00     0.274 C 
ENDROOT
BRANCH   1   2
ATOM      2  O   UNL A   1      35.238  33.361  32.989  1.00  0.00    -0.462 OA
BRANCH   2   3
ATOM      3  C   UNL A   1      36.422  33.987  33.187  1.00  0.00     0.310 C 
ATOM      4  O   UNL A   1      36.534  35.200  33.352  1.00  0.00    -0.252 OA
BRANCH   3   5
ATOM      5  C   UNL A   1      37.633  33.113  33.061  1.00  0.00     0.161 C 
BRANCH   5   6
ATOM      6  C   UNL A   1      38.946  33.409  33.748  1.00  0.00     0.002 A 
ATOM      7  C   UNL A   1      42.113  34.671  31.853  1.00  0.00     0.119 A 
ATOM      8  C   UNL A   1      42.994  34.462  32.887  1.00  0.00     0.048 A 
ATOM      9  C   UNL A   1      40.741  34.454  32.078  1.00  0.00     0.057 A 
ATOM     10  C   UNL A   1      42.517  34.013  34.125  1.00  0.00     0.031 A 
ATOM     11  C   UNL A   1      40.219  33.906  33.279  1.00  0.00     0.008 A 
ATOM     12  C   UNL A   1      41.139  33.745  34.325  1.00  0.00     0.057 A 
ATOM     13  N   UNL A   1      40.401  33.410  35.471  1.00  0.00    -0.271 N 
ATOM     14  C   UNL A   1      39.163  32.963  35.053  1.00  0.00     0.135 A 
BRANCH   7  15
ATOM     15  O   UNL A   1      42.432  35.102  30.594  1.00  0.00    -0.497 OA
ATOM     16  C   UNL A   1      41.800  34.475  29.483  1.00  0.00     0.278 C 
ENDBRANCH   7  15
BRANCH  13  17
ATOM     17  C   UNL A   1      40.803  33.591  36.815  1.00  0.00     0.262 C 
ATOM     18  O   UNL A   1      41.603  32.803  37.308  1.00  0.00    -0.268 OA
BRANCH  17  19
ATOM     19  C   UNL A   1      40.205  34.578  37.714  1.00  0.00     0.040 A 
ATOM     20  C   UNL A   1      40.333  35.933  37.392  1.00  0.00     0.015 A 
ATOM     21  C   UNL A   1      39.642  34.158  38.921  1.00  0.00     0.015 A 
ATOM     22  C   UNL A   1      39.942  36.889  38.324  1.00  0.00     0.021 A 
ATOM     23  C   UNL A   1      39.243  35.124  39.845  1.00  0.00     0.021 A 
ATOM     24  C   UNL A   1      39.408  36.481  39.549  1.00  0.00     0.041 A 
ATOM     25  Cl  UNL A   1      38.982  37.666  40.721  1.00  0.00    -0.084 Cl
ENDBRANCH  17  19
ENDBRANCH  13  17
BRANCH  14  26
ATOM     26  C   UNL A   1      38.231  32.179  35.930  1.00  0.00     0.432 C 
ATOM     27  F   UNL A   1      38.928  31.491  36.871  1.00  0.00    -0.165 F 
ATOM     28  F   UNL A   1      37.404  33.017  36.611  1.00  0.00    -0.165 F 
ATOM     29  F   UNL A   1      37.420  31.319  35.279  1.00  0.00    -0.165 F 
ENDBRANCH  14  26
ENDBRANCH   5   6
ENDBRANCH   3   5
ENDBRANCH   2   3
ENDBRANCH   1   2
BRANCH   1  30
ATOM     30  C   UNL A   1      34.608  33.113  30.638  1.00  0.00     0.275 C 
BRANCH  30  31
ATOM     31  O   UNL A   1      35.423  33.861  29.722  1.00  0.00    -0.458 OA
BRANCH  31  32
ATOM     32  C   UNL A   1      35.873  33.191  28.632  1.00  0.00     0.338 C 
ATOM     33  O   UNL A   1      35.727  33.510  27.464  1.00  0.00    -0.246 OA
BRANCH  32  34
ATOM     34  C   UNL A   1      36.884  32.241  29.127  1.00  0.00     0.060 A 
ATOM     35  C   UNL A   1      38.087  32.646  29.694  1.00  0.00     0.016 A 
ATOM     36  C   UNL A   1      36.685  30.903  28.795  1.00  0.00     0.016 A 
ATOM     37  C   UNL A   1      39.127  31.722  29.764  1.00  0.00     0.010 A 
ATOM     38  C   UNL A   1      37.710  29.993  28.841  1.00  0.00     0.010 A 
ATOM     39  C   UNL A   1      38.953  30.431  29.237  1.00  0.00    -0.014 A 
BRANCH  39  40
ATOM     40  C   UNL A   1      40.005  29.441  29.262  1.00  0.00     0.031 A 
ATOM     41  C   UNL A   1      40.300  28.974  30.627  1.00  0.00     0.074 A 
ATOM     42  C   UNL A   1      40.544  28.807  28.207  1.00  0.00     0.049 A 
ATOM     43  N   UNL A   1      41.210  29.450  31.403  1.00  0.00    -0.248 NA
ATOM     44  C   UNL A   1      39.366  28.044  31.273  1.00  0.00     0.031 C 
ATOM     45  C   UNL A   1      40.151  28.811  26.797  1.00  0.00     0.029 A 
ATOM     46  N   UNL A   1      41.608  27.959  28.226  1.00  0.00    -0.354 N 
ATOM     47  C   UNL A   1      41.112  28.721  32.577  1.00  0.00     0.074 A 
ATOM     48  C   UNL A   1      39.843  28.038  32.519  1.00  0.00     0.031 C 
ATOM     49  C   UNL A   1      40.868  27.877  26.123  1.00  0.00     0.029 A 
ATOM     50  C   UNL A   1      41.893  27.359  27.013  1.00  0.00     0.049 A 
ATOM     51  H   UNL A   1      42.135  27.788  29.041  1.00  0.00     0.167 HD
ATOM     52  C   UNL A   1      42.194  28.562  33.386  1.00  0.00     0.034 A 
ATOM     53  C   UNL A   1      42.932  26.530  26.759  1.00  0.00     0.034 A 
ATOM     54  C   UNL A   1      43.289  29.396  32.953  1.00  0.00     0.049 A 
ATOM     55  C   UNL A   1      43.968  26.789  27.790  1.00  0.00     0.074 A 
ATOM     56  C   UNL A   1      43.528  30.752  32.899  1.00  0.00     0.029 A 
ATOM     57  N   UNL A   1      44.181  28.803  32.090  1.00  0.00    -0.354 N 
ATOM     58  N   UNL A   1      44.653  27.896  27.877  1.00  0.00    -0.248 NA
ATOM     59  C   UNL A   1      43.995  25.948  28.977  1.00  0.00     0.031 C 
ATOM     60  C   UNL A   1      44.318  30.954  31.729  1.00  0.00     0.029 A 
ATOM     61  C   UNL A   1      44.553  29.711  31.131  1.00  0.00     0.049 A 
ATOM     62  H   UNL A   1      44.502  27.875  32.149  1.00  0.00     0.167 HD
ATOM     63  C   UNL A   1      44.822  28.098  29.237  1.00  0.00     0.074 A 
ATOM     64  C   UNL A   1      44.540  26.803  29.846  1.00  0.00     0.031 C 
ATOM     65  C   UNL A   1      44.905  29.356  29.763  1.00  0.00     0.034 A 
BRANCH  52  66
ATOM     66  C   UNL A   1      42.392  27.396  34.315  1.00  0.00     0.023 A 
ATOM     67  C   UNL A   1      43.174  26.274  33.985  1.00  0.00     0.031 A 
ATOM     68  C   UNL A   1      41.963  27.477  35.654  1.00  0.00     0.131 A 
ATOM     69  C   UNL A   1      43.478  25.287  34.927  1.00  0.00     0.055 A 
ATOM     70  C   UNL A   1      42.328  26.528  36.616  1.00  0.00     0.041 A 
ATOM     71  F   UNL A   1      41.220  28.511  36.080  1.00  0.00    -0.206 F 
ATOM     72  C   UNL A   1      43.086  25.421  36.254  1.00  0.00     0.022 A 
BRANCH  69  73
ATOM     73  S   UNL A   1      44.395  23.804  34.431  1.00  0.00     0.124 S 
ATOM     74  O   UNL A   1      43.787  22.780  35.273  1.00  0.00    -0.237 OA
ATOM     75  O   UNL A   1      44.079  23.723  33.007  1.00  0.00    -0.237 OA
ATOM     76  O   UNL A   1      45.782  24.142  34.735  1.00  0.00    -0.744 OA
ENDBRANCH  69  73
ENDBRANCH  52  66
BRANCH  53  77
ATOM     77  C   UNL A   1      42.888  25.252  26.017  1.00  0.00     0.023 A 
ATOM     78  C   UNL A   1      41.976  24.255  26.410  1.00  0.00     0.031 A 
ATOM     79  C   UNL A   1      43.952  24.871  25.179  1.00  0.00     0.131 A 
ATOM     80  C   UNL A   1      42.184  22.922  26.032  1.00  0.00     0.055 A 
ATOM     81  C   UNL A   1      44.143  23.542  24.784  1.00  0.00     0.041 A 
ATOM     82  F   UNL A   1      44.871  25.770  24.796  1.00  0.00    -0.206 F 
ATOM     83  C   UNL A   1      43.266  22.557  25.228  1.00  0.00     0.022 A 
BRANCH  80  84
ATOM     84  S   UNL A   1      41.113  21.603  26.670  1.00  0.00     0.124 S 
ATOM     85  O   UNL A   1      41.765  20.401  26.155  1.00  0.00    -0.237 OA
ATOM     86  O   UNL A   1      41.222  21.806  28.111  1.00  0.00    -0.237 OA
ATOM     87  O   UNL A   1      39.811  21.902  26.082  1.00  0.00    -0.744 OA
ENDBRANCH  80  84
ENDBRANCH  53  77
BRANCH  65  88
ATOM     88  C   UNL A   1      45.160  30.514  28.821  1.00  0.00     0.023 A 
ATOM     89  C   UNL A   1      46.502  30.839  28.556  1.00  0.00     0.031 A 
ATOM     90  C   UNL A   1      44.173  31.406  28.364  1.00  0.00     0.131 A 
ATOM     91  C   UNL A   1      46.827  32.041  27.915  1.00  0.00     0.055 A 
ATOM     92  C   UNL A   1      44.498  32.572  27.660  1.00  0.00     0.041 A 
ATOM     93  F   UNL A   1      42.878  31.224  28.650  1.00  0.00    -0.206 F 
ATOM     94  C   UNL A   1      45.832  32.904  27.448  1.00  0.00     0.022 A 
BRANCH  91  95
ATOM     95  S   UNL A   1      48.552  32.583  27.809  1.00  0.00     0.124 S 
ATOM     96  O   UNL A   1      48.414  34.019  27.578  1.00  0.00    -0.237 OA
ATOM     97  O   UNL A   1      49.072  32.209  29.124  1.00  0.00    -0.237 OA
ATOM     98  O   UNL A   1      49.095  31.821  26.689  1.00  0.00    -0.744 OA
ENDBRANCH  91  95
ENDBRANCH  65  88
ENDBRANCH  39  40
ENDBRANCH  32  34
ENDBRANCH  31  32
ENDBRANCH  30  31
ENDBRANCH   1  30
TORSDOF 19
ENDMDL
MODEL 3
REMARK VINA RESULT:     -11.2      5.681     12.575
REMARK SMILES COc1ccc2c(c1)c(CC(=O)OCCOC(=O)c1ccc(-c3c4nc(c(-c5cc(S(=O)(=O)[O-])ccc5F)c5ccc([nH]5)c(-c5cc(S(=O)(=O)[O-])ccc5F)c5nc(c(-c6cc(S(=O)(=O)[O-])ccc6F)c6ccc3[nH]6)C=C5)C=C4)cc1)c(C(F)(F)F)n2C(=O)c1ccc(Cl)cc1
REMARK SMILES IDX 14 1 13 2 11 3 12 4 10 5 9 6 3 7 4 8 8 9 5 10 7 11 6 12
REMARK SMILES IDX 87 13 82 14 2 15 1 16 88 17 89 18 90 19 91 20 96 21 92 22
REMARK SMILES IDX 95 23 93 24 94 25 83 26 84 27 85 28 86 29 15 30 16 31 17 32
REMARK SMILES IDX 18 33 19 34 20 35 81 36 21 37 80 38 22 39 23 40 24 41 74 42
REMARK SMILES IDX 25 43 79 44 73 45 75 46 26 47 78 48 72 49 71 50 27 52 59 53
REMARK SMILES IDX 39 54 58 55 40 56 43 57 57 58 76 59 41 60 42 61 56 63 77 64
REMARK SMILES IDX 44 65 28 66 29 67 37 68 30 69 36 70 38 71 35 72 31 73 32 74
REMARK SMILES IDX 33 75 34 76 60 77 61 78 69 79 62 80 68 81 70 82 67 83 63 84
REMARK SMILES IDX 64 85 65 86 66 87 45 88 46 89 54 90 47 91 53 92 55 93 52 94
REMARK SMILES IDX 48 95 49 96 50 97 51 98
REMARK H PARENT 75 51 43 62
REMARK Flexibility Score: inf
ROOT
ATOM      1  C   UNL A   1      35.943  31.804  32.804  1.00  0.00     0.274 C 
ENDROOT
BRANCH   1   2
ATOM      2  O   UNL A   1      37.047  32.552  33.360  1.00  0.00    -0.462 OA
BRANCH   2   3
ATOM      3  C   UNL A   1      38.159  31.818  33.595  1.00  0.00     0.310 C 
ATOM      4  O   UNL A   1      38.201  30.875  34.383  1.00  0.00    -0.252 OA
BRANCH   3   5
ATOM      5  C   UNL A   1      39.403  32.314  32.922  1.00  0.00     0.161 C 
BRANCH   5   6
ATOM      6  C   UNL A   1      40.261  33.427  33.477  1.00  0.00     0.002 A 
ATOM      7  C   UNL A   1      39.625  35.090  36.947  1.00  0.00     0.119 A 
ATOM      8  C   UNL A   1      40.468  36.157  36.753  1.00  0.00     0.048 A 
ATOM      9  C   UNL A   1      39.572  34.082  35.967  1.00  0.00     0.057 A 
ATOM     10  C   UNL A   1      41.230  36.236  35.581  1.00  0.00     0.031 A 
ATOM     11  C   UNL A   1      40.247  34.163  34.720  1.00  0.00     0.008 A 
ATOM     12  C   UNL A   1      41.130  35.242  34.574  1.00  0.00     0.057 A 
ATOM     13  N   UNL A   1      41.850  35.025  33.389  1.00  0.00    -0.271 N 
ATOM     14  C   UNL A   1      41.146  34.106  32.637  1.00  0.00     0.135 A 
BRANCH   7  15
ATOM     15  O   UNL A   1      38.821  34.882  38.034  1.00  0.00    -0.497 OA
ATOM     16  C   UNL A   1      37.979  33.735  38.045  1.00  0.00     0.278 C 
ENDBRANCH   7  15
BRANCH  13  17
ATOM     17  C   UNL A   1      43.116  35.563  33.062  1.00  0.00     0.262 C 
ATOM     18  O   UNL A   1      43.173  36.641  32.480  1.00  0.00    -0.268 OA
BRANCH  17  19
ATOM     19  C   UNL A   1      44.375  34.839  33.239  1.00  0.00     0.040 A 
ATOM     20  C   UNL A   1      44.572  34.130  34.428  1.00  0.00     0.015 A 
ATOM     21  C   UNL A   1      45.387  34.975  32.287  1.00  0.00     0.015 A 
ATOM     22  C   UNL A   1      45.828  33.596  34.697  1.00  0.00     0.021 A 
ATOM     23  C   UNL A   1      46.641  34.428  32.560  1.00  0.00     0.021 A 
ATOM     24  C   UNL A   1      46.859  33.755  33.766  1.00  0.00     0.041 A 
ATOM     25  Cl  UNL A   1      48.425  33.145  34.131  1.00  0.00    -0.084 Cl
ENDBRANCH  17  19
ENDBRANCH  13  17
BRANCH  14  26
ATOM     26  C   UNL A   1      41.384  33.887  31.171  1.00  0.00     0.432 C 
ATOM     27  F   UNL A   1      40.588  34.700  30.432  1.00  0.00    -0.165 F 
ATOM     28  F   UNL A   1      42.663  34.214  30.845  1.00  0.00    -0.165 F 
ATOM     29  F   UNL A   1      41.215  32.616  30.749  1.00  0.00    -0.165 F 
ENDBRANCH  14  26
ENDBRANCH   5   6
ENDBRANCH   3   5
ENDBRANCH   2   3
ENDBRANCH   1   2
BRANCH   1  30
ATOM     30  C   UNL A   1      34.932  32.744  32.145  1.00  0.00     0.275 C 
BRANCH  30  31
ATOM     31  O   UNL A   1      34.720  32.325  30.787  1.00  0.00    -0.458 OA
BRANCH  31  32
ATOM     32  C   UNL A   1      35.438  32.975  29.838  1.00  0.00     0.338 C 
ATOM     33  O   UNL A   1      35.439  34.174  29.614  1.00  0.00    -0.246 OA
BRANCH  32  34
ATOM     34  C   UNL A   1      36.486  32.035  29.405  1.00  0.00     0.060 A 
ATOM     35  C   UNL A   1      36.238  30.688  29.162  1.00  0.00     0.016 A 
ATOM     36  C   UNL A   1      37.796  32.503  29.466  1.00  0.00     0.016 A 
ATOM     37  C   UNL A   1      37.320  29.811  29.149  1.00  0.00     0.010 A 
ATOM     38  C   UNL A   1      38.864  31.643  29.476  1.00  0.00     0.010 A 
ATOM     39  C   UNL A   1      38.613  30.291  29.412  1.00  0.00    -0.014 A 
BRANCH  39  40
ATOM     40  C   UNL A   1      39.768  29.423  29.433  1.00  0.00     0.031 A 
ATOM     41  C   UNL A   1      40.066  28.922  30.786  1.00  0.00     0.074 A 
ATOM     42  C   UNL A   1      40.413  28.907  28.372  1.00  0.00     0.049 A 
ATOM     43  N   UNL A   1      40.888  29.455  31.620  1.00  0.00    -0.248 NA
ATOM     44  C   UNL A   1      39.220  27.862  31.347  1.00  0.00     0.031 C 
ATOM     45  C   UNL A   1      40.072  28.940  26.949  1.00  0.00     0.029 A 
ATOM     46  N   UNL A   1      41.564  28.183  28.395  1.00  0.00    -0.354 N 
ATOM     47  C   UNL A   1      40.831  28.659  32.753  1.00  0.00     0.074 A 
ATOM     48  C   UNL A   1      39.650  27.844  32.610  1.00  0.00     0.031 C 
ATOM     49  C   UNL A   1      40.914  28.128  26.261  1.00  0.00     0.029 A 
ATOM     50  C   UNL A   1      41.958  27.681  27.168  1.00  0.00     0.049 A 
ATOM     51  H   UNL A   1      42.077  28.029  29.222  1.00  0.00     0.167 HD
ATOM     52  C   UNL A   1      41.895  28.580  33.597  1.00  0.00     0.034 A 
ATOM     53  C   UNL A   1      43.092  26.986  26.918  1.00  0.00     0.034 A 
ATOM     54  C   UNL A   1      42.904  29.551  33.249  1.00  0.00     0.049 A 
ATOM     55  C   UNL A   1      44.055  27.305  28.001  1.00  0.00     0.074 A 
ATOM     56  C   UNL A   1      42.990  30.926  33.269  1.00  0.00     0.029 A 
ATOM     57  N   UNL A   1      43.886  29.106  32.397  1.00  0.00    -0.354 N 
ATOM     58  N   UNL A   1      44.607  28.475  28.169  1.00  0.00    -0.248 NA
ATOM     59  C   UNL A   1      44.134  26.412  29.147  1.00  0.00     0.031 C 
ATOM     60  C   UNL A   1      43.793  31.274  32.144  1.00  0.00     0.029 A 
ATOM     61  C   UNL A   1      44.188  30.098  31.498  1.00  0.00     0.049 A 
ATOM     62  H   UNL A   1      44.307  28.217  32.425  1.00  0.00     0.167 HD
ATOM     63  C   UNL A   1      44.703  28.624  29.543  1.00  0.00     0.074 A 
ATOM     64  C   UNL A   1      44.548  27.276  30.077  1.00  0.00     0.031 C 
ATOM     65  C   UNL A   1      44.625  29.855  30.130  1.00  0.00     0.034 A 
BRANCH  52  66
ATOM     66  C   UNL A   1      42.189  27.396  34.477  1.00  0.00     0.023 A 
ATOM     67  C   UNL A   1      42.978  26.308  34.063  1.00  0.00     0.031 A 
ATOM     68  C   UNL A   1      41.852  27.429  35.844  1.00  0.00     0.131 A 
ATOM     69  C   UNL A   1      43.374  25.306  34.954  1.00  0.00     0.055 A 
ATOM     70  C   UNL A   1      42.309  26.467  36.752  1.00  0.00     0.041 A 
ATOM     71  F   UNL A   1      41.111  28.429  36.349  1.00  0.00    -0.206 F 
ATOM     72  C   UNL A   1      43.071  25.394  36.308  1.00  0.00     0.022 A 
BRANCH  69  73
ATOM     73  S   UNL A   1      44.296  23.865  34.355  1.00  0.00     0.124 S 
ATOM     74  O   UNL A   1      44.057  23.933  32.918  1.00  0.00    -0.237 OA
ATOM     75  O   UNL A   1      45.655  24.182  34.788  1.00  0.00    -0.237 OA
ATOM     76  O   UNL A   1      43.674  22.745  35.055  1.00  0.00    -0.744 OA
ENDBRANCH  69  73
ENDBRANCH  52  66
BRANCH  53  77
ATOM     77  C   UNL A   1      43.219  25.751  26.115  1.00  0.00     0.023 A 
ATOM     78  C   UNL A   1      42.407  24.643  26.418  1.00  0.00     0.031 A 
ATOM     79  C   UNL A   1      44.350  25.532  25.308  1.00  0.00     0.131 A 
ATOM     80  C   UNL A   1      42.775  23.361  25.987  1.00  0.00     0.055 A 
ATOM     81  C   UNL A   1      44.701  24.254  24.860  1.00  0.00     0.041 A 
ATOM     82  F   UNL A   1      45.179  26.544  25.010  1.00  0.00    -0.206 F 
ATOM     83  C   UNL A   1      43.923  23.158  25.217  1.00  0.00     0.022 A 
BRANCH  80  84
ATOM     84  S   UNL A   1      41.832  21.904  26.514  1.00  0.00     0.124 S 
ATOM     85  O   UNL A   1      42.428  20.843  25.705  1.00  0.00    -0.237 OA
ATOM     86  O   UNL A   1      42.139  21.851  27.940  1.00  0.00    -0.237 OA
ATOM     87  O   UNL A   1      40.454  22.243  26.172  1.00  0.00    -0.744 OA
ENDBRANCH  80  84
ENDBRANCH  53  77
BRANCH  65  88
ATOM     88  C   UNL A   1      44.782  31.081  29.255  1.00  0.00     0.023 A 
ATOM     89  C   UNL A   1      46.052  31.685  29.221  1.00  0.00     0.031 A 
ATOM     90  C   UNL A   1      43.718  31.772  28.649  1.00  0.00     0.131 A 
ATOM     91  C   UNL A   1      46.218  32.955  28.656  1.00  0.00     0.055 A 
ATOM     92  C   UNL A   1      43.902  33.009  28.020  1.00  0.00     0.041 A 
ATOM     93  F   UNL A   1      42.461  31.317  28.712  1.00  0.00    -0.206 F 
ATOM     94  C   UNL A   1      45.153  33.616  28.037  1.00  0.00     0.022 A 
BRANCH  91  95
ATOM     95  S   UNL A   1      47.785  33.842  28.844  1.00  0.00     0.124 S 
ATOM     96  O   UNL A   1      48.432  33.105  29.927  1.00  0.00    -0.237 OA
ATOM     97  O   UNL A   1      48.393  33.674  27.525  1.00  0.00    -0.237 OA
ATOM     98  O   UNL A   1      47.385  35.206  29.172  1.00  0.00    -0.744 OA
ENDBRANCH  91  95
ENDBRANCH  65  88
ENDBRANCH  39  40
ENDBRANCH  32  34
ENDBRANCH  31  32
ENDBRANCH  30  31
ENDBRANCH   1  30
TORSDOF 19
ENDMDL
