MODEL 1
REMARK VINA RESULT:     -10.9      0.000      0.000
REMARK SMILES CC(C)CN(C)C(=O)N1CCC(C(=O)OCCOC(=O)c2ccc(-c3c4nc(c(-c5cc(S(=O)(=O)[O-])ccc5F)c5ccc([nH]5)c(-c5cc(S(=O)(=O)[O-])ccc5F)c5nc(c(-c6cc(S(=O)(=O)[O-])ccc6F)c6ccc3[nH]6)C=C5)C=C4)cc2)CC1
REMARK SMILES IDX 16 1 15 2 13 3 14 4 12 5 7 6 8 7 9 8 10 9 85 10 11 11 84 12
REMARK SMILES IDX 5 13 6 14 4 15 2 16 1 17 3 18 17 19 18 20 19 21 20 22 21 23
REMARK SMILES IDX 22 24 83 25 23 26 82 27 24 28 25 29 26 30 76 31 27 32 81 33
REMARK SMILES IDX 75 34 77 35 28 36 80 37 74 38 73 39 29 41 61 42 41 43 60 44
REMARK SMILES IDX 42 45 45 46 59 47 78 48 43 49 44 50 58 52 79 53 46 54 30 55
REMARK SMILES IDX 31 56 39 57 32 58 38 59 40 60 37 61 33 62 34 63 35 64 36 65
REMARK SMILES IDX 62 66 63 67 71 68 64 69 70 70 72 71 69 72 65 73 66 74 67 75
REMARK SMILES IDX 68 76 47 77 48 78 56 79 49 80 55 81 57 82 54 83 50 84 51 85
REMARK SMILES IDX 52 86 53 87
REMARK H PARENT 77 40 45 51
REMARK Flexibility Score: inf
ROOT
ATOM      1  C   UNL A   1      35.016  20.650  24.967  1.00  0.00     0.274 C 
ENDROOT
BRANCH   1   2
ATOM      2  O   UNL A   1      34.806  22.071  25.060  1.00  0.00    -0.462 OA
BRANCH   2   3
ATOM      3  C   UNL A   1      33.615  22.535  24.609  1.00  0.00     0.309 C 
ATOM      4  O   UNL A   1      32.880  21.936  23.833  1.00  0.00    -0.252 OA
BRANCH   3   5
ATOM      5  C   UNL A   1      33.259  23.902  25.162  1.00  0.00     0.103 C 
ATOM      6  C   UNL A   1      32.872  27.663  24.132  1.00  0.00     0.319 C 
ATOM      7  O   UNL A   1      33.820  27.623  23.347  1.00  0.00    -0.248 OA
ATOM      8  N   UNL A   1      32.730  26.717  25.124  1.00  0.00    -0.325 N 
ATOM      9  C   UNL A   1      33.937  26.228  25.774  1.00  0.00     0.122 C 
ATOM     10  C   UNL A   1      31.605  25.790  25.095  1.00  0.00     0.122 C 
ATOM     11  C   UNL A   1      34.404  24.920  25.152  1.00  0.00     0.037 C 
ATOM     12  C   UNL A   1      32.025  24.466  24.452  1.00  0.00     0.037 C 
BRANCH   6  13
ATOM     13  N   UNL A   1      31.942  28.691  24.131  1.00  0.00    -0.327 N 
ATOM     14  C   UNL A   1      31.727  29.612  25.241  1.00  0.00     0.148 C 
BRANCH  13  15
ATOM     15  C   UNL A   1      31.231  28.978  22.888  1.00  0.00     0.124 C 
BRANCH  15  16
ATOM     16  C   UNL A   1      29.714  29.187  23.099  1.00  0.00     0.002 C 
ATOM     17  C   UNL A   1      29.061  29.977  21.962  1.00  0.00     0.009 C 
ATOM     18  C   UNL A   1      29.018  27.834  23.244  1.00  0.00     0.009 C 
ENDBRANCH  15  16
ENDBRANCH  13  15
ENDBRANCH   6  13
ENDBRANCH   3   5
ENDBRANCH   2   3
ENDBRANCH   1   2
BRANCH   1  19
ATOM     19  C   UNL A   1      36.508  20.310  24.977  1.00  0.00     0.275 C 
BRANCH  19  20
ATOM     20  O   UNL A   1      37.307  21.426  25.413  1.00  0.00    -0.458 OA
BRANCH  20  21
ATOM     21  C   UNL A   1      38.551  21.101  25.840  1.00  0.00     0.338 C 
ATOM     22  O   UNL A   1      39.125  20.037  25.691  1.00  0.00    -0.246 OA
BRANCH  21  23
ATOM     23  C   UNL A   1      39.204  22.279  26.432  1.00  0.00     0.060 A 
ATOM     24  C   UNL A   1      38.712  23.541  26.093  1.00  0.00     0.016 A 
ATOM     25  C   UNL A   1      40.350  22.154  27.220  1.00  0.00     0.016 A 
ATOM     26  C   UNL A   1      39.359  24.690  26.539  1.00  0.00     0.010 A 
ATOM     27  C   UNL A   1      41.004  23.309  27.663  1.00  0.00     0.010 A 
ATOM     28  C   UNL A   1      40.520  24.583  27.313  1.00  0.00    -0.014 A 
BRANCH  28  29
ATOM     29  C   UNL A   1      41.267  25.810  27.683  1.00  0.00     0.031 A 
ATOM     30  C   UNL A   1      40.581  26.883  28.481  1.00  0.00     0.074 A 
ATOM     31  C   UNL A   1      42.560  25.945  27.333  1.00  0.00     0.049 A 
ATOM     32  N   UNL A   1      41.019  28.063  28.834  1.00  0.00    -0.248 NA
ATOM     33  C   UNL A   1      39.218  26.583  28.939  1.00  0.00     0.031 C 
ATOM     34  C   UNL A   1      43.345  24.942  26.611  1.00  0.00     0.029 A 
ATOM     35  N   UNL A   1      43.439  26.978  27.536  1.00  0.00    -0.354 N 
ATOM     36  C   UNL A   1      39.980  28.658  29.541  1.00  0.00     0.074 A 
ATOM     37  C   UNL A   1      38.882  27.713  29.545  1.00  0.00     0.031 C 
ATOM     38  C   UNL A   1      44.590  25.414  26.427  1.00  0.00     0.029 A 
ATOM     39  C   UNL A   1      44.675  26.766  26.971  1.00  0.00     0.049 A 
ATOM     40  H   UNL A   1      43.208  27.792  28.037  1.00  0.00     0.167 HD
ATOM     41  C   UNL A   1      39.948  29.879  30.131  1.00  0.00     0.034 A 
ATOM     42  C   UNL A   1      45.741  27.584  26.874  1.00  0.00     0.034 A 
ATOM     43  C   UNL A   1      41.053  30.808  30.115  1.00  0.00     0.049 A 
ATOM     44  C   UNL A   1      45.657  28.966  27.472  1.00  0.00     0.074 A 
ATOM     45  C   UNL A   1      41.130  32.071  30.678  1.00  0.00     0.029 A 
ATOM     46  N   UNL A   1      42.276  30.577  29.496  1.00  0.00    -0.354 N 
ATOM     47  N   UNL A   1      44.658  29.530  28.112  1.00  0.00    -0.248 NA
ATOM     48  C   UNL A   1      46.844  29.820  27.335  1.00  0.00     0.031 C 
ATOM     49  C   UNL A   1      42.373  32.623  30.352  1.00  0.00     0.029 A 
ATOM     50  C   UNL A   1      43.102  31.682  29.643  1.00  0.00     0.049 A 
ATOM     51  H   UNL A   1      42.520  29.749  29.024  1.00  0.00     0.167 HD
ATOM     52  C   UNL A   1      45.106  30.798  28.471  1.00  0.00     0.074 A 
ATOM     53  C   UNL A   1      46.467  30.908  27.990  1.00  0.00     0.031 C 
ATOM     54  C   UNL A   1      44.452  31.781  29.142  1.00  0.00     0.034 A 
BRANCH  41  55
ATOM     55  C   UNL A   1      38.653  30.295  30.785  1.00  0.00     0.023 A 
ATOM     56  C   UNL A   1      37.645  30.968  30.074  1.00  0.00     0.031 A 
ATOM     57  C   UNL A   1      38.443  30.049  32.153  1.00  0.00     0.131 A 
ATOM     58  C   UNL A   1      36.505  31.434  30.748  1.00  0.00     0.055 A 
ATOM     59  C   UNL A   1      37.273  30.450  32.803  1.00  0.00     0.041 A 
ATOM     60  F   UNL A   1      39.380  29.430  32.888  1.00  0.00    -0.206 F 
ATOM     61  C   UNL A   1      36.302  31.159  32.104  1.00  0.00     0.022 A 
BRANCH  58  62
ATOM     62  S   UNL A   1      35.355  32.523  29.863  1.00  0.00     0.124 S 
ATOM     63  O   UNL A   1      36.209  33.670  29.561  1.00  0.00    -0.237 OA
ATOM     64  O   UNL A   1      34.959  31.704  28.723  1.00  0.00    -0.237 OA
ATOM     65  O   UNL A   1      34.302  32.780  30.843  1.00  0.00    -0.744 OA
ENDBRANCH  58  62
ENDBRANCH  41  55
BRANCH  42  66
ATOM     66  C   UNL A   1      46.960  27.147  26.135  1.00  0.00     0.023 A 
ATOM     67  C   UNL A   1      48.021  26.507  26.794  1.00  0.00     0.031 A 
ATOM     68  C   UNL A   1      47.094  27.403  24.758  1.00  0.00     0.131 A 
ATOM     69  C   UNL A   1      49.185  26.176  26.083  1.00  0.00     0.055 A 
ATOM     70  C   UNL A   1      48.234  27.029  24.047  1.00  0.00     0.041 A 
ATOM     71  F   UNL A   1      46.108  28.014  24.082  1.00  0.00    -0.206 F 
ATOM     72  C   UNL A   1      49.294  26.422  24.713  1.00  0.00     0.022 A 
BRANCH  69  73
ATOM     73  S   UNL A   1      50.592  25.481  26.994  1.00  0.00     0.124 S 
ATOM     74  O   UNL A   1      51.538  25.210  25.918  1.00  0.00    -0.237 OA
ATOM     75  O   UNL A   1      50.940  26.576  27.894  1.00  0.00    -0.237 OA
ATOM     76  O   UNL A   1      50.027  24.301  27.643  1.00  0.00    -0.744 OA
ENDBRANCH  69  73
ENDBRANCH  42  66
BRANCH  54  77
ATOM     77  C   UNL A   1      45.229  33.042  29.426  1.00  0.00     0.023 A 
ATOM     78  C   UNL A   1      45.257  34.113  28.518  1.00  0.00     0.031 A 
ATOM     79  C   UNL A   1      45.967  33.161  30.617  1.00  0.00     0.131 A 
ATOM     80  C   UNL A   1      46.048  35.239  28.792  1.00  0.00     0.055 A 
ATOM     81  C   UNL A   1      46.711  34.305  30.908  1.00  0.00     0.041 A 
ATOM     82  F   UNL A   1      45.976  32.165  31.518  1.00  0.00    -0.206 F 
ATOM     83  C   UNL A   1      46.764  35.347  29.987  1.00  0.00     0.022 A 
BRANCH  80  84
ATOM     84  S   UNL A   1      46.196  36.531  27.526  1.00  0.00     0.124 S 
ATOM     85  O   UNL A   1      46.718  35.781  26.387  1.00  0.00    -0.237 OA
ATOM     86  O   UNL A   1      44.822  37.006  27.401  1.00  0.00    -0.237 OA
ATOM     87  O   UNL A   1      47.129  37.487  28.119  1.00  0.00    -0.744 OA
ENDBRANCH  80  84
ENDBRANCH  54  77
ENDBRANCH  28  29
ENDBRANCH  21  23
ENDBRANCH  20  21
ENDBRANCH  19  20
ENDBRANCH   1  19
TORSDOF 17
ENDMDL
MODEL 2
REMARK VINA RESULT:     -10.9      1.812      2.239
REMARK SMILES CC(C)CN(C)C(=O)N1CCC(C(=O)OCCOC(=O)c2ccc(-c3c4nc(c(-c5cc(S(=O)(=O)[O-])ccc5F)c5ccc([nH]5)c(-c5cc(S(=O)(=O)[O-])ccc5F)c5nc(c(-c6cc(S(=O)(=O)[O-])ccc6F)c6ccc3[nH]6)C=C5)C=C4)cc2)CC1
REMARK SMILES IDX 16 1 15 2 13 3 14 4 12 5 7 6 8 7 9 8 10 9 85 10 11 11 84 12
REMARK SMILES IDX 5 13 6 14 4 15 2 16 1 17 3 18 17 19 18 20 19 21 20 22 21 23
REMARK SMILES IDX 22 24 83 25 23 26 82 27 24 28 25 29 26 30 76 31 27 32 81 33
REMARK SMILES IDX 75 34 77 35 28 36 80 37 74 38 73 39 29 41 61 42 41 43 60 44
REMARK SMILES IDX 42 45 45 46 59 47 78 48 43 49 44 50 58 52 79 53 46 54 30 55
REMARK SMILES IDX 31 56 39 57 32 58 38 59 40 60 37 61 33 62 34 63 35 64 36 65
REMARK SMILES IDX 62 66 63 67 71 68 64 69 70 70 72 71 69 72 65 73 66 74 67 75
REMARK SMILES IDX 68 76 47 77 48 78 56 79 49 80 55 81 57 82 54 83 50 84 51 85
REMARK SMILES IDX 52 86 53 87
REMARK H PARENT 77 40 45 51
REMARK Flexibility Score: inf
ROOT
ATOM      1  C   UNL A   1      35.428  20.194  24.992  1.00  0.00     0.274 C 
ENDROOT
BRANCH   1   2
ATOM      2  O   UNL A   1      34.119  20.116  25.585  1.00  0.00    -0.462 OA
BRANCH   2   3
ATOM      3  C   UNL A   1      33.079  20.497  24.803  1.00  0.00     0.309 C 
ATOM      4  O   UNL A   1      32.075  19.824  24.599  1.00  0.00    -0.252 OA
BRANCH   3   5
ATOM      5  C   UNL A   1      33.268  21.868  24.184  1.00  0.00     0.103 C 
ATOM      6  C   UNL A   1      31.375  25.211  23.405  1.00  0.00     0.319 C 
ATOM      7  O   UNL A   1      30.316  24.638  23.148  1.00  0.00    -0.248 OA
ATOM      8  N   UNL A   1      32.574  24.531  23.386  1.00  0.00    -0.325 N 
ATOM      9  C   UNL A   1      32.758  23.508  22.367  1.00  0.00     0.122 C 
ATOM     10  C   UNL A   1      33.327  24.340  24.620  1.00  0.00     0.122 C 
ATOM     11  C   UNL A   1      32.445  22.124  22.917  1.00  0.00     0.037 C 
ATOM     12  C   UNL A   1      33.022  22.967  25.222  1.00  0.00     0.037 C 
BRANCH   6  13
ATOM     13  N   UNL A   1      31.451  26.575  23.646  1.00  0.00    -0.327 N 
ATOM     14  C   UNL A   1      31.977  27.552  22.701  1.00  0.00     0.148 C 
BRANCH  13  15
ATOM     15  C   UNL A   1      30.826  27.097  24.858  1.00  0.00     0.124 C 
BRANCH  15  16
ATOM     16  C   UNL A   1      31.763  28.030  25.660  1.00  0.00     0.002 C 
ATOM     17  C   UNL A   1      31.553  29.509  25.327  1.00  0.00     0.009 C 
ATOM     18  C   UNL A   1      31.554  27.811  27.158  1.00  0.00     0.009 C 
ENDBRANCH  15  16
ENDBRANCH  13  15
ENDBRANCH   6  13
ENDBRANCH   3   5
ENDBRANCH   2   3
ENDBRANCH   1   2
BRANCH   1  19
ATOM     19  C   UNL A   1      36.316  21.189  25.741  1.00  0.00     0.275 C 
BRANCH  19  20
ATOM     20  O   UNL A   1      37.549  21.438  25.039  1.00  0.00    -0.458 OA
BRANCH  20  21
ATOM     21  C   UNL A   1      38.669  21.098  25.722  1.00  0.00     0.338 C 
ATOM     22  O   UNL A   1      39.177  19.994  25.799  1.00  0.00    -0.246 OA
BRANCH  21  23
ATOM     23  C   UNL A   1      39.295  22.301  26.294  1.00  0.00     0.060 A 
ATOM     24  C   UNL A   1      38.819  23.547  25.879  1.00  0.00     0.016 A 
ATOM     25  C   UNL A   1      40.402  22.212  27.139  1.00  0.00     0.016 A 
ATOM     26  C   UNL A   1      39.445  24.715  26.304  1.00  0.00     0.010 A 
ATOM     27  C   UNL A   1      41.036  23.386  27.561  1.00  0.00     0.010 A 
ATOM     28  C   UNL A   1      40.569  24.643  27.136  1.00  0.00    -0.014 A 
BRANCH  28  29
ATOM     29  C   UNL A   1      41.299  25.885  27.487  1.00  0.00     0.031 A 
ATOM     30  C   UNL A   1      40.623  26.928  28.333  1.00  0.00     0.074 A 
ATOM     31  C   UNL A   1      42.569  26.061  27.078  1.00  0.00     0.049 A 
ATOM     32  N   UNL A   1      41.045  28.115  28.682  1.00  0.00    -0.248 NA
ATOM     33  C   UNL A   1      39.292  26.583  28.851  1.00  0.00     0.031 C 
ATOM     34  C   UNL A   1      43.346  25.092  26.304  1.00  0.00     0.029 A 
ATOM     35  N   UNL A   1      43.428  27.116  27.254  1.00  0.00    -0.354 N 
ATOM     36  C   UNL A   1      40.025  28.670  29.447  1.00  0.00     0.074 A 
ATOM     37  C   UNL A   1      38.955  27.694  29.490  1.00  0.00     0.031 C 
ATOM     38  C   UNL A   1      44.567  25.601  26.068  1.00  0.00     0.029 A 
ATOM     39  C   UNL A   1      44.640  26.948  26.627  1.00  0.00     0.049 A 
ATOM     40  H   UNL A   1      43.199  27.917  27.778  1.00  0.00     0.167 HD
ATOM     41  C   UNL A   1      39.987  29.882  30.056  1.00  0.00     0.034 A 
ATOM     42  C   UNL A   1      45.678  27.797  26.491  1.00  0.00     0.034 A 
ATOM     43  C   UNL A   1      41.063  30.843  30.001  1.00  0.00     0.049 A 
ATOM     44  C   UNL A   1      45.584  29.167  27.113  1.00  0.00     0.074 A 
ATOM     45  C   UNL A   1      41.133  32.099  30.578  1.00  0.00     0.029 A 
ATOM     46  N   UNL A   1      42.261  30.655  29.320  1.00  0.00    -0.354 N 
ATOM     47  N   UNL A   1      44.602  29.694  27.808  1.00  0.00    -0.248 NA
ATOM     48  C   UNL A   1      46.738  30.057  26.931  1.00  0.00     0.031 C 
ATOM     49  C   UNL A   1      42.343  32.691  30.200  1.00  0.00     0.029 A 
ATOM     50  C   UNL A   1      43.062  31.780  29.443  1.00  0.00     0.049 A 
ATOM     51  H   UNL A   1      42.505  29.840  28.825  1.00  0.00     0.167 HD
ATOM     52  C   UNL A   1      45.031  30.969  28.164  1.00  0.00     0.074 A 
ATOM     53  C   UNL A   1      46.364  31.125  27.619  1.00  0.00     0.031 C 
ATOM     54  C   UNL A   1      44.384  31.924  28.880  1.00  0.00     0.034 A 
BRANCH  41  55
ATOM     55  C   UNL A   1      38.714  30.252  30.777  1.00  0.00     0.023 A 
ATOM     56  C   UNL A   1      37.662  30.922  30.130  1.00  0.00     0.031 A 
ATOM     57  C   UNL A   1      38.570  29.964  32.146  1.00  0.00     0.131 A 
ATOM     58  C   UNL A   1      36.544  31.345  30.867  1.00  0.00     0.055 A 
ATOM     59  C   UNL A   1      37.423  30.322  32.857  1.00  0.00     0.041 A 
ATOM     60  F   UNL A   1      39.552  29.346  32.821  1.00  0.00    -0.206 F 
ATOM     61  C   UNL A   1      36.407  31.029  32.221  1.00  0.00     0.022 A 
BRANCH  58  62
ATOM     62  S   UNL A   1      35.335  32.433  30.064  1.00  0.00     0.124 S 
ATOM     63  O   UNL A   1      36.159  33.590  29.721  1.00  0.00    -0.237 OA
ATOM     64  O   UNL A   1      34.876  31.621  28.942  1.00  0.00    -0.237 OA
ATOM     65  O   UNL A   1      34.341  32.673  31.108  1.00  0.00    -0.744 OA
ENDBRANCH  58  62
ENDBRANCH  41  55
BRANCH  42  66
ATOM     66  C   UNL A   1      46.870  27.404  25.688  1.00  0.00     0.023 A 
ATOM     67  C   UNL A   1      47.005  27.792  24.346  1.00  0.00     0.031 A 
ATOM     68  C   UNL A   1      47.877  26.596  26.247  1.00  0.00     0.131 A 
ATOM     69  C   UNL A   1      48.103  27.343  23.596  1.00  0.00     0.055 A 
ATOM     70  C   UNL A   1      48.991  26.191  25.511  1.00  0.00     0.041 A 
ATOM     71  F   UNL A   1      47.795  26.197  27.525  1.00  0.00    -0.206 F 
ATOM     72  C   UNL A   1      49.102  26.556  24.172  1.00  0.00     0.022 A 
BRANCH  69  73
ATOM     73  S   UNL A   1      48.172  27.744  21.829  1.00  0.00     0.124 S 
ATOM     74  O   UNL A   1      46.875  28.378  21.616  1.00  0.00    -0.237 OA
ATOM     75  O   UNL A   1      49.335  28.624  21.763  1.00  0.00    -0.237 OA
ATOM     76  O   UNL A   1      48.343  26.441  21.190  1.00  0.00    -0.744 OA
ENDBRANCH  69  73
ENDBRANCH  42  66
BRANCH  54  77
ATOM     77  C   UNL A   1      45.138  33.203  29.145  1.00  0.00     0.023 A 
ATOM     78  C   UNL A   1      45.053  34.304  28.277  1.00  0.00     0.031 A 
ATOM     79  C   UNL A   1      45.968  33.310  30.275  1.00  0.00     0.131 A 
ATOM     80  C   UNL A   1      45.826  35.449  28.526  1.00  0.00     0.055 A 
ATOM     81  C   UNL A   1      46.694  34.470  30.546  1.00  0.00     0.041 A 
ATOM     82  F   UNL A   1      46.086  32.285  31.136  1.00  0.00    -0.206 F 
ATOM     83  C   UNL A   1      46.635  35.543  29.661  1.00  0.00     0.022 A 
BRANCH  80  84
ATOM     84  S   UNL A   1      45.824  36.786  27.300  1.00  0.00     0.124 S 
ATOM     85  O   UNL A   1      44.396  36.993  27.079  1.00  0.00    -0.237 OA
ATOM     86  O   UNL A   1      46.522  37.858  28.004  1.00  0.00    -0.237 OA
ATOM     87  O   UNL A   1      46.550  36.215  26.168  1.00  0.00    -0.744 OA
ENDBRANCH  80  84
ENDBRANCH  54  77
ENDBRANCH  28  29
ENDBRANCH  21  23
ENDBRANCH  20  21
ENDBRANCH  19  20
ENDBRANCH   1  19
TORSDOF 17
ENDMDL
MODEL 3
REMARK VINA RESULT:     -10.7      1.760      7.929
REMARK SMILES CC(C)CN(C)C(=O)N1CCC(C(=O)OCCOC(=O)c2ccc(-c3c4nc(c(-c5cc(S(=O)(=O)[O-])ccc5F)c5ccc([nH]5)c(-c5cc(S(=O)(=O)[O-])ccc5F)c5nc(c(-c6cc(S(=O)(=O)[O-])ccc6F)c6ccc3[nH]6)C=C5)C=C4)cc2)CC1
REMARK SMILES IDX 16 1 15 2 13 3 14 4 12 5 7 6 8 7 9 8 10 9 85 10 11 11 84 12
REMARK SMILES IDX 5 13 6 14 4 15 2 16 1 17 3 18 17 19 18 20 19 21 20 22 21 23
REMARK SMILES IDX 22 24 83 25 23 26 82 27 24 28 25 29 26 30 76 31 27 32 81 33
REMARK SMILES IDX 75 34 77 35 28 36 80 37 74 38 73 39 29 41 61 42 41 43 60 44
REMARK SMILES IDX 42 45 45 46 59 47 78 48 43 49 44 50 58 52 79 53 46 54 30 55
REMARK SMILES IDX 31 56 39 57 32 58 38 59 40 60 37 61 33 62 34 63 35 64 36 65
REMARK SMILES IDX 62 66 63 67 71 68 64 69 70 70 72 71 69 72 65 73 66 74 67 75
REMARK SMILES IDX 68 76 47 77 48 78 56 79 49 80 55 81 57 82 54 83 50 84 51 85
REMARK SMILES IDX 52 86 53 87
REMARK H PARENT 77 40 45 51
REMARK Flexibility Score: inf
ROOT
ATOM      1  C   UNL A   1      36.062  19.944  24.962  1.00  0.00     0.274 C 
ENDROOT
BRANCH   1   2
ATOM      2  O   UNL A   1      35.467  21.171  25.421  1.00  0.00    -0.462 OA
BRANCH   2   3
ATOM      3  C   UNL A   1      34.310  21.543  24.818  1.00  0.00     0.309 C 
ATOM      4  O   UNL A   1      33.308  20.843  24.737  1.00  0.00    -0.252 OA
BRANCH   3   5
ATOM      5  C   UNL A   1      34.365  22.941  24.234  1.00  0.00     0.103 C 
ATOM      6  C   UNL A   1      32.226  26.190  23.752  1.00  0.00     0.319 C 
ATOM      7  O   UNL A   1      31.181  25.564  23.573  1.00  0.00    -0.248 OA
ATOM      8  N   UNL A   1      33.454  25.582  23.599  1.00  0.00    -0.325 N 
ATOM      9  C   UNL A   1      33.598  24.603  22.531  1.00  0.00     0.122 C 
ATOM     10  C   UNL A   1      34.328  25.398  24.751  1.00  0.00     0.122 C 
ATOM     11  C   UNL A   1      33.415  23.187  23.057  1.00  0.00     0.037 C 
ATOM     12  C   UNL A   1      34.156  23.991  25.329  1.00  0.00     0.037 C 
BRANCH   6  13
ATOM     13  N   UNL A   1      32.248  27.547  24.034  1.00  0.00    -0.327 N 
ATOM     14  C   UNL A   1      32.917  28.550  23.214  1.00  0.00     0.148 C 
BRANCH  13  15
ATOM     15  C   UNL A   1      31.424  28.037  25.135  1.00  0.00     0.124 C 
BRANCH  15  16
ATOM     16  C   UNL A   1      32.262  28.567  26.321  1.00  0.00     0.002 C 
ATOM     17  C   UNL A   1      32.420  30.090  26.301  1.00  0.00     0.009 C 
ATOM     18  C   UNL A   1      31.623  28.140  27.642  1.00  0.00     0.009 C 
ENDBRANCH  15  16
ENDBRANCH  13  15
ENDBRANCH   6  13
ENDBRANCH   3   5
ENDBRANCH   2   3
ENDBRANCH   1   2
BRANCH   1  19
ATOM     19  C   UNL A   1      37.590  20.033  24.974  1.00  0.00     0.275 C 
BRANCH  19  20
ATOM     20  O   UNL A   1      38.052  21.191  25.694  1.00  0.00    -0.458 OA
BRANCH  20  21
ATOM     21  C   UNL A   1      39.303  21.081  26.204  1.00  0.00     0.338 C 
ATOM     22  O   UNL A   1      40.020  20.096  26.186  1.00  0.00    -0.246 OA
BRANCH  21  23
ATOM     23  C   UNL A   1      39.760  22.387  26.703  1.00  0.00     0.060 A 
ATOM     24  C   UNL A   1      39.222  23.536  26.119  1.00  0.00     0.016 A 
ATOM     25  C   UNL A   1      40.780  22.486  27.651  1.00  0.00     0.016 A 
ATOM     26  C   UNL A   1      39.698  24.795  26.478  1.00  0.00     0.010 A 
ATOM     27  C   UNL A   1      41.263  23.750  28.007  1.00  0.00     0.010 A 
ATOM     28  C   UNL A   1      40.734  24.910  27.412  1.00  0.00    -0.014 A 
BRANCH  28  29
ATOM     29  C   UNL A   1      41.314  26.245  27.699  1.00  0.00     0.031 A 
ATOM     30  C   UNL A   1      42.702  26.567  27.223  1.00  0.00     0.074 A 
ATOM     31  C   UNL A   1      40.587  27.171  28.352  1.00  0.00     0.049 A 
ATOM     32  N   UNL A   1      43.427  27.634  27.438  1.00  0.00    -0.248 NA
ATOM     33  C   UNL A   1      43.360  25.546  26.395  1.00  0.00     0.031 C 
ATOM     34  C   UNL A   1      39.208  26.991  28.807  1.00  0.00     0.029 A 
ATOM     35  N   UNL A   1      40.907  28.445  28.746  1.00  0.00    -0.354 N 
ATOM     36  C   UNL A   1      44.636  27.409  26.788  1.00  0.00     0.074 A 
ATOM     37  C   UNL A   1      44.551  26.092  26.191  1.00  0.00     0.031 C 
ATOM     38  C   UNL A   1      38.803  28.114  29.425  1.00  0.00     0.029 A 
ATOM     39  C   UNL A   1      39.907  29.069  29.452  1.00  0.00     0.049 A 
ATOM     40  H   UNL A   1      41.771  28.871  28.543  1.00  0.00     0.167 HD
ATOM     41  C   UNL A   1      45.714  28.227  26.700  1.00  0.00     0.034 A 
ATOM     42  C   UNL A   1      39.895  30.262  30.080  1.00  0.00     0.034 A 
ATOM     43  C   UNL A   1      45.781  29.536  27.304  1.00  0.00     0.049 A 
ATOM     44  C   UNL A   1      41.131  31.123  30.032  1.00  0.00     0.074 A 
ATOM     45  C   UNL A   1      46.822  30.449  27.279  1.00  0.00     0.029 A 
ATOM     46  N   UNL A   1      44.763  30.120  28.049  1.00  0.00    -0.354 N 
ATOM     47  N   UNL A   1      42.280  30.887  29.441  1.00  0.00    -0.248 NA
ATOM     48  C   UNL A   1      41.069  32.410  30.736  1.00  0.00     0.031 C 
ATOM     49  C   UNL A   1      46.456  31.555  28.055  1.00  0.00     0.029 A 
ATOM     50  C   UNL A   1      45.161  31.366  28.509  1.00  0.00     0.049 A 
ATOM     51  H   UNL A   1      43.886  29.708  28.223  1.00  0.00     0.167 HD
ATOM     52  C   UNL A   1      43.069  32.007  29.685  1.00  0.00     0.074 A 
ATOM     53  C   UNL A   1      42.260  32.922  30.464  1.00  0.00     0.031 C 
ATOM     54  C   UNL A   1      44.346  32.259  29.298  1.00  0.00     0.034 A 
BRANCH  41  55
ATOM     55  C   UNL A   1      46.927  27.694  25.976  1.00  0.00     0.023 A 
ATOM     56  C   UNL A   1      47.182  28.002  24.629  1.00  0.00     0.031 A 
ATOM     57  C   UNL A   1      47.818  26.829  26.635  1.00  0.00     0.131 A 
ATOM     58  C   UNL A   1      48.260  27.395  23.965  1.00  0.00     0.055 A 
ATOM     59  C   UNL A   1      48.931  26.286  25.990  1.00  0.00     0.041 A 
ATOM     60  F   UNL A   1      47.612  26.481  27.915  1.00  0.00    -0.206 F 
ATOM     61  C   UNL A   1      49.150  26.557  24.642  1.00  0.00     0.022 A 
BRANCH  58  62
ATOM     62  S   UNL A   1      48.404  27.606  22.169  1.00  0.00     0.124 S 
ATOM     63  O   UNL A   1      49.557  28.498  22.068  1.00  0.00    -0.237 OA
ATOM     64  O   UNL A   1      48.613  26.238  21.706  1.00  0.00    -0.237 OA
ATOM     65  O   UNL A   1      47.127  28.205  21.789  1.00  0.00    -0.744 OA
ENDBRANCH  58  62
ENDBRANCH  41  55
BRANCH  42  66
ATOM     66  C   UNL A   1      38.697  30.691  30.856  1.00  0.00     0.023 A 
ATOM     67  C   UNL A   1      37.722  31.527  30.289  1.00  0.00     0.031 A 
ATOM     68  C   UNL A   1      38.533  30.300  32.198  1.00  0.00     0.131 A 
ATOM     69  C   UNL A   1      36.646  31.974  31.071  1.00  0.00     0.055 A 
ATOM     70  C   UNL A   1      37.436  30.708  32.957  1.00  0.00     0.041 A 
ATOM     71  F   UNL A   1      39.438  29.502  32.787  1.00  0.00    -0.206 F 
ATOM     72  C   UNL A   1      36.490  31.560  32.396  1.00  0.00     0.022 A 
BRANCH  69  73
ATOM     73  S   UNL A   1      35.484  33.166  30.351  1.00  0.00     0.124 S 
ATOM     74  O   UNL A   1      34.527  32.287  29.689  1.00  0.00    -0.237 OA
ATOM     75  O   UNL A   1      34.998  33.868  31.535  1.00  0.00    -0.237 OA
ATOM     76  O   UNL A   1      36.323  33.962  29.458  1.00  0.00    -0.744 OA
ENDBRANCH  69  73
ENDBRANCH  42  66
BRANCH  54  77
ATOM     77  C   UNL A   1      44.920  33.600  29.680  1.00  0.00     0.023 A 
ATOM     78  C   UNL A   1      44.721  34.743  28.886  1.00  0.00     0.031 A 
ATOM     79  C   UNL A   1      45.692  33.729  30.848  1.00  0.00     0.131 A 
ATOM     80  C   UNL A   1      45.331  35.955  29.243  1.00  0.00     0.055 A 
ATOM     81  C   UNL A   1      46.253  34.950  31.226  1.00  0.00     0.041 A 
ATOM     82  F   UNL A   1      45.914  32.668  31.641  1.00  0.00    -0.206 F 
ATOM     83  C   UNL A   1      46.084  36.068  30.415  1.00  0.00     0.022 A 
BRANCH  80  84
ATOM     84  S   UNL A   1      45.195  37.367  28.112  1.00  0.00     0.124 S 
ATOM     85  O   UNL A   1      44.636  36.744  26.916  1.00  0.00    -0.237 OA
ATOM     86  O   UNL A   1      44.305  38.266  28.839  1.00  0.00    -0.237 OA
ATOM     87  O   UNL A   1      46.574  37.834  27.980  1.00  0.00    -0.744 OA
ENDBRANCH  80  84
ENDBRANCH  54  77
ENDBRANCH  28  29
ENDBRANCH  21  23
ENDBRANCH  20  21
ENDBRANCH  19  20
ENDBRANCH   1  19
TORSDOF 17
ENDMDL
