MODEL 1
REMARK VINA RESULT:     -12.1      0.000      0.000
REMARK SMILES CC(C)N(c1cc2c(cc1Cl)C=C(C(=O)OCCOC(=O)c1ccc(-c3c4nc(c(-c5cc(S(=O)(=O)[O-])ccc5F)c5ccc([nH]5)c(-c5cc(S(=O)(=O)[O-])ccc5F)c5nc(c(-c6cc(S(=O)(=O)[O-])ccc6F)c6ccc3[nH]6)C=C5)C=C4)cc1)[C@@H](C(F)(F)F)O2)C(C)C
REMARK SMILES IDX 18 1 17 2 16 3 14 4 15 5 13 6 5 7 6 8 10 9 7 10 9 11 11 12
REMARK SMILES IDX 8 13 90 14 12 15 85 16 4 17 2 18 1 19 3 20 91 21 92 22 93 23
REMARK SMILES IDX 86 24 87 25 88 26 89 27 19 28 20 29 21 30 22 31 23 32 84 33
REMARK SMILES IDX 24 34 83 35 25 36 26 37 27 38 77 39 28 40 82 41 76 42 78 43
REMARK SMILES IDX 29 44 81 45 75 46 74 47 30 49 62 50 42 51 61 52 43 53 46 54
REMARK SMILES IDX 60 55 79 56 44 57 45 58 59 60 80 61 47 62 31 63 32 64 40 65
REMARK SMILES IDX 33 66 39 67 41 68 38 69 34 70 35 71 36 72 37 73 63 74 64 75
REMARK SMILES IDX 72 76 65 77 71 78 73 79 70 80 66 81 67 82 68 83 69 84 48 85
REMARK SMILES IDX 49 86 57 87 50 88 56 89 58 90 55 91 51 92 52 93 53 94 54 95
REMARK H PARENT 78 48 46 59
REMARK Flexibility Score: inf
ROOT
ATOM      1  C   UNL A   1      37.591  20.674  24.825  1.00  0.00     0.275 C 
ENDROOT
BRANCH   1   2
ATOM      2  C   UNL A   1      36.169  20.405  25.319  1.00  0.00     0.275 C 
BRANCH   2   3
ATOM      3  O   UNL A   1      35.182  20.766  24.326  1.00  0.00    -0.459 OA
BRANCH   3   4
ATOM      4  C   UNL A   1      33.895  20.598  24.707  1.00  0.00     0.338 C 
ATOM      5  O   UNL A   1      33.346  19.535  24.956  1.00  0.00    -0.246 OA
BRANCH   4   6
ATOM      6  C   UNL A   1      33.206  21.897  24.831  1.00  0.00     0.087 C 
ATOM      7  C   UNL A   1      32.031  26.789  24.313  1.00  0.00     0.060 A 
ATOM      8  C   UNL A   1      31.704  25.775  25.252  1.00  0.00     0.074 A 
ATOM      9  C   UNL A   1      32.795  26.396  23.191  1.00  0.00     0.065 A 
ATOM     10  C   UNL A   1      32.148  24.457  25.111  1.00  0.00     0.130 A 
ATOM     11  C   UNL A   1      33.189  25.068  23.022  1.00  0.00     0.034 A 
ATOM     12  Cl  UNL A   1      33.426  27.496  22.013  1.00  0.00    -0.082 Cl
ATOM     13  C   UNL A   1      32.887  24.114  23.990  1.00  0.00     0.019 A 
ATOM     14  O   UNL A   1      31.828  23.563  26.098  1.00  0.00    -0.475 OA
ATOM     15  C   UNL A   1      33.405  22.776  23.845  1.00  0.00     0.027 C 
ATOM     16  C   UNL A   1      32.469  22.246  26.090  1.00  0.00     0.316 C 
BRANCH   7  17
ATOM     17  N   UNL A   1      31.615  28.116  24.559  1.00  0.00    -0.365 N 
BRANCH  17  18
ATOM     18  C   UNL A   1      32.449  28.938  25.467  1.00  0.00     0.076 C 
ATOM     19  C   UNL A   1      31.822  29.103  26.851  1.00  0.00     0.030 C 
ATOM     20  C   UNL A   1      33.893  28.455  25.589  1.00  0.00     0.030 C 
ENDBRANCH  17  18
BRANCH  17  21
ATOM     21  C   UNL A   1      30.379  28.546  23.874  1.00  0.00     0.076 C 
ATOM     22  C   UNL A   1      30.641  29.447  22.671  1.00  0.00     0.030 C 
ATOM     23  C   UNL A   1      29.461  27.383  23.516  1.00  0.00     0.030 C 
ENDBRANCH  17  21
ENDBRANCH   7  17
BRANCH  16  24
ATOM     24  C   UNL A   1      33.391  22.127  27.316  1.00  0.00     0.430 C 
ATOM     25  F   UNL A   1      34.569  22.766  27.114  1.00  0.00    -0.167 F 
ATOM     26  F   UNL A   1      32.834  22.699  28.413  1.00  0.00    -0.167 F 
ATOM     27  F   UNL A   1      33.674  20.844  27.630  1.00  0.00    -0.167 F 
ENDBRANCH  16  24
ENDBRANCH   4   6
ENDBRANCH   3   4
ENDBRANCH   2   3
ENDBRANCH   1   2
BRANCH   1  28
ATOM     28  O   UNL A   1      38.159  21.806  25.508  1.00  0.00    -0.458 OA
BRANCH  28  29
ATOM     29  C   UNL A   1      39.296  21.555  26.197  1.00  0.00     0.338 C 
ATOM     30  O   UNL A   1      39.921  20.510  26.233  1.00  0.00    -0.246 OA
BRANCH  29  31
ATOM     31  C   UNL A   1      39.754  22.787  26.856  1.00  0.00     0.060 A 
ATOM     32  C   UNL A   1      40.843  22.793  27.717  1.00  0.00     0.016 A 
ATOM     33  C   UNL A   1      39.169  23.986  26.471  1.00  0.00     0.016 A 
ATOM     34  C   UNL A   1      41.327  24.019  28.193  1.00  0.00     0.010 A 
ATOM     35  C   UNL A   1      39.759  25.201  26.801  1.00  0.00     0.010 A 
ATOM     36  C   UNL A   1      40.823  25.245  27.706  1.00  0.00    -0.014 A 
BRANCH  36  37
ATOM     37  C   UNL A   1      41.392  26.560  28.140  1.00  0.00     0.031 A 
ATOM     38  C   UNL A   1      42.809  26.958  27.783  1.00  0.00     0.074 A 
ATOM     39  C   UNL A   1      40.646  27.391  28.899  1.00  0.00     0.049 A 
ATOM     40  N   UNL A   1      43.446  28.069  28.060  1.00  0.00    -0.248 NA
ATOM     41  C   UNL A   1      43.637  25.973  27.067  1.00  0.00     0.031 C 
ATOM     42  C   UNL A   1      39.313  27.082  29.420  1.00  0.00     0.029 A 
ATOM     43  N   UNL A   1      40.886  28.666  29.353  1.00  0.00    -0.354 N 
ATOM     44  C   UNL A   1      44.743  27.899  27.578  1.00  0.00     0.074 A 
ATOM     45  C   UNL A   1      44.829  26.550  27.077  1.00  0.00     0.031 C 
ATOM     46  C   UNL A   1      38.821  28.161  30.044  1.00  0.00     0.029 A 
ATOM     47  C   UNL A   1      39.819  29.228  30.019  1.00  0.00     0.049 A 
ATOM     48  H   UNL A   1      41.741  29.134  29.216  1.00  0.00     0.167 HD
ATOM     49  C   UNL A   1      45.754  28.799  27.508  1.00  0.00     0.034 A 
ATOM     50  C   UNL A   1      39.647  30.464  30.533  1.00  0.00     0.034 A 
ATOM     51  C   UNL A   1      45.631  30.165  27.944  1.00  0.00     0.049 A 
ATOM     52  C   UNL A   1      40.751  31.478  30.373  1.00  0.00     0.074 A 
ATOM     53  C   UNL A   1      46.558  31.184  27.825  1.00  0.00     0.029 A 
ATOM     54  N   UNL A   1      44.515  30.708  28.562  1.00  0.00    -0.354 N 
ATOM     55  N   UNL A   1      41.923  31.334  29.799  1.00  0.00    -0.248 NA
ATOM     56  C   UNL A   1      40.514  32.826  30.911  1.00  0.00     0.031 C 
ATOM     57  C   UNL A   1      46.026  32.328  28.418  1.00  0.00     0.029 A 
ATOM     58  C   UNL A   1      44.737  32.045  28.844  1.00  0.00     0.049 A 
ATOM     59  H   UNL A   1      43.688  30.216  28.769  1.00  0.00     0.167 HD
ATOM     60  C   UNL A   1      42.551  32.574  29.888  1.00  0.00     0.074 A 
ATOM     61  C   UNL A   1      41.617  33.465  30.544  1.00  0.00     0.031 C 
ATOM     62  C   UNL A   1      43.790  32.935  29.472  1.00  0.00     0.034 A 
BRANCH  49  63
ATOM     63  C   UNL A   1      47.064  28.380  26.878  1.00  0.00     0.023 A 
ATOM     64  C   UNL A   1      47.171  28.246  25.481  1.00  0.00     0.031 A 
ATOM     65  C   UNL A   1      48.160  27.982  27.667  1.00  0.00     0.131 A 
ATOM     66  C   UNL A   1      48.333  27.700  24.920  1.00  0.00     0.055 A 
ATOM     67  C   UNL A   1      49.335  27.487  27.099  1.00  0.00     0.041 A 
ATOM     68  F   UNL A   1      48.109  28.076  29.005  1.00  0.00    -0.206 F 
ATOM     69  C   UNL A   1      49.419  27.330  25.720  1.00  0.00     0.022 A 
BRANCH  66  70
ATOM     70  S   UNL A   1      48.457  27.372  23.139  1.00  0.00     0.124 S 
ATOM     71  O   UNL A   1      49.792  27.884  22.832  1.00  0.00    -0.237 OA
ATOM     72  O   UNL A   1      48.320  25.919  23.087  1.00  0.00    -0.237 OA
ATOM     73  O   UNL A   1      47.353  28.132  22.564  1.00  0.00    -0.744 OA
ENDBRANCH  66  70
ENDBRANCH  49  63
BRANCH  50  74
ATOM     74  C   UNL A   1      38.330  30.821  31.145  1.00  0.00     0.023 A 
ATOM     75  C   UNL A   1      37.314  31.431  30.387  1.00  0.00     0.031 A 
ATOM     76  C   UNL A   1      38.120  30.670  32.527  1.00  0.00     0.131 A 
ATOM     77  C   UNL A   1      36.170  31.931  31.027  1.00  0.00     0.055 A 
ATOM     78  C   UNL A   1      36.945  31.102  33.148  1.00  0.00     0.041 A 
ATOM     79  F   UNL A   1      39.065  30.110  33.297  1.00  0.00    -0.206 F 
ATOM     80  C   UNL A   1      35.972  31.755  32.400  1.00  0.00     0.022 A 
BRANCH  77  81
ATOM     81  S   UNL A   1      34.975  32.959  30.128  1.00  0.00     0.124 S 
ATOM     82  O   UNL A   1      34.080  33.390  31.197  1.00  0.00    -0.237 OA
ATOM     83  O   UNL A   1      35.836  33.999  29.569  1.00  0.00    -0.237 OA
ATOM     84  O   UNL A   1      34.398  32.043  29.150  1.00  0.00    -0.744 OA
ENDBRANCH  77  81
ENDBRANCH  50  74
BRANCH  62  85
ATOM     85  C   UNL A   1      44.249  34.357  29.688  1.00  0.00     0.023 A 
ATOM     86  C   UNL A   1      44.014  35.327  28.694  1.00  0.00     0.031 A 
ATOM     87  C   UNL A   1      45.070  34.701  30.774  1.00  0.00     0.131 A 
ATOM     88  C   UNL A   1      44.642  36.577  28.779  1.00  0.00     0.055 A 
ATOM     89  C   UNL A   1      45.650  35.966  30.880  1.00  0.00     0.041 A 
ATOM     90  F   UNL A   1      45.335  33.807  31.740  1.00  0.00    -0.206 F 
ATOM     91  C   UNL A   1      45.452  36.904  29.870  1.00  0.00     0.022 A 
BRANCH  88  92
ATOM     92  S   UNL A   1      44.514  37.781  27.427  1.00  0.00     0.124 S 
ATOM     93  O   UNL A   1      44.526  39.050  28.151  1.00  0.00    -0.237 OA
ATOM     94  O   UNL A   1      45.717  37.497  26.649  1.00  0.00    -0.237 OA
ATOM     95  O   UNL A   1      43.252  37.449  26.776  1.00  0.00    -0.744 OA
ENDBRANCH  88  92
ENDBRANCH  62  85
ENDBRANCH  36  37
ENDBRANCH  29  31
ENDBRANCH  28  29
ENDBRANCH   1  28
TORSDOF 18
ENDMDL
MODEL 2
REMARK VINA RESULT:     -12.1      4.994     10.208
REMARK SMILES CC(C)N(c1cc2c(cc1Cl)C=C(C(=O)OCCOC(=O)c1ccc(-c3c4nc(c(-c5cc(S(=O)(=O)[O-])ccc5F)c5ccc([nH]5)c(-c5cc(S(=O)(=O)[O-])ccc5F)c5nc(c(-c6cc(S(=O)(=O)[O-])ccc6F)c6ccc3[nH]6)C=C5)C=C4)cc1)[C@@H](C(F)(F)F)O2)C(C)C
REMARK SMILES IDX 18 1 17 2 16 3 14 4 15 5 13 6 5 7 6 8 10 9 7 10 9 11 11 12
REMARK SMILES IDX 8 13 90 14 12 15 85 16 4 17 2 18 1 19 3 20 91 21 92 22 93 23
REMARK SMILES IDX 86 24 87 25 88 26 89 27 19 28 20 29 21 30 22 31 23 32 84 33
REMARK SMILES IDX 24 34 83 35 25 36 26 37 27 38 77 39 28 40 82 41 76 42 78 43
REMARK SMILES IDX 29 44 81 45 75 46 74 47 30 49 62 50 42 51 61 52 43 53 46 54
REMARK SMILES IDX 60 55 79 56 44 57 45 58 59 60 80 61 47 62 31 63 32 64 40 65
REMARK SMILES IDX 33 66 39 67 41 68 38 69 34 70 35 71 36 72 37 73 63 74 64 75
REMARK SMILES IDX 72 76 65 77 71 78 73 79 70 80 66 81 67 82 68 83 69 84 48 85
REMARK SMILES IDX 49 86 57 87 50 88 56 89 58 90 55 91 51 92 52 93 53 94 54 95
REMARK H PARENT 78 48 46 59
REMARK Flexibility Score: inf
ROOT
ATOM      1  C   UNL A   1      31.743  31.046  26.645  1.00  0.00     0.275 C 
ENDROOT
BRANCH   1   2
ATOM      2  C   UNL A   1      31.541  30.356  25.294  1.00  0.00     0.275 C 
BRANCH   2   3
ATOM      3  O   UNL A   1      31.303  28.939  25.450  1.00  0.00    -0.459 OA
BRANCH   3   4
ATOM      4  C   UNL A   1      30.758  28.325  24.375  1.00  0.00     0.338 C 
ATOM      5  O   UNL A   1      29.893  28.781  23.642  1.00  0.00    -0.246 OA
BRANCH   4   6
ATOM      6  C   UNL A   1      31.376  27.005  24.150  1.00  0.00     0.087 C 
ATOM      7  C   UNL A   1      33.700  22.582  24.938  1.00  0.00     0.060 A 
ATOM      8  C   UNL A   1      33.493  23.416  23.808  1.00  0.00     0.074 A 
ATOM      9  C   UNL A   1      33.073  22.974  26.143  1.00  0.00     0.065 A 
ATOM     10  C   UNL A   1      32.745  24.596  23.879  1.00  0.00     0.130 A 
ATOM     11  C   UNL A   1      32.280  24.121  26.198  1.00  0.00     0.034 A 
ATOM     12  Cl  UNL A   1      33.318  22.186  27.665  1.00  0.00    -0.082 Cl
ATOM     13  C   UNL A   1      32.141  24.937  25.078  1.00  0.00     0.019 A 
ATOM     14  O   UNL A   1      32.649  25.363  22.748  1.00  0.00    -0.475 OA
ATOM     15  C   UNL A   1      31.411  26.175  25.196  1.00  0.00     0.027 C 
ATOM     16  C   UNL A   1      32.071  26.705  22.855  1.00  0.00     0.316 C 
BRANCH   7  17
ATOM     17  N   UNL A   1      34.530  21.447  24.814  1.00  0.00    -0.365 N 
BRANCH  17  18
ATOM     18  C   UNL A   1      33.879  20.115  24.842  1.00  0.00     0.076 C 
ATOM     19  C   UNL A   1      32.681  20.029  23.897  1.00  0.00     0.030 C 
ATOM     20  C   UNL A   1      34.838  18.952  24.597  1.00  0.00     0.030 C 
ENDBRANCH  17  18
BRANCH  17  21
ATOM     21  C   UNL A   1      35.976  21.712  24.666  1.00  0.00     0.076 C 
ATOM     22  C   UNL A   1      36.305  22.600  23.470  1.00  0.00     0.030 C 
ATOM     23  C   UNL A   1      36.619  22.231  25.947  1.00  0.00     0.030 C 
ENDBRANCH  17  21
ENDBRANCH   7  17
BRANCH  16  24
ATOM     24  C   UNL A   1      33.165  27.748  22.566  1.00  0.00     0.430 C 
ATOM     25  F   UNL A   1      33.992  27.906  23.629  1.00  0.00    -0.167 F 
ATOM     26  F   UNL A   1      33.951  27.368  21.528  1.00  0.00    -0.167 F 
ATOM     27  F   UNL A   1      32.657  28.963  22.264  1.00  0.00    -0.167 F 
ENDBRANCH  16  24
ENDBRANCH   4   6
ENDBRANCH   3   4
ENDBRANCH   2   3
ENDBRANCH   1   2
BRANCH   1  28
ATOM     28  O   UNL A   1      33.038  30.734  27.186  1.00  0.00    -0.458 OA
BRANCH  28  29
ATOM     29  C   UNL A   1      33.776  31.800  27.572  1.00  0.00     0.338 C 
ATOM     30  O   UNL A   1      33.405  32.956  27.674  1.00  0.00    -0.246 OA
BRANCH  29  31
ATOM     31  C   UNL A   1      35.121  31.352  27.961  1.00  0.00     0.060 A 
ATOM     32  C   UNL A   1      36.167  32.249  28.140  1.00  0.00     0.016 A 
ATOM     33  C   UNL A   1      35.288  30.017  28.305  1.00  0.00     0.016 A 
ATOM     34  C   UNL A   1      37.382  31.781  28.659  1.00  0.00     0.010 A 
ATOM     35  C   UNL A   1      36.428  29.595  28.981  1.00  0.00     0.010 A 
ATOM     36  C   UNL A   1      37.517  30.458  29.132  1.00  0.00    -0.014 A 
BRANCH  36  37
ATOM     37  C   UNL A   1      38.782  29.973  29.769  1.00  0.00     0.031 A 
ATOM     38  C   UNL A   1      39.188  30.430  31.155  1.00  0.00     0.074 A 
ATOM     39  C   UNL A   1      39.600  29.147  29.083  1.00  0.00     0.049 A 
ATOM     40  N   UNL A   1      40.238  30.087  31.859  1.00  0.00    -0.248 NA
ATOM     41  C   UNL A   1      38.339  31.432  31.821  1.00  0.00     0.031 C 
ATOM     42  C   UNL A   1      39.396  28.727  27.695  1.00  0.00     0.029 A 
ATOM     43  N   UNL A   1      40.754  28.498  29.453  1.00  0.00    -0.354 N 
ATOM     44  C   UNL A   1      40.183  30.848  33.026  1.00  0.00     0.074 A 
ATOM     45  C   UNL A   1      39.053  31.734  32.894  1.00  0.00     0.031 C 
ATOM     46  C   UNL A   1      40.335  27.830  27.361  1.00  0.00     0.029 A 
ATOM     47  C   UNL A   1      41.245  27.646  28.489  1.00  0.00     0.049 A 
ATOM     48  H   UNL A   1      41.189  28.631  30.326  1.00  0.00     0.167 HD
ATOM     49  C   UNL A   1      40.967  30.780  34.129  1.00  0.00     0.034 A 
ATOM     50  C   UNL A   1      42.293  26.794  28.510  1.00  0.00     0.034 A 
ATOM     51  C   UNL A   1      42.046  29.839  34.277  1.00  0.00     0.049 A 
ATOM     52  C   UNL A   1      43.104  26.671  29.775  1.00  0.00     0.074 A 
ATOM     53  C   UNL A   1      42.836  29.617  35.391  1.00  0.00     0.029 A 
ATOM     54  N   UNL A   1      42.475  28.956  33.299  1.00  0.00    -0.354 N 
ATOM     55  N   UNL A   1      42.956  27.309  30.912  1.00  0.00    -0.248 NA
ATOM     56  C   UNL A   1      44.213  25.706  29.773  1.00  0.00     0.031 C 
ATOM     57  C   UNL A   1      43.776  28.639  35.069  1.00  0.00     0.029 A 
ATOM     58  C   UNL A   1      43.529  28.198  33.779  1.00  0.00     0.049 A 
ATOM     59  H   UNL A   1      42.088  28.879  32.397  1.00  0.00     0.167 HD
ATOM     60  C   UNL A   1      43.936  26.808  31.766  1.00  0.00     0.074 A 
ATOM     61  C   UNL A   1      44.652  25.792  31.023  1.00  0.00     0.031 C 
ATOM     62  C   UNL A   1      44.220  27.166  33.042  1.00  0.00     0.034 A 
BRANCH  49  63
ATOM     63  C   UNL A   1      40.662  31.686  35.301  1.00  0.00     0.023 A 
ATOM     64  C   UNL A   1      39.570  31.412  36.147  1.00  0.00     0.031 A 
ATOM     65  C   UNL A   1      41.364  32.890  35.497  1.00  0.00     0.131 A 
ATOM     66  C   UNL A   1      39.195  32.343  37.125  1.00  0.00     0.055 A 
ATOM     67  C   UNL A   1      41.019  33.789  36.507  1.00  0.00     0.041 A 
ATOM     68  F   UNL A   1      42.406  33.208  34.713  1.00  0.00    -0.206 F 
ATOM     69  C   UNL A   1      39.920  33.523  37.317  1.00  0.00     0.022 A 
BRANCH  66  70
ATOM     70  S   UNL A   1      37.708  32.100  38.137  1.00  0.00     0.124 S 
ATOM     71  O   UNL A   1      37.341  30.725  37.805  1.00  0.00    -0.237 OA
ATOM     72  O   UNL A   1      38.225  32.298  39.488  1.00  0.00    -0.237 OA
ATOM     73  O   UNL A   1      36.785  33.122  37.657  1.00  0.00    -0.744 OA
ENDBRANCH  66  70
ENDBRANCH  49  63
BRANCH  50  74
ATOM     74  C   UNL A   1      42.547  25.924  27.320  1.00  0.00     0.023 A 
ATOM     75  C   UNL A   1      42.044  24.611  27.255  1.00  0.00     0.031 A 
ATOM     76  C   UNL A   1      43.403  26.352  26.291  1.00  0.00     0.131 A 
ATOM     77  C   UNL A   1      42.459  23.755  26.225  1.00  0.00     0.055 A 
ATOM     78  C   UNL A   1      43.754  25.520  25.225  1.00  0.00     0.041 A 
ATOM     79  F   UNL A   1      43.923  27.589  26.316  1.00  0.00    -0.206 F 
ATOM     80  C   UNL A   1      43.297  24.207  25.200  1.00  0.00     0.022 A 
BRANCH  77  81
ATOM     81  S   UNL A   1      42.049  21.987  26.261  1.00  0.00     0.124 S 
ATOM     82  O   UNL A   1      42.472  21.605  27.605  1.00  0.00    -0.237 OA
ATOM     83  O   UNL A   1      40.605  22.011  26.037  1.00  0.00    -0.237 OA
ATOM     84  O   UNL A   1      42.836  21.429  25.167  1.00  0.00    -0.744 OA
ENDBRANCH  77  81
ENDBRANCH  50  74
BRANCH  62  85
ATOM     85  C   UNL A   1      45.348  26.469  33.764  1.00  0.00     0.023 A 
ATOM     86  C   UNL A   1      45.091  25.288  34.490  1.00  0.00     0.031 A 
ATOM     87  C   UNL A   1      46.613  27.065  33.888  1.00  0.00     0.131 A 
ATOM     88  C   UNL A   1      46.069  24.774  35.350  1.00  0.00     0.055 A 
ATOM     89  C   UNL A   1      47.602  26.518  34.707  1.00  0.00     0.041 A 
ATOM     90  F   UNL A   1      46.901  28.198  33.228  1.00  0.00    -0.206 F 
ATOM     91  C   UNL A   1      47.326  25.378  35.457  1.00  0.00     0.022 A 
BRANCH  88  92
ATOM     92  S   UNL A   1      45.710  23.368  36.439  1.00  0.00     0.124 S 
ATOM     93  O   UNL A   1      44.652  22.679  35.704  1.00  0.00    -0.237 OA
ATOM     94  O   UNL A   1      46.994  22.673  36.477  1.00  0.00    -0.237 OA
ATOM     95  O   UNL A   1      45.294  23.988  37.692  1.00  0.00    -0.744 OA
ENDBRANCH  88  92
ENDBRANCH  62  85
ENDBRANCH  36  37
ENDBRANCH  29  31
ENDBRANCH  28  29
ENDBRANCH   1  28
TORSDOF 18
ENDMDL
MODEL 3
REMARK VINA RESULT:     -12.0      1.308      1.830
REMARK SMILES CC(C)N(c1cc2c(cc1Cl)C=C(C(=O)OCCOC(=O)c1ccc(-c3c4nc(c(-c5cc(S(=O)(=O)[O-])ccc5F)c5ccc([nH]5)c(-c5cc(S(=O)(=O)[O-])ccc5F)c5nc(c(-c6cc(S(=O)(=O)[O-])ccc6F)c6ccc3[nH]6)C=C5)C=C4)cc1)[C@@H](C(F)(F)F)O2)C(C)C
REMARK SMILES IDX 18 1 17 2 16 3 14 4 15 5 13 6 5 7 6 8 10 9 7 10 9 11 11 12
REMARK SMILES IDX 8 13 90 14 12 15 85 16 4 17 2 18 1 19 3 20 91 21 92 22 93 23
REMARK SMILES IDX 86 24 87 25 88 26 89 27 19 28 20 29 21 30 22 31 23 32 84 33
REMARK SMILES IDX 24 34 83 35 25 36 26 37 27 38 77 39 28 40 82 41 76 42 78 43
REMARK SMILES IDX 29 44 81 45 75 46 74 47 30 49 62 50 42 51 61 52 43 53 46 54
REMARK SMILES IDX 60 55 79 56 44 57 45 58 59 60 80 61 47 62 31 63 32 64 40 65
REMARK SMILES IDX 33 66 39 67 41 68 38 69 34 70 35 71 36 72 37 73 63 74 64 75
REMARK SMILES IDX 72 76 65 77 71 78 73 79 70 80 66 81 67 82 68 83 69 84 48 85
REMARK SMILES IDX 49 86 57 87 50 88 56 89 58 90 55 91 51 92 52 93 53 94 54 95
REMARK H PARENT 78 48 46 59
REMARK Flexibility Score: inf
ROOT
ATOM      1  C   UNL A   1      38.009  20.250  24.783  1.00  0.00     0.275 C 
ENDROOT
BRANCH   1   2
ATOM      2  C   UNL A   1      36.531  19.918  25.000  1.00  0.00     0.275 C 
BRANCH   2   3
ATOM      3  O   UNL A   1      35.682  21.052  24.715  1.00  0.00    -0.459 OA
BRANCH   3   4
ATOM      4  C   UNL A   1      34.356  20.787  24.686  1.00  0.00     0.338 C 
ATOM      5  O   UNL A   1      33.841  19.680  24.622  1.00  0.00    -0.246 OA
BRANCH   4   6
ATOM      6  C   UNL A   1      33.565  22.027  24.785  1.00  0.00     0.087 C 
ATOM      7  C   UNL A   1      32.092  26.844  24.323  1.00  0.00     0.060 A 
ATOM      8  C   UNL A   1      31.747  25.770  25.186  1.00  0.00     0.074 A 
ATOM      9  C   UNL A   1      32.992  26.554  23.273  1.00  0.00     0.065 A 
ATOM     10  C   UNL A   1      32.298  24.493  25.044  1.00  0.00     0.130 A 
ATOM     11  C   UNL A   1      33.498  25.265  23.098  1.00  0.00     0.034 A 
ATOM     12  Cl  UNL A   1      33.657  27.745  22.207  1.00  0.00    -0.082 Cl
ATOM     13  C   UNL A   1      33.170  24.251  23.995  1.00  0.00     0.019 A 
ATOM     14  O   UNL A   1      31.947  23.537  25.960  1.00  0.00    -0.475 OA
ATOM     15  C   UNL A   1      33.798  22.960  23.857  1.00  0.00     0.027 C 
ATOM     16  C   UNL A   1      32.680  22.269  25.972  1.00  0.00     0.316 C 
BRANCH   7  17
ATOM     17  N   UNL A   1      31.556  28.126  24.571  1.00  0.00    -0.365 N 
BRANCH  17  18
ATOM     18  C   UNL A   1      30.416  28.567  23.733  1.00  0.00     0.076 C 
ATOM     19  C   UNL A   1      30.865  29.298  22.468  1.00  0.00     0.030 C 
ATOM     20  C   UNL A   1      29.436  27.448  23.384  1.00  0.00     0.030 C 
ENDBRANCH  17  18
BRANCH  17  21
ATOM     21  C   UNL A   1      32.198  28.900  25.654  1.00  0.00     0.076 C 
ATOM     22  C   UNL A   1      33.720  28.922  25.556  1.00  0.00     0.030 C 
ATOM     23  C   UNL A   1      31.623  30.305  25.803  1.00  0.00     0.030 C 
ENDBRANCH  17  21
ENDBRANCH   7  17
BRANCH  16  24
ATOM     24  C   UNL A   1      33.480  22.162  27.282  1.00  0.00     0.430 C 
ATOM     25  F   UNL A   1      32.769  22.632  28.336  1.00  0.00    -0.167 F 
ATOM     26  F   UNL A   1      33.783  20.872  27.574  1.00  0.00    -0.167 F 
ATOM     27  F   UNL A   1      34.642  22.850  27.238  1.00  0.00    -0.167 F 
ENDBRANCH  16  24
ENDBRANCH   4   6
ENDBRANCH   3   4
ENDBRANCH   2   3
ENDBRANCH   1   2
BRANCH   1  28
ATOM     28  O   UNL A   1      38.409  21.350  25.620  1.00  0.00    -0.458 OA
BRANCH  28  29
ATOM     29  C   UNL A   1      39.571  21.173  26.290  1.00  0.00     0.338 C 
ATOM     30  O   UNL A   1      40.248  20.162  26.339  1.00  0.00    -0.246 OA
BRANCH  29  31
ATOM     31  C   UNL A   1      39.981  22.443  26.906  1.00  0.00     0.060 A 
ATOM     32  C   UNL A   1      40.996  22.502  27.852  1.00  0.00     0.016 A 
ATOM     33  C   UNL A   1      39.437  23.617  26.400  1.00  0.00     0.016 A 
ATOM     34  C   UNL A   1      41.446  23.756  28.289  1.00  0.00     0.010 A 
ATOM     35  C   UNL A   1      40.005  24.850  26.702  1.00  0.00     0.010 A 
ATOM     36  C   UNL A   1      40.992  24.949  27.687  1.00  0.00    -0.014 A 
BRANCH  36  37
ATOM     37  C   UNL A   1      41.531  26.288  28.084  1.00  0.00     0.031 A 
ATOM     38  C   UNL A   1      42.931  26.717  27.697  1.00  0.00     0.074 A 
ATOM     39  C   UNL A   1      40.774  27.115  28.836  1.00  0.00     0.049 A 
ATOM     40  N   UNL A   1      43.542  27.850  27.940  1.00  0.00    -0.248 NA
ATOM     41  C   UNL A   1      43.775  25.738  26.990  1.00  0.00     0.031 C 
ATOM     42  C   UNL A   1      39.457  26.782  29.383  1.00  0.00     0.029 A 
ATOM     43  N   UNL A   1      40.986  28.406  29.259  1.00  0.00    -0.354 N 
ATOM     44  C   UNL A   1      44.835  27.704  27.442  1.00  0.00     0.074 A 
ATOM     45  C   UNL A   1      44.951  26.347  26.968  1.00  0.00     0.031 C 
ATOM     46  C   UNL A   1      38.945  27.861  29.992  1.00  0.00     0.029 A 
ATOM     47  C   UNL A   1      39.913  28.953  29.929  1.00  0.00     0.049 A 
ATOM     48  H   UNL A   1      41.825  28.894  29.098  1.00  0.00     0.167 HD
ATOM     49  C   UNL A   1      45.820  28.629  27.336  1.00  0.00     0.034 A 
ATOM     50  C   UNL A   1      39.715  30.196  30.418  1.00  0.00     0.034 A 
ATOM     51  C   UNL A   1      45.666  30.000  27.745  1.00  0.00     0.049 A 
ATOM     52  C   UNL A   1      40.789  31.235  30.219  1.00  0.00     0.074 A 
ATOM     53  C   UNL A   1      46.564  31.042  27.590  1.00  0.00     0.029 A 
ATOM     54  N   UNL A   1      44.545  30.527  28.368  1.00  0.00    -0.354 N 
ATOM     55  N   UNL A   1      41.956  31.110  29.631  1.00  0.00    -0.248 NA
ATOM     56  C   UNL A   1      40.523  32.587  30.732  1.00  0.00     0.031 C 
ATOM     57  C   UNL A   1      46.009  32.184  28.166  1.00  0.00     0.029 A 
ATOM     58  C   UNL A   1      44.735  31.875  28.617  1.00  0.00     0.049 A 
ATOM     59  H   UNL A   1      43.735  30.018  28.599  1.00  0.00     0.167 HD
ATOM     60  C   UNL A   1      42.551  32.368  29.683  1.00  0.00     0.074 A 
ATOM     61  C   UNL A   1      41.602  33.248  30.334  1.00  0.00     0.031 C 
ATOM     62  C   UNL A   1      43.774  32.753  29.241  1.00  0.00     0.034 A 
BRANCH  49  63
ATOM     63  C   UNL A   1      47.132  28.232  26.696  1.00  0.00     0.023 A 
ATOM     64  C   UNL A   1      47.255  28.188  25.294  1.00  0.00     0.031 A 
ATOM     65  C   UNL A   1      48.211  27.766  27.470  1.00  0.00     0.131 A 
ATOM     66  C   UNL A   1      48.415  27.661  24.712  1.00  0.00     0.055 A 
ATOM     67  C   UNL A   1      49.386  27.291  26.885  1.00  0.00     0.041 A 
ATOM     68  F   UNL A   1      48.145  27.773  28.810  1.00  0.00    -0.206 F 
ATOM     69  C   UNL A   1      49.485  27.224  25.499  1.00  0.00     0.022 A 
BRANCH  66  70
ATOM     70  S   UNL A   1      48.556  27.449  22.915  1.00  0.00     0.124 S 
ATOM     71  O   UNL A   1      49.858  28.057  22.643  1.00  0.00    -0.237 OA
ATOM     72  O   UNL A   1      48.507  25.996  22.776  1.00  0.00    -0.237 OA
ATOM     73  O   UNL A   1      47.409  28.175  22.384  1.00  0.00    -0.744 OA
ENDBRANCH  66  70
ENDBRANCH  49  63
BRANCH  50  74
ATOM     74  C   UNL A   1      38.398  30.530  31.042  1.00  0.00     0.023 A 
ATOM     75  C   UNL A   1      37.382  31.167  30.306  1.00  0.00     0.031 A 
ATOM     76  C   UNL A   1      38.188  30.331  32.418  1.00  0.00     0.131 A 
ATOM     77  C   UNL A   1      36.238  31.643  30.964  1.00  0.00     0.055 A 
ATOM     78  C   UNL A   1      37.013  30.740  33.055  1.00  0.00     0.041 A 
ATOM     79  F   UNL A   1      39.133  29.744  33.168  1.00  0.00    -0.206 F 
ATOM     80  C   UNL A   1      36.040  31.418  32.330  1.00  0.00     0.022 A 
BRANCH  77  81
ATOM     81  S   UNL A   1      35.042  32.702  30.102  1.00  0.00     0.124 S 
ATOM     82  O   UNL A   1      34.127  33.067  31.178  1.00  0.00    -0.237 OA
ATOM     83  O   UNL A   1      35.898  33.780  29.610  1.00  0.00    -0.237 OA
ATOM     84  O   UNL A   1      34.491  31.831  29.070  1.00  0.00    -0.744 OA
ENDBRANCH  77  81
ENDBRANCH  50  74
BRANCH  62  85
ATOM     85  C   UNL A   1      44.196  34.191  29.419  1.00  0.00     0.023 A 
ATOM     86  C   UNL A   1      44.785  34.603  30.632  1.00  0.00     0.031 A 
ATOM     87  C   UNL A   1      43.849  35.176  28.480  1.00  0.00     0.131 A 
ATOM     88  C   UNL A   1      44.956  35.968  30.894  1.00  0.00     0.055 A 
ATOM     89  C   UNL A   1      44.071  36.531  28.725  1.00  0.00     0.041 A 
ATOM     90  F   UNL A   1      43.273  34.835  27.315  1.00  0.00    -0.206 F 
ATOM     91  C   UNL A   1      44.610  36.934  29.944  1.00  0.00     0.022 A 
BRANCH  88  92
ATOM     92  S   UNL A   1      45.535  36.543  32.514  1.00  0.00     0.124 S 
ATOM     93  O   UNL A   1      44.558  35.938  33.416  1.00  0.00    -0.237 OA
ATOM     94  O   UNL A   1      46.879  35.974  32.580  1.00  0.00    -0.237 OA
ATOM     95  O   UNL A   1      45.473  37.997  32.417  1.00  0.00    -0.744 OA
ENDBRANCH  88  92
ENDBRANCH  62  85
ENDBRANCH  36  37
ENDBRANCH  29  31
ENDBRANCH  28  29
ENDBRANCH   1  28
TORSDOF 18
ENDMDL
