MODEL 1
REMARK VINA RESULT:     -10.2      0.000      0.000
REMARK SMILES O=C(CCCCCN1C(=O)[C@@H]2CC=CC[C@H]2C1=O)OCCOC(=O)c1ccc(-c2c3nc(c(-c4cc(S(=O)(=O)[O-])ccc4F)c4ccc([nH]4)c(-c4cc(S(=O)(=O)[O-])ccc4F)c4nc(c(-c5cc(S(=O)(=O)[O-])ccc5F)c5ccc2[nH]5)C=C4)C=C3)cc1
REMARK SMILES IDX 20 1 19 2 2 3 1 4 3 5 4 6 5 7 6 8 7 9 8 10 9 11 17 12 10 13
REMARK SMILES IDX 11 14 16 15 18 16 12 17 15 18 13 19 14 20 21 21 22 22 23 23
REMARK SMILES IDX 24 24 25 25 26 26 87 27 27 28 86 29 28 30 29 31 30 32 80 33
REMARK SMILES IDX 31 34 85 35 79 36 81 37 32 38 84 39 78 40 77 41 33 43 65 44
REMARK SMILES IDX 45 45 64 46 46 47 49 48 63 49 82 50 47 51 48 52 62 54 83 55
REMARK SMILES IDX 50 56 34 57 35 58 43 59 36 60 42 61 44 62 41 63 37 64 38 65
REMARK SMILES IDX 39 66 40 67 66 68 67 69 75 70 68 71 74 72 76 73 73 74 69 75
REMARK SMILES IDX 70 76 71 77 72 78 51 79 52 80 60 81 53 82 59 83 61 84 58 85
REMARK SMILES IDX 54 86 55 87 56 88 57 89
REMARK H PARENT 81 42 49 53
REMARK Flexibility Score: inf
ROOT
ATOM      1  C   UNL A   1      33.448  34.677  28.835  1.00  0.00     0.274 C 
ENDROOT
BRANCH   1   2
ATOM      2  O   UNL A   1      32.618  34.961  29.973  1.00  0.00    -0.462 OA
BRANCH   2   3
ATOM      3  C   UNL A   1      32.754  36.193  30.535  1.00  0.00     0.305 C 
ATOM      4  O   UNL A   1      33.185  37.149  29.902  1.00  0.00    -0.252 OA
BRANCH   3   5
ATOM      5  C   UNL A   1      32.480  36.237  32.024  1.00  0.00     0.123 C 
BRANCH   5   6
ATOM      6  C   UNL A   1      33.677  36.643  32.876  1.00  0.00     0.012 C 
BRANCH   6   7
ATOM      7  C   UNL A   1      34.937  35.815  32.628  1.00  0.00     0.002 C 
BRANCH   7   8
ATOM      8  C   UNL A   1      35.376  34.880  33.772  1.00  0.00     0.022 C 
BRANCH   8   9
ATOM      9  C   UNL A   1      36.180  33.642  33.376  1.00  0.00     0.128 C 
BRANCH   9  10
ATOM     10  N   UNL A   1      37.499  33.902  32.836  1.00  0.00    -0.282 N 
ATOM     11  C   UNL A   1      37.873  33.797  31.516  1.00  0.00     0.233 C 
ATOM     12  C   UNL A   1      38.505  34.442  33.609  1.00  0.00     0.233 C 
ATOM     13  O   UNL A   1      37.185  33.497  30.553  1.00  0.00    -0.274 OA
ATOM     14  C   UNL A   1      39.294  34.256  31.422  1.00  0.00     0.095 C 
ATOM     15  C   UNL A   1      39.764  34.150  32.865  1.00  0.00     0.095 C 
ATOM     16  O   UNL A   1      38.411  34.978  34.696  1.00  0.00    -0.274 OA
ATOM     17  C   UNL A   1      40.246  33.462  30.548  1.00  0.00     0.041 C 
ATOM     18  C   UNL A   1      41.009  34.989  33.043  1.00  0.00     0.041 C 
ATOM     19  C   UNL A   1      41.670  33.864  30.877  1.00  0.00    -0.030 C 
ATOM     20  C   UNL A   1      42.006  34.579  31.972  1.00  0.00    -0.030 C 
ENDBRANCH   9  10
ENDBRANCH   8   9
ENDBRANCH   7   8
ENDBRANCH   6   7
ENDBRANCH   5   6
ENDBRANCH   3   5
ENDBRANCH   2   3
ENDBRANCH   1   2
BRANCH   1  21
ATOM     21  C   UNL A   1      34.461  33.558  29.104  1.00  0.00     0.275 C 
BRANCH  21  22
ATOM     22  O   UNL A   1      34.889  32.928  27.885  1.00  0.00    -0.458 OA
BRANCH  22  23
ATOM     23  C   UNL A   1      34.529  31.620  27.778  1.00  0.00     0.338 C 
ATOM     24  O   UNL A   1      33.474  31.198  27.345  1.00  0.00    -0.246 OA
BRANCH  23  25
ATOM     25  C   UNL A   1      35.690  30.752  28.090  1.00  0.00     0.060 A 
ATOM     26  C   UNL A   1      35.515  29.768  29.073  1.00  0.00     0.016 A 
ATOM     27  C   UNL A   1      36.920  30.883  27.439  1.00  0.00     0.016 A 
ATOM     28  C   UNL A   1      36.582  28.949  29.445  1.00  0.00     0.010 A 
ATOM     29  C   UNL A   1      37.992  30.068  27.820  1.00  0.00     0.010 A 
ATOM     30  C   UNL A   1      37.838  29.125  28.852  1.00  0.00    -0.014 A 
BRANCH  30  31
ATOM     31  C   UNL A   1      39.035  28.501  29.467  1.00  0.00     0.031 A 
ATOM     32  C   UNL A   1      39.535  29.069  30.768  1.00  0.00     0.074 A 
ATOM     33  C   UNL A   1      39.667  27.461  28.897  1.00  0.00     0.049 A 
ATOM     34  N   UNL A   1      40.584  28.740  31.475  1.00  0.00    -0.248 NA
ATOM     35  C   UNL A   1      38.739  30.166  31.339  1.00  0.00     0.031 C 
ATOM     36  C   UNL A   1      39.263  26.799  27.659  1.00  0.00     0.029 A 
ATOM     37  N   UNL A   1      40.800  26.789  29.286  1.00  0.00    -0.354 N 
ATOM     38  C   UNL A   1      40.574  29.589  32.577  1.00  0.00     0.074 A 
ATOM     39  C   UNL A   1      39.441  30.475  32.417  1.00  0.00     0.031 C 
ATOM     40  C   UNL A   1      40.152  25.829  27.375  1.00  0.00     0.029 A 
ATOM     41  C   UNL A   1      41.201  25.822  28.395  1.00  0.00     0.049 A 
ATOM     42  H   UNL A   1      41.280  26.982  30.123  1.00  0.00     0.167 HD
ATOM     43  C   UNL A   1      41.426  29.622  33.633  1.00  0.00     0.034 A 
ATOM     44  C   UNL A   1      42.302  25.042  28.391  1.00  0.00     0.034 A 
ATOM     45  C   UNL A   1      42.571  28.758  33.764  1.00  0.00     0.049 A 
ATOM     46  C   UNL A   1      43.294  25.155  29.524  1.00  0.00     0.074 A 
ATOM     47  C   UNL A   1      43.498  28.702  34.791  1.00  0.00     0.029 A 
ATOM     48  N   UNL A   1      42.961  27.811  32.827  1.00  0.00    -0.354 N 
ATOM     49  N   UNL A   1      43.266  25.948  30.572  1.00  0.00    -0.248 NA
ATOM     50  C   UNL A   1      44.463  24.264  29.478  1.00  0.00     0.031 C 
ATOM     51  C   UNL A   1      44.483  27.772  34.441  1.00  0.00     0.029 A 
ATOM     52  C   UNL A   1      44.133  27.191  33.232  1.00  0.00     0.049 A 
ATOM     53  H   UNL A   1      42.476  27.609  31.994  1.00  0.00     0.167 HD
ATOM     54  C   UNL A   1      44.394  25.625  31.324  1.00  0.00     0.074 A 
ATOM     55  C   UNL A   1      45.083  24.570  30.609  1.00  0.00     0.031 C 
ATOM     56  C   UNL A   1      44.812  26.144  32.507  1.00  0.00     0.034 A 
BRANCH  43  57
ATOM     57  C   UNL A   1      41.166  30.676  34.681  1.00  0.00     0.023 A 
ATOM     58  C   UNL A   1      40.068  30.588  35.556  1.00  0.00     0.031 A 
ATOM     59  C   UNL A   1      41.974  31.823  34.750  1.00  0.00     0.131 A 
ATOM     60  C   UNL A   1      39.754  31.668  36.393  1.00  0.00     0.055 A 
ATOM     61  C   UNL A   1      41.706  32.857  35.648  1.00  0.00     0.041 A 
ATOM     62  F   UNL A   1      43.020  31.974  33.922  1.00  0.00    -0.206 F 
ATOM     63  C   UNL A   1      40.578  32.793  36.463  1.00  0.00     0.022 A 
BRANCH  60  64
ATOM     64  S   UNL A   1      38.154  31.661  37.249  1.00  0.00     0.124 S 
ATOM     65  O   UNL A   1      37.775  30.253  37.153  1.00  0.00    -0.237 OA
ATOM     66  O   UNL A   1      38.507  32.139  38.580  1.00  0.00    -0.237 OA
ATOM     67  O   UNL A   1      37.335  32.573  36.452  1.00  0.00    -0.744 OA
ENDBRANCH  60  64
ENDBRANCH  43  57
BRANCH  44  68
ATOM     68  C   UNL A   1      42.557  24.117  27.250  1.00  0.00     0.023 A 
ATOM     69  C   UNL A   1      42.060  22.804  27.248  1.00  0.00     0.031 A 
ATOM     70  C   UNL A   1      43.341  24.530  26.159  1.00  0.00     0.131 A 
ATOM     71  C   UNL A   1      42.382  21.939  26.189  1.00  0.00     0.055 A 
ATOM     72  C   UNL A   1      43.622  23.681  25.088  1.00  0.00     0.041 A 
ATOM     73  F   UNL A   1      43.838  25.777  26.114  1.00  0.00    -0.206 F 
ATOM     74  C   UNL A   1      43.148  22.373  25.104  1.00  0.00     0.022 A 
BRANCH  71  75
ATOM     75  S   UNL A   1      41.824  20.215  26.271  1.00  0.00     0.124 S 
ATOM     76  O   UNL A   1      42.252  19.828  27.610  1.00  0.00    -0.237 OA
ATOM     77  O   UNL A   1      40.385  20.351  26.070  1.00  0.00    -0.237 OA
ATOM     78  O   UNL A   1      42.545  19.572  25.174  1.00  0.00    -0.744 OA
ENDBRANCH  71  75
ENDBRANCH  44  68
BRANCH  56  79
ATOM     79  C   UNL A   1      46.043  25.538  33.137  1.00  0.00     0.023 A 
ATOM     80  C   UNL A   1      45.981  24.391  33.946  1.00  0.00     0.031 A 
ATOM     81  C   UNL A   1      47.304  26.112  32.895  1.00  0.00     0.131 A 
ATOM     82  C   UNL A   1      47.158  23.870  34.509  1.00  0.00     0.055 A 
ATOM     83  C   UNL A   1      48.476  25.563  33.417  1.00  0.00     0.041 A 
ATOM     84  F   UNL A   1      47.420  27.209  32.128  1.00  0.00    -0.206 F 
ATOM     85  C   UNL A   1      48.406  24.440  34.236  1.00  0.00     0.022 A 
BRANCH  82  86
ATOM     86  S   UNL A   1      47.038  22.463  35.648  1.00  0.00     0.124 S 
ATOM     87  O   UNL A   1      47.262  21.330  34.755  1.00  0.00    -0.237 OA
ATOM     88  O   UNL A   1      48.105  22.742  36.604  1.00  0.00    -0.237 OA
ATOM     89  O   UNL A   1      45.683  22.570  36.185  1.00  0.00    -0.744 OA
ENDBRANCH  82  86
ENDBRANCH  56  79
ENDBRANCH  30  31
ENDBRANCH  23  25
ENDBRANCH  22  23
ENDBRANCH  21  22
ENDBRANCH   1  21
TORSDOF 19
ENDMDL
MODEL 2
REMARK VINA RESULT:      -9.7      3.706      6.614
REMARK SMILES O=C(CCCCCN1C(=O)[C@@H]2CC=CC[C@H]2C1=O)OCCOC(=O)c1ccc(-c2c3nc(c(-c4cc(S(=O)(=O)[O-])ccc4F)c4ccc([nH]4)c(-c4cc(S(=O)(=O)[O-])ccc4F)c4nc(c(-c5cc(S(=O)(=O)[O-])ccc5F)c5ccc2[nH]5)C=C4)C=C3)cc1
REMARK SMILES IDX 20 1 19 2 2 3 1 4 3 5 4 6 5 7 6 8 7 9 8 10 9 11 17 12 10 13
REMARK SMILES IDX 11 14 16 15 18 16 12 17 15 18 13 19 14 20 21 21 22 22 23 23
REMARK SMILES IDX 24 24 25 25 26 26 87 27 27 28 86 29 28 30 29 31 30 32 80 33
REMARK SMILES IDX 31 34 85 35 79 36 81 37 32 38 84 39 78 40 77 41 33 43 65 44
REMARK SMILES IDX 45 45 64 46 46 47 49 48 63 49 82 50 47 51 48 52 62 54 83 55
REMARK SMILES IDX 50 56 34 57 35 58 43 59 36 60 42 61 44 62 41 63 37 64 38 65
REMARK SMILES IDX 39 66 40 67 66 68 67 69 75 70 68 71 74 72 76 73 73 74 69 75
REMARK SMILES IDX 70 76 71 77 72 78 51 79 52 80 60 81 53 82 59 83 61 84 58 85
REMARK SMILES IDX 54 86 55 87 56 88 57 89
REMARK H PARENT 81 42 49 53
REMARK Flexibility Score: inf
ROOT
ATOM      1  C   UNL A   1      31.361  31.273  26.684  1.00  0.00     0.274 C 
ENDROOT
BRANCH   1   2
ATOM      2  O   UNL A   1      31.646  30.639  25.427  1.00  0.00    -0.462 OA
BRANCH   2   3
ATOM      3  C   UNL A   1      32.662  29.735  25.416  1.00  0.00     0.305 C 
ATOM      4  O   UNL A   1      33.234  29.415  24.381  1.00  0.00    -0.252 OA
BRANCH   3   5
ATOM      5  C   UNL A   1      32.912  29.055  26.747  1.00  0.00     0.123 C 
BRANCH   5   6
ATOM      6  C   UNL A   1      32.681  27.549  26.742  1.00  0.00     0.012 C 
BRANCH   6   7
ATOM      7  C   UNL A   1      31.324  27.121  26.184  1.00  0.00     0.002 C 
BRANCH   7   8
ATOM      8  C   UNL A   1      31.198  25.648  25.747  1.00  0.00     0.022 C 
BRANCH   8   9
ATOM      9  C   UNL A   1      30.531  25.388  24.396  1.00  0.00     0.128 C 
BRANCH   9  10
ATOM     10  N   UNL A   1      30.066  26.566  23.694  1.00  0.00    -0.282 N 
ATOM     11  C   UNL A   1      30.784  27.308  22.785  1.00  0.00     0.233 C 
ATOM     12  C   UNL A   1      28.755  26.984  23.769  1.00  0.00     0.233 C 
ATOM     13  O   UNL A   1      31.918  27.117  22.375  1.00  0.00    -0.274 OA
ATOM     14  C   UNL A   1      29.867  28.364  22.253  1.00  0.00     0.095 C 
ATOM     15  C   UNL A   1      28.772  28.403  23.309  1.00  0.00     0.095 C 
ATOM     16  O   UNL A   1      27.793  26.367  24.185  1.00  0.00    -0.274 OA
ATOM     17  C   UNL A   1      30.416  29.767  22.079  1.00  0.00     0.041 C 
ATOM     18  C   UNL A   1      27.547  29.069  22.727  1.00  0.00     0.041 C 
ATOM     19  C   UNL A   1      29.259  30.729  21.889  1.00  0.00    -0.030 C 
ATOM     20  C   UNL A   1      27.973  30.404  22.143  1.00  0.00    -0.030 C 
ENDBRANCH   9  10
ENDBRANCH   8   9
ENDBRANCH   7   8
ENDBRANCH   6   7
ENDBRANCH   5   6
ENDBRANCH   3   5
ENDBRANCH   2   3
ENDBRANCH   1   2
BRANCH   1  21
ATOM     21  C   UNL A   1      32.095  32.608  26.856  1.00  0.00     0.275 C 
BRANCH  21  22
ATOM     22  O   UNL A   1      32.903  32.618  28.044  1.00  0.00    -0.458 OA
BRANCH  22  23
ATOM     23  C   UNL A   1      33.973  33.457  27.983  1.00  0.00     0.338 C 
ATOM     24  O   UNL A   1      33.934  34.664  27.839  1.00  0.00    -0.246 OA
BRANCH  23  25
ATOM     25  C   UNL A   1      35.213  32.712  28.308  1.00  0.00     0.060 A 
ATOM     26  C   UNL A   1      35.100  31.333  28.529  1.00  0.00     0.016 A 
ATOM     27  C   UNL A   1      36.462  33.336  28.390  1.00  0.00     0.016 A 
ATOM     28  C   UNL A   1      36.223  30.583  28.882  1.00  0.00     0.010 A 
ATOM     29  C   UNL A   1      37.586  32.586  28.755  1.00  0.00     0.010 A 
ATOM     30  C   UNL A   1      37.463  31.214  29.041  1.00  0.00    -0.014 A 
BRANCH  30  31
ATOM     31  C   UNL A   1      38.567  30.502  29.731  1.00  0.00     0.031 A 
ATOM     32  C   UNL A   1      38.875  30.890  31.152  1.00  0.00     0.074 A 
ATOM     33  C   UNL A   1      39.281  29.539  29.123  1.00  0.00     0.049 A 
ATOM     34  N   UNL A   1      39.817  30.459  31.949  1.00  0.00    -0.248 NA
ATOM     35  C   UNL A   1      37.998  31.910  31.745  1.00  0.00     0.031 C 
ATOM     36  C   UNL A   1      39.059  29.049  27.764  1.00  0.00     0.029 A 
ATOM     37  N   UNL A   1      40.353  28.809  29.575  1.00  0.00    -0.354 N 
ATOM     38  C   UNL A   1      39.646  31.156  33.141  1.00  0.00     0.074 A 
ATOM     39  C   UNL A   1      38.540  32.068  32.941  1.00  0.00     0.031 C 
ATOM     40  C   UNL A   1      39.986  28.116  27.483  1.00  0.00     0.029 A 
ATOM     41  C   UNL A   1      40.883  27.963  28.629  1.00  0.00     0.049 A 
ATOM     42  H   UNL A   1      40.709  28.886  30.489  1.00  0.00     0.167 HD
ATOM     43  C   UNL A   1      40.342  31.041  34.300  1.00  0.00     0.034 A 
ATOM     44  C   UNL A   1      41.979  27.179  28.677  1.00  0.00     0.034 A 
ATOM     45  C   UNL A   1      41.464  30.156  34.476  1.00  0.00     0.049 A 
ATOM     46  C   UNL A   1      42.802  27.132  29.943  1.00  0.00     0.074 A 
ATOM     47  C   UNL A   1      42.238  29.956  35.606  1.00  0.00     0.029 A 
ATOM     48  N   UNL A   1      41.988  29.335  33.486  1.00  0.00    -0.354 N 
ATOM     49  N   UNL A   1      42.621  27.780  31.071  1.00  0.00    -0.248 NA
ATOM     50  C   UNL A   1      43.972  26.242  29.944  1.00  0.00     0.031 C 
ATOM     51  C   UNL A   1      43.270  29.069  35.278  1.00  0.00     0.029 A 
ATOM     52  C   UNL A   1      43.097  28.655  33.967  1.00  0.00     0.049 A 
ATOM     53  H   UNL A   1      41.627  29.249  32.575  1.00  0.00     0.167 HD
ATOM     54  C   UNL A   1      43.635  27.350  31.925  1.00  0.00     0.074 A 
ATOM     55  C   UNL A   1      44.425  26.391  31.182  1.00  0.00     0.031 C 
ATOM     56  C   UNL A   1      43.879  27.705  33.213  1.00  0.00     0.034 A 
BRANCH  43  57
ATOM     57  C   UNL A   1      39.929  31.952  35.431  1.00  0.00     0.023 A 
ATOM     58  C   UNL A   1      39.118  31.494  36.485  1.00  0.00     0.031 A 
ATOM     59  C   UNL A   1      40.280  33.312  35.411  1.00  0.00     0.131 A 
ATOM     60  C   UNL A   1      38.607  32.406  37.420  1.00  0.00     0.055 A 
ATOM     61  C   UNL A   1      39.838  34.199  36.395  1.00  0.00     0.041 A 
ATOM     62  F   UNL A   1      41.030  33.811  34.416  1.00  0.00    -0.206 F 
ATOM     63  C   UNL A   1      38.979  33.752  37.396  1.00  0.00     0.022 A 
BRANCH  60  64
ATOM     64  S   UNL A   1      37.303  31.845  38.550  1.00  0.00     0.124 S 
ATOM     65  O   UNL A   1      37.076  30.479  38.084  1.00  0.00    -0.237 OA
ATOM     66  O   UNL A   1      37.939  31.979  39.855  1.00  0.00    -0.237 OA
ATOM     67  O   UNL A   1      36.203  32.772  38.292  1.00  0.00    -0.744 OA
ENDBRANCH  60  64
ENDBRANCH  43  57
BRANCH  44  68
ATOM     68  C   UNL A   1      42.399  26.408  27.472  1.00  0.00     0.023 A 
ATOM     69  C   UNL A   1      42.086  25.048  27.328  1.00  0.00     0.031 A 
ATOM     70  C   UNL A   1      43.158  27.024  26.461  1.00  0.00     0.131 A 
ATOM     71  C   UNL A   1      42.560  24.338  26.213  1.00  0.00     0.055 A 
ATOM     72  C   UNL A   1      43.591  26.325  25.334  1.00  0.00     0.041 A 
ATOM     73  F   UNL A   1      43.482  28.324  26.553  1.00  0.00    -0.206 F 
ATOM     74  C   UNL A   1      43.299  24.970  25.209  1.00  0.00     0.022 A 
BRANCH  71  75
ATOM     75  S   UNL A   1      42.240  22.556  26.113  1.00  0.00     0.124 S 
ATOM     76  O   UNL A   1      40.784  22.512  26.181  1.00  0.00    -0.237 OA
ATOM     77  O   UNL A   1      42.834  22.211  24.825  1.00  0.00    -0.237 OA
ATOM     78  O   UNL A   1      42.936  22.019  27.280  1.00  0.00    -0.744 OA
ENDBRANCH  71  75
ENDBRANCH  44  68
BRANCH  56  79
ATOM     79  C   UNL A   1      45.014  27.008  33.924  1.00  0.00     0.023 A 
ATOM     80  C   UNL A   1      44.825  25.820  34.649  1.00  0.00     0.031 A 
ATOM     81  C   UNL A   1      46.315  27.538  33.846  1.00  0.00     0.131 A 
ATOM     82  C   UNL A   1      45.917  25.214  35.293  1.00  0.00     0.055 A 
ATOM     83  C   UNL A   1      47.404  26.907  34.447  1.00  0.00     0.041 A 
ATOM     84  F   UNL A   1      46.551  28.671  33.165  1.00  0.00    -0.206 F 
ATOM     85  C   UNL A   1      47.207  25.742  35.183  1.00  0.00     0.022 A 
BRANCH  82  86
ATOM     86  S   UNL A   1      45.626  23.751  36.324  1.00  0.00     0.124 S 
ATOM     87  O   UNL A   1      45.381  24.346  37.634  1.00  0.00    -0.237 OA
ATOM     88  O   UNL A   1      44.471  23.135  35.677  1.00  0.00    -0.237 OA
ATOM     89  O   UNL A   1      46.873  22.996  36.210  1.00  0.00    -0.744 OA
ENDBRANCH  82  86
ENDBRANCH  56  79
ENDBRANCH  30  31
ENDBRANCH  23  25
ENDBRANCH  22  23
ENDBRANCH  21  22
ENDBRANCH   1  21
TORSDOF 19
ENDMDL
MODEL 3
REMARK VINA RESULT:      -9.7      3.757      6.782
REMARK SMILES O=C(CCCCCN1C(=O)[C@@H]2CC=CC[C@H]2C1=O)OCCOC(=O)c1ccc(-c2c3nc(c(-c4cc(S(=O)(=O)[O-])ccc4F)c4ccc([nH]4)c(-c4cc(S(=O)(=O)[O-])ccc4F)c4nc(c(-c5cc(S(=O)(=O)[O-])ccc5F)c5ccc2[nH]5)C=C4)C=C3)cc1
REMARK SMILES IDX 20 1 19 2 2 3 1 4 3 5 4 6 5 7 6 8 7 9 8 10 9 11 17 12 10 13
REMARK SMILES IDX 11 14 16 15 18 16 12 17 15 18 13 19 14 20 21 21 22 22 23 23
REMARK SMILES IDX 24 24 25 25 26 26 87 27 27 28 86 29 28 30 29 31 30 32 80 33
REMARK SMILES IDX 31 34 85 35 79 36 81 37 32 38 84 39 78 40 77 41 33 43 65 44
REMARK SMILES IDX 45 45 64 46 46 47 49 48 63 49 82 50 47 51 48 52 62 54 83 55
REMARK SMILES IDX 50 56 34 57 35 58 43 59 36 60 42 61 44 62 41 63 37 64 38 65
REMARK SMILES IDX 39 66 40 67 66 68 67 69 75 70 68 71 74 72 76 73 73 74 69 75
REMARK SMILES IDX 70 76 71 77 72 78 51 79 52 80 60 81 53 82 59 83 61 84 58 85
REMARK SMILES IDX 54 86 55 87 56 88 57 89
REMARK H PARENT 81 42 49 53
REMARK Flexibility Score: inf
ROOT
ATOM      1  C   UNL A   1      31.396  32.032  26.537  1.00  0.00     0.274 C 
ENDROOT
BRANCH   1   2
ATOM      2  O   UNL A   1      32.408  31.050  26.813  1.00  0.00    -0.462 OA
BRANCH   2   3
ATOM      3  C   UNL A   1      32.311  29.869  26.144  1.00  0.00     0.305 C 
ATOM      4  O   UNL A   1      31.893  29.809  24.994  1.00  0.00    -0.252 OA
BRANCH   3   5
ATOM      5  C   UNL A   1      32.608  28.644  26.985  1.00  0.00     0.123 C 
BRANCH   5   6
ATOM      6  C   UNL A   1      33.853  27.874  26.563  1.00  0.00     0.012 C 
BRANCH   6   7
ATOM      7  C   UNL A   1      33.579  26.463  26.046  1.00  0.00     0.002 C 
BRANCH   7   8
ATOM      8  C   UNL A   1      33.812  26.229  24.541  1.00  0.00     0.022 C 
BRANCH   8   9
ATOM      9  C   UNL A   1      32.631  25.682  23.740  1.00  0.00     0.128 C 
BRANCH   9  10
ATOM     10  N   UNL A   1      31.527  26.601  23.553  1.00  0.00    -0.282 N 
ATOM     11  C   UNL A   1      30.348  26.613  24.263  1.00  0.00     0.233 C 
ATOM     12  C   UNL A   1      31.621  27.684  22.706  1.00  0.00     0.233 C 
ATOM     13  O   UNL A   1      30.011  25.891  25.188  1.00  0.00    -0.274 OA
ATOM     14  C   UNL A   1      29.558  27.792  23.789  1.00  0.00     0.095 C 
ATOM     15  C   UNL A   1      30.212  28.102  22.451  1.00  0.00     0.095 C 
ATOM     16  O   UNL A   1      32.622  28.164  22.209  1.00  0.00    -0.274 OA
ATOM     17  C   UNL A   1      28.069  27.612  23.565  1.00  0.00     0.041 C 
ATOM     18  C   UNL A   1      29.859  29.514  22.042  1.00  0.00     0.041 C 
ATOM     19  C   UNL A   1      27.546  28.784  22.757  1.00  0.00    -0.030 C 
ATOM     20  C   UNL A   1      28.348  29.656  22.108  1.00  0.00    -0.030 C 
ENDBRANCH   9  10
ENDBRANCH   8   9
ENDBRANCH   7   8
ENDBRANCH   6   7
ENDBRANCH   5   6
ENDBRANCH   3   5
ENDBRANCH   2   3
ENDBRANCH   1   2
BRANCH   1  21
ATOM     21  C   UNL A   1      31.848  33.460  26.865  1.00  0.00     0.275 C 
BRANCH  21  22
ATOM     22  O   UNL A   1      32.518  33.523  28.135  1.00  0.00    -0.458 OA
BRANCH  22  23
ATOM     23  C   UNL A   1      33.644  34.288  28.132  1.00  0.00     0.338 C 
ATOM     24  O   UNL A   1      33.691  35.499  28.030  1.00  0.00    -0.246 OA
BRANCH  23  25
ATOM     25  C   UNL A   1      34.821  33.450  28.466  1.00  0.00     0.060 A 
ATOM     26  C   UNL A   1      34.579  32.152  28.935  1.00  0.00     0.016 A 
ATOM     27  C   UNL A   1      36.134  33.910  28.319  1.00  0.00     0.016 A 
ATOM     28  C   UNL A   1      35.642  31.329  29.309  1.00  0.00     0.010 A 
ATOM     29  C   UNL A   1      37.199  33.089  28.704  1.00  0.00     0.010 A 
ATOM     30  C   UNL A   1      36.956  31.810  29.237  1.00  0.00    -0.014 A 
BRANCH  30  31
ATOM     31  C   UNL A   1      38.044  31.081  29.934  1.00  0.00     0.031 A 
ATOM     32  C   UNL A   1      38.329  31.445  31.367  1.00  0.00     0.074 A 
ATOM     33  C   UNL A   1      38.763  30.124  29.324  1.00  0.00     0.049 A 
ATOM     34  N   UNL A   1      39.255  30.997  32.173  1.00  0.00    -0.248 NA
ATOM     35  C   UNL A   1      37.447  32.461  31.960  1.00  0.00     0.031 C 
ATOM     36  C   UNL A   1      38.563  29.657  27.954  1.00  0.00     0.029 A 
ATOM     37  N   UNL A   1      39.824  29.382  29.784  1.00  0.00    -0.354 N 
ATOM     38  C   UNL A   1      39.066  31.676  33.373  1.00  0.00     0.074 A 
ATOM     39  C   UNL A   1      37.969  32.597  33.168  1.00  0.00     0.031 C 
ATOM     40  C   UNL A   1      39.490  28.723  27.675  1.00  0.00     0.029 A 
ATOM     41  C   UNL A   1      40.365  28.547  28.834  1.00  0.00     0.049 A 
ATOM     42  H   UNL A   1      40.164  29.442  30.705  1.00  0.00     0.167 HD
ATOM     43  C   UNL A   1      39.741  31.539  34.542  1.00  0.00     0.034 A 
ATOM     44  C   UNL A   1      41.457  27.756  28.888  1.00  0.00     0.034 A 
ATOM     45  C   UNL A   1      40.855  30.645  34.724  1.00  0.00     0.049 A 
ATOM     46  C   UNL A   1      42.257  27.685  30.168  1.00  0.00     0.074 A 
ATOM     47  C   UNL A   1      41.608  30.424  35.864  1.00  0.00     0.029 A 
ATOM     48  N   UNL A   1      41.392  29.837  33.730  1.00  0.00    -0.354 N 
ATOM     49  N   UNL A   1      42.059  28.317  31.303  1.00  0.00    -0.248 NA
ATOM     50  C   UNL A   1      43.422  26.789  30.176  1.00  0.00     0.031 C 
ATOM     51  C   UNL A   1      42.641  29.536  35.540  1.00  0.00     0.029 A 
ATOM     52  C   UNL A   1      42.488  29.144  34.220  1.00  0.00     0.049 A 
ATOM     53  H   UNL A   1      41.047  29.768  32.811  1.00  0.00     0.167 HD
ATOM     54  C   UNL A   1      43.056  27.868  32.167  1.00  0.00     0.074 A 
ATOM     55  C   UNL A   1      43.854  26.916  31.423  1.00  0.00     0.031 C 
ATOM     56  C   UNL A   1      43.279  28.201  33.465  1.00  0.00     0.034 A 
BRANCH  43  57
ATOM     57  C   UNL A   1      39.313  32.434  35.680  1.00  0.00     0.023 A 
ATOM     58  C   UNL A   1      39.703  33.785  35.739  1.00  0.00     0.031 A 
ATOM     59  C   UNL A   1      38.579  31.911  36.758  1.00  0.00     0.131 A 
ATOM     60  C   UNL A   1      39.441  34.537  36.894  1.00  0.00     0.055 A 
ATOM     61  C   UNL A   1      38.246  32.692  37.866  1.00  0.00     0.041 A 
ATOM     62  F   UNL A   1      38.202  30.623  36.768  1.00  0.00    -0.206 F 
ATOM     63  C   UNL A   1      38.695  34.008  37.949  1.00  0.00     0.022 A 
BRANCH  60  64
ATOM     64  S   UNL A   1      40.249  36.151  37.074  1.00  0.00     0.124 S 
ATOM     65  O   UNL A   1      39.552  36.702  38.234  1.00  0.00    -0.237 OA
ATOM     66  O   UNL A   1      41.645  35.783  37.282  1.00  0.00    -0.237 OA
ATOM     67  O   UNL A   1      39.961  36.822  35.808  1.00  0.00    -0.744 OA
ENDBRANCH  60  64
ENDBRANCH  43  57
BRANCH  44  68
ATOM     68  C   UNL A   1      41.894  27.002  27.679  1.00  0.00     0.023 A 
ATOM     69  C   UNL A   1      41.687  25.619  27.566  1.00  0.00     0.031 A 
ATOM     70  C   UNL A   1      42.562  27.661  26.632  1.00  0.00     0.131 A 
ATOM     71  C   UNL A   1      42.177  24.932  26.443  1.00  0.00     0.055 A 
ATOM     72  C   UNL A   1      43.009  26.980  25.499  1.00  0.00     0.041 A 
ATOM     73  F   UNL A   1      42.782  28.984  26.694  1.00  0.00    -0.206 F 
ATOM     74  C   UNL A   1      42.825  25.605  25.404  1.00  0.00     0.022 A 
BRANCH  71  75
ATOM     75  S   UNL A   1      42.000  23.128  26.380  1.00  0.00     0.124 S 
ATOM     76  O   UNL A   1      42.782  22.711  27.537  1.00  0.00    -0.237 OA
ATOM     77  O   UNL A   1      40.554  22.959  26.487  1.00  0.00    -0.237 OA
ATOM     78  O   UNL A   1      42.569  22.775  25.081  1.00  0.00    -0.744 OA
ENDBRANCH  71  75
ENDBRANCH  44  68
BRANCH  56  79
ATOM     79  C   UNL A   1      44.398  27.487  34.185  1.00  0.00     0.023 A 
ATOM     80  C   UNL A   1      44.182  26.312  34.923  1.00  0.00     0.031 A 
ATOM     81  C   UNL A   1      45.711  27.986  34.101  1.00  0.00     0.131 A 
ATOM     82  C   UNL A   1      45.259  25.690  35.575  1.00  0.00     0.055 A 
ATOM     83  C   UNL A   1      46.785  27.338  34.710  1.00  0.00     0.041 A 
ATOM     84  F   UNL A   1      45.973  29.106  33.407  1.00  0.00    -0.206 F 
ATOM     85  C   UNL A   1      46.561  26.187  35.459  1.00  0.00     0.022 A 
BRANCH  82  86
ATOM     86  S   UNL A   1      44.935  24.245  36.622  1.00  0.00     0.124 S 
ATOM     87  O   UNL A   1      44.155  23.393  35.730  1.00  0.00    -0.237 OA
ATOM     88  O   UNL A   1      46.281  23.776  36.936  1.00  0.00    -0.237 OA
ATOM     89  O   UNL A   1      44.195  24.800  37.754  1.00  0.00    -0.744 OA
ENDBRANCH  82  86
ENDBRANCH  56  79
ENDBRANCH  30  31
ENDBRANCH  23  25
ENDBRANCH  22  23
ENDBRANCH  21  22
ENDBRANCH   1  21
TORSDOF 19
ENDMDL
