MODEL 1
REMARK VINA RESULT:     -12.2      0.000      0.000
REMARK SMILES CC1=C(C)C[C@@H](C(=O)OCCOC(=O)c2ccc(-c3c4nc(c(-c5cc(S(=O)(=O)[O-])ccc5F)c5ccc([nH]5)c(-c5cc(S(=O)(=O)[O-])ccc5F)c5nc(c(-c6cc(S(=O)(=O)[O-])ccc6F)c6ccc3[nH]6)C=C5)C=C4)cc2)[C@@H](C(=O)NCC[NH+]2CCOCC2)C1
REMARK SMILES IDX 10 1 9 2 7 3 8 4 6 5 1 6 2 7 3 8 90 9 4 10 5 11 78 12 79 13
REMARK SMILES IDX 80 14 81 15 82 17 83 18 84 19 85 20 89 21 86 23 88 24 87 25
REMARK SMILES IDX 11 26 12 27 13 28 14 29 15 30 16 31 77 32 17 33 76 34 18 35
REMARK SMILES IDX 19 36 20 37 70 38 21 39 75 40 69 41 71 42 22 43 74 44 68 45
REMARK SMILES IDX 67 46 23 48 55 49 35 50 54 51 36 52 39 53 53 54 72 55 37 56
REMARK SMILES IDX 38 57 52 59 73 60 40 61 24 62 25 63 33 64 26 65 32 66 34 67
REMARK SMILES IDX 31 68 27 69 28 70 29 71 30 72 56 73 57 74 65 75 58 76 64 77
REMARK SMILES IDX 66 78 63 79 59 80 60 81 61 82 62 83 41 84 42 85 50 86 43 87
REMARK SMILES IDX 49 88 51 89 48 90 44 91 45 92 46 93 47 94
REMARK H PARENT 81 16 84 22 71 47 39 58
REMARK Flexibility Score: inf
ROOT
ATOM      1  C   UNL A   1      36.438  22.364  23.971  1.00  0.00     0.274 C 
ENDROOT
BRANCH   1   2
ATOM      2  O   UNL A   1      35.014  22.506  24.163  1.00  0.00    -0.462 OA
BRANCH   2   3
ATOM      3  C   UNL A   1      34.633  23.651  24.772  1.00  0.00     0.310 C 
ATOM      4  O   UNL A   1      35.352  24.281  25.544  1.00  0.00    -0.252 OA
BRANCH   3   5
ATOM      5  C   UNL A   1      33.202  24.089  24.504  1.00  0.00     0.116 C 
ATOM      6  C   UNL A   1      31.590  27.434  26.904  1.00  0.00     0.039 C 
ATOM      7  C   UNL A   1      32.030  26.366  25.941  1.00  0.00    -0.074 C 
ATOM      8  C   UNL A   1      32.950  26.580  24.979  1.00  0.00    -0.073 C 
ATOM      9  C   UNL A   1      31.310  25.041  26.049  1.00  0.00     0.045 C 
ATOM     10  C   UNL A   1      33.681  27.874  24.750  1.00  0.00     0.039 C 
ATOM     11  C   UNL A   1      33.245  25.515  23.959  1.00  0.00     0.046 C 
ATOM     12  C   UNL A   1      32.056  23.813  25.496  1.00  0.00     0.097 C 
BRANCH  12  13
ATOM     13  C   UNL A   1      32.303  22.682  26.495  1.00  0.00     0.224 C 
ATOM     14  O   UNL A   1      32.348  22.950  27.699  1.00  0.00    -0.275 OA
ATOM     15  N   UNL A   1      32.447  21.380  26.146  1.00  0.00    -0.350 N 
ATOM     16  H   UNL A   1      32.706  20.787  26.888  1.00  0.00     0.163 HD
BRANCH  15  17
ATOM     17  C   UNL A   1      32.288  20.708  24.869  1.00  0.00     0.177 C 
BRANCH  17  18
ATOM     18  C   UNL A   1      33.118  19.413  24.796  1.00  0.00     0.283 C 
BRANCH  18  19
ATOM     19  N   UNL A   1      32.313  18.238  24.403  1.00  0.00    -0.330 N 
ATOM     20  C   UNL A   1      32.446  17.137  25.384  1.00  0.00     0.291 C 
ATOM     21  C   UNL A   1      32.693  17.701  23.075  1.00  0.00     0.291 C 
ATOM     22  H   UNL A   1      31.350  18.574  24.367  1.00  0.00     0.348 HD
ATOM     23  C   UNL A   1      33.810  16.427  25.341  1.00  0.00     0.221 C 
ATOM     24  C   UNL A   1      34.052  16.977  23.057  1.00  0.00     0.221 C 
ATOM     25  O   UNL A   1      34.101  15.925  24.030  1.00  0.00    -0.370 OA
ENDBRANCH  18  19
ENDBRANCH  17  18
ENDBRANCH  15  17
ENDBRANCH  12  13
ENDBRANCH   3   5
ENDBRANCH   2   3
ENDBRANCH   1   2
BRANCH   1  26
ATOM     26  C   UNL A   1      36.953  21.085  24.634  1.00  0.00     0.275 C 
BRANCH  26  27
ATOM     27  O   UNL A   1      37.491  21.398  25.928  1.00  0.00    -0.458 OA
BRANCH  27  28
ATOM     28  C   UNL A   1      38.829  21.226  26.058  1.00  0.00     0.338 C 
ATOM     29  O   UNL A   1      39.440  20.183  25.896  1.00  0.00    -0.246 OA
BRANCH  28  30
ATOM     30  C   UNL A   1      39.441  22.481  26.547  1.00  0.00     0.060 A 
ATOM     31  C   UNL A   1      38.968  23.737  26.154  1.00  0.00     0.016 A 
ATOM     32  C   UNL A   1      40.546  22.391  27.392  1.00  0.00     0.016 A 
ATOM     33  C   UNL A   1      39.622  24.901  26.564  1.00  0.00     0.010 A 
ATOM     34  C   UNL A   1      41.166  23.556  27.850  1.00  0.00     0.010 A 
ATOM     35  C   UNL A   1      40.727  24.821  27.421  1.00  0.00    -0.014 A 
BRANCH  35  36
ATOM     36  C   UNL A   1      41.477  26.037  27.836  1.00  0.00     0.031 A 
ATOM     37  C   UNL A   1      40.782  27.087  28.660  1.00  0.00     0.074 A 
ATOM     38  C   UNL A   1      42.756  26.217  27.455  1.00  0.00     0.049 A 
ATOM     39  N   UNL A   1      41.161  28.305  28.950  1.00  0.00    -0.248 NA
ATOM     40  C   UNL A   1      39.473  26.713  29.218  1.00  0.00     0.031 C 
ATOM     41  C   UNL A   1      43.560  25.251  26.705  1.00  0.00     0.029 A 
ATOM     42  N   UNL A   1      43.601  27.283  27.636  1.00  0.00    -0.354 N 
ATOM     43  C   UNL A   1      40.123  28.859  29.691  1.00  0.00     0.074 A 
ATOM     44  C   UNL A   1      39.091  27.846  29.789  1.00  0.00     0.031 C 
ATOM     45  C   UNL A   1      44.782  25.766  26.497  1.00  0.00     0.029 A 
ATOM     46  C   UNL A   1      44.825  27.124  27.031  1.00  0.00     0.049 A 
ATOM     47  H   UNL A   1      43.354  28.086  28.149  1.00  0.00     0.167 HD
ATOM     48  C   UNL A   1      40.038  30.100  30.236  1.00  0.00     0.034 A 
ATOM     49  C   UNL A   1      45.850  27.988  26.883  1.00  0.00     0.034 A 
ATOM     50  C   UNL A   1      41.083  31.091  30.134  1.00  0.00     0.049 A 
ATOM     51  C   UNL A   1      45.710  29.382  27.435  1.00  0.00     0.074 A 
ATOM     52  C   UNL A   1      41.106  32.381  30.636  1.00  0.00     0.029 A 
ATOM     53  N   UNL A   1      42.298  30.900  29.486  1.00  0.00    -0.354 N 
ATOM     54  N   UNL A   1      44.698  29.919  28.077  1.00  0.00    -0.248 NA
ATOM     55  C   UNL A   1      46.848  30.288  27.235  1.00  0.00     0.031 C 
ATOM     56  C   UNL A   1      42.309  32.985  30.248  1.00  0.00     0.029 A 
ATOM     57  C   UNL A   1      43.067  32.052  29.559  1.00  0.00     0.049 A 
ATOM     58  H   UNL A   1      42.573  30.067  29.039  1.00  0.00     0.167 HD
ATOM     59  C   UNL A   1      45.086  31.223  28.371  1.00  0.00     0.074 A 
ATOM     60  C   UNL A   1      46.428  31.384  27.850  1.00  0.00     0.031 C 
ATOM     61  C   UNL A   1      44.397  32.199  29.016  1.00  0.00     0.034 A 
BRANCH  48  62
ATOM     62  C   UNL A   1      38.745  30.463  30.926  1.00  0.00     0.023 A 
ATOM     63  C   UNL A   1      37.674  31.061  30.237  1.00  0.00     0.031 A 
ATOM     64  C   UNL A   1      38.598  30.249  32.308  1.00  0.00     0.131 A 
ATOM     65  C   UNL A   1      36.538  31.489  30.943  1.00  0.00     0.055 A 
ATOM     66  C   UNL A   1      37.435  30.608  32.992  1.00  0.00     0.041 A 
ATOM     67  F   UNL A   1      39.594  29.701  33.023  1.00  0.00    -0.206 F 
ATOM     68  C   UNL A   1      36.403  31.247  32.312  1.00  0.00     0.022 A 
BRANCH  65  69
ATOM     69  S   UNL A   1      35.298  32.490  30.075  1.00  0.00     0.124 S 
ATOM     70  O   UNL A   1      36.065  33.685  29.735  1.00  0.00    -0.237 OA
ATOM     71  O   UNL A   1      34.925  31.631  28.957  1.00  0.00    -0.237 OA
ATOM     72  O   UNL A   1      34.255  32.692  31.080  1.00  0.00    -0.744 OA
ENDBRANCH  65  69
ENDBRANCH  48  62
BRANCH  49  73
ATOM     73  C   UNL A   1      47.071  27.583  26.132  1.00  0.00     0.023 A 
ATOM     74  C   UNL A   1      47.188  27.827  24.756  1.00  0.00     0.031 A 
ATOM     75  C   UNL A   1      48.132  26.925  26.780  1.00  0.00     0.131 A 
ATOM     76  C   UNL A   1      48.330  27.394  24.064  1.00  0.00     0.055 A 
ATOM     77  C   UNL A   1      49.285  26.536  26.097  1.00  0.00     0.041 A 
ATOM     78  F   UNL A   1      48.069  26.668  28.096  1.00  0.00    -0.206 F 
ATOM     79  C   UNL A   1      49.384  26.761  24.728  1.00  0.00     0.022 A 
BRANCH  76  80
ATOM     80  S   UNL A   1      48.394  27.614  22.264  1.00  0.00     0.124 S 
ATOM     81  O   UNL A   1      48.590  26.245  21.802  1.00  0.00    -0.237 OA
ATOM     82  O   UNL A   1      47.090  28.206  21.985  1.00  0.00    -0.237 OA
ATOM     83  O   UNL A   1      49.535  28.507  22.071  1.00  0.00    -0.744 OA
ENDBRANCH  76  80
ENDBRANCH  49  73
BRANCH  61  84
ATOM     84  C   UNL A   1      45.117  33.506  29.226  1.00  0.00     0.023 A 
ATOM     85  C   UNL A   1      44.939  34.595  28.354  1.00  0.00     0.031 A 
ATOM     86  C   UNL A   1      46.020  33.649  30.294  1.00  0.00     0.131 A 
ATOM     87  C   UNL A   1      45.697  35.762  28.533  1.00  0.00     0.055 A 
ATOM     88  C   UNL A   1      46.733  34.831  30.496  1.00  0.00     0.041 A 
ATOM     89  F   UNL A   1      46.227  32.639  31.153  1.00  0.00    -0.206 F 
ATOM     90  C   UNL A   1      46.584  35.891  29.606  1.00  0.00     0.022 A 
BRANCH  87  91
ATOM     91  S   UNL A   1      45.576  37.080  27.293  1.00  0.00     0.124 S 
ATOM     92  O   UNL A   1      46.059  38.241  28.036  1.00  0.00    -0.237 OA
ATOM     93  O   UNL A   1      46.451  36.593  26.232  1.00  0.00    -0.237 OA
ATOM     94  O   UNL A   1      44.153  37.109  26.959  1.00  0.00    -0.744 OA
ENDBRANCH  87  91
ENDBRANCH  61  84
ENDBRANCH  35  36
ENDBRANCH  28  30
ENDBRANCH  27  28
ENDBRANCH  26  27
ENDBRANCH   1  26
TORSDOF 18
ENDMDL
MODEL 2
REMARK VINA RESULT:     -12.0      5.499     10.733
REMARK SMILES CC1=C(C)C[C@@H](C(=O)OCCOC(=O)c2ccc(-c3c4nc(c(-c5cc(S(=O)(=O)[O-])ccc5F)c5ccc([nH]5)c(-c5cc(S(=O)(=O)[O-])ccc5F)c5nc(c(-c6cc(S(=O)(=O)[O-])ccc6F)c6ccc3[nH]6)C=C5)C=C4)cc2)[C@@H](C(=O)NCC[NH+]2CCOCC2)C1
REMARK SMILES IDX 10 1 9 2 7 3 8 4 6 5 1 6 2 7 3 8 90 9 4 10 5 11 78 12 79 13
REMARK SMILES IDX 80 14 81 15 82 17 83 18 84 19 85 20 89 21 86 23 88 24 87 25
REMARK SMILES IDX 11 26 12 27 13 28 14 29 15 30 16 31 77 32 17 33 76 34 18 35
REMARK SMILES IDX 19 36 20 37 70 38 21 39 75 40 69 41 71 42 22 43 74 44 68 45
REMARK SMILES IDX 67 46 23 48 55 49 35 50 54 51 36 52 39 53 53 54 72 55 37 56
REMARK SMILES IDX 38 57 52 59 73 60 40 61 24 62 25 63 33 64 26 65 32 66 34 67
REMARK SMILES IDX 31 68 27 69 28 70 29 71 30 72 56 73 57 74 65 75 58 76 64 77
REMARK SMILES IDX 66 78 63 79 59 80 60 81 61 82 62 83 41 84 42 85 50 86 43 87
REMARK SMILES IDX 49 88 51 89 48 90 44 91 45 92 46 93 47 94
REMARK H PARENT 81 16 84 22 71 47 39 58
REMARK Flexibility Score: inf
ROOT
ATOM      1  C   UNL A   1      31.796  28.890  27.019  1.00  0.00     0.274 C 
ENDROOT
BRANCH   1   2
ATOM      2  O   UNL A   1      31.581  27.985  25.915  1.00  0.00    -0.462 OA
BRANCH   2   3
ATOM      3  C   UNL A   1      32.608  27.144  25.660  1.00  0.00     0.310 C 
ATOM      4  O   UNL A   1      33.764  27.355  26.020  1.00  0.00    -0.252 OA
BRANCH   3   5
ATOM      5  C   UNL A   1      32.263  25.929  24.814  1.00  0.00     0.116 C 
ATOM      6  C   UNL A   1      35.587  23.327  23.500  1.00  0.00     0.039 C 
ATOM      7  C   UNL A   1      34.350  24.048  23.958  1.00  0.00    -0.074 C 
ATOM      8  C   UNL A   1      33.945  24.063  25.244  1.00  0.00    -0.073 C 
ATOM      9  C   UNL A   1      33.519  24.693  22.872  1.00  0.00     0.045 C 
ATOM     10  C   UNL A   1      34.665  23.406  26.390  1.00  0.00     0.039 C 
ATOM     11  C   UNL A   1      32.626  24.682  25.619  1.00  0.00     0.046 C 
ATOM     12  C   UNL A   1      32.599  25.847  23.313  1.00  0.00     0.097 C 
BRANCH  12  13
ATOM     13  C   UNL A   1      32.834  27.185  22.613  1.00  0.00     0.224 C 
ATOM     14  O   UNL A   1      33.985  27.494  22.287  1.00  0.00    -0.275 OA
ATOM     15  N   UNL A   1      31.847  28.057  22.292  1.00  0.00    -0.350 N 
ATOM     16  H   UNL A   1      32.165  28.920  21.942  1.00  0.00     0.163 HD
BRANCH  15  17
ATOM     17  C   UNL A   1      30.402  27.940  22.376  1.00  0.00     0.177 C 
BRANCH  17  18
ATOM     18  C   UNL A   1      29.751  29.239  22.885  1.00  0.00     0.283 C 
BRANCH  18  19
ATOM     19  N   UNL A   1      28.472  29.542  22.210  1.00  0.00    -0.330 N 
ATOM     20  C   UNL A   1      28.616  30.663  21.252  1.00  0.00     0.291 C 
ATOM     21  C   UNL A   1      27.393  29.902  23.160  1.00  0.00     0.291 C 
ATOM     22  H   UNL A   1      28.218  28.682  21.722  1.00  0.00     0.348 HD
ATOM     23  C   UNL A   1      28.779  32.037  21.924  1.00  0.00     0.221 C 
ATOM     24  C   UNL A   1      27.564  31.289  23.806  1.00  0.00     0.221 C 
ATOM     25  O   UNL A   1      27.693  32.318  22.818  1.00  0.00    -0.370 OA
ENDBRANCH  18  19
ENDBRANCH  17  18
ENDBRANCH  15  17
ENDBRANCH  12  13
ENDBRANCH   3   5
ENDBRANCH   2   3
ENDBRANCH   1   2
BRANCH   1  26
ATOM     26  C   UNL A   1      31.726  30.346  26.554  1.00  0.00     0.275 C 
BRANCH  26  27
ATOM     27  O   UNL A   1      33.054  30.850  26.353  1.00  0.00    -0.458 OA
BRANCH  27  28
ATOM     28  C   UNL A   1      33.464  31.781  27.249  1.00  0.00     0.338 C 
ATOM     29  O   UNL A   1      32.933  32.857  27.464  1.00  0.00    -0.246 OA
BRANCH  28  30
ATOM     30  C   UNL A   1      34.740  31.346  27.860  1.00  0.00     0.060 A 
ATOM     31  C   UNL A   1      34.956  30.024  28.262  1.00  0.00     0.016 A 
ATOM     32  C   UNL A   1      35.730  32.305  28.072  1.00  0.00     0.016 A 
ATOM     33  C   UNL A   1      36.138  29.666  28.915  1.00  0.00     0.010 A 
ATOM     34  C   UNL A   1      36.936  31.935  28.672  1.00  0.00     0.010 A 
ATOM     35  C   UNL A   1      37.142  30.619  29.123  1.00  0.00    -0.014 A 
BRANCH  35  36
ATOM     36  C   UNL A   1      38.390  30.284  29.859  1.00  0.00     0.031 A 
ATOM     37  C   UNL A   1      39.370  29.319  29.247  1.00  0.00     0.074 A 
ATOM     38  C   UNL A   1      38.632  30.810  31.074  1.00  0.00     0.049 A 
ATOM     39  N   UNL A   1      40.401  28.723  29.790  1.00  0.00    -0.248 NA
ATOM     40  C   UNL A   1      39.144  28.971  27.837  1.00  0.00     0.031 C 
ATOM     41  C   UNL A   1      37.791  31.798  31.752  1.00  0.00     0.029 A 
ATOM     42  N   UNL A   1      39.651  30.575  31.964  1.00  0.00    -0.354 N 
ATOM     43  C   UNL A   1      40.925  27.898  28.800  1.00  0.00     0.074 A 
ATOM     44  C   UNL A   1      40.084  28.060  27.631  1.00  0.00     0.031 C 
ATOM     45  C   UNL A   1      38.333  32.090  32.945  1.00  0.00     0.029 A 
ATOM     46  C   UNL A   1      39.514  31.257  33.150  1.00  0.00     0.049 A 
ATOM     47  H   UNL A   1      40.407  29.975  31.771  1.00  0.00     0.167 HD
ATOM     48  C   UNL A   1      42.006  27.078  28.864  1.00  0.00     0.034 A 
ATOM     49  C   UNL A   1      40.231  31.187  34.290  1.00  0.00     0.034 A 
ATOM     50  C   UNL A   1      42.836  26.939  30.037  1.00  0.00     0.049 A 
ATOM     51  C   UNL A   1      41.385  30.222  34.364  1.00  0.00     0.074 A 
ATOM     52  C   UNL A   1      43.948  26.135  30.221  1.00  0.00     0.029 A 
ATOM     53  N   UNL A   1      42.645  27.627  31.230  1.00  0.00    -0.354 N 
ATOM     54  N   UNL A   1      41.833  29.397  33.446  1.00  0.00    -0.248 NA
ATOM     55  C   UNL A   1      42.124  30.174  35.633  1.00  0.00     0.031 C 
ATOM     56  C   UNL A   1      44.397  26.297  31.539  1.00  0.00     0.029 A 
ATOM     57  C   UNL A   1      43.606  27.251  32.159  1.00  0.00     0.049 A 
ATOM     58  H   UNL A   1      41.932  28.285  31.393  1.00  0.00     0.167 HD
ATOM     59  C   UNL A   1      42.917  28.743  34.023  1.00  0.00     0.074 A 
ATOM     60  C   UNL A   1      43.064  29.282  35.360  1.00  0.00     0.031 C 
ATOM     61  C   UNL A   1      43.723  27.786  33.494  1.00  0.00     0.034 A 
BRANCH  48  62
ATOM     62  C   UNL A   1      42.299  26.227  27.651  1.00  0.00     0.023 A 
ATOM     63  C   UNL A   1      41.854  24.897  27.547  1.00  0.00     0.031 A 
ATOM     64  C   UNL A   1      43.077  26.743  26.599  1.00  0.00     0.131 A 
ATOM     65  C   UNL A   1      42.250  24.108  26.455  1.00  0.00     0.055 A 
ATOM     66  C   UNL A   1      43.405  25.976  25.479  1.00  0.00     0.041 A 
ATOM     67  F   UNL A   1      43.548  27.999  26.650  1.00  0.00    -0.206 F 
ATOM     68  C   UNL A   1      43.005  24.645  25.410  1.00  0.00     0.022 A 
BRANCH  65  69
ATOM     69  S   UNL A   1      41.882  22.331  26.485  1.00  0.00     0.124 S 
ATOM     70  O   UNL A   1      42.379  21.947  27.804  1.00  0.00    -0.237 OA
ATOM     71  O   UNL A   1      40.434  22.305  26.315  1.00  0.00    -0.237 OA
ATOM     72  O   UNL A   1      42.651  21.802  25.359  1.00  0.00    -0.744 OA
ENDBRANCH  65  69
ENDBRANCH  48  62
BRANCH  49  73
ATOM     73  C   UNL A   1      39.845  32.008  35.471  1.00  0.00     0.023 A 
ATOM     74  C   UNL A   1      38.941  31.521  36.427  1.00  0.00     0.031 A 
ATOM     75  C   UNL A   1      40.361  33.304  35.649  1.00  0.00     0.131 A 
ATOM     76  C   UNL A   1      38.558  32.334  37.505  1.00  0.00     0.055 A 
ATOM     77  C   UNL A   1      40.013  34.092  36.748  1.00  0.00     0.041 A 
ATOM     78  F   UNL A   1      41.230  33.817  34.764  1.00  0.00    -0.206 F 
ATOM     79  C   UNL A   1      39.098  33.610  37.679  1.00  0.00     0.022 A 
BRANCH  76  80
ATOM     80  S   UNL A   1      37.294  31.720  38.653  1.00  0.00     0.124 S 
ATOM     81  O   UNL A   1      36.229  32.701  38.478  1.00  0.00    -0.237 OA
ATOM     82  O   UNL A   1      37.029  30.385  38.126  1.00  0.00    -0.237 OA
ATOM     83  O   UNL A   1      37.966  31.753  39.950  1.00  0.00    -0.744 OA
ENDBRANCH  76  80
ENDBRANCH  49  73
BRANCH  61  84
ATOM     84  C   UNL A   1      44.858  27.306  34.363  1.00  0.00     0.023 A 
ATOM     85  C   UNL A   1      44.742  26.149  35.153  1.00  0.00     0.031 A 
ATOM     86  C   UNL A   1      46.056  28.037  34.424  1.00  0.00     0.131 A 
ATOM     87  C   UNL A   1      45.789  25.787  36.015  1.00  0.00     0.055 A 
ATOM     88  C   UNL A   1      47.113  27.644  35.246  1.00  0.00     0.041 A 
ATOM     89  F   UNL A   1      46.215  29.150  33.690  1.00  0.00    -0.206 F 
ATOM     90  C   UNL A   1      46.978  26.521  36.057  1.00  0.00     0.022 A 
BRANCH  87  91
ATOM     91  S   UNL A   1      45.543  24.393  37.149  1.00  0.00     0.124 S 
ATOM     92  O   UNL A   1      44.863  23.423  36.297  1.00  0.00    -0.237 OA
ATOM     93  O   UNL A   1      46.911  24.057  37.532  1.00  0.00    -0.237 OA
ATOM     94  O   UNL A   1      44.722  24.960  38.218  1.00  0.00    -0.744 OA
ENDBRANCH  87  91
ENDBRANCH  61  84
ENDBRANCH  35  36
ENDBRANCH  28  30
ENDBRANCH  27  28
ENDBRANCH  26  27
ENDBRANCH   1  26
TORSDOF 18
ENDMDL
MODEL 3
REMARK VINA RESULT:     -11.3      1.043      7.528
REMARK SMILES CC1=C(C)C[C@@H](C(=O)OCCOC(=O)c2ccc(-c3c4nc(c(-c5cc(S(=O)(=O)[O-])ccc5F)c5ccc([nH]5)c(-c5cc(S(=O)(=O)[O-])ccc5F)c5nc(c(-c6cc(S(=O)(=O)[O-])ccc6F)c6ccc3[nH]6)C=C5)C=C4)cc2)[C@@H](C(=O)NCC[NH+]2CCOCC2)C1
REMARK SMILES IDX 10 1 9 2 7 3 8 4 6 5 1 6 2 7 3 8 90 9 4 10 5 11 78 12 79 13
REMARK SMILES IDX 80 14 81 15 82 17 83 18 84 19 85 20 89 21 86 23 88 24 87 25
REMARK SMILES IDX 11 26 12 27 13 28 14 29 15 30 16 31 77 32 17 33 76 34 18 35
REMARK SMILES IDX 19 36 20 37 70 38 21 39 75 40 69 41 71 42 22 43 74 44 68 45
REMARK SMILES IDX 67 46 23 48 55 49 35 50 54 51 36 52 39 53 53 54 72 55 37 56
REMARK SMILES IDX 38 57 52 59 73 60 40 61 24 62 25 63 33 64 26 65 32 66 34 67
REMARK SMILES IDX 31 68 27 69 28 70 29 71 30 72 56 73 57 74 65 75 58 76 64 77
REMARK SMILES IDX 66 78 63 79 59 80 60 81 61 82 62 83 41 84 42 85 50 86 43 87
REMARK SMILES IDX 49 88 51 89 48 90 44 91 45 92 46 93 47 94
REMARK H PARENT 81 16 84 22 71 47 39 58
REMARK Flexibility Score: inf
ROOT
ATOM      1  C   UNL A   1      35.422  21.448  24.616  1.00  0.00     0.274 C 
ENDROOT
BRANCH   1   2
ATOM      2  O   UNL A   1      35.499  22.889  24.577  1.00  0.00    -0.462 OA
BRANCH   2   3
ATOM      3  C   UNL A   1      34.336  23.528  24.833  1.00  0.00     0.310 C 
ATOM      4  O   UNL A   1      34.083  24.075  25.905  1.00  0.00    -0.252 OA
BRANCH   3   5
ATOM      5  C   UNL A   1      33.299  23.468  23.724  1.00  0.00     0.116 C 
ATOM      6  C   UNL A   1      30.279  26.693  23.553  1.00  0.00     0.039 C 
ATOM      7  C   UNL A   1      31.297  25.595  23.416  1.00  0.00    -0.074 C 
ATOM      8  C   UNL A   1      32.581  25.825  23.074  1.00  0.00    -0.073 C 
ATOM      9  C   UNL A   1      30.780  24.186  23.596  1.00  0.00     0.045 C 
ATOM     10  C   UNL A   1      33.181  27.180  22.816  1.00  0.00     0.039 C 
ATOM     11  C   UNL A   1      33.517  24.677  22.815  1.00  0.00     0.046 C 
ATOM     12  C   UNL A   1      31.821  23.124  23.994  1.00  0.00     0.097 C 
BRANCH  12  13
ATOM     13  C   UNL A   1      31.543  22.379  25.300  1.00  0.00     0.224 C 
ATOM     14  O   UNL A   1      30.983  22.982  26.221  1.00  0.00    -0.275 OA
ATOM     15  N   UNL A   1      31.845  21.075  25.508  1.00  0.00    -0.350 N 
ATOM     16  H   UNL A   1      31.703  20.767  26.432  1.00  0.00     0.163 HD
BRANCH  15  17
ATOM     17  C   UNL A   1      32.342  20.051  24.606  1.00  0.00     0.177 C 
BRANCH  17  18
ATOM     18  C   UNL A   1      32.757  18.775  25.361  1.00  0.00     0.283 C 
BRANCH  18  19
ATOM     19  N   UNL A   1      32.229  17.543  24.737  1.00  0.00    -0.330 N 
ATOM     20  C   UNL A   1      32.621  16.337  25.501  1.00  0.00     0.291 C 
ATOM     21  C   UNL A   1      32.696  17.361  23.343  1.00  0.00     0.291 C 
ATOM     22  H   UNL A   1      31.214  17.656  24.740  1.00  0.00     0.348 HD
ATOM     23  C   UNL A   1      34.109  15.970  25.361  1.00  0.00     0.221 C 
ATOM     24  C   UNL A   1      34.182  16.975  23.226  1.00  0.00     0.221 C 
ATOM     25  O   UNL A   1      34.482  15.799  23.987  1.00  0.00    -0.370 OA
ENDBRANCH  18  19
ENDBRANCH  17  18
ENDBRANCH  15  17
ENDBRANCH  12  13
ENDBRANCH   3   5
ENDBRANCH   2   3
ENDBRANCH   1   2
BRANCH   1  26
ATOM     26  C   UNL A   1      36.551  20.863  25.466  1.00  0.00     0.275 C 
BRANCH  26  27
ATOM     27  O   UNL A   1      37.818  21.208  24.886  1.00  0.00    -0.458 OA
BRANCH  27  28
ATOM     28  C   UNL A   1      38.892  21.036  25.694  1.00  0.00     0.338 C 
ATOM     29  O   UNL A   1      39.334  19.970  26.087  1.00  0.00    -0.246 OA
BRANCH  28  30
ATOM     30  C   UNL A   1      39.392  22.357  26.135  1.00  0.00     0.060 A 
ATOM     31  C   UNL A   1      38.587  23.500  26.109  1.00  0.00     0.016 A 
ATOM     32  C   UNL A   1      40.721  22.456  26.546  1.00  0.00     0.016 A 
ATOM     33  C   UNL A   1      39.115  24.747  26.449  1.00  0.00     0.010 A 
ATOM     34  C   UNL A   1      41.234  23.694  26.942  1.00  0.00     0.010 A 
ATOM     35  C   UNL A   1      40.445  24.856  26.873  1.00  0.00    -0.014 A 
BRANCH  35  36
ATOM     36  C   UNL A   1      41.053  26.175  27.193  1.00  0.00     0.031 A 
ATOM     37  C   UNL A   1      42.438  26.488  26.692  1.00  0.00     0.074 A 
ATOM     38  C   UNL A   1      40.391  27.071  27.947  1.00  0.00     0.049 A 
ATOM     39  N   UNL A   1      43.240  27.468  27.022  1.00  0.00    -0.248 NA
ATOM     40  C   UNL A   1      42.995  25.559  25.698  1.00  0.00     0.031 C 
ATOM     41  C   UNL A   1      39.023  26.912  28.445  1.00  0.00     0.029 A 
ATOM     42  N   UNL A   1      40.784  28.290  28.440  1.00  0.00    -0.354 N 
ATOM     43  C   UNL A   1      44.413  27.254  26.305  1.00  0.00     0.074 A 
ATOM     44  C   UNL A   1      44.220  26.040  25.538  1.00  0.00     0.031 C 
ATOM     45  C   UNL A   1      38.690  27.995  29.165  1.00  0.00     0.029 A 
ATOM     46  C   UNL A   1      39.842  28.889  29.242  1.00  0.00     0.049 A 
ATOM     47  H   UNL A   1      41.657  28.697  28.237  1.00  0.00     0.167 HD
ATOM     48  C   UNL A   1      45.547  28.001  26.293  1.00  0.00     0.034 A 
ATOM     49  C   UNL A   1      39.912  30.007  29.993  1.00  0.00     0.034 A 
ATOM     50  C   UNL A   1      45.715  29.214  27.058  1.00  0.00     0.049 A 
ATOM     51  C   UNL A   1      41.201  30.785  30.018  1.00  0.00     0.074 A 
ATOM     52  C   UNL A   1      46.819  30.047  27.131  1.00  0.00     0.029 A 
ATOM     53  N   UNL A   1      44.745  29.772  27.883  1.00  0.00    -0.354 N 
ATOM     54  N   UNL A   1      42.328  30.539  29.390  1.00  0.00    -0.248 NA
ATOM     55  C   UNL A   1      41.229  31.987  30.862  1.00  0.00     0.031 C 
ATOM     56  C   UNL A   1      46.535  31.076  28.039  1.00  0.00     0.029 A 
ATOM     57  C   UNL A   1      45.232  30.924  28.483  1.00  0.00     0.049 A 
ATOM     58  H   UNL A   1      43.844  29.402  28.023  1.00  0.00     0.167 HD
ATOM     59  C   UNL A   1      43.194  31.567  29.752  1.00  0.00     0.074 A 
ATOM     60  C   UNL A   1      42.454  32.441  30.639  1.00  0.00     0.031 C 
ATOM     61  C   UNL A   1      44.484  31.772  29.381  1.00  0.00     0.034 A 
BRANCH  48  62
ATOM     62  C   UNL A   1      46.706  27.480  25.476  1.00  0.00     0.023 A 
ATOM     63  C   UNL A   1      46.989  27.966  24.187  1.00  0.00     0.031 A 
ATOM     64  C   UNL A   1      47.516  26.447  25.980  1.00  0.00     0.131 A 
ATOM     65  C   UNL A   1      48.003  27.370  23.419  1.00  0.00     0.055 A 
ATOM     66  C   UNL A   1      48.572  25.909  25.241  1.00  0.00     0.041 A 
ATOM     67  F   UNL A   1      47.283  25.928  27.197  1.00  0.00    -0.206 F 
ATOM     68  C   UNL A   1      48.810  26.359  23.946  1.00  0.00     0.022 A 
BRANCH  65  69
ATOM     69  S   UNL A   1      48.164  27.838  21.673  1.00  0.00     0.124 S 
ATOM     70  O   UNL A   1      48.367  26.541  21.035  1.00  0.00    -0.237 OA
ATOM     71  O   UNL A   1      46.889  28.492  21.402  1.00  0.00    -0.237 OA
ATOM     72  O   UNL A   1      49.331  28.719  21.661  1.00  0.00    -0.744 OA
ENDBRANCH  65  69
ENDBRANCH  48  62
BRANCH  49  73
ATOM     73  C   UNL A   1      38.750  30.427  30.826  1.00  0.00     0.023 A 
ATOM     74  C   UNL A   1      37.695  31.168  30.274  1.00  0.00     0.031 A 
ATOM     75  C   UNL A   1      38.692  30.109  32.195  1.00  0.00     0.131 A 
ATOM     76  C   UNL A   1      36.635  31.590  31.093  1.00  0.00     0.055 A 
ATOM     77  C   UNL A   1      37.614  30.493  32.995  1.00  0.00     0.041 A 
ATOM     78  F   UNL A   1      39.676  29.402  32.771  1.00  0.00    -0.206 F 
ATOM     79  C   UNL A   1      36.582  31.247  32.446  1.00  0.00     0.022 A 
BRANCH  76  80
ATOM     80  S   UNL A   1      35.350  32.652  30.375  1.00  0.00     0.124 S 
ATOM     81  O   UNL A   1      34.343  32.656  31.429  1.00  0.00    -0.237 OA
ATOM     82  O   UNL A   1      36.071  33.905  30.172  1.00  0.00    -0.237 OA
ATOM     83  O   UNL A   1      34.971  31.948  29.152  1.00  0.00    -0.744 OA
ENDBRANCH  76  80
ENDBRANCH  49  73
BRANCH  61  84
ATOM     84  C   UNL A   1      45.146  33.019  29.909  1.00  0.00     0.023 A 
ATOM     85  C   UNL A   1      45.086  34.238  29.210  1.00  0.00     0.031 A 
ATOM     86  C   UNL A   1      45.875  32.975  31.110  1.00  0.00     0.131 A 
ATOM     87  C   UNL A   1      45.792  35.352  29.691  1.00  0.00     0.055 A 
ATOM     88  C   UNL A   1      46.532  34.100  31.609  1.00  0.00     0.041 A 
ATOM     89  F   UNL A   1      45.964  31.835  31.813  1.00  0.00    -0.206 F 
ATOM     90  C   UNL A   1      46.505  35.293  30.893  1.00  0.00     0.022 A 
BRANCH  87  91
ATOM     91  S   UNL A   1      45.841  36.857  28.680  1.00  0.00     0.124 S 
ATOM     92  O   UNL A   1      44.427  37.070  28.382  1.00  0.00    -0.237 OA
ATOM     93  O   UNL A   1      46.453  37.822  29.587  1.00  0.00    -0.237 OA
ATOM     94  O   UNL A   1      46.664  36.475  27.534  1.00  0.00    -0.744 OA
ENDBRANCH  87  91
ENDBRANCH  61  84
ENDBRANCH  35  36
ENDBRANCH  28  30
ENDBRANCH  27  28
ENDBRANCH  26  27
ENDBRANCH   1  26
TORSDOF 18
ENDMDL
