MODEL 1
REMARK VINA RESULT:     -12.5      0.000      0.000
REMARK SMILES C[NH2+][C@]1(C(=O)OCCOC(=O)c2ccc(-c3c4nc(c(-c5cc(S(=O)(=O)[O-])ccc5F)c5ccc([nH]5)c(-c5cc(S(=O)(=O)[O-])ccc5F)c5nc(c(-c6cc(S(=O)(=O)[O-])ccc6F)c6ccc3[nH]6)C=C5)C=C4)cc2)CC[C@@H](OCCCc2ccccc2)C1
REMARK SMILES IDX 7 1 6 2 4 3 5 4 3 5 75 6 88 7 76 8 77 9 2 10 1 11 78 14
REMARK SMILES IDX 79 15 80 16 81 17 82 18 83 19 87 20 84 21 86 22 85 23 8 24
REMARK SMILES IDX 9 25 10 26 11 27 12 28 13 29 74 30 14 31 73 32 15 33 16 34
REMARK SMILES IDX 17 35 67 36 18 37 72 38 66 39 68 40 19 41 71 42 65 43 64 44
REMARK SMILES IDX 20 46 52 47 32 48 51 49 33 50 36 51 50 52 69 53 34 54 35 55
REMARK SMILES IDX 49 57 70 58 37 59 21 60 22 61 30 62 23 63 29 64 31 65 28 66
REMARK SMILES IDX 24 67 25 68 26 69 27 70 53 71 54 72 62 73 55 74 61 75 63 76
REMARK SMILES IDX 60 77 56 78 57 79 58 80 59 81 38 82 39 83 47 84 40 85 46 86
REMARK SMILES IDX 48 87 45 88 41 89 42 90 43 91 44 92
REMARK H PARENT 2 12 2 13 68 45 36 56
REMARK Flexibility Score: inf
ROOT
ATOM      1  C   UNL A   1      35.260  23.481  24.199  1.00  0.00     0.274 C 
ENDROOT
BRANCH   1   2
ATOM      2  O   UNL A   1      34.481  24.117  22.774  1.00  0.00    -0.457 OA
BRANCH   2   3
ATOM      3  C   UNL A   1      33.297  25.390  22.005  1.00  0.00     0.368 C 
ATOM      4  O   UNL A   1      33.229  25.674  20.767  1.00  0.00    -0.245 OA
BRANCH   3   5
ATOM      5  C   UNL A   1      31.883  26.110  22.770  1.00  0.00     0.196 C 
ATOM      6  C   UNL A   1      30.498  25.633  23.292  1.00  0.00     0.084 C 
ATOM      7  C   UNL A   1      32.574  26.546  24.136  1.00  0.00     0.113 C 
ATOM      8  C   UNL A   1      30.310  26.202  24.696  1.00  0.00     0.039 C 
ATOM      9  C   UNL A   1      31.701  26.094  25.290  1.00  0.00     0.125 C 
BRANCH   5  10
ATOM     10  N   UNL A   1      31.693  27.460  22.082  1.00  0.00    -0.334 N 
ATOM     11  C   UNL A   1      32.136  28.665  22.765  1.00  0.00     0.331 C 
ATOM     12  H   UNL A   1      32.195  27.417  21.195  1.00  0.00     0.347 HD
ATOM     13  H   UNL A   1      30.680  27.567  22.028  1.00  0.00     0.347 HD
ENDBRANCH   5  10
BRANCH   9  14
ATOM     14  O   UNL A   1      31.788  24.743  25.731  1.00  0.00    -0.378 OA
BRANCH  14  15
ATOM     15  C   UNL A   1      30.763  24.150  26.499  1.00  0.00     0.161 C 
BRANCH  15  16
ATOM     16  C   UNL A   1      30.905  22.633  26.340  1.00  0.00     0.033 C 
BRANCH  16  17
ATOM     17  C   UNL A   1      32.304  22.084  25.966  1.00  0.00     0.038 C 
BRANCH  17  18
ATOM     18  C   UNL A   1      32.385  21.005  24.903  1.00  0.00    -0.048 A 
ATOM     19  C   UNL A   1      32.066  21.462  23.197  1.00  0.00     0.004 A 
ATOM     20  C   UNL A   1      32.739  19.277  25.341  1.00  0.00     0.004 A 
ATOM     21  C   UNL A   1      32.039  20.243  21.893  1.00  0.00     0.000 A 
ATOM     22  C   UNL A   1      32.583  17.990  24.061  1.00  0.00     0.000 A 
ATOM     23  C   UNL A   1      32.235  18.485  22.309  1.00  0.00     0.000 A 
ENDBRANCH  17  18
ENDBRANCH  16  17
ENDBRANCH  15  16
ENDBRANCH  14  15
ENDBRANCH   9  14
ENDBRANCH   3   5
ENDBRANCH   2   3
ENDBRANCH   1   2
BRANCH   1  24
ATOM     24  C   UNL A   1      35.797  21.935  24.259  1.00  0.00     0.275 C 
BRANCH  24  25
ATOM     25  O   UNL A   1      37.263  21.683  24.158  1.00  0.00    -0.458 OA
BRANCH  25  26
ATOM     26  C   UNL A   1      37.966  21.311  25.278  1.00  0.00     0.338 C 
ATOM     27  O   UNL A   1      38.118  20.144  25.617  1.00  0.00    -0.246 OA
BRANCH  26  28
ATOM     28  C   UNL A   1      38.687  22.436  26.027  1.00  0.00     0.060 A 
ATOM     29  C   UNL A   1      38.326  23.790  25.967  1.00  0.00     0.016 A 
ATOM     30  C   UNL A   1      39.916  22.175  26.638  1.00  0.00     0.016 A 
ATOM     31  C   UNL A   1      39.128  24.835  26.463  1.00  0.00     0.010 A 
ATOM     32  C   UNL A   1      40.699  23.217  27.203  1.00  0.00     0.010 A 
ATOM     33  C   UNL A   1      40.320  24.571  27.125  1.00  0.00    -0.014 A 
BRANCH  33  34
ATOM     34  C   UNL A   1      41.164  25.672  27.709  1.00  0.00     0.031 A 
ATOM     35  C   UNL A   1      40.532  26.741  28.570  1.00  0.00     0.074 A 
ATOM     36  C   UNL A   1      42.489  25.764  27.453  1.00  0.00     0.049 A 
ATOM     37  N   UNL A   1      40.977  27.933  28.888  1.00  0.00    -0.248 NA
ATOM     38  C   UNL A   1      39.213  26.425  29.136  1.00  0.00     0.031 C 
ATOM     39  C   UNL A   1      43.297  24.772  26.741  1.00  0.00     0.029 A 
ATOM     40  N   UNL A   1      43.394  26.767  27.738  1.00  0.00    -0.354 N 
ATOM     41  C   UNL A   1      39.966  28.536  29.633  1.00  0.00     0.074 A 
ATOM     42  C   UNL A   1      38.886  27.572  29.715  1.00  0.00     0.031 C 
ATOM     43  C   UNL A   1      44.558  25.215  26.634  1.00  0.00     0.029 A 
ATOM     44  C   UNL A   1      44.636  26.568  27.171  1.00  0.00     0.049 A 
ATOM     45  H   UNL A   1      43.174  27.550  28.294  1.00  0.00     0.167 HD
ATOM     46  C   UNL A   1      39.938  29.778  30.182  1.00  0.00     0.034 A 
ATOM     47  C   UNL A   1      45.696  27.392  27.022  1.00  0.00     0.034 A 
ATOM     48  C   UNL A   1      41.039  30.716  30.120  1.00  0.00     0.049 A 
ATOM     49  C   UNL A   1      45.611  28.806  27.540  1.00  0.00     0.074 A 
ATOM     50  C   UNL A   1      41.115  31.994  30.650  1.00  0.00     0.029 A 
ATOM     51  N   UNL A   1      42.257  30.482  29.494  1.00  0.00    -0.354 N 
ATOM     52  N   UNL A   1      44.620  29.398  28.166  1.00  0.00    -0.248 NA
ATOM     53  C   UNL A   1      46.783  29.665  27.325  1.00  0.00     0.031 C 
ATOM     54  C   UNL A   1      42.337  32.559  30.274  1.00  0.00     0.029 A 
ATOM     55  C   UNL A   1      43.071  31.603  29.593  1.00  0.00     0.049 A 
ATOM     56  H   UNL A   1      42.507  29.641  29.045  1.00  0.00     0.167 HD
ATOM     57  C   UNL A   1      45.067  30.688  28.448  1.00  0.00     0.074 A 
ATOM     58  C   UNL A   1      46.418  30.781  27.937  1.00  0.00     0.031 C 
ATOM     59  C   UNL A   1      44.417  31.700  29.078  1.00  0.00     0.034 A 
BRANCH  46  60
ATOM     60  C   UNL A   1      38.650  30.232  30.838  1.00  0.00     0.023 A 
ATOM     61  C   UNL A   1      37.621  30.864  30.118  1.00  0.00     0.031 A 
ATOM     62  C   UNL A   1      38.456  30.038  32.219  1.00  0.00     0.131 A 
ATOM     63  C   UNL A   1      36.486  31.345  30.793  1.00  0.00     0.055 A 
ATOM     64  C   UNL A   1      37.286  30.438  32.867  1.00  0.00     0.041 A 
ATOM     65  F   UNL A   1      39.408  29.457  32.968  1.00  0.00    -0.206 F 
ATOM     66  C   UNL A   1      36.299  31.110  32.157  1.00  0.00     0.022 A 
BRANCH  63  67
ATOM     67  S   UNL A   1      35.332  32.417  29.893  1.00  0.00     0.124 S 
ATOM     68  O   UNL A   1      34.335  32.704  30.922  1.00  0.00    -0.237 OA
ATOM     69  O   UNL A   1      36.181  33.533  29.496  1.00  0.00    -0.237 OA
ATOM     70  O   UNL A   1      34.859  31.570  28.798  1.00  0.00    -0.744 OA
ENDBRANCH  63  67
ENDBRANCH  46  60
BRANCH  47  71
ATOM     71  C   UNL A   1      46.910  26.939  26.271  1.00  0.00     0.023 A 
ATOM     72  C   UNL A   1      47.973  26.298  26.928  1.00  0.00     0.031 A 
ATOM     73  C   UNL A   1      47.048  27.189  24.893  1.00  0.00     0.131 A 
ATOM     74  C   UNL A   1      49.138  25.967  26.217  1.00  0.00     0.055 A 
ATOM     75  C   UNL A   1      48.180  26.795  24.177  1.00  0.00     0.041 A 
ATOM     76  F   UNL A   1      46.073  27.814  24.213  1.00  0.00    -0.206 F 
ATOM     77  C   UNL A   1      49.241  26.190  24.843  1.00  0.00     0.022 A 
BRANCH  74  78
ATOM     78  S   UNL A   1      50.566  25.327  27.137  1.00  0.00     0.124 S 
ATOM     79  O   UNL A   1      51.481  24.978  26.058  1.00  0.00    -0.237 OA
ATOM     80  O   UNL A   1      50.942  26.478  27.952  1.00  0.00    -0.237 OA
ATOM     81  O   UNL A   1      50.014  24.196  27.879  1.00  0.00    -0.744 OA
ENDBRANCH  74  78
ENDBRANCH  47  71
BRANCH  59  82
ATOM     82  C   UNL A   1      45.188  32.980  29.309  1.00  0.00     0.023 A 
ATOM     83  C   UNL A   1      45.162  34.044  28.390  1.00  0.00     0.031 A 
ATOM     84  C   UNL A   1      45.978  33.127  30.464  1.00  0.00     0.131 A 
ATOM     85  C   UNL A   1      45.959  35.179  28.611  1.00  0.00     0.055 A 
ATOM     86  C   UNL A   1      46.713  34.287  30.712  1.00  0.00     0.041 A 
ATOM     87  F   UNL A   1      46.050  32.142  31.374  1.00  0.00    -0.206 F 
ATOM     88  C   UNL A   1      46.718  35.316  29.776  1.00  0.00     0.022 A 
BRANCH  85  89
ATOM     89  S   UNL A   1      46.076  36.431  27.302  1.00  0.00     0.124 S 
ATOM     90  O   UNL A   1      46.969  37.416  27.904  1.00  0.00    -0.237 OA
ATOM     91  O   UNL A   1      46.627  35.668  26.187  1.00  0.00    -0.237 OA
ATOM     92  O   UNL A   1      44.694  36.873  27.125  1.00  0.00    -0.744 OA
ENDBRANCH  85  89
ENDBRANCH  59  82
ENDBRANCH  33  34
ENDBRANCH  26  28
ENDBRANCH  25  26
ENDBRANCH  24  25
ENDBRANCH   1  24
TORSDOF 20
ENDMDL
MODEL 2
REMARK VINA RESULT:     -12.2      2.008      3.588
REMARK SMILES C[NH2+][C@]1(C(=O)OCCOC(=O)c2ccc(-c3c4nc(c(-c5cc(S(=O)(=O)[O-])ccc5F)c5ccc([nH]5)c(-c5cc(S(=O)(=O)[O-])ccc5F)c5nc(c(-c6cc(S(=O)(=O)[O-])ccc6F)c6ccc3[nH]6)C=C5)C=C4)cc2)CC[C@@H](OCCCc2ccccc2)C1
REMARK SMILES IDX 7 1 6 2 4 3 5 4 3 5 75 6 88 7 76 8 77 9 2 10 1 11 78 14
REMARK SMILES IDX 79 15 80 16 81 17 82 18 83 19 87 20 84 21 86 22 85 23 8 24
REMARK SMILES IDX 9 25 10 26 11 27 12 28 13 29 74 30 14 31 73 32 15 33 16 34
REMARK SMILES IDX 17 35 67 36 18 37 72 38 66 39 68 40 19 41 71 42 65 43 64 44
REMARK SMILES IDX 20 46 52 47 32 48 51 49 33 50 36 51 50 52 69 53 34 54 35 55
REMARK SMILES IDX 49 57 70 58 37 59 21 60 22 61 30 62 23 63 29 64 31 65 28 66
REMARK SMILES IDX 24 67 25 68 26 69 27 70 53 71 54 72 62 73 55 74 61 75 63 76
REMARK SMILES IDX 60 77 56 78 57 79 58 80 59 81 38 82 39 83 47 84 40 85 46 86
REMARK SMILES IDX 48 87 45 88 41 89 42 90 43 91 44 92
REMARK H PARENT 2 12 2 13 68 45 36 56
REMARK Flexibility Score: inf
ROOT
ATOM      1  C   UNL A   1      35.603  22.996  23.669  1.00  0.00     0.274 C 
ENDROOT
BRANCH   1   2
ATOM      2  O   UNL A   1      34.364  23.938  24.455  1.00  0.00    -0.457 OA
BRANCH   2   3
ATOM      3  C   UNL A   1      33.131  24.120  25.891  1.00  0.00     0.368 C 
ATOM      4  O   UNL A   1      33.438  24.114  27.125  1.00  0.00    -0.245 OA
BRANCH   3   5
ATOM      5  C   UNL A   1      31.464  24.678  25.783  1.00  0.00     0.196 C 
ATOM      6  C   UNL A   1      30.722  26.022  25.533  1.00  0.00     0.084 C 
ATOM      7  C   UNL A   1      31.049  23.870  24.478  1.00  0.00     0.113 C 
ATOM      8  C   UNL A   1      29.658  25.773  24.467  1.00  0.00     0.039 C 
ATOM      9  C   UNL A   1      30.352  24.815  23.519  1.00  0.00     0.125 C 
BRANCH   5  10
ATOM     10  N   UNL A   1      30.709  23.913  26.867  1.00  0.00    -0.334 N 
ATOM     11  C   UNL A   1      30.080  22.647  26.526  1.00  0.00     0.331 C 
ATOM     12  H   UNL A   1      31.374  23.724  27.618  1.00  0.00     0.347 HD
ATOM     13  H   UNL A   1      29.924  24.522  27.096  1.00  0.00     0.347 HD
ENDBRANCH   5  10
BRANCH   9  14
ATOM     14  O   UNL A   1      31.144  25.658  22.688  1.00  0.00    -0.378 OA
BRANCH  14  15
ATOM     15  C   UNL A   1      32.434  25.274  22.263  1.00  0.00     0.161 C 
BRANCH  15  16
ATOM     16  C   UNL A   1      33.240  26.561  22.059  1.00  0.00     0.033 C 
BRANCH  16  17
ATOM     17  C   UNL A   1      34.118  27.045  23.240  1.00  0.00     0.038 C 
BRANCH  17  18
ATOM     18  C   UNL A   1      33.446  27.827  24.352  1.00  0.00    -0.048 A 
ATOM     19  C   UNL A   1      32.137  28.975  23.918  1.00  0.00     0.004 A 
ATOM     20  C   UNL A   1      33.982  27.656  26.080  1.00  0.00     0.004 A 
ATOM     21  C   UNL A   1      31.357  30.010  25.146  1.00  0.00     0.000 A 
ATOM     22  C   UNL A   1      33.308  28.793  27.333  1.00  0.00     0.000 A 
ATOM     23  C   UNL A   1      31.969  29.983  26.857  1.00  0.00     0.000 A 
ENDBRANCH  17  18
ENDBRANCH  16  17
ENDBRANCH  15  16
ENDBRANCH  14  15
ENDBRANCH   9  14
ENDBRANCH   3   5
ENDBRANCH   2   3
ENDBRANCH   1   2
BRANCH   1  24
ATOM     24  C   UNL A   1      36.245  21.669  24.381  1.00  0.00     0.275 C 
BRANCH  24  25
ATOM     25  O   UNL A   1      36.878  21.812  25.724  1.00  0.00    -0.458 OA
BRANCH  25  26
ATOM     26  C   UNL A   1      38.205  21.500  25.887  1.00  0.00     0.338 C 
ATOM     27  O   UNL A   1      38.677  20.409  25.596  1.00  0.00    -0.246 OA
BRANCH  26  28
ATOM     28  C   UNL A   1      39.120  22.648  26.328  1.00  0.00     0.060 A 
ATOM     29  C   UNL A   1      40.206  22.506  27.204  1.00  0.00     0.016 A 
ATOM     30  C   UNL A   1      38.751  23.965  26.045  1.00  0.00     0.016 A 
ATOM     31  C   UNL A   1      40.888  23.593  27.783  1.00  0.00     0.010 A 
ATOM     32  C   UNL A   1      39.477  25.067  26.571  1.00  0.00     0.010 A 
ATOM     33  C   UNL A   1      40.561  24.902  27.454  1.00  0.00    -0.014 A 
BRANCH  33  34
ATOM     34  C   UNL A   1      41.314  26.075  28.022  1.00  0.00     0.031 A 
ATOM     35  C   UNL A   1      40.586  27.137  28.813  1.00  0.00     0.074 A 
ATOM     36  C   UNL A   1      42.641  26.238  27.811  1.00  0.00     0.049 A 
ATOM     37  N   UNL A   1      40.946  28.365  29.097  1.00  0.00    -0.248 NA
ATOM     38  C   UNL A   1      39.267  26.764  29.342  1.00  0.00     0.031 C 
ATOM     39  C   UNL A   1      43.533  25.269  27.173  1.00  0.00     0.029 A 
ATOM     40  N   UNL A   1      43.472  27.305  28.088  1.00  0.00    -0.354 N 
ATOM     41  C   UNL A   1      39.873  28.935  29.778  1.00  0.00     0.074 A 
ATOM     42  C   UNL A   1      38.849  27.911  29.860  1.00  0.00     0.031 C 
ATOM     43  C   UNL A   1      44.769  25.784  27.094  1.00  0.00     0.029 A 
ATOM     44  C   UNL A   1      44.746  27.159  27.576  1.00  0.00     0.049 A 
ATOM     45  H   UNL A   1      43.185  28.094  28.602  1.00  0.00     0.167 HD
ATOM     46  C   UNL A   1      39.749  30.194  30.273  1.00  0.00     0.034 A 
ATOM     47  C   UNL A   1      45.760  28.039  27.432  1.00  0.00     0.034 A 
ATOM     48  C   UNL A   1      40.794  31.194  30.213  1.00  0.00     0.049 A 
ATOM     49  C   UNL A   1      45.570  29.466  27.887  1.00  0.00     0.074 A 
ATOM     50  C   UNL A   1      40.773  32.494  30.691  1.00  0.00     0.029 A 
ATOM     51  N   UNL A   1      42.048  31.010  29.643  1.00  0.00    -0.354 N 
ATOM     52  N   UNL A   1      44.522  30.020  28.450  1.00  0.00    -0.248 NA
ATOM     53  C   UNL A   1      46.697  30.385  27.680  1.00  0.00     0.031 C 
ATOM     54  C   UNL A   1      41.973  33.118  30.337  1.00  0.00     0.029 A 
ATOM     55  C   UNL A   1      42.789  32.181  29.725  1.00  0.00     0.049 A 
ATOM     56  H   UNL A   1      42.365  30.169  29.239  1.00  0.00     0.167 HD
ATOM     57  C   UNL A   1      44.880  31.346  28.694  1.00  0.00     0.074 A 
ATOM     58  C   UNL A   1      46.242  31.500  28.230  1.00  0.00     0.031 C 
ATOM     59  C   UNL A   1      44.146  32.340  29.256  1.00  0.00     0.034 A 
BRANCH  46  60
ATOM     60  C   UNL A   1      38.411  30.595  30.861  1.00  0.00     0.023 A 
ATOM     61  C   UNL A   1      37.412  31.224  30.098  1.00  0.00     0.031 A 
ATOM     62  C   UNL A   1      38.138  30.350  32.220  1.00  0.00     0.131 A 
ATOM     63  C   UNL A   1      36.226  31.654  30.715  1.00  0.00     0.055 A 
ATOM     64  C   UNL A   1      36.919  30.699  32.807  1.00  0.00     0.041 A 
ATOM     65  F   UNL A   1      39.057  29.769  33.009  1.00  0.00    -0.206 F 
ATOM     66  C   UNL A   1      35.961  31.370  32.057  1.00  0.00     0.022 A 
BRANCH  63  67
ATOM     67  S   UNL A   1      35.101  32.726  29.779  1.00  0.00     0.124 S 
ATOM     68  O   UNL A   1      36.016  33.755  29.288  1.00  0.00    -0.237 OA
ATOM     69  O   UNL A   1      34.562  31.818  28.774  1.00  0.00    -0.237 OA
ATOM     70  O   UNL A   1      34.145  33.184  30.786  1.00  0.00    -0.744 OA
ENDBRANCH  63  67
ENDBRANCH  46  60
BRANCH  47  71
ATOM     71  C   UNL A   1      47.027  27.632  26.747  1.00  0.00     0.023 A 
ATOM     72  C   UNL A   1      47.205  27.833  25.369  1.00  0.00     0.031 A 
ATOM     73  C   UNL A   1      48.060  26.986  27.453  1.00  0.00     0.131 A 
ATOM     74  C   UNL A   1      48.366  27.358  24.735  1.00  0.00     0.055 A 
ATOM     75  C   UNL A   1      49.242  26.579  26.831  1.00  0.00     0.041 A 
ATOM     76  F   UNL A   1      47.941  26.752  28.770  1.00  0.00    -0.206 F 
ATOM     77  C   UNL A   1      49.394  26.753  25.459  1.00  0.00     0.022 A 
BRANCH  74  78
ATOM     78  S   UNL A   1      48.469  27.453  22.926  1.00  0.00     0.124 S 
ATOM     79  O   UNL A   1      49.747  28.128  22.737  1.00  0.00    -0.237 OA
ATOM     80  O   UNL A   1      48.424  26.045  22.545  1.00  0.00    -0.237 OA
ATOM     81  O   UNL A   1      47.290  28.233  22.558  1.00  0.00    -0.744 OA
ENDBRANCH  74  78
ENDBRANCH  47  71
BRANCH  59  82
ATOM     82  C   UNL A   1      44.830  33.673  29.462  1.00  0.00     0.023 A 
ATOM     83  C   UNL A   1      44.766  34.701  28.505  1.00  0.00     0.031 A 
ATOM     84  C   UNL A   1      45.577  33.908  30.632  1.00  0.00     0.131 A 
ATOM     85  C   UNL A   1      45.485  35.891  28.706  1.00  0.00     0.055 A 
ATOM     86  C   UNL A   1      46.232  35.119  30.858  1.00  0.00     0.041 A 
ATOM     87  F   UNL A   1      45.683  32.961  31.577  1.00  0.00    -0.206 F 
ATOM     88  C   UNL A   1      46.200  36.114  29.886  1.00  0.00     0.022 A 
BRANCH  85  89
ATOM     89  S   UNL A   1      45.562  37.102  27.358  1.00  0.00     0.124 S 
ATOM     90  O   UNL A   1      46.423  36.427  26.393  1.00  0.00    -0.237 OA
ATOM     91  O   UNL A   1      44.160  37.238  26.977  1.00  0.00    -0.237 OA
ATOM     92  O   UNL A   1      46.147  38.284  27.991  1.00  0.00    -0.744 OA
ENDBRANCH  85  89
ENDBRANCH  59  82
ENDBRANCH  33  34
ENDBRANCH  26  28
ENDBRANCH  25  26
ENDBRANCH  24  25
ENDBRANCH   1  24
TORSDOF 20
ENDMDL
MODEL 3
REMARK VINA RESULT:     -12.2      2.041      2.328
REMARK SMILES C[NH2+][C@]1(C(=O)OCCOC(=O)c2ccc(-c3c4nc(c(-c5cc(S(=O)(=O)[O-])ccc5F)c5ccc([nH]5)c(-c5cc(S(=O)(=O)[O-])ccc5F)c5nc(c(-c6cc(S(=O)(=O)[O-])ccc6F)c6ccc3[nH]6)C=C5)C=C4)cc2)CC[C@@H](OCCCc2ccccc2)C1
REMARK SMILES IDX 7 1 6 2 4 3 5 4 3 5 75 6 88 7 76 8 77 9 2 10 1 11 78 14
REMARK SMILES IDX 79 15 80 16 81 17 82 18 83 19 87 20 84 21 86 22 85 23 8 24
REMARK SMILES IDX 9 25 10 26 11 27 12 28 13 29 74 30 14 31 73 32 15 33 16 34
REMARK SMILES IDX 17 35 67 36 18 37 72 38 66 39 68 40 19 41 71 42 65 43 64 44
REMARK SMILES IDX 20 46 52 47 32 48 51 49 33 50 36 51 50 52 69 53 34 54 35 55
REMARK SMILES IDX 49 57 70 58 37 59 21 60 22 61 30 62 23 63 29 64 31 65 28 66
REMARK SMILES IDX 24 67 25 68 26 69 27 70 53 71 54 72 62 73 55 74 61 75 63 76
REMARK SMILES IDX 60 77 56 78 57 79 58 80 59 81 38 82 39 83 47 84 40 85 46 86
REMARK SMILES IDX 48 87 45 88 41 89 42 90 43 91 44 92
REMARK H PARENT 2 12 2 13 68 45 36 56
REMARK Flexibility Score: inf
ROOT
ATOM      1  C   UNL A   1      35.607  23.250  25.682  1.00  0.00     0.274 C 
ENDROOT
BRANCH   1   2
ATOM      2  O   UNL A   1      35.164  24.072  24.210  1.00  0.00    -0.457 OA
BRANCH   2   3
ATOM      3  C   UNL A   1      33.992  25.269  23.311  1.00  0.00     0.368 C 
ATOM      4  O   UNL A   1      33.635  25.170  22.094  1.00  0.00    -0.245 OA
BRANCH   3   5
ATOM      5  C   UNL A   1      32.935  26.466  24.055  1.00  0.00     0.196 C 
ATOM      6  C   UNL A   1      31.405  26.708  24.200  1.00  0.00     0.084 C 
ATOM      7  C   UNL A   1      33.331  26.191  25.571  1.00  0.00     0.113 C 
ATOM      8  C   UNL A   1      31.120  27.003  25.671  1.00  0.00     0.039 C 
ATOM      9  C   UNL A   1      32.062  26.059  26.391  1.00  0.00     0.125 C 
BRANCH   5  10
ATOM     10  N   UNL A   1      33.608  27.812  23.805  1.00  0.00    -0.334 N 
ATOM     11  C   UNL A   1      32.794  28.936  23.367  1.00  0.00     0.331 C 
ATOM     12  H   UNL A   1      34.055  28.090  24.679  1.00  0.00     0.347 HD
ATOM     13  H   UNL A   1      34.226  27.634  23.013  1.00  0.00     0.347 HD
ENDBRANCH   5  10
BRANCH   9  14
ATOM     14  O   UNL A   1      31.373  24.813  26.394  1.00  0.00    -0.378 OA
BRANCH  14  15
ATOM     15  C   UNL A   1      32.020  23.613  26.761  1.00  0.00     0.161 C 
BRANCH  15  16
ATOM     16  C   UNL A   1      31.470  22.511  25.849  1.00  0.00     0.033 C 
BRANCH  16  17
ATOM     17  C   UNL A   1      32.227  22.241  24.525  1.00  0.00     0.038 C 
BRANCH  17  18
ATOM     18  C   UNL A   1      32.550  20.801  24.171  1.00  0.00    -0.048 A 
ATOM     19  C   UNL A   1      32.149  20.217  22.523  1.00  0.00     0.004 A 
ATOM     20  C   UNL A   1      33.274  19.671  25.397  1.00  0.00     0.004 A 
ATOM     21  C   UNL A   1      32.401  18.514  22.049  1.00  0.00     0.000 A 
ATOM     22  C   UNL A   1      33.414  17.900  24.993  1.00  0.00     0.000 A 
ATOM     23  C   UNL A   1      32.977  17.317  23.289  1.00  0.00     0.000 A 
ENDBRANCH  17  18
ENDBRANCH  16  17
ENDBRANCH  15  16
ENDBRANCH  14  15
ENDBRANCH   9  14
ENDBRANCH   3   5
ENDBRANCH   2   3
ENDBRANCH   1   2
BRANCH   1  24
ATOM     24  C   UNL A   1      36.343  21.787  25.654  1.00  0.00     0.275 C 
BRANCH  24  25
ATOM     25  O   UNL A   1      37.710  21.685  25.066  1.00  0.00    -0.458 OA
BRANCH  25  26
ATOM     26  C   UNL A   1      38.794  21.517  25.892  1.00  0.00     0.338 C 
ATOM     27  O   UNL A   1      39.376  20.448  26.023  1.00  0.00    -0.246 OA
BRANCH  26  28
ATOM     28  C   UNL A   1      39.342  22.786  26.553  1.00  0.00     0.060 A 
ATOM     29  C   UNL A   1      39.070  24.091  26.117  1.00  0.00     0.016 A 
ATOM     30  C   UNL A   1      40.355  22.677  27.508  1.00  0.00     0.016 A 
ATOM     31  C   UNL A   1      39.760  25.228  26.578  1.00  0.00     0.010 A 
ATOM     32  C   UNL A   1      41.009  23.826  28.030  1.00  0.00     0.010 A 
ATOM     33  C   UNL A   1      40.724  25.126  27.573  1.00  0.00    -0.014 A 
BRANCH  33  34
ATOM     34  C   UNL A   1      41.433  26.338  28.117  1.00  0.00     0.031 A 
ATOM     35  C   UNL A   1      40.668  27.383  28.895  1.00  0.00     0.074 A 
ATOM     36  C   UNL A   1      42.751  26.550  27.893  1.00  0.00     0.049 A 
ATOM     37  N   UNL A   1      40.981  28.629  29.156  1.00  0.00    -0.248 NA
ATOM     38  C   UNL A   1      39.369  26.966  29.440  1.00  0.00     0.031 C 
ATOM     39  C   UNL A   1      43.677  25.606  27.265  1.00  0.00     0.029 A 
ATOM     40  N   UNL A   1      43.541  27.653  28.147  1.00  0.00    -0.354 N 
ATOM     41  C   UNL A   1      39.891  29.167  29.835  1.00  0.00     0.074 A 
ATOM     42  C   UNL A   1      38.909  28.105  29.942  1.00  0.00     0.031 C 
ATOM     43  C   UNL A   1      44.891  26.169  27.168  1.00  0.00     0.029 A 
ATOM     44  C   UNL A   1      44.816  27.550  27.627  1.00  0.00     0.049 A 
ATOM     45  H   UNL A   1      43.225  28.439  28.649  1.00  0.00     0.167 HD
ATOM     46  C   UNL A   1      39.720  30.428  30.311  1.00  0.00     0.034 A 
ATOM     47  C   UNL A   1      45.793  28.467  27.461  1.00  0.00     0.034 A 
ATOM     48  C   UNL A   1      40.723  31.468  30.226  1.00  0.00     0.049 A 
ATOM     49  C   UNL A   1      45.549  29.892  27.895  1.00  0.00     0.074 A 
ATOM     50  C   UNL A   1      40.653  32.774  30.683  1.00  0.00     0.029 A 
ATOM     51  N   UNL A   1      41.980  31.324  29.650  1.00  0.00    -0.354 N 
ATOM     52  N   UNL A   1      44.483  30.414  28.455  1.00  0.00    -0.248 NA
ATOM     53  C   UNL A   1      46.637  30.853  27.664  1.00  0.00     0.031 C 
ATOM     54  C   UNL A   1      41.825  33.439  30.310  1.00  0.00     0.029 A 
ATOM     55  C   UNL A   1      42.674  32.525  29.707  1.00  0.00     0.049 A 
ATOM     56  H   UNL A   1      42.327  30.490  29.258  1.00  0.00     0.167 HD
ATOM     57  C   UNL A   1      44.789  31.757  28.675  1.00  0.00     0.074 A 
ATOM     58  C   UNL A   1      46.142  31.958  28.199  1.00  0.00     0.031 C 
ATOM     59  C   UNL A   1      44.020  32.730  29.226  1.00  0.00     0.034 A 
BRANCH  46  60
ATOM     60  C   UNL A   1      38.371  30.785  30.901  1.00  0.00     0.023 A 
ATOM     61  C   UNL A   1      37.355  31.395  30.145  1.00  0.00     0.031 A 
ATOM     62  C   UNL A   1      38.103  30.517  32.257  1.00  0.00     0.131 A 
ATOM     63  C   UNL A   1      36.157  31.785  30.765  1.00  0.00     0.055 A 
ATOM     64  C   UNL A   1      36.875  30.826  32.846  1.00  0.00     0.041 A 
ATOM     65  F   UNL A   1      39.037  29.952  33.040  1.00  0.00    -0.206 F 
ATOM     66  C   UNL A   1      35.899  31.479  32.103  1.00  0.00     0.022 A 
BRANCH  63  67
ATOM     67  S   UNL A   1      35.004  32.836  29.840  1.00  0.00     0.124 S 
ATOM     68  O   UNL A   1      34.101  33.284  30.898  1.00  0.00    -0.237 OA
ATOM     69  O   UNL A   1      35.884  33.853  29.278  1.00  0.00    -0.237 OA
ATOM     70  O   UNL A   1      34.407  31.920  28.869  1.00  0.00    -0.744 OA
ENDBRANCH  63  67
ENDBRANCH  46  60
BRANCH  47  71
ATOM     71  C   UNL A   1      47.071  28.099  26.774  1.00  0.00     0.023 A 
ATOM     72  C   UNL A   1      47.164  28.086  25.373  1.00  0.00     0.031 A 
ATOM     73  C   UNL A   1      48.204  27.704  27.510  1.00  0.00     0.131 A 
ATOM     74  C   UNL A   1      48.348  27.649  24.754  1.00  0.00     0.055 A 
ATOM     75  C   UNL A   1      49.400  27.336  26.890  1.00  0.00     0.041 A 
ATOM     76  F   UNL A   1      48.171  27.680  28.852  1.00  0.00    -0.206 F 
ATOM     77  C   UNL A   1      49.472  27.295  25.501  1.00  0.00     0.022 A 
BRANCH  74  78
ATOM     78  S   UNL A   1      48.363  27.452  22.950  1.00  0.00     0.124 S 
ATOM     79  O   UNL A   1      48.280  26.003  22.811  1.00  0.00    -0.237 OA
ATOM     80  O   UNL A   1      47.177  28.204  22.552  1.00  0.00    -0.237 OA
ATOM     81  O   UNL A   1      49.637  28.045  22.553  1.00  0.00    -0.744 OA
ENDBRANCH  74  78
ENDBRANCH  47  71
BRANCH  59  82
ATOM     82  C   UNL A   1      44.652  34.093  29.405  1.00  0.00     0.023 A 
ATOM     83  C   UNL A   1      45.350  34.444  30.574  1.00  0.00     0.031 A 
ATOM     84  C   UNL A   1      44.535  35.062  28.391  1.00  0.00     0.131 A 
ATOM     85  C   UNL A   1      45.850  35.748  30.726  1.00  0.00     0.055 A 
ATOM     86  C   UNL A   1      45.094  36.334  28.520  1.00  0.00     0.041 A 
ATOM     87  F   UNL A   1      43.872  34.788  27.257  1.00  0.00    -0.206 F 
ATOM     88  C   UNL A   1      45.743  36.689  29.697  1.00  0.00     0.022 A 
BRANCH  85  89
ATOM     89  S   UNL A   1      46.545  36.235  32.329  1.00  0.00     0.124 S 
ATOM     90  O   UNL A   1      45.561  37.201  32.805  1.00  0.00    -0.237 OA
ATOM     91  O   UNL A   1      46.594  34.966  33.048  1.00  0.00    -0.237 OA
ATOM     92  O   UNL A   1      47.849  36.798  31.981  1.00  0.00    -0.744 OA
ENDBRANCH  85  89
ENDBRANCH  59  82
ENDBRANCH  33  34
ENDBRANCH  26  28
ENDBRANCH  25  26
ENDBRANCH  24  25
ENDBRANCH   1  24
TORSDOF 20
ENDMDL
