MODEL 1
REMARK VINA RESULT:     -10.9      0.000      0.000
REMARK SMILES O=C(CCSc1nc(-c2cccs2)cc(C(F)(F)F)n1)OCCOC(=O)c1ccc(-c2c3nc(c(-c4cc(S(=O)(=O)[O-])ccc4F)c4ccc([nH]4)c(-c4cc(S(=O)(=O)[O-])ccc4F)c4nc(c(-c5cc(S(=O)(=O)[O-])ccc5F)c5ccc2[nH]5)C=C4)C=C3)cc1
REMARK SMILES IDX 22 1 21 2 2 3 1 4 3 5 4 6 5 7 6 8 7 9 20 10 8 11 15 12 14 13
REMARK SMILES IDX 9 14 10 15 13 16 11 17 12 18 16 19 17 20 18 21 19 22 23 23
REMARK SMILES IDX 24 24 25 25 26 26 27 27 28 28 89 29 29 30 88 31 30 32 31 33
REMARK SMILES IDX 32 34 82 35 33 36 87 37 81 38 83 39 34 40 86 41 80 42 79 43
REMARK SMILES IDX 35 45 67 46 47 47 66 48 48 49 51 50 65 51 84 52 49 53 50 54
REMARK SMILES IDX 64 56 85 57 52 58 36 59 37 60 45 61 38 62 44 63 46 64 43 65
REMARK SMILES IDX 39 66 40 67 41 68 42 69 68 70 69 71 77 72 70 73 76 74 78 75
REMARK SMILES IDX 75 76 71 77 72 78 73 79 74 80 53 81 54 82 62 83 55 84 61 85
REMARK SMILES IDX 63 86 60 87 56 88 57 89 58 90 59 91
REMARK H PARENT 83 44 51 55
REMARK Flexibility Score: inf
ROOT
ATOM      1  C   UNL A   1      31.792  30.079  25.498  1.00  0.00     0.274 C 
ENDROOT
BRANCH   1   2
ATOM      2  O   UNL A   1      31.361  28.707  25.354  1.00  0.00    -0.462 OA
BRANCH   2   3
ATOM      3  C   UNL A   1      31.027  28.106  24.188  1.00  0.00     0.306 C 
ATOM      4  O   UNL A   1      31.117  28.721  23.129  1.00  0.00    -0.252 OA
BRANCH   3   5
ATOM      5  C   UNL A   1      30.594  26.664  24.191  1.00  0.00     0.134 C 
BRANCH   5   6
ATOM      6  C   UNL A   1      31.628  25.746  23.548  1.00  0.00     0.090 C 
BRANCH   6   7
ATOM      7  S   UNL A   1      33.365  26.145  23.970  1.00  0.00    -0.086 SA
BRANCH   7   8
ATOM      8  C   UNL A   1      34.011  24.512  24.208  1.00  0.00     0.188 A 
ATOM      9  N   UNL A   1      35.235  24.383  24.721  1.00  0.00    -0.222 NA
ATOM     10  N   UNL A   1      33.179  23.494  23.938  1.00  0.00    -0.218 NA
ATOM     11  C   UNL A   1      35.617  23.136  25.047  1.00  0.00     0.085 A 
ATOM     12  C   UNL A   1      33.600  22.242  24.262  1.00  0.00     0.149 A 
ATOM     13  C   UNL A   1      34.832  22.023  24.846  1.00  0.00     0.063 A 
BRANCH  11  14
ATOM     14  C   UNL A   1      36.968  23.013  25.576  1.00  0.00     0.053 A 
ATOM     15  C   UNL A   1      37.720  23.962  26.244  1.00  0.00     0.022 A 
ATOM     16  S   UNL A   1      37.838  21.554  25.371  1.00  0.00    -0.142 S 
ATOM     17  C   UNL A   1      39.014  23.479  26.594  1.00  0.00     0.012 A 
ATOM     18  C   UNL A   1      39.209  22.181  26.179  1.00  0.00     0.065 A 
ENDBRANCH  11  14
BRANCH  12  19
ATOM     19  C   UNL A   1      32.669  21.068  24.013  1.00  0.00     0.433 C 
ATOM     20  F   UNL A   1      31.907  21.220  22.893  1.00  0.00    -0.165 F 
ATOM     21  F   UNL A   1      33.327  19.883  23.858  1.00  0.00    -0.165 F 
ATOM     22  F   UNL A   1      31.784  20.859  25.033  1.00  0.00    -0.165 F 
ENDBRANCH  12  19
ENDBRANCH   7   8
ENDBRANCH   6   7
ENDBRANCH   5   6
ENDBRANCH   3   5
ENDBRANCH   2   3
ENDBRANCH   1   2
BRANCH   1  23
ATOM     23  C   UNL A   1      32.353  30.346  26.890  1.00  0.00     0.275 C 
BRANCH  23  24
ATOM     24  O   UNL A   1      33.782  30.239  26.871  1.00  0.00    -0.458 OA
BRANCH  24  25
ATOM     25  C   UNL A   1      34.429  31.242  27.521  1.00  0.00     0.338 C 
ATOM     26  O   UNL A   1      33.957  32.305  27.865  1.00  0.00    -0.246 OA
BRANCH  25  27
ATOM     27  C   UNL A   1      35.784  30.777  27.888  1.00  0.00     0.060 A 
ATOM     28  C   UNL A   1      36.026  29.399  27.892  1.00  0.00     0.016 A 
ATOM     29  C   UNL A   1      36.786  31.678  28.261  1.00  0.00     0.016 A 
ATOM     30  C   UNL A   1      37.250  28.914  28.348  1.00  0.00     0.010 A 
ATOM     31  C   UNL A   1      38.014  31.192  28.708  1.00  0.00     0.010 A 
ATOM     32  C   UNL A   1      38.227  29.807  28.805  1.00  0.00    -0.014 A 
BRANCH  32  33
ATOM     33  C   UNL A   1      39.371  29.298  29.597  1.00  0.00     0.031 A 
ATOM     34  C   UNL A   1      39.626  29.912  30.948  1.00  0.00     0.074 A 
ATOM     35  C   UNL A   1      40.153  28.311  29.132  1.00  0.00     0.049 A 
ATOM     36  N   UNL A   1      40.558  29.645  31.824  1.00  0.00    -0.248 NA
ATOM     37  C   UNL A   1      38.706  30.987  31.354  1.00  0.00     0.031 C 
ATOM     38  C   UNL A   1      39.984  27.633  27.848  1.00  0.00     0.029 A 
ATOM     39  N   UNL A   1      41.250  27.708  29.691  1.00  0.00    -0.354 N 
ATOM     40  C   UNL A   1      40.338  30.518  32.885  1.00  0.00     0.074 A 
ATOM     41  C   UNL A   1      39.222  31.359  32.513  1.00  0.00     0.031 C 
ATOM     42  C   UNL A   1      40.946  26.700  27.720  1.00  0.00     0.029 A 
ATOM     43  C   UNL A   1      41.809  26.735  28.899  1.00  0.00     0.049 A 
ATOM     44  H   UNL A   1      41.604  27.950  30.578  1.00  0.00     0.167 HD
ATOM     45  C   UNL A   1      40.997  30.598  34.068  1.00  0.00     0.034 A 
ATOM     46  C   UNL A   1      42.896  25.966  29.107  1.00  0.00     0.034 A 
ATOM     47  C   UNL A   1      42.118  29.759  34.410  1.00  0.00     0.049 A 
ATOM     48  C   UNL A   1      43.655  26.113  30.404  1.00  0.00     0.074 A 
ATOM     49  C   UNL A   1      42.856  29.734  35.580  1.00  0.00     0.029 A 
ATOM     50  N   UNL A   1      42.676  28.800  33.570  1.00  0.00    -0.354 N 
ATOM     51  N   UNL A   1      43.421  26.919  31.416  1.00  0.00    -0.248 NA
ATOM     52  C   UNL A   1      44.815  25.233  30.592  1.00  0.00     0.031 C 
ATOM     53  C   UNL A   1      43.899  28.815  35.421  1.00  0.00     0.029 A 
ATOM     54  C   UNL A   1      43.766  28.203  34.184  1.00  0.00     0.049 A 
ATOM     55  H   UNL A   1      42.344  28.578  32.670  1.00  0.00     0.167 HD
ATOM     56  C   UNL A   1      44.379  26.606  32.380  1.00  0.00     0.074 A 
ATOM     57  C   UNL A   1      45.187  25.539  31.825  1.00  0.00     0.031 C 
ATOM     58  C   UNL A   1      44.566  27.143  33.614  1.00  0.00     0.034 A 
BRANCH  45  59
ATOM     59  C   UNL A   1      40.544  31.668  35.034  1.00  0.00     0.023 A 
ATOM     60  C   UNL A   1      39.631  31.394  36.070  1.00  0.00     0.031 A 
ATOM     61  C   UNL A   1      40.975  32.996  34.875  1.00  0.00     0.131 A 
ATOM     62  C   UNL A   1      39.106  32.444  36.839  1.00  0.00     0.055 A 
ATOM     63  C   UNL A   1      40.518  34.024  35.705  1.00  0.00     0.041 A 
ATOM     64  F   UNL A   1      41.825  33.327  33.891  1.00  0.00    -0.206 F 
ATOM     65  C   UNL A   1      39.563  33.754  36.681  1.00  0.00     0.022 A 
BRANCH  62  66
ATOM     66  S   UNL A   1      37.691  32.104  37.923  1.00  0.00     0.124 S 
ATOM     67  O   UNL A   1      38.255  32.390  39.241  1.00  0.00    -0.237 OA
ATOM     68  O   UNL A   1      36.689  33.044  37.438  1.00  0.00    -0.237 OA
ATOM     69  O   UNL A   1      37.399  30.694  37.673  1.00  0.00    -0.744 OA
ENDBRANCH  62  66
ENDBRANCH  45  59
BRANCH  46  70
ATOM     70  C   UNL A   1      43.336  24.987  28.074  1.00  0.00     0.023 A 
ATOM     71  C   UNL A   1      44.448  25.247  27.259  1.00  0.00     0.031 A 
ATOM     72  C   UNL A   1      42.624  23.792  27.860  1.00  0.00     0.131 A 
ATOM     73  C   UNL A   1      44.791  24.349  26.236  1.00  0.00     0.055 A 
ATOM     74  C   UNL A   1      42.999  22.879  26.873  1.00  0.00     0.041 A 
ATOM     75  F   UNL A   1      41.555  23.494  28.615  1.00  0.00    -0.206 F 
ATOM     76  C   UNL A   1      44.081  23.161  26.045  1.00  0.00     0.022 A 
BRANCH  73  77
ATOM     77  S   UNL A   1      46.143  24.790  25.109  1.00  0.00     0.124 S 
ATOM     78  O   UNL A   1      46.008  23.774  24.072  1.00  0.00    -0.237 OA
ATOM     79  O   UNL A   1      45.785  26.152  24.725  1.00  0.00    -0.237 OA
ATOM     80  O   UNL A   1      47.334  24.675  25.946  1.00  0.00    -0.744 OA
ENDBRANCH  73  77
ENDBRANCH  46  70
BRANCH  58  81
ATOM     81  C   UNL A   1      45.651  26.533  34.470  1.00  0.00     0.023 A 
ATOM     82  C   UNL A   1      45.400  25.456  35.337  1.00  0.00     0.031 A 
ATOM     83  C   UNL A   1      46.957  27.055  34.426  1.00  0.00     0.131 A 
ATOM     84  C   UNL A   1      46.421  24.976  36.171  1.00  0.00     0.055 A 
ATOM     85  C   UNL A   1      47.985  26.533  35.211  1.00  0.00     0.041 A 
ATOM     86  F   UNL A   1      47.254  28.085  33.618  1.00  0.00    -0.206 F 
ATOM     87  C   UNL A   1      47.717  25.497  36.102  1.00  0.00     0.022 A 
BRANCH  84  88
ATOM     88  S   UNL A   1      46.010  23.735  37.429  1.00  0.00     0.124 S 
ATOM     89  O   UNL A   1      47.228  23.701  38.233  1.00  0.00    -0.237 OA
ATOM     90  O   UNL A   1      44.838  24.319  38.071  1.00  0.00    -0.237 OA
ATOM     91  O   UNL A   1      45.751  22.527  36.646  1.00  0.00    -0.744 OA
ENDBRANCH  84  88
ENDBRANCH  58  81
ENDBRANCH  32  33
ENDBRANCH  25  27
ENDBRANCH  24  25
ENDBRANCH  23  24
ENDBRANCH   1  23
TORSDOF 19
ENDMDL
MODEL 2
REMARK VINA RESULT:     -10.8      5.138     10.949
REMARK SMILES O=C(CCSc1nc(-c2cccs2)cc(C(F)(F)F)n1)OCCOC(=O)c1ccc(-c2c3nc(c(-c4cc(S(=O)(=O)[O-])ccc4F)c4ccc([nH]4)c(-c4cc(S(=O)(=O)[O-])ccc4F)c4nc(c(-c5cc(S(=O)(=O)[O-])ccc5F)c5ccc2[nH]5)C=C4)C=C3)cc1
REMARK SMILES IDX 22 1 21 2 2 3 1 4 3 5 4 6 5 7 6 8 7 9 20 10 8 11 15 12 14 13
REMARK SMILES IDX 9 14 10 15 13 16 11 17 12 18 16 19 17 20 18 21 19 22 23 23
REMARK SMILES IDX 24 24 25 25 26 26 27 27 28 28 89 29 29 30 88 31 30 32 31 33
REMARK SMILES IDX 32 34 82 35 33 36 87 37 81 38 83 39 34 40 86 41 80 42 79 43
REMARK SMILES IDX 35 45 67 46 47 47 66 48 48 49 51 50 65 51 84 52 49 53 50 54
REMARK SMILES IDX 64 56 85 57 52 58 36 59 37 60 45 61 38 62 44 63 46 64 43 65
REMARK SMILES IDX 39 66 40 67 41 68 42 69 68 70 69 71 77 72 70 73 76 74 78 75
REMARK SMILES IDX 75 76 71 77 72 78 73 79 74 80 53 81 54 82 62 83 55 84 61 85
REMARK SMILES IDX 63 86 60 87 56 88 57 89 58 90 59 91
REMARK H PARENT 83 44 51 55
REMARK Flexibility Score: inf
ROOT
ATOM      1  C   UNL A   1      42.334  18.770  26.355  1.00  0.00     0.274 C 
ENDROOT
BRANCH   1   2
ATOM      2  O   UNL A   1      41.597  19.939  25.930  1.00  0.00    -0.462 OA
BRANCH   2   3
ATOM      3  C   UNL A   1      40.862  20.740  26.735  1.00  0.00     0.306 C 
ATOM      4  O   UNL A   1      40.733  20.467  27.926  1.00  0.00    -0.252 OA
BRANCH   3   5
ATOM      5  C   UNL A   1      40.246  21.995  26.175  1.00  0.00     0.134 C 
BRANCH   5   6
ATOM      6  C   UNL A   1      38.728  21.902  26.075  1.00  0.00     0.090 C 
BRANCH   6   7
ATOM      7  S   UNL A   1      38.118  20.527  25.029  1.00  0.00    -0.086 SA
BRANCH   7   8
ATOM      8  C   UNL A   1      36.372  20.817  25.118  1.00  0.00     0.188 A 
ATOM      9  N   UNL A   1      35.944  22.069  25.285  1.00  0.00    -0.222 NA
ATOM     10  N   UNL A   1      35.578  19.753  24.916  1.00  0.00    -0.218 NA
ATOM     11  C   UNL A   1      34.619  22.267  25.172  1.00  0.00     0.085 A 
ATOM     12  C   UNL A   1      34.240  19.982  24.824  1.00  0.00     0.149 A 
ATOM     13  C   UNL A   1      33.716  21.255  24.933  1.00  0.00     0.063 A 
BRANCH  11  14
ATOM     14  C   UNL A   1      34.170  23.635  25.389  1.00  0.00     0.053 A 
ATOM     15  C   UNL A   1      34.843  24.813  25.127  1.00  0.00     0.022 A 
ATOM     16  S   UNL A   1      32.634  23.932  26.083  1.00  0.00    -0.142 S 
ATOM     17  C   UNL A   1      34.085  25.963  25.491  1.00  0.00     0.012 A 
ATOM     18  C   UNL A   1      32.861  25.625  26.024  1.00  0.00     0.065 A 
ENDBRANCH  11  14
BRANCH  12  19
ATOM     19  C   UNL A   1      33.313  18.810  24.553  1.00  0.00     0.433 C 
ATOM     20  F   UNL A   1      33.978  17.634  24.377  1.00  0.00    -0.165 F 
ATOM     21  F   UNL A   1      32.420  18.587  25.560  1.00  0.00    -0.165 F 
ATOM     22  F   UNL A   1      32.555  18.974  23.428  1.00  0.00    -0.165 F 
ENDBRANCH  12  19
ENDBRANCH   7   8
ENDBRANCH   6   7
ENDBRANCH   5   6
ENDBRANCH   3   5
ENDBRANCH   2   3
ENDBRANCH   1   2
BRANCH   1  23
ATOM     23  C   UNL A   1      43.529  18.501  25.448  1.00  0.00     0.275 C 
BRANCH  23  24
ATOM     24  O   UNL A   1      43.658  19.553  24.483  1.00  0.00    -0.458 OA
BRANCH  24  25
ATOM     25  C   UNL A   1      44.814  20.261  24.574  1.00  0.00     0.338 C 
ATOM     26  O   UNL A   1      45.900  19.933  24.144  1.00  0.00    -0.246 OA
BRANCH  25  27
ATOM     27  C   UNL A   1      44.517  21.588  25.157  1.00  0.00     0.060 A 
ATOM     28  C   UNL A   1      44.279  22.651  24.279  1.00  0.00     0.016 A 
ATOM     29  C   UNL A   1      44.512  21.789  26.541  1.00  0.00     0.016 A 
ATOM     30  C   UNL A   1      44.116  23.940  24.784  1.00  0.00     0.010 A 
ATOM     31  C   UNL A   1      44.339  23.078  27.045  1.00  0.00     0.010 A 
ATOM     32  C   UNL A   1      44.198  24.163  26.165  1.00  0.00    -0.014 A 
BRANCH  32  33
ATOM     33  C   UNL A   1      44.368  25.543  26.674  1.00  0.00     0.031 A 
ATOM     34  C   UNL A   1      45.741  26.157  26.610  1.00  0.00     0.074 A 
ATOM     35  C   UNL A   1      43.328  26.235  27.169  1.00  0.00     0.049 A 
ATOM     36  N   UNL A   1      46.146  27.340  26.992  1.00  0.00    -0.248 NA
ATOM     37  C   UNL A   1      46.805  25.308  26.050  1.00  0.00     0.031 C 
ATOM     38  C   UNL A   1      41.954  25.745  27.259  1.00  0.00     0.029 A 
ATOM     39  N   UNL A   1      43.271  27.501  27.691  1.00  0.00    -0.354 N 
ATOM     40  C   UNL A   1      47.510  27.376  26.719  1.00  0.00     0.074 A 
ATOM     41  C   UNL A   1      47.870  26.077  26.196  1.00  0.00     0.031 C 
ATOM     42  C   UNL A   1      41.186  26.706  27.802  1.00  0.00     0.029 A 
ATOM     43  C   UNL A   1      42.018  27.864  28.120  1.00  0.00     0.049 A 
ATOM     44  H   UNL A   1      44.055  28.095  27.752  1.00  0.00     0.167 HD
ATOM     45  C   UNL A   1      48.378  28.407  26.875  1.00  0.00     0.034 A 
ATOM     46  C   UNL A   1      41.598  29.004  28.704  1.00  0.00     0.034 A 
ATOM     47  C   UNL A   1      48.000  29.689  27.415  1.00  0.00     0.049 A 
ATOM     48  C   UNL A   1      42.594  30.117  28.928  1.00  0.00     0.074 A 
ATOM     49  C   UNL A   1      48.784  30.813  27.606  1.00  0.00     0.029 A 
ATOM     50  N   UNL A   1      46.725  30.014  27.866  1.00  0.00    -0.354 N 
ATOM     51  N   UNL A   1      43.875  30.156  28.638  1.00  0.00    -0.248 NA
ATOM     52  C   UNL A   1      42.079  31.347  29.543  1.00  0.00     0.031 C 
ATOM     53  C   UNL A   1      48.003  31.789  28.237  1.00  0.00     0.029 A 
ATOM     54  C   UNL A   1      46.709  31.307  28.364  1.00  0.00     0.049 A 
ATOM     55  H   UNL A   1      45.946  29.412  27.835  1.00  0.00     0.167 HD
ATOM     56  C   UNL A   1      44.307  31.433  28.993  1.00  0.00     0.074 A 
ATOM     57  C   UNL A   1      43.148  32.128  29.515  1.00  0.00     0.031 C 
ATOM     58  C   UNL A   1      45.544  31.985  28.887  1.00  0.00     0.034 A 
BRANCH  45  59
ATOM     59  C   UNL A   1      49.821  28.149  26.507  1.00  0.00     0.023 A 
ATOM     60  C   UNL A   1      50.328  28.458  25.231  1.00  0.00     0.031 A 
ATOM     61  C   UNL A   1      50.685  27.520  27.420  1.00  0.00     0.131 A 
ATOM     62  C   UNL A   1      51.622  28.051  24.872  1.00  0.00     0.055 A 
ATOM     63  C   UNL A   1      52.004  27.200  27.087  1.00  0.00     0.041 A 
ATOM     64  F   UNL A   1      50.256  27.176  28.644  1.00  0.00    -0.206 F 
ATOM     65  C   UNL A   1      52.473  27.447  25.800  1.00  0.00     0.022 A 
BRANCH  62  66
ATOM     66  S   UNL A   1      52.114  28.159  23.129  1.00  0.00     0.124 S 
ATOM     67  O   UNL A   1      51.683  29.513  22.785  1.00  0.00    -0.237 OA
ATOM     68  O   UNL A   1      53.554  27.943  23.193  1.00  0.00    -0.237 OA
ATOM     69  O   UNL A   1      51.350  27.091  22.489  1.00  0.00    -0.744 OA
ENDBRANCH  62  66
ENDBRANCH  45  59
BRANCH  46  70
ATOM     70  C   UNL A   1      40.176  29.160  29.118  1.00  0.00     0.023 A 
ATOM     71  C   UNL A   1      39.801  29.066  30.467  1.00  0.00     0.031 A 
ATOM     72  C   UNL A   1      39.163  29.365  28.164  1.00  0.00     0.131 A 
ATOM     73  C   UNL A   1      38.445  29.131  30.823  1.00  0.00     0.055 A 
ATOM     74  C   UNL A   1      37.820  29.478  28.528  1.00  0.00     0.041 A 
ATOM     75  F   UNL A   1      39.469  29.465  26.860  1.00  0.00    -0.206 F 
ATOM     76  C   UNL A   1      37.453  29.348  29.863  1.00  0.00     0.022 A 
BRANCH  73  77
ATOM     77  S   UNL A   1      37.987  28.859  32.557  1.00  0.00     0.124 S 
ATOM     78  O   UNL A   1      38.124  27.412  32.676  1.00  0.00    -0.237 OA
ATOM     79  O   UNL A   1      38.983  29.659  33.263  1.00  0.00    -0.237 OA
ATOM     80  O   UNL A   1      36.619  29.365  32.631  1.00  0.00    -0.744 OA
ENDBRANCH  73  77
ENDBRANCH  46  70
BRANCH  58  81
ATOM     81  C   UNL A   1      45.685  33.435  29.285  1.00  0.00     0.023 A 
ATOM     82  C   UNL A   1      45.570  34.480  28.353  1.00  0.00     0.031 A 
ATOM     83  C   UNL A   1      45.958  33.771  30.625  1.00  0.00     0.131 A 
ATOM     84  C   UNL A   1      45.790  35.806  28.758  1.00  0.00     0.055 A 
ATOM     85  C   UNL A   1      46.111  35.096  31.034  1.00  0.00     0.041 A 
ATOM     86  F   UNL A   1      46.079  32.814  31.558  1.00  0.00    -0.206 F 
ATOM     87  C   UNL A   1      46.043  36.122  30.095  1.00  0.00     0.022 A 
BRANCH  84  88
ATOM     88  S   UNL A   1      45.848  37.105  27.493  1.00  0.00     0.124 S 
ATOM     89  O   UNL A   1      44.519  37.698  27.603  1.00  0.00    -0.237 OA
ATOM     90  O   UNL A   1      46.957  37.936  27.951  1.00  0.00    -0.237 OA
ATOM     91  O   UNL A   1      46.097  36.368  26.255  1.00  0.00    -0.744 OA
ENDBRANCH  84  88
ENDBRANCH  58  81
ENDBRANCH  32  33
ENDBRANCH  25  27
ENDBRANCH  24  25
ENDBRANCH  23  24
ENDBRANCH   1  23
TORSDOF 19
ENDMDL
MODEL 3
REMARK VINA RESULT:     -10.8      2.030      2.487
REMARK SMILES O=C(CCSc1nc(-c2cccs2)cc(C(F)(F)F)n1)OCCOC(=O)c1ccc(-c2c3nc(c(-c4cc(S(=O)(=O)[O-])ccc4F)c4ccc([nH]4)c(-c4cc(S(=O)(=O)[O-])ccc4F)c4nc(c(-c5cc(S(=O)(=O)[O-])ccc5F)c5ccc2[nH]5)C=C4)C=C3)cc1
REMARK SMILES IDX 22 1 21 2 2 3 1 4 3 5 4 6 5 7 6 8 7 9 20 10 8 11 15 12 14 13
REMARK SMILES IDX 9 14 10 15 13 16 11 17 12 18 16 19 17 20 18 21 19 22 23 23
REMARK SMILES IDX 24 24 25 25 26 26 27 27 28 28 89 29 29 30 88 31 30 32 31 33
REMARK SMILES IDX 32 34 82 35 33 36 87 37 81 38 83 39 34 40 86 41 80 42 79 43
REMARK SMILES IDX 35 45 67 46 47 47 66 48 48 49 51 50 65 51 84 52 49 53 50 54
REMARK SMILES IDX 64 56 85 57 52 58 36 59 37 60 45 61 38 62 44 63 46 64 43 65
REMARK SMILES IDX 39 66 40 67 41 68 42 69 68 70 69 71 77 72 70 73 76 74 78 75
REMARK SMILES IDX 75 76 71 77 72 78 73 79 74 80 53 81 54 82 62 83 55 84 61 85
REMARK SMILES IDX 63 86 60 87 56 88 57 89 58 90 59 91
REMARK H PARENT 83 44 51 55
REMARK Flexibility Score: inf
ROOT
ATOM      1  C   UNL A   1      31.965  30.453  25.872  1.00  0.00     0.274 C 
ENDROOT
BRANCH   1   2
ATOM      2  O   UNL A   1      32.154  29.141  26.447  1.00  0.00    -0.462 OA
BRANCH   2   3
ATOM      3  C   UNL A   1      31.429  28.039  26.147  1.00  0.00     0.306 C 
ATOM      4  O   UNL A   1      31.184  27.206  27.017  1.00  0.00    -0.252 OA
BRANCH   3   5
ATOM      5  C   UNL A   1      30.878  27.864  24.757  1.00  0.00     0.134 C 
BRANCH   5   6
ATOM      6  C   UNL A   1      31.649  26.821  23.954  1.00  0.00     0.090 C 
BRANCH   6   7
ATOM      7  S   UNL A   1      33.467  26.889  24.167  1.00  0.00    -0.086 SA
BRANCH   7   8
ATOM      8  C   UNL A   1      33.860  25.165  24.053  1.00  0.00     0.188 A 
ATOM      9  N   UNL A   1      35.019  24.744  24.558  1.00  0.00    -0.222 NA
ATOM     10  N   UNL A   1      32.909  24.368  23.539  1.00  0.00    -0.218 NA
ATOM     11  C   UNL A   1      35.200  23.412  24.607  1.00  0.00     0.085 A 
ATOM     12  C   UNL A   1      33.128  23.026  23.586  1.00  0.00     0.149 A 
ATOM     13  C   UNL A   1      34.279  22.501  24.140  1.00  0.00     0.063 A 
BRANCH  11  14
ATOM     14  C   UNL A   1      36.485  22.975  25.133  1.00  0.00     0.053 A 
ATOM     15  C   UNL A   1      37.383  23.682  25.909  1.00  0.00     0.022 A 
ATOM     16  S   UNL A   1      37.066  21.405  24.776  1.00  0.00    -0.142 S 
ATOM     17  C   UNL A   1      38.550  22.923  26.217  1.00  0.00     0.012 A 
ATOM     18  C   UNL A   1      38.506  21.664  25.661  1.00  0.00     0.065 A 
ENDBRANCH  11  14
BRANCH  12  19
ATOM     19  C   UNL A   1      32.057  22.090  23.054  1.00  0.00     0.433 C 
ATOM     20  F   UNL A   1      32.368  21.560  21.838  1.00  0.00    -0.165 F 
ATOM     21  F   UNL A   1      31.817  21.026  23.874  1.00  0.00    -0.165 F 
ATOM     22  F   UNL A   1      30.845  22.699  22.891  1.00  0.00    -0.165 F 
ENDBRANCH  12  19
ENDBRANCH   7   8
ENDBRANCH   6   7
ENDBRANCH   5   6
ENDBRANCH   3   5
ENDBRANCH   2   3
ENDBRANCH   1   2
BRANCH   1  23
ATOM     23  C   UNL A   1      31.780  31.515  26.950  1.00  0.00     0.275 C 
BRANCH  23  24
ATOM     24  O   UNL A   1      32.730  32.572  26.764  1.00  0.00    -0.458 OA
BRANCH  24  25
ATOM     25  C   UNL A   1      33.236  33.081  27.918  1.00  0.00     0.338 C 
ATOM     26  O   UNL A   1      32.669  33.821  28.694  1.00  0.00    -0.246 OA
BRANCH  25  27
ATOM     27  C   UNL A   1      34.558  32.468  28.170  1.00  0.00     0.060 A 
ATOM     28  C   UNL A   1      34.616  31.083  28.355  1.00  0.00     0.016 A 
ATOM     29  C   UNL A   1      35.716  33.249  28.264  1.00  0.00     0.016 A 
ATOM     30  C   UNL A   1      35.821  30.483  28.715  1.00  0.00     0.010 A 
ATOM     31  C   UNL A   1      36.923  32.646  28.615  1.00  0.00     0.010 A 
ATOM     32  C   UNL A   1      36.965  31.270  28.896  1.00  0.00    -0.014 A 
BRANCH  32  33
ATOM     33  C   UNL A   1      38.139  30.704  29.599  1.00  0.00     0.031 A 
ATOM     34  C   UNL A   1      38.360  31.094  31.036  1.00  0.00     0.074 A 
ATOM     35  C   UNL A   1      38.979  29.859  28.980  1.00  0.00     0.049 A 
ATOM     36  N   UNL A   1      39.308  30.738  31.861  1.00  0.00    -0.248 NA
ATOM     37  C   UNL A   1      37.378  32.027  31.612  1.00  0.00     0.031 C 
ATOM     38  C   UNL A   1      38.848  29.399  27.598  1.00  0.00     0.029 A 
ATOM     39  N   UNL A   1      40.112  29.237  29.437  1.00  0.00    -0.354 N 
ATOM     40  C   UNL A   1      39.039  31.404  33.053  1.00  0.00     0.074 A 
ATOM     41  C   UNL A   1      37.873  32.228  32.821  1.00  0.00     0.031 C 
ATOM     42  C   UNL A   1      39.864  28.562  27.321  1.00  0.00     0.029 A 
ATOM     43  C   UNL A   1      40.726  28.448  28.496  1.00  0.00     0.049 A 
ATOM     44  H   UNL A   1      40.452  29.346  30.355  1.00  0.00     0.167 HD
ATOM     45  C   UNL A   1      39.694  31.321  34.238  1.00  0.00     0.034 A 
ATOM     46  C   UNL A   1      41.858  27.721  28.579  1.00  0.00     0.034 A 
ATOM     47  C   UNL A   1      40.866  30.506  34.442  1.00  0.00     0.049 A 
ATOM     48  C   UNL A   1      42.610  27.692  29.888  1.00  0.00     0.074 A 
ATOM     49  C   UNL A   1      41.606  30.327  35.597  1.00  0.00     0.029 A 
ATOM     50  N   UNL A   1      41.478  29.739  33.456  1.00  0.00    -0.354 N 
ATOM     51  N   UNL A   1      42.331  28.298  31.020  1.00  0.00    -0.248 NA
ATOM     52  C   UNL A   1      43.821  26.864  29.933  1.00  0.00     0.031 C 
ATOM     53  C   UNL A   1      42.703  29.513  35.292  1.00  0.00     0.029 A 
ATOM     54  C   UNL A   1      42.604  29.113  33.968  1.00  0.00     0.049 A 
ATOM     55  H   UNL A   1      41.158  29.653  32.529  1.00  0.00     0.167 HD
ATOM     56  C   UNL A   1      43.308  27.885  31.924  1.00  0.00     0.074 A 
ATOM     57  C   UNL A   1      44.178  26.978  31.203  1.00  0.00     0.031 C 
ATOM     58  C   UNL A   1      43.465  28.215  33.233  1.00  0.00     0.034 A 
BRANCH  45  59
ATOM     59  C   UNL A   1      39.180  32.183  35.368  1.00  0.00     0.023 A 
ATOM     60  C   UNL A   1      39.576  33.526  35.517  1.00  0.00     0.031 A 
ATOM     61  C   UNL A   1      38.339  31.635  36.353  1.00  0.00     0.131 A 
ATOM     62  C   UNL A   1      39.212  34.241  36.668  1.00  0.00     0.055 A 
ATOM     63  C   UNL A   1      37.905  32.383  37.451  1.00  0.00     0.041 A 
ATOM     64  F   UNL A   1      37.947  30.354  36.282  1.00  0.00    -0.206 F 
ATOM     65  C   UNL A   1      38.358  33.687  37.623  1.00  0.00     0.022 A 
BRANCH  62  66
ATOM     66  S   UNL A   1      40.014  35.838  36.987  1.00  0.00     0.124 S 
ATOM     67  O   UNL A   1      41.417  35.444  37.103  1.00  0.00    -0.237 OA
ATOM     68  O   UNL A   1      39.662  36.610  35.801  1.00  0.00    -0.237 OA
ATOM     69  O   UNL A   1      39.398  36.289  38.232  1.00  0.00    -0.744 OA
ENDBRANCH  62  66
ENDBRANCH  45  59
BRANCH  46  70
ATOM     70  C   UNL A   1      42.354  26.960  27.399  1.00  0.00     0.023 A 
ATOM     71  C   UNL A   1      42.278  25.559  27.357  1.00  0.00     0.031 A 
ATOM     72  C   UNL A   1      42.950  27.622  26.310  1.00  0.00     0.131 A 
ATOM     73  C   UNL A   1      42.829  24.860  26.272  1.00  0.00     0.055 A 
ATOM     74  C   UNL A   1      43.454  26.924  25.211  1.00  0.00     0.041 A 
ATOM     75  F   UNL A   1      43.045  28.961  26.298  1.00  0.00    -0.206 F 
ATOM     76  C   UNL A   1      43.407  25.534  25.193  1.00  0.00     0.022 A 
BRANCH  73  77
ATOM     77  S   UNL A   1      42.844  23.047  26.323  1.00  0.00     0.124 S 
ATOM     78  O   UNL A   1      44.068  22.781  27.071  1.00  0.00    -0.237 OA
ATOM     79  O   UNL A   1      41.592  22.753  27.014  1.00  0.00    -0.237 OA
ATOM     80  O   UNL A   1      42.878  22.667  24.913  1.00  0.00    -0.744 OA
ENDBRANCH  73  77
ENDBRANCH  46  70
BRANCH  58  81
ATOM     81  C   UNL A   1      44.587  27.534  33.982  1.00  0.00     0.023 A 
ATOM     82  C   UNL A   1      44.400  26.319  34.662  1.00  0.00     0.031 A 
ATOM     83  C   UNL A   1      45.862  28.128  34.026  1.00  0.00     0.131 A 
ATOM     84  C   UNL A   1      45.452  25.768  35.411  1.00  0.00     0.055 A 
ATOM     85  C   UNL A   1      46.922  27.542  34.719  1.00  0.00     0.041 A 
ATOM     86  F   UNL A   1      46.097  29.289  33.396  1.00  0.00    -0.206 F 
ATOM     87  C   UNL A   1      46.716  26.363  35.429  1.00  0.00     0.022 A 
BRANCH  84  88
ATOM     88  S   UNL A   1      45.117  24.319  36.450  1.00  0.00     0.124 S 
ATOM     89  O   UNL A   1      46.452  23.754  36.624  1.00  0.00    -0.237 OA
ATOM     90  O   UNL A   1      44.519  24.919  37.637  1.00  0.00    -0.237 OA
ATOM     91  O   UNL A   1      44.206  23.516  35.635  1.00  0.00    -0.744 OA
ENDBRANCH  84  88
ENDBRANCH  58  81
ENDBRANCH  32  33
ENDBRANCH  25  27
ENDBRANCH  24  25
ENDBRANCH  23  24
ENDBRANCH   1  23
TORSDOF 19
ENDMDL
