MODEL 1
REMARK VINA RESULT:     -12.0      0.000      0.000
REMARK SMILES CNc1cc(-c2cncc(SCC(=O)OCCOC(=O)c3ccc(-c4c5nc(c(-c6cc(S(=O)(=O)[O-])ccc6F)c6ccc([nH]6)c(-c6cc(S(=O)(=O)[O-])ccc6F)c6nc(c(-c7cc(S(=O)(=O)[O-])ccc7F)c7ccc4[nH]7)C=C6)C=C5)cc3)n2)c2cc[nH]c2n1
REMARK SMILES IDX 16 1 15 2 13 3 14 4 12 5 11 6 10 7 6 8 7 9 84 10 8 11 9 12
REMARK SMILES IDX 5 13 3 14 4 15 90 16 89 17 85 18 88 19 86 20 87 21 2 23 1 24
REMARK SMILES IDX 17 26 18 27 19 28 20 29 21 30 22 31 83 32 23 33 82 34 24 35
REMARK SMILES IDX 25 36 26 37 76 38 27 39 81 40 75 41 77 42 28 43 80 44 74 45
REMARK SMILES IDX 73 46 29 48 61 49 41 50 60 51 42 52 45 53 59 54 78 55 43 56
REMARK SMILES IDX 44 57 58 59 79 60 46 61 30 62 31 63 39 64 32 65 38 66 40 67
REMARK SMILES IDX 37 68 33 69 34 70 35 71 36 72 62 73 63 74 71 75 64 76 70 77
REMARK SMILES IDX 72 78 69 79 65 80 66 81 67 82 68 83 47 84 48 85 56 86 49 87
REMARK SMILES IDX 55 88 57 89 54 90 50 91 51 92 52 93 53 94
REMARK H PARENT 88 22 2 25 77 47 45 58
REMARK Flexibility Score: inf
ROOT
ATOM      1  C   UNL A   1      31.491  29.156  24.782  1.00  0.00     0.274 C 
ENDROOT
BRANCH   1   2
ATOM      2  O   UNL A   1      30.268  29.373  24.045  1.00  0.00    -0.461 OA
BRANCH   2   3
ATOM      3  C   UNL A   1      29.886  28.385  23.194  1.00  0.00     0.316 C 
ATOM      4  O   UNL A   1      29.650  28.576  22.001  1.00  0.00    -0.251 OA
BRANCH   3   5
ATOM      5  C   UNL A   1      29.856  26.984  23.779  1.00  0.00     0.199 C 
BRANCH   5   6
ATOM      6  S   UNL A   1      31.042  25.794  23.093  1.00  0.00    -0.093 SA
BRANCH   6   7
ATOM      7  C   UNL A   1      31.260  24.700  24.493  1.00  0.00     0.116 A 
ATOM      8  C   UNL A   1      32.106  22.709  25.366  1.00  0.00     0.091 A 
ATOM      9  C   UNL A   1      31.854  23.195  26.646  1.00  0.00     0.140 A 
ATOM     10  N   UNL A   1      31.781  23.470  24.283  1.00  0.00    -0.238 NA
ATOM     11  N   UNL A   1      31.318  24.421  26.886  1.00  0.00    -0.260 NA
ATOM     12  C   UNL A   1      31.041  25.158  25.784  1.00  0.00     0.146 A 
BRANCH   8  13
ATOM     13  C   UNL A   1      32.806  21.435  25.118  1.00  0.00     0.016 A 
ATOM     14  C   UNL A   1      32.876  19.017  24.704  1.00  0.00     0.128 A 
ATOM     15  C   UNL A   1      32.152  20.206  24.853  1.00  0.00     0.058 A 
ATOM     16  N   UNL A   1      34.217  18.960  24.765  1.00  0.00    -0.213 NA
ATOM     17  C   UNL A   1      34.814  20.132  25.001  1.00  0.00     0.140 A 
ATOM     18  C   UNL A   1      34.217  21.368  25.204  1.00  0.00     0.028 A 
ATOM     19  N   UNL A   1      36.170  20.281  25.067  1.00  0.00    -0.346 N 
ATOM     20  C   UNL A   1      35.292  22.269  25.476  1.00  0.00     0.030 A 
ATOM     21  C   UNL A   1      36.482  21.583  25.346  1.00  0.00     0.085 A 
ATOM     22  H   UNL A   1      36.826  19.559  24.932  1.00  0.00     0.167 HD
BRANCH  14  23
ATOM     23  N   UNL A   1      32.304  17.783  24.534  1.00  0.00    -0.373 N 
ATOM     24  C   UNL A   1      32.582  16.621  25.334  1.00  0.00     0.141 C 
ATOM     25  H   UNL A   1      31.651  17.685  23.804  1.00  0.00     0.161 HD
ENDBRANCH  14  23
ENDBRANCH   8  13
ENDBRANCH   6   7
ENDBRANCH   5   6
ENDBRANCH   3   5
ENDBRANCH   2   3
ENDBRANCH   1   2
BRANCH   1  26
ATOM     26  C   UNL A   1      31.815  30.320  25.736  1.00  0.00     0.275 C 
BRANCH  26  27
ATOM     27  O   UNL A   1      33.201  30.354  26.142  1.00  0.00    -0.458 OA
BRANCH  27  28
ATOM     28  C   UNL A   1      33.421  31.264  27.117  1.00  0.00     0.338 C 
ATOM     29  O   UNL A   1      32.663  32.166  27.407  1.00  0.00    -0.246 OA
BRANCH  28  30
ATOM     30  C   UNL A   1      34.645  31.046  27.888  1.00  0.00     0.060 A 
ATOM     31  C   UNL A   1      35.569  32.088  28.001  1.00  0.00     0.016 A 
ATOM     32  C   UNL A   1      34.979  29.749  28.276  1.00  0.00     0.016 A 
ATOM     33  C   UNL A   1      36.842  31.834  28.506  1.00  0.00     0.010 A 
ATOM     34  C   UNL A   1      36.249  29.496  28.792  1.00  0.00     0.010 A 
ATOM     35  C   UNL A   1      37.186  30.537  28.913  1.00  0.00    -0.014 A 
BRANCH  35  36
ATOM     36  C   UNL A   1      38.446  30.291  29.644  1.00  0.00     0.031 A 
ATOM     37  C   UNL A   1      39.532  29.429  29.088  1.00  0.00     0.074 A 
ATOM     38  C   UNL A   1      38.544  30.816  30.877  1.00  0.00     0.049 A 
ATOM     39  N   UNL A   1      40.539  28.871  29.708  1.00  0.00    -0.248 NA
ATOM     40  C   UNL A   1      39.472  29.140  27.651  1.00  0.00     0.031 C 
ATOM     41  C   UNL A   1      37.563  31.723  31.479  1.00  0.00     0.029 A 
ATOM     42  N   UNL A   1      39.495  30.655  31.845  1.00  0.00    -0.354 N 
ATOM     43  C   UNL A   1      41.173  28.067  28.767  1.00  0.00     0.074 A 
ATOM     44  C   UNL A   1      40.484  28.291  27.510  1.00  0.00     0.031 C 
ATOM     45  C   UNL A   1      37.964  32.038  32.719  1.00  0.00     0.029 A 
ATOM     46  C   UNL A   1      39.192  31.309  33.012  1.00  0.00     0.049 A 
ATOM     47  H   UNL A   1      40.315  30.125  31.717  1.00  0.00     0.167 HD
ATOM     48  C   UNL A   1      42.183  27.182  28.979  1.00  0.00     0.034 A 
ATOM     49  C   UNL A   1      39.821  31.298  34.200  1.00  0.00     0.034 A 
ATOM     50  C   UNL A   1      42.897  27.077  30.236  1.00  0.00     0.049 A 
ATOM     51  C   UNL A   1      41.053  30.460  34.351  1.00  0.00     0.074 A 
ATOM     52  C   UNL A   1      43.966  26.258  30.562  1.00  0.00     0.029 A 
ATOM     53  N   UNL A   1      42.633  27.842  31.368  1.00  0.00    -0.354 N 
ATOM     54  N   UNL A   1      41.578  29.612  33.498  1.00  0.00    -0.248 NA
ATOM     55  C   UNL A   1      41.783  30.585  35.616  1.00  0.00     0.031 C 
ATOM     56  C   UNL A   1      44.322  26.501  31.896  1.00  0.00     0.029 A 
ATOM     57  C   UNL A   1      43.520  27.518  32.386  1.00  0.00     0.049 A 
ATOM     58  H   UNL A   1      41.920  28.517  31.438  1.00  0.00     0.167 HD
ATOM     59  C   UNL A   1      42.707  29.101  34.122  1.00  0.00     0.074 A 
ATOM     60  C   UNL A   1      42.799  29.759  35.413  1.00  0.00     0.031 C 
ATOM     61  C   UNL A   1      43.586  28.170  33.672  1.00  0.00     0.034 A 
BRANCH  48  62
ATOM     62  C   UNL A   1      42.493  26.183  27.886  1.00  0.00     0.023 A 
ATOM     63  C   UNL A   1      41.830  24.954  27.752  1.00  0.00     0.031 A 
ATOM     64  C   UNL A   1      43.517  26.473  26.959  1.00  0.00     0.131 A 
ATOM     65  C   UNL A   1      42.247  24.034  26.772  1.00  0.00     0.055 A 
ATOM     66  C   UNL A   1      43.863  25.594  25.930  1.00  0.00     0.041 A 
ATOM     67  F   UNL A   1      44.217  27.615  27.050  1.00  0.00    -0.206 F 
ATOM     68  C   UNL A   1      43.238  24.358  25.842  1.00  0.00     0.022 A 
BRANCH  65  69
ATOM     69  S   UNL A   1      41.584  22.348  26.832  1.00  0.00     0.124 S 
ATOM     70  O   UNL A   1      42.014  21.826  25.536  1.00  0.00    -0.237 OA
ATOM     71  O   UNL A   1      42.251  21.787  28.000  1.00  0.00    -0.237 OA
ATOM     72  O   UNL A   1      40.144  22.549  26.969  1.00  0.00    -0.744 OA
ENDBRANCH  65  69
ENDBRANCH  48  62
BRANCH  49  73
ATOM     73  C   UNL A   1      39.285  32.116  35.314  1.00  0.00     0.023 A 
ATOM     74  C   UNL A   1      38.587  31.505  36.365  1.00  0.00     0.031 A 
ATOM     75  C   UNL A   1      39.518  33.499  35.378  1.00  0.00     0.131 A 
ATOM     76  C   UNL A   1      38.128  32.283  37.435  1.00  0.00     0.055 A 
ATOM     77  C   UNL A   1      39.086  34.264  36.462  1.00  0.00     0.041 A 
ATOM     78  F   UNL A   1      40.207  34.117  34.406  1.00  0.00    -0.206 F 
ATOM     79  C   UNL A   1      38.381  33.656  37.497  1.00  0.00     0.022 A 
BRANCH  76  80
ATOM     80  S   UNL A   1      37.176  31.468  38.745  1.00  0.00     0.124 S 
ATOM     81  O   UNL A   1      35.966  32.281  38.785  1.00  0.00    -0.237 OA
ATOM     82  O   UNL A   1      37.024  30.118  38.213  1.00  0.00    -0.237 OA
ATOM     83  O   UNL A   1      38.043  31.579  39.915  1.00  0.00    -0.744 OA
ENDBRANCH  76  80
ENDBRANCH  49  73
BRANCH  61  84
ATOM     84  C   UNL A   1      44.736  27.845  34.586  1.00  0.00     0.023 A 
ATOM     85  C   UNL A   1      44.646  26.822  35.547  1.00  0.00     0.031 A 
ATOM     86  C   UNL A   1      45.917  28.603  34.528  1.00  0.00     0.131 A 
ATOM     87  C   UNL A   1      45.696  26.626  36.454  1.00  0.00     0.055 A 
ATOM     88  C   UNL A   1      46.978  28.372  35.403  1.00  0.00     0.041 A 
ATOM     89  F   UNL A   1      46.048  29.592  33.630  1.00  0.00    -0.206 F 
ATOM     90  C   UNL A   1      46.865  27.389  36.384  1.00  0.00     0.022 A 
BRANCH  87  91
ATOM     91  S   UNL A   1      45.475  25.424  37.795  1.00  0.00     0.124 S 
ATOM     92  O   UNL A   1      45.346  24.169  37.060  1.00  0.00    -0.237 OA
ATOM     93  O   UNL A   1      46.703  25.588  38.566  1.00  0.00    -0.237 OA
ATOM     94  O   UNL A   1      44.257  25.877  38.465  1.00  0.00    -0.744 OA
ENDBRANCH  87  91
ENDBRANCH  61  84
ENDBRANCH  35  36
ENDBRANCH  28  30
ENDBRANCH  27  28
ENDBRANCH  26  27
ENDBRANCH   1  26
TORSDOF 18
ENDMDL
MODEL 2
REMARK VINA RESULT:     -11.8      5.214     10.247
REMARK SMILES CNc1cc(-c2cncc(SCC(=O)OCCOC(=O)c3ccc(-c4c5nc(c(-c6cc(S(=O)(=O)[O-])ccc6F)c6ccc([nH]6)c(-c6cc(S(=O)(=O)[O-])ccc6F)c6nc(c(-c7cc(S(=O)(=O)[O-])ccc7F)c7ccc4[nH]7)C=C6)C=C5)cc3)n2)c2cc[nH]c2n1
REMARK SMILES IDX 16 1 15 2 13 3 14 4 12 5 11 6 10 7 6 8 7 9 84 10 8 11 9 12
REMARK SMILES IDX 5 13 3 14 4 15 90 16 89 17 85 18 88 19 86 20 87 21 2 23 1 24
REMARK SMILES IDX 17 26 18 27 19 28 20 29 21 30 22 31 83 32 23 33 82 34 24 35
REMARK SMILES IDX 25 36 26 37 76 38 27 39 81 40 75 41 77 42 28 43 80 44 74 45
REMARK SMILES IDX 73 46 29 48 61 49 41 50 60 51 42 52 45 53 59 54 78 55 43 56
REMARK SMILES IDX 44 57 58 59 79 60 46 61 30 62 31 63 39 64 32 65 38 66 40 67
REMARK SMILES IDX 37 68 33 69 34 70 35 71 36 72 62 73 63 74 71 75 64 76 70 77
REMARK SMILES IDX 72 78 69 79 65 80 66 81 67 82 68 83 47 84 48 85 56 86 49 87
REMARK SMILES IDX 55 88 57 89 54 90 50 91 51 92 52 93 53 94
REMARK H PARENT 88 22 2 25 77 47 45 58
REMARK Flexibility Score: inf
ROOT
ATOM      1  C   UNL A   1      35.528  20.113  25.003  1.00  0.00     0.274 C 
ENDROOT
BRANCH   1   2
ATOM      2  O   UNL A   1      34.179  20.532  25.303  1.00  0.00    -0.461 OA
BRANCH   2   3
ATOM      3  C   UNL A   1      33.208  20.116  24.448  1.00  0.00     0.316 C 
ATOM      4  O   UNL A   1      33.017  18.932  24.168  1.00  0.00    -0.251 OA
BRANCH   3   5
ATOM      5  C   UNL A   1      32.287  21.200  23.916  1.00  0.00     0.199 C 
BRANCH   5   6
ATOM      6  S   UNL A   1      31.850  22.530  25.071  1.00  0.00    -0.093 SA
BRANCH   6   7
ATOM      7  C   UNL A   1      32.468  23.956  24.180  1.00  0.00     0.116 A 
ATOM      8  C   UNL A   1      32.935  26.241  24.136  1.00  0.00     0.091 A 
ATOM      9  C   UNL A   1      33.666  26.040  22.969  1.00  0.00     0.140 A 
ATOM     10  N   UNL A   1      32.314  25.182  24.729  1.00  0.00    -0.238 NA
ATOM     11  N   UNL A   1      33.825  24.822  22.388  1.00  0.00    -0.260 NA
ATOM     12  C   UNL A   1      33.220  23.792  23.027  1.00  0.00     0.146 A 
BRANCH   8  13
ATOM     13  C   UNL A   1      32.876  27.541  24.830  1.00  0.00     0.016 A 
ATOM     14  C   UNL A   1      33.592  29.145  26.544  1.00  0.00     0.128 A 
ATOM     15  C   UNL A   1      33.753  27.926  25.874  1.00  0.00     0.058 A 
ATOM     16  N   UNL A   1      32.638  30.036  26.229  1.00  0.00    -0.213 NA
ATOM     17  C   UNL A   1      31.831  29.660  25.231  1.00  0.00     0.140 A 
ATOM     18  C   UNL A   1      31.858  28.472  24.516  1.00  0.00     0.028 A 
ATOM     19  N   UNL A   1      30.822  30.443  24.749  1.00  0.00    -0.346 N 
ATOM     20  C   UNL A   1      30.750  28.546  23.616  1.00  0.00     0.030 A 
ATOM     21  C   UNL A   1      30.157  29.784  23.753  1.00  0.00     0.085 A 
ATOM     22  H   UNL A   1      30.607  31.350  25.069  1.00  0.00     0.167 HD
BRANCH  14  23
ATOM     23  N   UNL A   1      34.348  29.540  27.617  1.00  0.00    -0.373 N 
ATOM     24  C   UNL A   1      35.774  29.387  27.729  1.00  0.00     0.141 C 
ATOM     25  H   UNL A   1      33.877  29.959  28.371  1.00  0.00     0.161 HD
ENDBRANCH  14  23
ENDBRANCH   8  13
ENDBRANCH   6   7
ENDBRANCH   5   6
ENDBRANCH   3   5
ENDBRANCH   2   3
ENDBRANCH   1   2
BRANCH   1  26
ATOM     26  C   UNL A   1      36.455  21.302  24.691  1.00  0.00     0.275 C 
BRANCH  26  27
ATOM     27  O   UNL A   1      37.059  21.877  25.871  1.00  0.00    -0.458 OA
BRANCH  27  28
ATOM     28  C   UNL A   1      38.389  21.637  25.926  1.00  0.00     0.338 C 
ATOM     29  O   UNL A   1      38.921  20.604  25.581  1.00  0.00    -0.246 OA
BRANCH  28  30
ATOM     30  C   UNL A   1      39.193  22.773  26.378  1.00  0.00     0.060 A 
ATOM     31  C   UNL A   1      40.246  22.545  27.268  1.00  0.00     0.016 A 
ATOM     32  C   UNL A   1      38.745  24.067  26.116  1.00  0.00     0.016 A 
ATOM     33  C   UNL A   1      40.861  23.621  27.905  1.00  0.00     0.010 A 
ATOM     34  C   UNL A   1      39.366  25.145  26.745  1.00  0.00     0.010 A 
ATOM     35  C   UNL A   1      40.429  24.928  27.640  1.00  0.00    -0.014 A 
BRANCH  35  36
ATOM     36  C   UNL A   1      41.200  26.087  28.136  1.00  0.00     0.031 A 
ATOM     37  C   UNL A   1      40.579  27.152  28.980  1.00  0.00     0.074 A 
ATOM     38  C   UNL A   1      42.477  26.186  27.729  1.00  0.00     0.049 A 
ATOM     39  N   UNL A   1      41.014  28.359  29.234  1.00  0.00    -0.248 NA
ATOM     40  C   UNL A   1      39.292  26.829  29.606  1.00  0.00     0.031 C 
ATOM     41  C   UNL A   1      43.188  25.162  26.958  1.00  0.00     0.029 A 
ATOM     42  N   UNL A   1      43.392  27.187  27.889  1.00  0.00    -0.354 N 
ATOM     43  C   UNL A   1      40.005  28.988  29.955  1.00  0.00     0.074 A 
ATOM     44  C   UNL A   1      38.977  27.988  30.174  1.00  0.00     0.031 C 
ATOM     45  C   UNL A   1      44.433  25.592  26.708  1.00  0.00     0.029 A 
ATOM     46  C   UNL A   1      44.581  26.937  27.251  1.00  0.00     0.049 A 
ATOM     47  H   UNL A   1      43.217  28.003  28.409  1.00  0.00     0.167 HD
ATOM     48  C   UNL A   1      39.939  30.296  30.319  1.00  0.00     0.034 A 
ATOM     49  C   UNL A   1      45.662  27.720  27.095  1.00  0.00     0.034 A 
ATOM     50  C   UNL A   1      41.043  31.222  30.161  1.00  0.00     0.049 A 
ATOM     51  C   UNL A   1      45.638  29.098  27.680  1.00  0.00     0.074 A 
ATOM     52  C   UNL A   1      41.119  32.555  30.532  1.00  0.00     0.029 A 
ATOM     53  N   UNL A   1      42.280  30.900  29.609  1.00  0.00    -0.354 N 
ATOM     54  N   UNL A   1      44.641  29.730  28.255  1.00  0.00    -0.248 NA
ATOM     55  C   UNL A   1      46.885  29.866  27.607  1.00  0.00     0.031 C 
ATOM     56  C   UNL A   1      42.382  33.045  30.173  1.00  0.00     0.029 A 
ATOM     57  C   UNL A   1      43.122  32.004  29.638  1.00  0.00     0.049 A 
ATOM     58  H   UNL A   1      42.524  30.016  29.251  1.00  0.00     0.167 HD
ATOM     59  C   UNL A   1      45.141  30.972  28.617  1.00  0.00     0.074 A 
ATOM     60  C   UNL A   1      46.536  30.989  28.219  1.00  0.00     0.031 C 
ATOM     61  C   UNL A   1      44.503  32.007  29.220  1.00  0.00     0.034 A 
BRANCH  48  62
ATOM     62  C   UNL A   1      38.610  30.832  30.806  1.00  0.00     0.023 A 
ATOM     63  C   UNL A   1      37.668  31.440  29.963  1.00  0.00     0.031 A 
ATOM     64  C   UNL A   1      38.295  30.748  32.179  1.00  0.00     0.131 A 
ATOM     65  C   UNL A   1      36.501  32.007  30.508  1.00  0.00     0.055 A 
ATOM     66  C   UNL A   1      37.092  31.230  32.699  1.00  0.00     0.041 A 
ATOM     67  F   UNL A   1      39.166  30.211  33.047  1.00  0.00    -0.206 F 
ATOM     68  C   UNL A   1      36.193  31.879  31.864  1.00  0.00     0.022 A 
BRANCH  65  69
ATOM     69  S   UNL A   1      35.468  33.050  29.444  1.00  0.00     0.124 S 
ATOM     70  O   UNL A   1      34.351  32.152  29.160  1.00  0.00    -0.237 OA
ATOM     71  O   UNL A   1      35.172  34.187  30.307  1.00  0.00    -0.237 OA
ATOM     72  O   UNL A   1      36.334  33.341  28.303  1.00  0.00    -0.744 OA
ENDBRANCH  65  69
ENDBRANCH  48  62
BRANCH  49  73
ATOM     73  C   UNL A   1      46.839  27.198  26.362  1.00  0.00     0.023 A 
ATOM     74  C   UNL A   1      47.892  26.590  27.058  1.00  0.00     0.031 A 
ATOM     75  C   UNL A   1      46.898  27.238  24.959  1.00  0.00     0.131 A 
ATOM     76  C   UNL A   1      48.976  26.058  26.349  1.00  0.00     0.055 A 
ATOM     77  C   UNL A   1      47.964  26.678  24.255  1.00  0.00     0.041 A 
ATOM     78  F   UNL A   1      45.896  27.785  24.253  1.00  0.00    -0.206 F 
ATOM     79  C   UNL A   1      49.015  26.088  24.952  1.00  0.00     0.022 A 
BRANCH  76  80
ATOM     80  S   UNL A   1      50.348  25.336  27.288  1.00  0.00     0.124 S 
ATOM     81  O   UNL A   1      49.704  24.195  27.929  1.00  0.00    -0.237 OA
ATOM     82  O   UNL A   1      51.305  25.022  26.231  1.00  0.00    -0.237 OA
ATOM     83  O   UNL A   1      50.750  26.415  28.187  1.00  0.00    -0.744 OA
ENDBRANCH  76  80
ENDBRANCH  49  73
BRANCH  61  84
ATOM     84  C   UNL A   1      45.338  33.226  29.506  1.00  0.00     0.023 A 
ATOM     85  C   UNL A   1      45.476  34.262  28.564  1.00  0.00     0.031 A 
ATOM     86  C   UNL A   1      46.044  33.326  30.716  1.00  0.00     0.131 A 
ATOM     87  C   UNL A   1      46.353  35.324  28.823  1.00  0.00     0.055 A 
ATOM     88  C   UNL A   1      46.879  34.410  30.988  1.00  0.00     0.041 A 
ATOM     89  F   UNL A   1      45.947  32.361  31.644  1.00  0.00    -0.206 F 
ATOM     90  C   UNL A   1      47.049  35.410  30.033  1.00  0.00     0.022 A 
BRANCH  87  91
ATOM     91  S   UNL A   1      46.648  36.547  27.516  1.00  0.00     0.124 S 
ATOM     92  O   UNL A   1      48.095  36.728  27.592  1.00  0.00    -0.237 OA
ATOM     93  O   UNL A   1      46.153  35.858  26.329  1.00  0.00    -0.237 OA
ATOM     94  O   UNL A   1      45.856  37.700  27.939  1.00  0.00    -0.744 OA
ENDBRANCH  87  91
ENDBRANCH  61  84
ENDBRANCH  35  36
ENDBRANCH  28  30
ENDBRANCH  27  28
ENDBRANCH  26  27
ENDBRANCH   1  26
TORSDOF 18
ENDMDL
MODEL 3
REMARK VINA RESULT:     -11.7      5.292     10.404
REMARK SMILES CNc1cc(-c2cncc(SCC(=O)OCCOC(=O)c3ccc(-c4c5nc(c(-c6cc(S(=O)(=O)[O-])ccc6F)c6ccc([nH]6)c(-c6cc(S(=O)(=O)[O-])ccc6F)c6nc(c(-c7cc(S(=O)(=O)[O-])ccc7F)c7ccc4[nH]7)C=C6)C=C5)cc3)n2)c2cc[nH]c2n1
REMARK SMILES IDX 16 1 15 2 13 3 14 4 12 5 11 6 10 7 6 8 7 9 84 10 8 11 9 12
REMARK SMILES IDX 5 13 3 14 4 15 90 16 89 17 85 18 88 19 86 20 87 21 2 23 1 24
REMARK SMILES IDX 17 26 18 27 19 28 20 29 21 30 22 31 83 32 23 33 82 34 24 35
REMARK SMILES IDX 25 36 26 37 76 38 27 39 81 40 75 41 77 42 28 43 80 44 74 45
REMARK SMILES IDX 73 46 29 48 61 49 41 50 60 51 42 52 45 53 59 54 78 55 43 56
REMARK SMILES IDX 44 57 58 59 79 60 46 61 30 62 31 63 39 64 32 65 38 66 40 67
REMARK SMILES IDX 37 68 33 69 34 70 35 71 36 72 62 73 63 74 71 75 64 76 70 77
REMARK SMILES IDX 72 78 69 79 65 80 66 81 67 82 68 83 47 84 48 85 56 86 49 87
REMARK SMILES IDX 55 88 57 89 54 90 50 91 51 92 52 93 53 94
REMARK H PARENT 88 22 2 25 77 47 45 58
REMARK Flexibility Score: inf
ROOT
ATOM      1  C   UNL A   1      35.188  20.685  24.919  1.00  0.00     0.274 C 
ENDROOT
BRANCH   1   2
ATOM      2  O   UNL A   1      34.619  21.918  25.408  1.00  0.00    -0.461 OA
BRANCH   2   3
ATOM      3  C   UNL A   1      34.672  22.988  24.572  1.00  0.00     0.316 C 
ATOM      4  O   UNL A   1      35.244  24.040  24.857  1.00  0.00    -0.251 OA
BRANCH   3   5
ATOM      5  C   UNL A   1      34.059  22.783  23.197  1.00  0.00     0.199 C 
BRANCH   5   6
ATOM      6  S   UNL A   1      32.256  22.590  23.135  1.00  0.00    -0.093 SA
BRANCH   6   7
ATOM      7  C   UNL A   1      31.765  23.629  24.509  1.00  0.00     0.116 A 
ATOM      8  C   UNL A   1      31.440  25.765  25.388  1.00  0.00     0.091 A 
ATOM      9  C   UNL A   1      30.749  25.191  26.452  1.00  0.00     0.140 A 
ATOM     10  N   UNL A   1      31.969  24.963  24.421  1.00  0.00    -0.238 NA
ATOM     11  N   UNL A   1      30.542  23.853  26.572  1.00  0.00    -0.260 NA
ATOM     12  C   UNL A   1      31.056  23.095  25.574  1.00  0.00     0.146 A 
BRANCH   8  13
ATOM     13  C   UNL A   1      31.547  27.223  25.197  1.00  0.00     0.016 A 
ATOM     14  C   UNL A   1      30.862  29.359  24.202  1.00  0.00     0.128 A 
ATOM     15  C   UNL A   1      30.657  27.990  24.405  1.00  0.00     0.058 A 
ATOM     16  N   UNL A   1      31.876  30.041  24.762  1.00  0.00    -0.213 NA
ATOM     17  C   UNL A   1      32.694  29.302  25.517  1.00  0.00     0.140 A 
ATOM     18  C   UNL A   1      32.627  27.939  25.766  1.00  0.00     0.028 A 
ATOM     19  N   UNL A   1      33.762  29.821  26.191  1.00  0.00    -0.346 N 
ATOM     20  C   UNL A   1      33.768  27.644  26.574  1.00  0.00     0.030 A 
ATOM     21  C   UNL A   1      34.425  28.824  26.851  1.00  0.00     0.085 A 
ATOM     22  H   UNL A   1      34.017  30.773  26.201  1.00  0.00     0.167 HD
BRANCH  14  23
ATOM     23  N   UNL A   1      30.092  30.140  23.381  1.00  0.00    -0.373 N 
ATOM     24  C   UNL A   1      29.816  29.868  21.995  1.00  0.00     0.141 C 
ATOM     25  H   UNL A   1      29.698  30.953  23.769  1.00  0.00     0.161 HD
ENDBRANCH  14  23
ENDBRANCH   8  13
ENDBRANCH   6   7
ENDBRANCH   5   6
ENDBRANCH   3   5
ENDBRANCH   2   3
ENDBRANCH   1   2
BRANCH   1  26
ATOM     26  C   UNL A   1      36.728  20.703  24.935  1.00  0.00     0.275 C 
BRANCH  26  27
ATOM     27  O   UNL A   1      37.275  21.583  25.942  1.00  0.00    -0.458 OA
BRANCH  27  28
ATOM     28  C   UNL A   1      38.617  21.459  26.046  1.00  0.00     0.338 C 
ATOM     29  O   UNL A   1      39.254  20.492  25.684  1.00  0.00    -0.246 OA
BRANCH  28  30
ATOM     30  C   UNL A   1      39.298  22.640  26.578  1.00  0.00     0.060 A 
ATOM     31  C   UNL A   1      38.941  23.902  26.095  1.00  0.00     0.016 A 
ATOM     32  C   UNL A   1      40.443  22.470  27.355  1.00  0.00     0.016 A 
ATOM     33  C   UNL A   1      39.735  25.008  26.391  1.00  0.00     0.010 A 
ATOM     34  C   UNL A   1      41.232  23.578  27.660  1.00  0.00     0.010 A 
ATOM     35  C   UNL A   1      40.881  24.852  27.183  1.00  0.00    -0.014 A 
BRANCH  35  36
ATOM     36  C   UNL A   1      41.613  26.035  27.682  1.00  0.00     0.031 A 
ATOM     37  C   UNL A   1      40.974  27.042  28.582  1.00  0.00     0.074 A 
ATOM     38  C   UNL A   1      42.865  26.211  27.228  1.00  0.00     0.049 A 
ATOM     39  N   UNL A   1      41.358  28.263  28.856  1.00  0.00    -0.248 NA
ATOM     40  C   UNL A   1      39.732  26.635  29.249  1.00  0.00     0.031 C 
ATOM     41  C   UNL A   1      43.595  25.247  26.398  1.00  0.00     0.029 A 
ATOM     42  N   UNL A   1      43.735  27.253  27.382  1.00  0.00    -0.354 N 
ATOM     43  C   UNL A   1      40.349  28.818  29.634  1.00  0.00     0.074 A 
ATOM     44  C   UNL A   1      39.383  27.760  29.864  1.00  0.00     0.031 C 
ATOM     45  C   UNL A   1      44.805  25.748  26.113  1.00  0.00     0.029 A 
ATOM     46  C   UNL A   1      44.907  27.083  26.690  1.00  0.00     0.049 A 
ATOM     47  H   UNL A   1      43.540  28.044  27.933  1.00  0.00     0.167 HD
ATOM     48  C   UNL A   1      40.233  30.109  30.041  1.00  0.00     0.034 A 
ATOM     49  C   UNL A   1      45.939  27.925  26.515  1.00  0.00     0.034 A 
ATOM     50  C   UNL A   1      41.281  31.096  29.867  1.00  0.00     0.049 A 
ATOM     51  C   UNL A   1      45.871  29.283  27.141  1.00  0.00     0.074 A 
ATOM     52  C   UNL A   1      41.305  32.420  30.275  1.00  0.00     0.029 A 
ATOM     53  N   UNL A   1      42.509  30.854  29.257  1.00  0.00    -0.354 N 
ATOM     54  N   UNL A   1      44.867  29.845  27.774  1.00  0.00    -0.248 NA
ATOM     55  C   UNL A   1      47.073  30.116  27.042  1.00  0.00     0.031 C 
ATOM     56  C   UNL A   1      42.526  32.985  29.881  1.00  0.00     0.029 A 
ATOM     57  C   UNL A   1      43.294  31.998  29.285  1.00  0.00     0.049 A 
ATOM     58  H   UNL A   1      42.781  29.994  28.863  1.00  0.00     0.167 HD
ATOM     59  C   UNL A   1      45.319  31.102  28.154  1.00  0.00     0.074 A 
ATOM     60  C   UNL A   1      46.694  31.201  27.702  1.00  0.00     0.031 C 
ATOM     61  C   UNL A   1      44.655  32.085  28.813  1.00  0.00     0.034 A 
BRANCH  48  62
ATOM     62  C   UNL A   1      38.900  30.562  30.596  1.00  0.00     0.023 A 
ATOM     63  C   UNL A   1      37.884  31.121  29.806  1.00  0.00     0.031 A 
ATOM     64  C   UNL A   1      38.657  30.449  31.982  1.00  0.00     0.131 A 
ATOM     65  C   UNL A   1      36.714  31.613  30.412  1.00  0.00     0.055 A 
ATOM     66  C   UNL A   1      37.453  30.855  32.564  1.00  0.00     0.041 A 
ATOM     67  F   UNL A   1      39.598  29.957  32.801  1.00  0.00    -0.206 F 
ATOM     68  C   UNL A   1      36.479  31.457  31.780  1.00  0.00     0.022 A 
BRANCH  65  69
ATOM     69  S   UNL A   1      35.571  32.603  29.410  1.00  0.00     0.124 S 
ATOM     70  O   UNL A   1      35.474  31.789  28.200  1.00  0.00    -0.237 OA
ATOM     71  O   UNL A   1      34.378  32.652  30.246  1.00  0.00    -0.237 OA
ATOM     72  O   UNL A   1      36.272  33.874  29.245  1.00  0.00    -0.744 OA
ENDBRANCH  65  69
ENDBRANCH  48  62
BRANCH  49  73
ATOM     73  C   UNL A   1      47.110  27.485  25.719  1.00  0.00     0.023 A 
ATOM     74  C   UNL A   1      47.190  27.789  24.353  1.00  0.00     0.031 A 
ATOM     75  C   UNL A   1      48.188  26.816  26.322  1.00  0.00     0.131 A 
ATOM     76  C   UNL A   1      48.324  27.409  23.624  1.00  0.00     0.055 A 
ATOM     77  C   UNL A   1      49.330  26.468  25.598  1.00  0.00     0.041 A 
ATOM     78  F   UNL A   1      48.163  26.532  27.633  1.00  0.00    -0.206 F 
ATOM     79  C   UNL A   1      49.399  26.761  24.239  1.00  0.00     0.022 A 
BRANCH  76  80
ATOM     80  S   UNL A   1      48.364  27.765  21.848  1.00  0.00     0.124 S 
ATOM     81  O   UNL A   1      47.033  28.316  21.623  1.00  0.00    -0.237 OA
ATOM     82  O   UNL A   1      49.473  28.710  21.754  1.00  0.00    -0.237 OA
ATOM     83  O   UNL A   1      48.611  26.458  21.244  1.00  0.00    -0.744 OA
ENDBRANCH  76  80
ENDBRANCH  49  73
BRANCH  61  84
ATOM     84  C   UNL A   1      45.439  33.337  29.102  1.00  0.00     0.023 A 
ATOM     85  C   UNL A   1      45.498  34.398  28.182  1.00  0.00     0.031 A 
ATOM     86  C   UNL A   1      46.176  33.445  30.293  1.00  0.00     0.131 A 
ATOM     87  C   UNL A   1      46.329  35.496  28.439  1.00  0.00     0.055 A 
ATOM     88  C   UNL A   1      46.966  34.562  30.565  1.00  0.00     0.041 A 
ATOM     89  F   UNL A   1      46.154  32.456  31.201  1.00  0.00    -0.206 F 
ATOM     90  C   UNL A   1      47.058  35.589  29.629  1.00  0.00     0.022 A 
BRANCH  87  91
ATOM     91  S   UNL A   1      46.525  36.760  27.153  1.00  0.00     0.124 S 
ATOM     92  O   UNL A   1      46.715  35.947  25.955  1.00  0.00    -0.237 OA
ATOM     93  O   UNL A   1      45.262  37.487  27.236  1.00  0.00    -0.237 OA
ATOM     94  O   UNL A   1      47.702  37.511  27.585  1.00  0.00    -0.744 OA
ENDBRANCH  87  91
ENDBRANCH  61  84
ENDBRANCH  35  36
ENDBRANCH  28  30
ENDBRANCH  27  28
ENDBRANCH  26  27
ENDBRANCH   1  26
TORSDOF 18
ENDMDL
