MODEL 1
REMARK VINA RESULT:     -10.9      0.000      0.000
REMARK SMILES CC(C)C[C@H](NC(=O)[C@H](Cc1ccccc1)NC(=O)CNC(=O)C[NH3+])C(=O)OCCOC(=O)c1ccc(-c2c3nc(c(-c4cc(S(=O)(=O)[O-])ccc4F)c4ccc([nH]4)c(-c4cc(S(=O)(=O)[O-])ccc4F)c4nc(c(-c5cc(S(=O)(=O)[O-])ccc5F)c5ccc2[nH]5)C=C4)C=C3)cc1
REMARK SMILES IDX 26 1 27 2 5 3 4 4 2 5 1 6 3 7 6 8 7 9 8 11 9 12 17 13 18 14
REMARK SMILES IDX 19 16 20 17 21 18 22 19 23 21 24 22 25 23 10 27 11 28 12 29
REMARK SMILES IDX 16 30 13 31 15 32 14 33 28 34 29 35 30 36 31 37 32 38 33 39
REMARK SMILES IDX 34 40 35 41 96 42 36 43 95 44 37 45 38 46 39 47 89 48 40 49
REMARK SMILES IDX 94 50 88 51 90 52 41 53 93 54 87 55 86 56 42 58 74 59 54 60
REMARK SMILES IDX 73 61 55 62 58 63 72 64 91 65 56 66 57 67 71 69 92 70 59 71
REMARK SMILES IDX 43 72 44 73 52 74 45 75 51 76 53 77 50 78 46 79 47 80 48 81
REMARK SMILES IDX 49 82 75 83 76 84 84 85 77 86 83 87 85 88 82 89 78 90 79 91
REMARK SMILES IDX 80 92 81 93 60 94 61 95 69 96 62 97 68 98 70 99 67 100
REMARK SMILES IDX 63 101 64 102 65 103 66 104
REMARK H PARENT 6 10 17 15 21 20 25 24 25 25 25 26 90 57 58 68
REMARK Flexibility Score: inf
ROOT
ATOM      1  C   UNL A   1      35.329  22.960  23.651  1.00  0.00     0.328 C 
ATOM      2  O   UNL A   1      36.111  23.218  22.736  1.00  0.00    -0.250 OA
ENDROOT
BRANCH   1   3
ATOM      3  C   UNL A   1      33.869  23.516  23.642  1.00  0.00     0.192 C 
BRANCH   3   4
ATOM      4  C   UNL A   1      33.115  22.381  22.985  1.00  0.00     0.040 C 
BRANCH   4   5
ATOM      5  C   UNL A   1      32.213  21.664  24.035  1.00  0.00    -0.015 C 
ATOM      6  C   UNL A   1      32.439  20.157  23.815  1.00  0.00     0.007 C 
ATOM      7  C   UNL A   1      31.890  22.256  25.433  1.00  0.00     0.007 C 
ENDBRANCH   4   5
ENDBRANCH   3   4
BRANCH   3   8
ATOM      8  N   UNL A   1      33.455  24.821  23.101  1.00  0.00    -0.341 N 
ATOM      9  C   UNL A   1      33.175  25.938  23.909  1.00  0.00     0.243 C 
ATOM     10  H   UNL A   1      33.370  24.916  22.125  1.00  0.00     0.164 HD
ATOM     11  O   UNL A   1      33.849  26.959  23.791  1.00  0.00    -0.273 OA
BRANCH   9  12
ATOM     12  C   UNL A   1      31.864  25.880  24.804  1.00  0.00     0.175 C 
BRANCH  12  13
ATOM     13  N   UNL A   1      31.561  26.810  26.041  1.00  0.00    -0.342 N 
ATOM     14  C   UNL A   1      31.507  28.105  26.537  1.00  0.00     0.240 C 
ATOM     15  H   UNL A   1      31.298  26.216  26.780  1.00  0.00     0.164 HD
ATOM     16  O   UNL A   1      31.073  28.089  27.712  1.00  0.00    -0.273 OA
BRANCH  14  17
ATOM     17  C   UNL A   1      31.681  29.692  25.912  1.00  0.00     0.216 C 
BRANCH  17  18
ATOM     18  N   UNL A   1      31.686  31.182  26.442  1.00  0.00    -0.342 N 
ATOM     19  C   UNL A   1      32.334  32.240  27.055  1.00  0.00     0.275 C 
ATOM     20  H   UNL A   1      30.787  31.524  26.234  1.00  0.00     0.164 HD
ATOM     21  O   UNL A   1      31.600  33.250  27.098  1.00  0.00    -0.268 OA
BRANCH  19  22
ATOM     22  C   UNL A   1      33.792  32.466  27.708  1.00  0.00     0.360 C 
BRANCH  22  23
ATOM     23  N   UNL A   1      34.888  31.476  27.510  1.00  0.00    -0.350 N 
ATOM     24  H   UNL A   1      34.511  30.532  27.584  1.00  0.00     0.344 HD
ATOM     25  H   UNL A   1      35.604  31.614  28.224  1.00  0.00     0.344 HD
ATOM     26  H   UNL A   1      35.301  31.607  26.586  1.00  0.00     0.344 HD
ENDBRANCH  22  23
ENDBRANCH  19  22
ENDBRANCH  17  18
ENDBRANCH  14  17
ENDBRANCH  12  13
BRANCH  12  27
ATOM     27  C   UNL A   1      30.569  25.771  23.969  1.00  0.00     0.070 C 
BRANCH  27  28
ATOM     28  C   UNL A   1      29.939  27.053  23.450  1.00  0.00    -0.045 A 
ATOM     29  C   UNL A   1      28.567  27.253  23.656  1.00  0.00     0.004 A 
ATOM     30  C   UNL A   1      30.640  28.019  22.709  1.00  0.00     0.004 A 
ATOM     31  C   UNL A   1      27.923  28.391  23.168  1.00  0.00     0.000 A 
ATOM     32  C   UNL A   1      29.996  29.163  22.225  1.00  0.00     0.000 A 
ATOM     33  C   UNL A   1      28.638  29.351  22.457  1.00  0.00     0.000 A 
ENDBRANCH  27  28
ENDBRANCH  12  27
ENDBRANCH   9  12
ENDBRANCH   3   8
ENDBRANCH   1   3
BRANCH   1  34
ATOM     34  O   UNL A   1      35.731  22.429  24.842  1.00  0.00    -0.461 OA
BRANCH  34  35
ATOM     35  C   UNL A   1      36.075  21.023  24.797  1.00  0.00     0.274 C 
BRANCH  35  36
ATOM     36  C   UNL A   1      37.576  20.813  24.981  1.00  0.00     0.275 C 
BRANCH  36  37
ATOM     37  O   UNL A   1      38.158  21.836  25.806  1.00  0.00    -0.458 OA
BRANCH  37  38
ATOM     38  C   UNL A   1      39.405  21.553  26.263  1.00  0.00     0.338 C 
ATOM     39  O   UNL A   1      40.055  20.545  26.073  1.00  0.00    -0.246 OA
BRANCH  38  40
ATOM     40  C   UNL A   1      39.971  22.752  26.889  1.00  0.00     0.060 A 
ATOM     41  C   UNL A   1      39.599  24.011  26.403  1.00  0.00     0.016 A 
ATOM     42  C   UNL A   1      40.945  22.622  27.867  1.00  0.00     0.016 A 
ATOM     43  C   UNL A   1      40.209  25.159  26.868  1.00  0.00     0.010 A 
ATOM     44  C   UNL A   1      41.575  23.771  28.328  1.00  0.00     0.010 A 
ATOM     45  C   UNL A   1      41.225  25.033  27.807  1.00  0.00    -0.014 A 
BRANCH  45  46
ATOM     46  C   UNL A   1      42.063  26.196  28.129  1.00  0.00     0.031 A 
ATOM     47  C   UNL A   1      41.461  27.266  28.981  1.00  0.00     0.074 A 
ATOM     48  C   UNL A   1      43.306  26.290  27.636  1.00  0.00     0.049 A 
ATOM     49  N   UNL A   1      41.837  28.502  29.147  1.00  0.00    -0.248 NA
ATOM     50  C   UNL A   1      40.244  26.891  29.719  1.00  0.00     0.031 C 
ATOM     51  C   UNL A   1      44.004  25.239  26.893  1.00  0.00     0.029 A 
ATOM     52  N   UNL A   1      44.185  27.336  27.656  1.00  0.00    -0.354 N 
ATOM     53  C   UNL A   1      40.870  29.075  29.963  1.00  0.00     0.074 A 
ATOM     54  C   UNL A   1      39.885  28.052  30.243  1.00  0.00     0.031 C 
ATOM     55  C   UNL A   1      45.193  25.713  26.489  1.00  0.00     0.029 A 
ATOM     56  C   UNL A   1      45.295  27.116  26.877  1.00  0.00     0.049 A 
ATOM     57  H   UNL A   1      44.039  28.160  28.174  1.00  0.00     0.167 HD
ATOM     58  C   UNL A   1      40.819  30.351  30.415  1.00  0.00     0.034 A 
ATOM     59  C   UNL A   1      46.239  27.981  26.465  1.00  0.00     0.034 A 
ATOM     60  C   UNL A   1      41.834  31.325  30.096  1.00  0.00     0.049 A 
ATOM     61  C   UNL A   1      46.125  29.418  26.902  1.00  0.00     0.074 A 
ATOM     62  C   UNL A   1      41.915  32.650  30.481  1.00  0.00     0.029 A 
ATOM     63  N   UNL A   1      42.950  31.073  29.302  1.00  0.00    -0.354 N 
ATOM     64  N   UNL A   1      45.186  29.989  27.625  1.00  0.00    -0.248 NA
ATOM     65  C   UNL A   1      47.193  30.326  26.472  1.00  0.00     0.031 C 
ATOM     66  C   UNL A   1      43.035  33.215  29.860  1.00  0.00     0.029 A 
ATOM     67  C   UNL A   1      43.708  32.222  29.163  1.00  0.00     0.049 A 
ATOM     68  H   UNL A   1      43.168  30.202  28.898  1.00  0.00     0.167 HD
ATOM     69  C   UNL A   1      45.572  31.318  27.769  1.00  0.00     0.074 A 
ATOM     70  C   UNL A   1      46.827  31.459  27.053  1.00  0.00     0.031 C 
ATOM     71  C   UNL A   1      44.958  32.326  28.441  1.00  0.00     0.034 A 
BRANCH  58  72
ATOM     72  C   UNL A   1      39.599  30.757  31.203  1.00  0.00     0.023 A 
ATOM     73  C   UNL A   1      38.478  31.351  30.595  1.00  0.00     0.031 A 
ATOM     74  C   UNL A   1      39.589  30.625  32.605  1.00  0.00     0.131 A 
ATOM     75  C   UNL A   1      37.447  31.878  31.388  1.00  0.00     0.055 A 
ATOM     76  C   UNL A   1      38.513  31.063  33.380  1.00  0.00     0.041 A 
ATOM     77  F   UNL A   1      40.640  30.096  33.249  1.00  0.00    -0.206 F 
ATOM     78  C   UNL A   1      37.442  31.713  32.775  1.00  0.00     0.022 A 
BRANCH  75  79
ATOM     79  S   UNL A   1      36.211  32.947  30.600  1.00  0.00     0.124 S 
ATOM     80  O   UNL A   1      36.806  33.162  29.282  1.00  0.00    -0.237 OA
ATOM     81  O   UNL A   1      35.011  32.118  30.632  1.00  0.00    -0.237 OA
ATOM     82  O   UNL A   1      36.180  34.128  31.459  1.00  0.00    -0.744 OA
ENDBRANCH  75  79
ENDBRANCH  58  72
BRANCH  59  83
ATOM     83  C   UNL A   1      47.320  27.519  25.553  1.00  0.00     0.023 A 
ATOM     84  C   UNL A   1      47.332  27.896  24.203  1.00  0.00     0.031 A 
ATOM     85  C   UNL A   1      48.366  26.701  26.021  1.00  0.00     0.131 A 
ATOM     86  C   UNL A   1      48.353  27.435  23.359  1.00  0.00     0.055 A 
ATOM     87  C   UNL A   1      49.407  26.288  25.189  1.00  0.00     0.041 A 
ATOM     88  F   UNL A   1      48.406  26.317  27.307  1.00  0.00    -0.206 F 
ATOM     89  C   UNL A   1      49.399  26.647  23.846  1.00  0.00     0.022 A 
BRANCH  86  90
ATOM     90  S   UNL A   1      48.261  27.834  21.594  1.00  0.00     0.124 S 
ATOM     91  O   UNL A   1      48.591  26.551  20.982  1.00  0.00    -0.237 OA
ATOM     92  O   UNL A   1      46.877  28.275  21.454  1.00  0.00    -0.237 OA
ATOM     93  O   UNL A   1      49.266  28.883  21.429  1.00  0.00    -0.744 OA
ENDBRANCH  86  90
ENDBRANCH  59  83
BRANCH  71  94
ATOM     94  C   UNL A   1      45.680  33.649  28.498  1.00  0.00     0.023 A 
ATOM     95  C   UNL A   1      46.619  33.945  29.499  1.00  0.00     0.031 A 
ATOM     96  C   UNL A   1      45.431  34.618  27.510  1.00  0.00     0.131 A 
ATOM     97  C   UNL A   1      47.244  35.201  29.513  1.00  0.00     0.055 A 
ATOM     98  C   UNL A   1      46.103  35.840  27.493  1.00  0.00     0.041 A 
ATOM     99  F   UNL A   1      44.539  34.386  26.533  1.00  0.00    -0.206 F 
ATOM    100  C   UNL A   1      47.008  36.140  28.506  1.00  0.00     0.022 A 
BRANCH  97 101
ATOM    101  S   UNL A   1      48.313  35.626  30.915  1.00  0.00     0.124 S 
ATOM    102  O   UNL A   1      48.359  37.082  30.830  1.00  0.00    -0.237 OA
ATOM    103  O   UNL A   1      47.576  35.075  32.049  1.00  0.00    -0.237 OA
ATOM    104  O   UNL A   1      49.570  34.947  30.607  1.00  0.00    -0.744 OA
ENDBRANCH  97 101
ENDBRANCH  71  94
ENDBRANCH  45  46
ENDBRANCH  38  40
ENDBRANCH  37  38
ENDBRANCH  36  37
ENDBRANCH  35  36
ENDBRANCH  34  35
ENDBRANCH   1  34
TORSDOF 25
ENDMDL
MODEL 2
REMARK VINA RESULT:     -10.6      2.055      7.631
REMARK SMILES CC(C)C[C@H](NC(=O)[C@H](Cc1ccccc1)NC(=O)CNC(=O)C[NH3+])C(=O)OCCOC(=O)c1ccc(-c2c3nc(c(-c4cc(S(=O)(=O)[O-])ccc4F)c4ccc([nH]4)c(-c4cc(S(=O)(=O)[O-])ccc4F)c4nc(c(-c5cc(S(=O)(=O)[O-])ccc5F)c5ccc2[nH]5)C=C4)C=C3)cc1
REMARK SMILES IDX 26 1 27 2 5 3 4 4 2 5 1 6 3 7 6 8 7 9 8 11 9 12 17 13 18 14
REMARK SMILES IDX 19 16 20 17 21 18 22 19 23 21 24 22 25 23 10 27 11 28 12 29
REMARK SMILES IDX 16 30 13 31 15 32 14 33 28 34 29 35 30 36 31 37 32 38 33 39
REMARK SMILES IDX 34 40 35 41 96 42 36 43 95 44 37 45 38 46 39 47 89 48 40 49
REMARK SMILES IDX 94 50 88 51 90 52 41 53 93 54 87 55 86 56 42 58 74 59 54 60
REMARK SMILES IDX 73 61 55 62 58 63 72 64 91 65 56 66 57 67 71 69 92 70 59 71
REMARK SMILES IDX 43 72 44 73 52 74 45 75 51 76 53 77 50 78 46 79 47 80 48 81
REMARK SMILES IDX 49 82 75 83 76 84 84 85 77 86 83 87 85 88 82 89 78 90 79 91
REMARK SMILES IDX 80 92 81 93 60 94 61 95 69 96 62 97 68 98 70 99 67 100
REMARK SMILES IDX 63 101 64 102 65 103 66 104
REMARK H PARENT 6 10 17 15 21 20 25 24 25 25 25 26 90 57 58 68
REMARK Flexibility Score: inf
ROOT
ATOM      1  C   UNL A   1      35.736  23.567  24.278  1.00  0.00     0.328 C 
ATOM      2  O   UNL A   1      36.198  23.762  23.153  1.00  0.00    -0.250 OA
ENDROOT
BRANCH   1   3
ATOM      3  C   UNL A   1      34.819  24.628  24.966  1.00  0.00     0.192 C 
BRANCH   3   4
ATOM      4  C   UNL A   1      34.218  23.823  26.098  1.00  0.00     0.040 C 
BRANCH   4   5
ATOM      5  C   UNL A   1      32.716  23.532  25.804  1.00  0.00    -0.015 C 
ATOM      6  C   UNL A   1      32.699  22.235  24.976  1.00  0.00     0.007 C 
ATOM      7  C   UNL A   1      31.564  23.910  26.775  1.00  0.00     0.007 C 
ENDBRANCH   4   5
ENDBRANCH   3   4
BRANCH   3   8
ATOM      8  N   UNL A   1      33.801  25.446  24.288  1.00  0.00    -0.341 N 
ATOM      9  C   UNL A   1      33.794  26.852  24.318  1.00  0.00     0.243 C 
ATOM     10  H   UNL A   1      33.089  24.986  23.788  1.00  0.00     0.164 HD
ATOM     11  O   UNL A   1      33.903  27.484  23.270  1.00  0.00    -0.273 OA
BRANCH   9  12
ATOM     12  C   UNL A   1      33.450  27.550  25.703  1.00  0.00     0.175 C 
BRANCH  12  13
ATOM     13  N   UNL A   1      34.487  28.282  26.639  1.00  0.00    -0.342 N 
ATOM     14  C   UNL A   1      34.819  29.443  27.323  1.00  0.00     0.240 C 
ATOM     15  H   UNL A   1      35.210  27.638  26.811  1.00  0.00     0.164 HD
ATOM     16  O   UNL A   1      35.869  29.259  27.981  1.00  0.00    -0.273 OA
BRANCH  14  17
ATOM     17  C   UNL A   1      34.081  30.955  27.653  1.00  0.00     0.216 C 
BRANCH  17  18
ATOM     18  N   UNL A   1      34.117  32.074  28.769  1.00  0.00    -0.342 N 
ATOM     19  C   UNL A   1      34.364  33.379  29.159  1.00  0.00     0.275 C 
ATOM     20  H   UNL A   1      33.818  31.619  29.589  1.00  0.00     0.164 HD
ATOM     21  O   UNL A   1      34.092  33.545  30.367  1.00  0.00    -0.268 OA
BRANCH  19  22
ATOM     22  C   UNL A   1      34.904  34.711  28.425  1.00  0.00     0.360 C 
BRANCH  22  23
ATOM     23  N   UNL A   1      34.154  35.996  28.509  1.00  0.00    -0.350 N 
ATOM     24  H   UNL A   1      34.635  36.706  27.957  1.00  0.00     0.344 HD
ATOM     25  H   UNL A   1      34.104  36.297  29.482  1.00  0.00     0.344 HD
ATOM     26  H   UNL A   1      33.211  35.863  28.145  1.00  0.00     0.344 HD
ENDBRANCH  22  23
ENDBRANCH  19  22
ENDBRANCH  17  18
ENDBRANCH  14  17
ENDBRANCH  12  13
BRANCH  12  27
ATOM     27  C   UNL A   1      32.177  28.422  25.638  1.00  0.00     0.070 C 
BRANCH  27  28
ATOM     28  C   UNL A   1      30.982  27.893  24.862  1.00  0.00    -0.045 A 
ATOM     29  C   UNL A   1      30.465  28.673  23.818  1.00  0.00     0.004 A 
ATOM     30  C   UNL A   1      30.317  26.696  25.179  1.00  0.00     0.004 A 
ATOM     31  C   UNL A   1      29.345  28.259  23.095  1.00  0.00     0.000 A 
ATOM     32  C   UNL A   1      29.198  26.278  24.450  1.00  0.00     0.000 A 
ATOM     33  C   UNL A   1      28.713  27.058  23.406  1.00  0.00     0.000 A 
ENDBRANCH  27  28
ENDBRANCH  12  27
ENDBRANCH   9  12
ENDBRANCH   3   8
ENDBRANCH   1   3
BRANCH   1  34
ATOM     34  O   UNL A   1      36.192  22.582  25.105  1.00  0.00    -0.461 OA
BRANCH  34  35
ATOM     35  C   UNL A   1      37.393  21.912  24.650  1.00  0.00     0.274 C 
BRANCH  35  36
ATOM     36  C   UNL A   1      38.143  21.268  25.813  1.00  0.00     0.275 C 
BRANCH  36  37
ATOM     37  O   UNL A   1      39.544  21.584  25.781  1.00  0.00    -0.458 OA
BRANCH  37  38
ATOM     38  C   UNL A   1      40.130  21.681  27.003  1.00  0.00     0.338 C 
ATOM     39  O   UNL A   1      40.541  20.778  27.703  1.00  0.00    -0.246 OA
BRANCH  38  40
ATOM     40  C   UNL A   1      40.385  23.093  27.302  1.00  0.00     0.060 A 
ATOM     41  C   UNL A   1      39.849  24.074  26.459  1.00  0.00     0.016 A 
ATOM     42  C   UNL A   1      41.242  23.432  28.339  1.00  0.00     0.016 A 
ATOM     43  C   UNL A   1      40.177  25.405  26.622  1.00  0.00     0.010 A 
ATOM     44  C   UNL A   1      41.589  24.767  28.498  1.00  0.00     0.010 A 
ATOM     45  C   UNL A   1      41.078  25.746  27.622  1.00  0.00    -0.014 A 
BRANCH  45  46
ATOM     46  C   UNL A   1      41.642  27.102  27.658  1.00  0.00     0.031 A 
ATOM     47  C   UNL A   1      42.980  27.312  27.026  1.00  0.00     0.074 A 
ATOM     48  C   UNL A   1      40.978  28.092  28.272  1.00  0.00     0.049 A 
ATOM     49  N   UNL A   1      43.828  28.286  27.188  1.00  0.00    -0.248 NA
ATOM     50  C   UNL A   1      43.432  26.250  26.112  1.00  0.00     0.031 C 
ATOM     51  C   UNL A   1      39.622  27.995  28.811  1.00  0.00     0.029 A 
ATOM     52  N   UNL A   1      41.378  29.364  28.576  1.00  0.00    -0.354 N 
ATOM     53  C   UNL A   1      44.945  27.930  26.442  1.00  0.00     0.074 A 
ATOM     54  C   UNL A   1      44.666  26.643  25.842  1.00  0.00     0.031 C 
ATOM     55  C   UNL A   1      39.316  29.151  29.422  1.00  0.00     0.029 A 
ATOM     56  C   UNL A   1      40.484  30.025  29.382  1.00  0.00     0.049 A 
ATOM     57  H   UNL A   1      42.218  29.762  28.253  1.00  0.00     0.167 HD
ATOM     58  C   UNL A   1      46.099  28.625  26.296  1.00  0.00     0.034 A 
ATOM     59  C   UNL A   1      40.633  31.172  30.070  1.00  0.00     0.034 A 
ATOM     60  C   UNL A   1      46.315  29.905  26.925  1.00  0.00     0.049 A 
ATOM     61  C   UNL A   1      41.953  31.892  29.970  1.00  0.00     0.074 A 
ATOM     62  C   UNL A   1      47.428  30.722  26.867  1.00  0.00     0.029 A 
ATOM     63  N   UNL A   1      45.388  30.553  27.738  1.00  0.00    -0.354 N 
ATOM     64  N   UNL A   1      43.038  31.540  29.316  1.00  0.00    -0.248 NA
ATOM     65  C   UNL A   1      42.069  33.161  30.696  1.00  0.00     0.031 C 
ATOM     66  C   UNL A   1      47.204  31.821  27.704  1.00  0.00     0.029 A 
ATOM     67  C   UNL A   1      45.914  31.742  28.209  1.00  0.00     0.049 A 
ATOM     68  H   UNL A   1      44.488  30.212  27.947  1.00  0.00     0.167 HD
ATOM     69  C   UNL A   1      43.955  32.566  29.521  1.00  0.00     0.074 A 
ATOM     70  C   UNL A   1      43.293  33.545  30.363  1.00  0.00     0.031 C 
ATOM     71  C   UNL A   1      45.222  32.697  29.049  1.00  0.00     0.034 A 
BRANCH  58  72
ATOM     72  C   UNL A   1      47.209  27.966  25.514  1.00  0.00     0.023 A 
ATOM     73  C   UNL A   1      47.461  28.278  24.166  1.00  0.00     0.031 A 
ATOM     74  C   UNL A   1      47.976  26.944  26.104  1.00  0.00     0.131 A 
ATOM     75  C   UNL A   1      48.378  27.514  23.429  1.00  0.00     0.055 A 
ATOM     76  C   UNL A   1      48.959  26.254  25.391  1.00  0.00     0.041 A 
ATOM     77  F   UNL A   1      47.764  26.577  27.377  1.00  0.00    -0.206 F 
ATOM     78  C   UNL A   1      49.150  26.521  24.039  1.00  0.00     0.022 A 
BRANCH  75  79
ATOM     79  S   UNL A   1      48.410  27.704  21.626  1.00  0.00     0.124 S 
ATOM     80  O   UNL A   1      49.523  28.635  21.447  1.00  0.00    -0.237 OA
ATOM     81  O   UNL A   1      48.640  26.338  21.169  1.00  0.00    -0.237 OA
ATOM     82  O   UNL A   1      47.093  28.255  21.315  1.00  0.00    -0.744 OA
ENDBRANCH  75  79
ENDBRANCH  58  72
BRANCH  59  83
ATOM     83  C   UNL A   1      39.534  31.660  30.945  1.00  0.00     0.023 A 
ATOM     84  C   UNL A   1      39.551  31.416  32.325  1.00  0.00     0.031 A 
ATOM     85  C   UNL A   1      38.452  32.390  30.415  1.00  0.00     0.131 A 
ATOM     86  C   UNL A   1      38.495  31.873  33.128  1.00  0.00     0.055 A 
ATOM     87  C   UNL A   1      37.431  32.887  31.226  1.00  0.00     0.041 A 
ATOM     88  F   UNL A   1      38.391  32.658  29.101  1.00  0.00    -0.206 F 
ATOM     89  C   UNL A   1      37.444  32.620  32.590  1.00  0.00     0.022 A 
BRANCH  86  90
ATOM     90  S   UNL A   1      38.487  31.423  34.883  1.00  0.00     0.124 S 
ATOM     91  O   UNL A   1      37.238  32.026  35.338  1.00  0.00    -0.237 OA
ATOM     92  O   UNL A   1      38.510  29.965  34.823  1.00  0.00    -0.237 OA
ATOM     93  O   UNL A   1      39.706  32.043  35.398  1.00  0.00    -0.744 OA
ENDBRANCH  86  90
ENDBRANCH  59  83
BRANCH  71  94
ATOM     94  C   UNL A   1      45.941  33.983  29.368  1.00  0.00     0.023 A 
ATOM     95  C   UNL A   1      45.855  35.114  28.538  1.00  0.00     0.031 A 
ATOM     96  C   UNL A   1      46.708  34.077  30.543  1.00  0.00     0.131 A 
ATOM     97  C   UNL A   1      46.563  36.277  28.875  1.00  0.00     0.055 A 
ATOM     98  C   UNL A   1      47.357  35.256  30.904  1.00  0.00     0.041 A 
ATOM     99  F   UNL A   1      46.826  33.024  31.367  1.00  0.00    -0.206 F 
ATOM    100  C   UNL A   1      47.295  36.362  30.062  1.00  0.00     0.022 A 
BRANCH  97 101
ATOM    101  S   UNL A   1      46.582  37.656  27.698  1.00  0.00     0.124 S 
ATOM    102  O   UNL A   1      46.876  36.976  26.440  1.00  0.00    -0.237 OA
ATOM    103  O   UNL A   1      45.234  38.200  27.830  1.00  0.00    -0.237 OA
ATOM    104  O   UNL A   1      47.649  38.520  28.199  1.00  0.00    -0.744 OA
ENDBRANCH  97 101
ENDBRANCH  71  94
ENDBRANCH  45  46
ENDBRANCH  38  40
ENDBRANCH  37  38
ENDBRANCH  36  37
ENDBRANCH  35  36
ENDBRANCH  34  35
ENDBRANCH   1  34
TORSDOF 25
ENDMDL
MODEL 3
REMARK VINA RESULT:     -10.6      1.894      2.349
REMARK SMILES CC(C)C[C@H](NC(=O)[C@H](Cc1ccccc1)NC(=O)CNC(=O)C[NH3+])C(=O)OCCOC(=O)c1ccc(-c2c3nc(c(-c4cc(S(=O)(=O)[O-])ccc4F)c4ccc([nH]4)c(-c4cc(S(=O)(=O)[O-])ccc4F)c4nc(c(-c5cc(S(=O)(=O)[O-])ccc5F)c5ccc2[nH]5)C=C4)C=C3)cc1
REMARK SMILES IDX 26 1 27 2 5 3 4 4 2 5 1 6 3 7 6 8 7 9 8 11 9 12 17 13 18 14
REMARK SMILES IDX 19 16 20 17 21 18 22 19 23 21 24 22 25 23 10 27 11 28 12 29
REMARK SMILES IDX 16 30 13 31 15 32 14 33 28 34 29 35 30 36 31 37 32 38 33 39
REMARK SMILES IDX 34 40 35 41 96 42 36 43 95 44 37 45 38 46 39 47 89 48 40 49
REMARK SMILES IDX 94 50 88 51 90 52 41 53 93 54 87 55 86 56 42 58 74 59 54 60
REMARK SMILES IDX 73 61 55 62 58 63 72 64 91 65 56 66 57 67 71 69 92 70 59 71
REMARK SMILES IDX 43 72 44 73 52 74 45 75 51 76 53 77 50 78 46 79 47 80 48 81
REMARK SMILES IDX 49 82 75 83 76 84 84 85 77 86 83 87 85 88 82 89 78 90 79 91
REMARK SMILES IDX 80 92 81 93 60 94 61 95 69 96 62 97 68 98 70 99 67 100
REMARK SMILES IDX 63 101 64 102 65 103 66 104
REMARK H PARENT 6 10 17 15 21 20 25 24 25 25 25 26 90 57 58 68
REMARK Flexibility Score: inf
ROOT
ATOM      1  C   UNL A   1      34.456  23.242  23.519  1.00  0.00     0.328 C 
ATOM      2  O   UNL A   1      35.356  23.335  22.684  1.00  0.00    -0.250 OA
ENDROOT
BRANCH   1   3
ATOM      3  C   UNL A   1      33.339  24.329  23.622  1.00  0.00     0.192 C 
BRANCH   3   4
ATOM      4  C   UNL A   1      32.176  23.521  24.154  1.00  0.00     0.040 C 
BRANCH   4   5
ATOM      5  C   UNL A   1      31.681  24.125  25.503  1.00  0.00    -0.015 C 
ATOM      6  C   UNL A   1      30.287  24.708  25.209  1.00  0.00     0.007 C 
ATOM      7  C   UNL A   1      32.060  23.544  26.892  1.00  0.00     0.007 C 
ENDBRANCH   4   5
ENDBRANCH   3   4
BRANCH   3   8
ATOM      8  N   UNL A   1      32.917  25.226  22.534  1.00  0.00    -0.341 N 
ATOM      9  C   UNL A   1      33.044  26.626  22.594  1.00  0.00     0.243 C 
ATOM     10  H   UNL A   1      32.527  24.826  21.724  1.00  0.00     0.164 HD
ATOM     11  O   UNL A   1      33.750  27.209  21.775  1.00  0.00    -0.273 OA
BRANCH   9  12
ATOM     12  C   UNL A   1      32.103  27.399  23.614  1.00  0.00     0.175 C 
BRANCH  12  13
ATOM     13  N   UNL A   1      32.383  27.583  25.155  1.00  0.00    -0.342 N 
ATOM     14  C   UNL A   1      32.789  28.437  26.170  1.00  0.00     0.240 C 
ATOM     15  H   UNL A   1      32.184  26.717  25.580  1.00  0.00     0.164 HD
ATOM     16  O   UNL A   1      32.694  27.855  27.275  1.00  0.00    -0.273 OA
BRANCH  14  17
ATOM     17  C   UNL A   1      33.184  30.099  26.323  1.00  0.00     0.216 C 
BRANCH  17  18
ATOM     18  N   UNL A   1      33.988  31.042  27.305  1.00  0.00    -0.342 N 
ATOM     19  C   UNL A   1      34.125  32.243  27.978  1.00  0.00     0.275 C 
ATOM     20  H   UNL A   1      34.778  30.516  27.565  1.00  0.00     0.164 HD
ATOM     21  O   UNL A   1      35.148  32.240  28.696  1.00  0.00    -0.268 OA
BRANCH  19  22
ATOM     22  C   UNL A   1      33.283  33.617  28.052  1.00  0.00     0.360 C 
BRANCH  22  23
ATOM     23  N   UNL A   1      33.225  34.421  29.306  1.00  0.00    -0.350 N 
ATOM     24  H   UNL A   1      32.477  35.109  29.234  1.00  0.00     0.344 HD
ATOM     25  H   UNL A   1      34.116  34.899  29.444  1.00  0.00     0.344 HD
ATOM     26  H   UNL A   1      33.045  33.802  30.097  1.00  0.00     0.344 HD
ENDBRANCH  22  23
ENDBRANCH  19  22
ENDBRANCH  17  18
ENDBRANCH  14  17
ENDBRANCH  12  13
BRANCH  12  27
ATOM     27  C   UNL A   1      31.601  28.752  23.063  1.00  0.00     0.070 C 
BRANCH  27  28
ATOM     28  C   UNL A   1      30.104  29.013  23.052  1.00  0.00    -0.045 A 
ATOM     29  C   UNL A   1      29.237  27.933  23.272  1.00  0.00     0.004 A 
ATOM     30  C   UNL A   1      29.534  30.263  22.762  1.00  0.00     0.004 A 
ATOM     31  C   UNL A   1      27.852  28.101  23.236  1.00  0.00     0.000 A 
ATOM     32  C   UNL A   1      28.145  30.433  22.732  1.00  0.00     0.000 A 
ATOM     33  C   UNL A   1      27.304  29.353  22.971  1.00  0.00     0.000 A 
ENDBRANCH  27  28
ENDBRANCH  12  27
ENDBRANCH   9  12
ENDBRANCH   3   8
ENDBRANCH   1   3
BRANCH   1  34
ATOM     34  O   UNL A   1      34.509  22.374  24.571  1.00  0.00    -0.461 OA
BRANCH  34  35
ATOM     35  C   UNL A   1      35.741  21.621  24.677  1.00  0.00     0.274 C 
BRANCH  35  36
ATOM     36  C   UNL A   1      36.576  22.089  25.866  1.00  0.00     0.275 C 
BRANCH  36  37
ATOM     37  O   UNL A   1      37.828  22.655  25.446  1.00  0.00    -0.458 OA
BRANCH  37  38
ATOM     38  C   UNL A   1      38.914  22.185  26.113  1.00  0.00     0.338 C 
ATOM     39  O   UNL A   1      39.396  21.072  26.057  1.00  0.00    -0.246 OA
BRANCH  38  40
ATOM     40  C   UNL A   1      39.574  23.298  26.802  1.00  0.00     0.060 A 
ATOM     41  C   UNL A   1      39.287  24.609  26.402  1.00  0.00     0.016 A 
ATOM     42  C   UNL A   1      40.550  23.038  27.752  1.00  0.00     0.016 A 
ATOM     43  C   UNL A   1      39.986  25.679  26.926  1.00  0.00     0.010 A 
ATOM     44  C   UNL A   1      41.268  24.107  28.271  1.00  0.00     0.010 A 
ATOM     45  C   UNL A   1      41.003  25.422  27.835  1.00  0.00    -0.014 A 
BRANCH  45  46
ATOM     46  C   UNL A   1      41.927  26.500  28.213  1.00  0.00     0.031 A 
ATOM     47  C   UNL A   1      41.386  27.613  29.050  1.00  0.00     0.074 A 
ATOM     48  C   UNL A   1      43.196  26.482  27.781  1.00  0.00     0.049 A 
ATOM     49  N   UNL A   1      41.865  28.807  29.250  1.00  0.00    -0.248 NA
ATOM     50  C   UNL A   1      40.105  27.345  29.724  1.00  0.00     0.031 C 
ATOM     51  C   UNL A   1      43.830  25.379  27.058  1.00  0.00     0.029 A 
ATOM     52  N   UNL A   1      44.166  27.443  27.858  1.00  0.00    -0.354 N 
ATOM     53  C   UNL A   1      40.915  29.460  30.027  1.00  0.00     0.074 A 
ATOM     54  C   UNL A   1      39.829  28.529  30.246  1.00  0.00     0.031 C 
ATOM     55  C   UNL A   1      45.076  25.745  26.718  1.00  0.00     0.029 A 
ATOM     56  C   UNL A   1      45.287  27.129  27.129  1.00  0.00     0.049 A 
ATOM     57  H   UNL A   1      44.070  28.272  28.379  1.00  0.00     0.167 HD
ATOM     58  C   UNL A   1      40.960  30.730  30.493  1.00  0.00     0.034 A 
ATOM     59  C   UNL A   1      46.326  27.906  26.774  1.00  0.00     0.034 A 
ATOM     60  C   UNL A   1      42.074  31.609  30.237  1.00  0.00     0.049 A 
ATOM     61  C   UNL A   1      46.323  29.344  27.226  1.00  0.00     0.074 A 
ATOM     62  C   UNL A   1      42.258  32.917  30.644  1.00  0.00     0.029 A 
ATOM     63  N   UNL A   1      43.200  31.262  29.493  1.00  0.00    -0.354 N 
ATOM     64  N   UNL A   1      45.406  29.992  27.910  1.00  0.00    -0.248 NA
ATOM     65  C   UNL A   1      47.489  30.153  26.859  1.00  0.00     0.031 C 
ATOM     66  C   UNL A   1      43.454  33.382  30.084  1.00  0.00     0.029 A 
ATOM     67  C   UNL A   1      44.066  32.338  29.407  1.00  0.00     0.049 A 
ATOM     68  H   UNL A   1      43.356  30.379  29.088  1.00  0.00     0.167 HD
ATOM     69  C   UNL A   1      45.905  31.278  28.091  1.00  0.00     0.074 A 
ATOM     70  C   UNL A   1      47.201  31.310  27.438  1.00  0.00     0.031 C 
ATOM     71  C   UNL A   1      45.354  32.333  28.746  1.00  0.00     0.034 A 
BRANCH  58  72
ATOM     72  C   UNL A   1      39.745  31.240  31.229  1.00  0.00     0.023 A 
ATOM     73  C   UNL A   1      39.710  31.347  32.630  1.00  0.00     0.031 A 
ATOM     74  C   UNL A   1      38.568  31.545  30.520  1.00  0.00     0.131 A 
ATOM     75  C   UNL A   1      38.503  31.650  33.281  1.00  0.00     0.055 A 
ATOM     76  C   UNL A   1      37.397  31.943  31.168  1.00  0.00     0.041 A 
ATOM     77  F   UNL A   1      38.526  31.432  29.183  1.00  0.00    -0.206 F 
ATOM     78  C   UNL A   1      37.353  31.976  32.558  1.00  0.00     0.022 A 
BRANCH  75  79
ATOM     79  S   UNL A   1      38.409  31.424  35.078  1.00  0.00     0.124 S 
ATOM     80  O   UNL A   1      38.397  29.966  35.190  1.00  0.00    -0.237 OA
ATOM     81  O   UNL A   1      39.620  32.091  35.543  1.00  0.00    -0.237 OA
ATOM     82  O   UNL A   1      37.154  32.078  35.442  1.00  0.00    -0.744 OA
ENDBRANCH  75  79
ENDBRANCH  58  72
BRANCH  59  83
ATOM     83  C   UNL A   1      47.403  27.355  25.909  1.00  0.00     0.023 A 
ATOM     84  C   UNL A   1      47.501  27.724  24.560  1.00  0.00     0.031 A 
ATOM     85  C   UNL A   1      48.359  26.457  26.421  1.00  0.00     0.131 A 
ATOM     86  C   UNL A   1      48.516  27.179  23.760  1.00  0.00     0.055 A 
ATOM     87  C   UNL A   1      49.397  25.958  25.633  1.00  0.00     0.041 A 
ATOM     88  F   UNL A   1      48.315  26.077  27.708  1.00  0.00    -0.206 F 
ATOM     89  C   UNL A   1      49.474  26.311  24.291  1.00  0.00     0.022 A 
BRANCH  86  90
ATOM     90  S   UNL A   1      48.530  27.577  21.992  1.00  0.00     0.124 S 
ATOM     91  O   UNL A   1      49.724  28.408  21.885  1.00  0.00    -0.237 OA
ATOM     92  O   UNL A   1      48.613  26.253  21.384  1.00  0.00    -0.237 OA
ATOM     93  O   UNL A   1      47.262  28.275  21.791  1.00  0.00    -0.744 OA
ENDBRANCH  86  90
ENDBRANCH  59  83
BRANCH  71  94
ATOM     94  C   UNL A   1      46.190  33.583  28.856  1.00  0.00     0.023 A 
ATOM     95  C   UNL A   1      46.176  34.581  27.868  1.00  0.00     0.031 A 
ATOM     96  C   UNL A   1      46.999  33.779  29.990  1.00  0.00     0.131 A 
ATOM     97  C   UNL A   1      46.991  35.713  28.014  1.00  0.00     0.055 A 
ATOM     98  C   UNL A   1      47.758  34.936  30.159  1.00  0.00     0.041 A 
ATOM     99  F   UNL A   1      47.052  32.853  30.960  1.00  0.00    -0.206 F 
ATOM    100  C   UNL A   1      47.765  35.907  29.162  1.00  0.00     0.022 A 
BRANCH  97 101
ATOM    101  S   UNL A   1      47.092  36.896  26.644  1.00  0.00     0.124 S 
ATOM    102  O   UNL A   1      48.285  36.440  25.938  1.00  0.00    -0.237 OA
ATOM    103  O   UNL A   1      45.823  36.687  25.955  1.00  0.00    -0.237 OA
ATOM    104  O   UNL A   1      47.226  38.188  27.315  1.00  0.00    -0.744 OA
ENDBRANCH  97 101
ENDBRANCH  71  94
ENDBRANCH  45  46
ENDBRANCH  38  40
ENDBRANCH  37  38
ENDBRANCH  36  37
ENDBRANCH  35  36
ENDBRANCH  34  35
ENDBRANCH   1  34
TORSDOF 25
ENDMDL
