MODEL 1
REMARK VINA RESULT:     -11.3      0.000      0.000
REMARK SMILES CC[NH2+][C@]1(C(=O)OCCOC(=O)c2ccc(-c3c4nc(c(-c5cc(S(=O)(=O)[O-])ccc5F)c5ccc([nH]5)c(-c5cc(S(=O)(=O)[O-])ccc5F)c5nc(c(-c6cc(S(=O)(=O)[O-])ccc6F)c6ccc3[nH]6)C=C5)C=C4)cc2)CC[C@@H](Sc2ccccc2C)C1
REMARK SMILES IDX 9 1 8 2 7 3 5 4 6 5 4 6 76 7 87 8 77 9 78 10 3 11 2 14 1 15
REMARK SMILES IDX 79 16 80 17 81 18 85 19 82 20 84 21 86 22 83 23 10 24 11 25
REMARK SMILES IDX 12 26 13 27 14 28 75 29 15 30 74 31 16 32 17 33 18 34 68 35
REMARK SMILES IDX 19 36 73 37 67 38 69 39 20 40 72 41 66 42 65 43 21 45 53 46
REMARK SMILES IDX 33 47 52 48 34 49 37 50 51 51 70 52 35 53 36 54 50 56 71 57
REMARK SMILES IDX 38 58 22 59 23 60 31 61 24 62 30 63 32 64 29 65 25 66 26 67
REMARK SMILES IDX 27 68 28 69 54 70 55 71 63 72 56 73 62 74 64 75 61 76 57 77
REMARK SMILES IDX 58 78 59 79 60 80 39 81 40 82 48 83 41 84 47 85 49 86 46 87
REMARK SMILES IDX 42 88 43 89 44 90 45 91
REMARK H PARENT 3 12 3 13 69 44 37 55
REMARK Flexibility Score: inf
ROOT
ATOM      1  C   UNL A   1      31.876  30.024  26.034  1.00  0.00     0.275 C 
ENDROOT
BRANCH   1   2
ATOM      2  C   UNL A   1      32.865  29.666  24.922  1.00  0.00     0.274 C 
BRANCH   2   3
ATOM      3  O   UNL A   1      32.896  28.244  24.666  1.00  0.00    -0.457 OA
BRANCH   3   4
ATOM      4  C   UNL A   1      33.279  27.854  23.410  1.00  0.00     0.368 C 
ATOM      5  O   UNL A   1      34.190  28.384  22.784  1.00  0.00    -0.245 OA
BRANCH   4   6
ATOM      6  C   UNL A   1      32.392  26.684  22.866  1.00  0.00     0.195 C 
ATOM      7  C   UNL A   1      33.305  25.553  22.346  1.00  0.00     0.082 C 
ATOM      8  C   UNL A   1      31.686  25.981  24.039  1.00  0.00     0.096 C 
ATOM      9  C   UNL A   1      32.562  24.234  22.567  1.00  0.00     0.022 C 
ATOM     10  C   UNL A   1      31.431  24.547  23.554  1.00  0.00     0.059 C 
BRANCH   6  11
ATOM     11  N   UNL A   1      31.331  27.204  21.963  1.00  0.00    -0.332 N 
ATOM     12  H   UNL A   1      31.772  27.876  21.335  1.00  0.00     0.347 HD
ATOM     13  H   UNL A   1      30.944  26.370  21.521  1.00  0.00     0.347 HD
BRANCH  11  14
ATOM     14  C   UNL A   1      30.183  27.860  22.560  1.00  0.00     0.257 C 
ATOM     15  C   UNL A   1      30.173  29.324  22.144  1.00  0.00     0.071 C 
ENDBRANCH  11  14
ENDBRANCH   6  11
BRANCH  10  16
ATOM     16  S   UNL A   1      31.126  23.274  24.857  1.00  0.00    -0.122 SA
BRANCH  16  17
ATOM     17  C   UNL A   1      32.784  22.667  25.153  1.00  0.00     0.010 A 
ATOM     18  C   UNL A   1      33.671  23.487  25.868  1.00  0.00     0.015 A 
ATOM     19  C   UNL A   1      33.186  21.377  24.801  1.00  0.00    -0.038 A 
ATOM     20  C   UNL A   1      34.860  22.972  26.388  1.00  0.00     0.001 A 
ATOM     21  C   UNL A   1      34.328  20.851  25.418  1.00  0.00     0.004 A 
ATOM     22  C   UNL A   1      32.525  20.579  23.711  1.00  0.00     0.045 C 
ATOM     23  C   UNL A   1      35.151  21.628  26.223  1.00  0.00     0.000 A 
ENDBRANCH  16  17
ENDBRANCH  10  16
ENDBRANCH   4   6
ENDBRANCH   3   4
ENDBRANCH   2   3
ENDBRANCH   1   2
BRANCH   1  24
ATOM     24  O   UNL A   1      32.590  30.159  27.271  1.00  0.00    -0.458 OA
BRANCH  24  25
ATOM     25  C   UNL A   1      33.320  31.290  27.445  1.00  0.00     0.338 C 
ATOM     26  O   UNL A   1      32.894  32.430  27.403  1.00  0.00    -0.246 OA
BRANCH  25  27
ATOM     27  C   UNL A   1      34.737  30.927  27.733  1.00  0.00     0.060 A 
ATOM     28  C   UNL A   1      35.116  29.599  27.859  1.00  0.00     0.016 A 
ATOM     29  C   UNL A   1      35.699  31.916  27.968  1.00  0.00     0.016 A 
ATOM     30  C   UNL A   1      36.383  29.279  28.349  1.00  0.00     0.010 A 
ATOM     31  C   UNL A   1      36.999  31.569  28.403  1.00  0.00     0.010 A 
ATOM     32  C   UNL A   1      37.343  30.240  28.706  1.00  0.00    -0.014 A 
BRANCH  32  33
ATOM     33  C   UNL A   1      38.575  29.868  29.527  1.00  0.00     0.031 A 
ATOM     34  C   UNL A   1      39.730  29.094  28.892  1.00  0.00     0.074 A 
ATOM     35  C   UNL A   1      38.795  30.327  30.785  1.00  0.00     0.049 A 
ATOM     36  N   UNL A   1      40.739  28.482  29.469  1.00  0.00    -0.248 NA
ATOM     37  C   UNL A   1      39.746  28.976  27.427  1.00  0.00     0.031 C 
ATOM     38  C   UNL A   1      37.887  31.164  31.564  1.00  0.00     0.029 A 
ATOM     39  N   UNL A   1      39.898  30.218  31.611  1.00  0.00    -0.354 N 
ATOM     40  C   UNL A   1      41.424  27.811  28.455  1.00  0.00     0.074 A 
ATOM     41  C   UNL A   1      40.740  28.127  27.221  1.00  0.00     0.031 C 
ATOM     42  C   UNL A   1      38.531  31.653  32.633  1.00  0.00     0.029 A 
ATOM     43  C   UNL A   1      39.823  30.989  32.754  1.00  0.00     0.049 A 
ATOM     44  H   UNL A   1      40.670  29.643  31.402  1.00  0.00     0.167 HD
ATOM     45  C   UNL A   1      42.503  26.989  28.548  1.00  0.00     0.034 A 
ATOM     46  C   UNL A   1      40.646  31.104  33.821  1.00  0.00     0.034 A 
ATOM     47  C   UNL A   1      43.256  26.776  29.762  1.00  0.00     0.049 A 
ATOM     48  C   UNL A   1      41.822  30.168  33.932  1.00  0.00     0.074 A 
ATOM     49  C   UNL A   1      44.312  25.909  29.990  1.00  0.00     0.029 A 
ATOM     50  N   UNL A   1      43.064  27.476  30.945  1.00  0.00    -0.354 N 
ATOM     51  N   UNL A   1      42.289  29.318  33.048  1.00  0.00    -0.248 NA
ATOM     52  C   UNL A   1      42.530  30.146  35.221  1.00  0.00     0.031 C 
ATOM     53  C   UNL A   1      44.723  26.047  31.323  1.00  0.00     0.029 A 
ATOM     54  C   UNL A   1      43.968  27.049  31.907  1.00  0.00     0.049 A 
ATOM     55  H   UNL A   1      42.385  28.176  31.082  1.00  0.00     0.167 HD
ATOM     56  C   UNL A   1      43.317  28.634  33.691  1.00  0.00     0.074 A 
ATOM     57  C   UNL A   1      43.445  29.212  35.012  1.00  0.00     0.031 C 
ATOM     58  C   UNL A   1      44.066  27.596  33.238  1.00  0.00     0.034 A 
BRANCH  45  59
ATOM     59  C   UNL A   1      42.849  26.158  27.331  1.00  0.00     0.023 A 
ATOM     60  C   UNL A   1      42.385  24.847  27.132  1.00  0.00     0.031 A 
ATOM     61  C   UNL A   1      43.718  26.700  26.362  1.00  0.00     0.131 A 
ATOM     62  C   UNL A   1      42.852  24.101  26.035  1.00  0.00     0.055 A 
ATOM     63  C   UNL A   1      44.114  25.981  25.233  1.00  0.00     0.041 A 
ATOM     64  F   UNL A   1      44.212  27.940  26.507  1.00  0.00    -0.206 F 
ATOM     65  C   UNL A   1      43.694  24.667  25.074  1.00  0.00     0.022 A 
BRANCH  62  66
ATOM     66  S   UNL A   1      42.480  22.325  25.962  1.00  0.00     0.124 S 
ATOM     67  O   UNL A   1      43.223  21.915  24.772  1.00  0.00    -0.237 OA
ATOM     68  O   UNL A   1      42.996  21.844  27.238  1.00  0.00    -0.237 OA
ATOM     69  O   UNL A   1      41.026  22.284  25.821  1.00  0.00    -0.744 OA
ENDBRANCH  62  66
ENDBRANCH  45  59
BRANCH  46  70
ATOM     70  C   UNL A   1      40.323  32.032  34.955  1.00  0.00     0.023 A 
ATOM     71  C   UNL A   1      39.401  31.666  35.952  1.00  0.00     0.031 A 
ATOM     72  C   UNL A   1      40.881  33.322  35.026  1.00  0.00     0.131 A 
ATOM     73  C   UNL A   1      39.061  32.583  36.963  1.00  0.00     0.055 A 
ATOM     74  C   UNL A   1      40.598  34.198  36.075  1.00  0.00     0.041 A 
ATOM     75  F   UNL A   1      41.732  33.750  34.080  1.00  0.00    -0.206 F 
ATOM     76  C   UNL A   1      39.676  33.833  37.048  1.00  0.00     0.022 A 
BRANCH  73  77
ATOM     77  S   UNL A   1      37.734  32.157  38.126  1.00  0.00     0.124 S 
ATOM     78  O   UNL A   1      38.376  32.406  39.411  1.00  0.00    -0.237 OA
ATOM     79  O   UNL A   1      36.678  33.090  37.742  1.00  0.00    -0.237 OA
ATOM     80  O   UNL A   1      37.457  30.753  37.828  1.00  0.00    -0.744 OA
ENDBRANCH  73  77
ENDBRANCH  46  70
BRANCH  58  81
ATOM     81  C   UNL A   1      45.073  27.014  34.195  1.00  0.00     0.023 A 
ATOM     82  C   UNL A   1      44.717  25.995  35.098  1.00  0.00     0.031 A 
ATOM     83  C   UNL A   1      46.394  27.493  34.227  1.00  0.00     0.131 A 
ATOM     84  C   UNL A   1      45.654  25.522  36.029  1.00  0.00     0.055 A 
ATOM     85  C   UNL A   1      47.336  26.986  35.123  1.00  0.00     0.041 A 
ATOM     86  F   UNL A   1      46.787  28.466  33.391  1.00  0.00    -0.206 F 
ATOM     87  C   UNL A   1      46.966  26.003  36.038  1.00  0.00     0.022 A 
BRANCH  84  88
ATOM     88  S   UNL A   1      45.116  24.326  37.283  1.00  0.00     0.124 S 
ATOM     89  O   UNL A   1      45.139  23.072  36.537  1.00  0.00    -0.237 OA
ATOM     90  O   UNL A   1      46.138  24.473  38.314  1.00  0.00    -0.237 OA
ATOM     91  O   UNL A   1      43.785  24.798  37.660  1.00  0.00    -0.744 OA
ENDBRANCH  84  88
ENDBRANCH  58  81
ENDBRANCH  32  33
ENDBRANCH  25  27
ENDBRANCH  24  25
ENDBRANCH   1  24
TORSDOF 18
ENDMDL
MODEL 2
REMARK VINA RESULT:     -11.3      1.587      2.274
REMARK SMILES CC[NH2+][C@]1(C(=O)OCCOC(=O)c2ccc(-c3c4nc(c(-c5cc(S(=O)(=O)[O-])ccc5F)c5ccc([nH]5)c(-c5cc(S(=O)(=O)[O-])ccc5F)c5nc(c(-c6cc(S(=O)(=O)[O-])ccc6F)c6ccc3[nH]6)C=C5)C=C4)cc2)CC[C@@H](Sc2ccccc2C)C1
REMARK SMILES IDX 9 1 8 2 7 3 5 4 6 5 4 6 76 7 87 8 77 9 78 10 3 11 2 14 1 15
REMARK SMILES IDX 79 16 80 17 81 18 85 19 82 20 84 21 86 22 83 23 10 24 11 25
REMARK SMILES IDX 12 26 13 27 14 28 75 29 15 30 74 31 16 32 17 33 18 34 68 35
REMARK SMILES IDX 19 36 73 37 67 38 69 39 20 40 72 41 66 42 65 43 21 45 53 46
REMARK SMILES IDX 33 47 52 48 34 49 37 50 51 51 70 52 35 53 36 54 50 56 71 57
REMARK SMILES IDX 38 58 22 59 23 60 31 61 24 62 30 63 32 64 29 65 25 66 26 67
REMARK SMILES IDX 27 68 28 69 54 70 55 71 63 72 56 73 62 74 64 75 61 76 57 77
REMARK SMILES IDX 58 78 59 79 60 80 39 81 40 82 48 83 41 84 47 85 49 86 46 87
REMARK SMILES IDX 42 88 43 89 44 90 45 91
REMARK H PARENT 3 12 3 13 69 44 37 55
REMARK Flexibility Score: inf
ROOT
ATOM      1  C   UNL A   1      32.010  29.320  24.913  1.00  0.00     0.275 C 
ENDROOT
BRANCH   1   2
ATOM      2  C   UNL A   1      30.970  28.240  24.604  1.00  0.00     0.274 C 
BRANCH   2   3
ATOM      3  O   UNL A   1      31.107  27.095  25.476  1.00  0.00    -0.457 OA
BRANCH   3   4
ATOM      4  C   UNL A   1      30.381  25.981  25.145  1.00  0.00     0.368 C 
ATOM      5  O   UNL A   1      29.157  25.960  25.098  1.00  0.00    -0.245 OA
BRANCH   4   6
ATOM      6  C   UNL A   1      31.302  24.744  24.875  1.00  0.00     0.195 C 
ATOM      7  C   UNL A   1      31.851  24.824  23.434  1.00  0.00     0.082 C 
ATOM      8  C   UNL A   1      32.597  24.873  25.695  1.00  0.00     0.096 C 
ATOM      9  C   UNL A   1      33.234  24.168  23.440  1.00  0.00     0.022 C 
ATOM     10  C   UNL A   1      33.650  24.075  24.913  1.00  0.00     0.059 C 
BRANCH   6  11
ATOM     11  N   UNL A   1      30.633  23.487  25.304  1.00  0.00    -0.332 N 
ATOM     12  H   UNL A   1      29.642  23.581  25.083  1.00  0.00     0.347 HD
ATOM     13  H   UNL A   1      31.133  22.752  24.805  1.00  0.00     0.347 HD
BRANCH  11  14
ATOM     14  C   UNL A   1      30.728  23.102  26.700  1.00  0.00     0.257 C 
ATOM     15  C   UNL A   1      29.332  22.830  27.238  1.00  0.00     0.071 C 
ENDBRANCH  11  14
ENDBRANCH   6  11
BRANCH  10  16
ATOM     16  S   UNL A   1      35.420  24.464  25.273  1.00  0.00    -0.122 SA
BRANCH  16  17
ATOM     17  C   UNL A   1      36.124  22.823  25.398  1.00  0.00     0.010 A 
ATOM     18  C   UNL A   1      35.288  21.723  25.148  1.00  0.00     0.015 A 
ATOM     19  C   UNL A   1      37.485  22.605  25.620  1.00  0.00    -0.038 A 
ATOM     20  C   UNL A   1      35.823  20.451  24.936  1.00  0.00     0.001 A 
ATOM     21  C   UNL A   1      38.012  21.347  25.300  1.00  0.00     0.004 A 
ATOM     22  C   UNL A   1      38.379  23.608  26.294  1.00  0.00     0.045 C 
ATOM     23  C   UNL A   1      37.198  20.280  24.939  1.00  0.00     0.000 A 
ENDBRANCH  16  17
ENDBRANCH  10  16
ENDBRANCH   4   6
ENDBRANCH   3   4
ENDBRANCH   2   3
ENDBRANCH   1   2
BRANCH   1  24
ATOM     24  O   UNL A   1      32.171  29.422  26.335  1.00  0.00    -0.458 OA
BRANCH  24  25
ATOM     25  C   UNL A   1      32.613  30.608  26.825  1.00  0.00     0.338 C 
ATOM     26  O   UNL A   1      31.948  31.619  26.959  1.00  0.00    -0.246 OA
BRANCH  25  27
ATOM     27  C   UNL A   1      34.047  30.483  27.214  1.00  0.00     0.060 A 
ATOM     28  C   UNL A   1      34.681  29.250  27.192  1.00  0.00     0.016 A 
ATOM     29  C   UNL A   1      34.762  31.587  27.691  1.00  0.00     0.016 A 
ATOM     30  C   UNL A   1      35.943  29.104  27.769  1.00  0.00     0.010 A 
ATOM     31  C   UNL A   1      36.067  31.431  28.213  1.00  0.00     0.010 A 
ATOM     32  C   UNL A   1      36.653  30.162  28.361  1.00  0.00    -0.014 A 
BRANCH  32  33
ATOM     33  C   UNL A   1      37.865  29.906  29.252  1.00  0.00     0.031 A 
ATOM     34  C   UNL A   1      39.128  29.259  28.683  1.00  0.00     0.074 A 
ATOM     35  C   UNL A   1      37.964  30.371  30.523  1.00  0.00     0.049 A 
ATOM     36  N   UNL A   1      40.157  28.745  29.316  1.00  0.00    -0.248 NA
ATOM     37  C   UNL A   1      39.241  29.159  27.221  1.00  0.00     0.031 C 
ATOM     38  C   UNL A   1      36.931  31.104  31.251  1.00  0.00     0.029 A 
ATOM     39  N   UNL A   1      39.021  30.364  31.413  1.00  0.00    -0.354 N 
ATOM     40  C   UNL A   1      40.965  28.157  28.342  1.00  0.00     0.074 A 
ATOM     41  C   UNL A   1      40.327  28.416  27.070  1.00  0.00     0.031 C 
ATOM     42  C   UNL A   1      37.459  31.643  32.359  1.00  0.00     0.029 A 
ATOM     43  C   UNL A   1      38.802  31.111  32.553  1.00  0.00     0.049 A 
ATOM     44  H   UNL A   1      39.858  29.871  31.247  1.00  0.00     0.167 HD
ATOM     45  C   UNL A   1      42.114  27.447  28.494  1.00  0.00     0.034 A 
ATOM     46  C   UNL A   1      39.545  31.296  33.668  1.00  0.00     0.034 A 
ATOM     47  C   UNL A   1      42.812  27.297  29.750  1.00  0.00     0.049 A 
ATOM     48  C   UNL A   1      40.801  30.482  33.844  1.00  0.00     0.074 A 
ATOM     49  C   UNL A   1      43.935  26.538  30.036  1.00  0.00     0.029 A 
ATOM     50  N   UNL A   1      42.481  27.961  30.922  1.00  0.00    -0.354 N 
ATOM     51  N   UNL A   1      41.402  29.693  32.986  1.00  0.00    -0.248 NA
ATOM     52  C   UNL A   1      41.431  30.517  35.172  1.00  0.00     0.031 C 
ATOM     53  C   UNL A   1      44.251  26.702  31.392  1.00  0.00     0.029 A 
ATOM     54  C   UNL A   1      43.366  27.616  31.935  1.00  0.00     0.049 A 
ATOM     55  H   UNL A   1      41.728  28.588  31.022  1.00  0.00     0.167 HD
ATOM     56  C   UNL A   1      42.454  29.108  33.685  1.00  0.00     0.074 A 
ATOM     57  C   UNL A   1      42.446  29.682  35.014  1.00  0.00     0.031 C 
ATOM     58  C   UNL A   1      43.329  28.156  33.272  1.00  0.00     0.034 A 
BRANCH  45  59
ATOM     59  C   UNL A   1      42.613  26.668  27.296  1.00  0.00     0.023 A 
ATOM     60  C   UNL A   1      42.386  25.293  27.117  1.00  0.00     0.031 A 
ATOM     61  C   UNL A   1      43.387  27.336  26.325  1.00  0.00     0.131 A 
ATOM     62  C   UNL A   1      42.987  24.621  26.038  1.00  0.00     0.055 A 
ATOM     63  C   UNL A   1      43.914  26.678  25.213  1.00  0.00     0.041 A 
ATOM     64  F   UNL A   1      43.657  28.645  26.451  1.00  0.00    -0.206 F 
ATOM     65  C   UNL A   1      43.730  25.309  25.074  1.00  0.00     0.022 A 
BRANCH  62  66
ATOM     66  S   UNL A   1      42.929  22.807  25.995  1.00  0.00     0.124 S 
ATOM     67  O   UNL A   1      44.123  22.453  26.760  1.00  0.00    -0.237 OA
ATOM     68  O   UNL A   1      41.650  22.519  26.631  1.00  0.00    -0.237 OA
ATOM     69  O   UNL A   1      43.001  22.495  24.569  1.00  0.00    -0.744 OA
ENDBRANCH  62  66
ENDBRANCH  45  59
BRANCH  46  70
ATOM     70  C   UNL A   1      39.064  32.175  34.785  1.00  0.00     0.023 A 
ATOM     71  C   UNL A   1      38.563  31.623  35.978  1.00  0.00     0.031 A 
ATOM     72  C   UNL A   1      39.038  33.576  34.655  1.00  0.00     0.131 A 
ATOM     73  C   UNL A   1      38.051  32.467  36.980  1.00  0.00     0.055 A 
ATOM     74  C   UNL A   1      38.600  34.410  35.684  1.00  0.00     0.041 A 
ATOM     75  F   UNL A   1      39.458  34.164  33.523  1.00  0.00    -0.206 F 
ATOM     76  C   UNL A   1      38.094  33.856  36.853  1.00  0.00     0.022 A 
BRANCH  73  77
ATOM     77  S   UNL A   1      37.241  31.724  38.426  1.00  0.00     0.124 S 
ATOM     78  O   UNL A   1      38.244  31.930  39.464  1.00  0.00    -0.237 OA
ATOM     79  O   UNL A   1      36.024  32.521  38.538  1.00  0.00    -0.237 OA
ATOM     80  O   UNL A   1      37.035  30.334  38.024  1.00  0.00    -0.744 OA
ENDBRANCH  73  77
ENDBRANCH  46  70
BRANCH  58  81
ATOM     81  C   UNL A   1      44.332  27.667  34.285  1.00  0.00     0.023 A 
ATOM     82  C   UNL A   1      44.160  26.437  34.946  1.00  0.00     0.031 A 
ATOM     83  C   UNL A   1      45.457  28.442  34.613  1.00  0.00     0.131 A 
ATOM     84  C   UNL A   1      45.070  26.040  35.938  1.00  0.00     0.055 A 
ATOM     85  C   UNL A   1      46.385  28.021  35.567  1.00  0.00     0.041 A 
ATOM     86  F   UNL A   1      45.669  29.625  34.016  1.00  0.00    -0.206 F 
ATOM     87  C   UNL A   1      46.189  26.819  36.243  1.00  0.00     0.022 A 
BRANCH  84  88
ATOM     88  S   UNL A   1      44.730  24.529  36.883  1.00  0.00     0.124 S 
ATOM     89  O   UNL A   1      46.044  23.896  36.928  1.00  0.00    -0.237 OA
ATOM     90  O   UNL A   1      44.232  25.056  38.149  1.00  0.00    -0.237 OA
ATOM     91  O   UNL A   1      43.735  23.831  36.070  1.00  0.00    -0.744 OA
ENDBRANCH  84  88
ENDBRANCH  58  81
ENDBRANCH  32  33
ENDBRANCH  25  27
ENDBRANCH  24  25
ENDBRANCH   1  24
TORSDOF 18
ENDMDL
MODEL 3
REMARK VINA RESULT:     -11.1      1.653      1.998
REMARK SMILES CC[NH2+][C@]1(C(=O)OCCOC(=O)c2ccc(-c3c4nc(c(-c5cc(S(=O)(=O)[O-])ccc5F)c5ccc([nH]5)c(-c5cc(S(=O)(=O)[O-])ccc5F)c5nc(c(-c6cc(S(=O)(=O)[O-])ccc6F)c6ccc3[nH]6)C=C5)C=C4)cc2)CC[C@@H](Sc2ccccc2C)C1
REMARK SMILES IDX 9 1 8 2 7 3 5 4 6 5 4 6 76 7 87 8 77 9 78 10 3 11 2 14 1 15
REMARK SMILES IDX 79 16 80 17 81 18 85 19 82 20 84 21 86 22 83 23 10 24 11 25
REMARK SMILES IDX 12 26 13 27 14 28 75 29 15 30 74 31 16 32 17 33 18 34 68 35
REMARK SMILES IDX 19 36 73 37 67 38 69 39 20 40 72 41 66 42 65 43 21 45 53 46
REMARK SMILES IDX 33 47 52 48 34 49 37 50 51 51 70 52 35 53 36 54 50 56 71 57
REMARK SMILES IDX 38 58 22 59 23 60 31 61 24 62 30 63 32 64 29 65 25 66 26 67
REMARK SMILES IDX 27 68 28 69 54 70 55 71 63 72 56 73 62 74 64 75 61 76 57 77
REMARK SMILES IDX 58 78 59 79 60 80 39 81 40 82 48 83 41 84 47 85 49 86 46 87
REMARK SMILES IDX 42 88 43 89 44 90 45 91
REMARK H PARENT 3 12 3 13 69 44 37 55
REMARK Flexibility Score: inf
ROOT
ATOM      1  C   UNL A   1      31.517  30.540  25.714  1.00  0.00     0.275 C 
ENDROOT
BRANCH   1   2
ATOM      2  C   UNL A   1      31.631  29.264  24.876  1.00  0.00     0.274 C 
BRANCH   2   3
ATOM      3  O   UNL A   1      31.646  28.078  25.701  1.00  0.00    -0.457 OA
BRANCH   3   4
ATOM      4  C   UNL A   1      32.627  27.158  25.436  1.00  0.00     0.368 C 
ATOM      5  O   UNL A   1      33.815  27.442  25.343  1.00  0.00    -0.245 OA
BRANCH   4   6
ATOM      6  C   UNL A   1      32.039  25.721  25.231  1.00  0.00     0.195 C 
ATOM      7  C   UNL A   1      32.794  25.022  24.080  1.00  0.00     0.082 C 
ATOM      8  C   UNL A   1      32.424  24.829  26.424  1.00  0.00     0.096 C 
ATOM      9  C   UNL A   1      32.806  23.524  24.390  1.00  0.00     0.022 C 
ATOM     10  C   UNL A   1      32.429  23.397  25.871  1.00  0.00     0.059 C 
BRANCH   6  11
ATOM     11  N   UNL A   1      30.554  25.763  25.175  1.00  0.00    -0.332 N 
ATOM     12  H   UNL A   1      30.210  24.923  25.641  1.00  0.00     0.347 HD
ATOM     13  H   UNL A   1      30.309  26.648  25.617  1.00  0.00     0.347 HD
BRANCH  11  14
ATOM     14  C   UNL A   1      29.918  25.823  23.872  1.00  0.00     0.257 C 
ATOM     15  C   UNL A   1      28.518  26.398  24.027  1.00  0.00     0.071 C 
ENDBRANCH  11  14
ENDBRANCH   6  11
BRANCH  10  16
ATOM     16  S   UNL A   1      33.379  22.140  26.837  1.00  0.00    -0.122 SA
BRANCH  16  17
ATOM     17  C   UNL A   1      34.932  22.111  25.948  1.00  0.00     0.010 A 
ATOM     18  C   UNL A   1      35.781  23.223  26.062  1.00  0.00     0.015 A 
ATOM     19  C   UNL A   1      35.375  20.988  25.246  1.00  0.00    -0.038 A 
ATOM     20  C   UNL A   1      37.113  23.153  25.650  1.00  0.00     0.001 A 
ATOM     21  C   UNL A   1      36.739  20.900  24.938  1.00  0.00     0.004 A 
ATOM     22  C   UNL A   1      34.446  19.937  24.706  1.00  0.00     0.045 C 
ATOM     23  C   UNL A   1      37.611  21.959  25.154  1.00  0.00     0.000 A 
ENDBRANCH  16  17
ENDBRANCH  10  16
ENDBRANCH   4   6
ENDBRANCH   3   4
ENDBRANCH   2   3
ENDBRANCH   1   2
BRANCH   1  24
ATOM     24  O   UNL A   1      32.332  30.405  26.887  1.00  0.00    -0.458 OA
BRANCH  24  25
ATOM     25  C   UNL A   1      33.001  31.508  27.307  1.00  0.00     0.338 C 
ATOM     26  O   UNL A   1      32.532  32.625  27.432  1.00  0.00    -0.246 OA
BRANCH  25  27
ATOM     27  C   UNL A   1      34.409  31.142  27.633  1.00  0.00     0.060 A 
ATOM     28  C   UNL A   1      34.766  29.819  27.845  1.00  0.00     0.016 A 
ATOM     29  C   UNL A   1      35.385  32.129  27.815  1.00  0.00     0.016 A 
ATOM     30  C   UNL A   1      36.022  29.510  28.367  1.00  0.00     0.010 A 
ATOM     31  C   UNL A   1      36.675  31.789  28.285  1.00  0.00     0.010 A 
ATOM     32  C   UNL A   1      36.995  30.476  28.673  1.00  0.00    -0.014 A 
BRANCH  32  33
ATOM     33  C   UNL A   1      38.212  30.137  29.528  1.00  0.00     0.031 A 
ATOM     34  C   UNL A   1      39.426  29.440  28.915  1.00  0.00     0.074 A 
ATOM     35  C   UNL A   1      38.364  30.565  30.807  1.00  0.00     0.049 A 
ATOM     36  N   UNL A   1      40.442  28.858  29.511  1.00  0.00    -0.248 NA
ATOM     37  C   UNL A   1      39.501  29.369  27.448  1.00  0.00     0.031 C 
ATOM     38  C   UNL A   1      37.389  31.333  31.577  1.00  0.00     0.029 A 
ATOM     39  N   UNL A   1      39.440  30.483  31.671  1.00  0.00    -0.354 N 
ATOM     40  C   UNL A   1      41.195  28.253  28.504  1.00  0.00     0.074 A 
ATOM     41  C   UNL A   1      40.542  28.575  27.255  1.00  0.00     0.031 C 
ATOM     42  C   UNL A   1      37.969  31.818  32.683  1.00  0.00     0.029 A 
ATOM     43  C   UNL A   1      39.287  31.212  32.833  1.00  0.00     0.049 A 
ATOM     44  H   UNL A   1      40.246  29.951  31.474  1.00  0.00     0.167 HD
ATOM     45  C   UNL A   1      42.309  27.480  28.612  1.00  0.00     0.034 A 
ATOM     46  C   UNL A   1      40.064  31.332  33.933  1.00  0.00     0.034 A 
ATOM     47  C   UNL A   1      43.026  27.264  29.847  1.00  0.00     0.049 A 
ATOM     48  C   UNL A   1      41.279  30.449  34.060  1.00  0.00     0.074 A 
ATOM     49  C   UNL A   1      44.114  26.441  30.089  1.00  0.00     0.029 A 
ATOM     50  N   UNL A   1      42.758  27.917  31.042  1.00  0.00    -0.354 N 
ATOM     51  N   UNL A   1      41.819  29.651  33.169  1.00  0.00    -0.248 NA
ATOM     52  C   UNL A   1      41.940  30.420  35.373  1.00  0.00     0.031 C 
ATOM     53  C   UNL A   1      44.470  26.556  31.439  1.00  0.00     0.029 A 
ATOM     54  C   UNL A   1      43.646  27.502  32.024  1.00  0.00     0.049 A 
ATOM     55  H   UNL A   1      42.041  28.578  31.174  1.00  0.00     0.167 HD
ATOM     56  C   UNL A   1      42.855  28.996  33.829  1.00  0.00     0.074 A 
ATOM     57  C   UNL A   1      42.907  29.537  35.171  1.00  0.00     0.031 C 
ATOM     58  C   UNL A   1      43.669  28.010  33.374  1.00  0.00     0.034 A 
BRANCH  45  59
ATOM     59  C   UNL A   1      42.739  26.706  27.385  1.00  0.00     0.023 A 
ATOM     60  C   UNL A   1      42.360  25.376  27.137  1.00  0.00     0.031 A 
ATOM     61  C   UNL A   1      43.601  27.325  26.457  1.00  0.00     0.131 A 
ATOM     62  C   UNL A   1      42.902  24.690  26.035  1.00  0.00     0.055 A 
ATOM     63  C   UNL A   1      44.071  26.663  25.322  1.00  0.00     0.041 A 
ATOM     64  F   UNL A   1      44.016  28.588  26.650  1.00  0.00    -0.206 F 
ATOM     65  C   UNL A   1      43.735  25.332  25.115  1.00  0.00     0.022 A 
BRANCH  62  66
ATOM     66  S   UNL A   1      42.638  22.898  25.904  1.00  0.00     0.124 S 
ATOM     67  O   UNL A   1      43.080  22.633  24.536  1.00  0.00    -0.237 OA
ATOM     68  O   UNL A   1      43.489  22.377  26.966  1.00  0.00    -0.237 OA
ATOM     69  O   UNL A   1      41.202  22.745  26.123  1.00  0.00    -0.744 OA
ENDBRANCH  62  66
ENDBRANCH  45  59
BRANCH  46  70
ATOM     70  C   UNL A   1      39.656  32.206  35.081  1.00  0.00     0.023 A 
ATOM     71  C   UNL A   1      40.116  33.531  35.183  1.00  0.00     0.031 A 
ATOM     72  C   UNL A   1      38.852  31.715  36.127  1.00  0.00     0.131 A 
ATOM     73  C   UNL A   1      39.779  34.307  36.307  1.00  0.00     0.055 A 
ATOM     74  C   UNL A   1      38.458  32.514  37.201  1.00  0.00     0.041 A 
ATOM     75  F   UNL A   1      38.418  30.444  36.114  1.00  0.00    -0.206 F 
ATOM     76  C   UNL A   1      38.929  33.818  37.299  1.00  0.00     0.022 A 
BRANCH  73  77
ATOM     77  S   UNL A   1      40.536  35.945  36.505  1.00  0.00     0.124 S 
ATOM     78  O   UNL A   1      39.826  36.723  35.497  1.00  0.00    -0.237 OA
ATOM     79  O   UNL A   1      40.229  36.259  37.896  1.00  0.00    -0.237 OA
ATOM     80  O   UNL A   1      41.950  35.703  36.223  1.00  0.00    -0.744 OA
ENDBRANCH  73  77
ENDBRANCH  46  70
BRANCH  58  81
ATOM     81  C   UNL A   1      44.668  27.446  34.351  1.00  0.00     0.023 A 
ATOM     82  C   UNL A   1      44.372  26.304  35.118  1.00  0.00     0.031 A 
ATOM     83  C   UNL A   1      45.916  28.063  34.538  1.00  0.00     0.131 A 
ATOM     84  C   UNL A   1      45.291  25.843  36.073  1.00  0.00     0.055 A 
ATOM     85  C   UNL A   1      46.847  27.572  35.455  1.00  0.00     0.041 A 
ATOM     86  F   UNL A   1      46.249  29.156  33.835  1.00  0.00    -0.206 F 
ATOM     87  C   UNL A   1      46.532  26.463  36.238  1.00  0.00     0.022 A 
BRANCH  84  88
ATOM     88  S   UNL A   1      44.812  24.469  37.157  1.00  0.00     0.124 S 
ATOM     89  O   UNL A   1      45.965  24.365  38.045  1.00  0.00    -0.237 OA
ATOM     90  O   UNL A   1      43.581  24.964  37.765  1.00  0.00    -0.237 OA
ATOM     91  O   UNL A   1      44.639  23.348  36.234  1.00  0.00    -0.744 OA
ENDBRANCH  84  88
ENDBRANCH  58  81
ENDBRANCH  32  33
ENDBRANCH  25  27
ENDBRANCH  24  25
ENDBRANCH   1  24
TORSDOF 18
ENDMDL
