MODEL 1
REMARK VINA RESULT:     -10.6      0.000      0.000
REMARK SMILES O=C(CSc1nnnn1C1CC1)N[C@H](CO)C(=O)OCCOC(=O)c1ccc(-c2c3nc(c(-c4cc(S(=O)(=O)[O-])ccc4F)c4ccc([nH]4)c(-c4cc(S(=O)(=O)[O-])ccc4F)c4nc(c(-c5cc(S(=O)(=O)[O-])ccc5F)c5ccc2[nH]5)C=C4)C=C3)cc1
REMARK SMILES IDX 20 1 19 2 17 3 18 4 14 5 13 6 1 7 2 8 3 10 4 11 5 12 6 13
REMARK SMILES IDX 9 14 7 15 8 16 10 17 11 18 12 19 15 20 16 21 21 23 22 24
REMARK SMILES IDX 23 25 24 26 25 27 26 28 87 29 27 30 86 31 28 32 29 33 30 34
REMARK SMILES IDX 80 35 31 36 85 37 79 38 81 39 32 40 84 41 78 42 77 43 33 45
REMARK SMILES IDX 65 46 45 47 64 48 46 49 49 50 63 51 82 52 47 53 48 54 62 56
REMARK SMILES IDX 83 57 50 58 34 59 35 60 43 61 36 62 42 63 44 64 41 65 37 66
REMARK SMILES IDX 38 67 39 68 40 69 66 70 67 71 75 72 68 73 74 74 76 75 73 76
REMARK SMILES IDX 69 77 70 78 71 79 72 80 51 81 52 82 60 83 53 84 59 85 61 86
REMARK SMILES IDX 58 87 54 88 55 89 56 90 57 91
REMARK H PARENT 13 9 16 22 81 44 49 55
REMARK Flexibility Score: inf
ROOT
ATOM      1  C   UNL A   1      38.143  23.192  26.108  1.00  0.00     0.274 C 
ENDROOT
BRANCH   1   2
ATOM      2  O   UNL A   1      37.447  21.961  25.803  1.00  0.00    -0.460 OA
BRANCH   2   3
ATOM      3  C   UNL A   1      36.633  21.952  24.709  1.00  0.00     0.331 C 
ATOM      4  O   UNL A   1      36.992  22.319  23.592  1.00  0.00    -0.250 OA
BRANCH   3   5
ATOM      5  C   UNL A   1      35.153  21.705  25.045  1.00  0.00     0.218 C 
BRANCH   5   6
ATOM      6  N   UNL A   1      34.404  22.616  24.144  1.00  0.00    -0.340 N 
ATOM      7  O   UNL A   1      32.878  21.120  23.324  1.00  0.00    -0.274 OA
ATOM      8  C   UNL A   1      33.333  22.259  23.363  1.00  0.00     0.231 C 
ATOM      9  H   UNL A   1      34.700  23.554  24.102  1.00  0.00     0.164 HD
BRANCH   8  10
ATOM     10  C   UNL A   1      32.737  23.370  22.518  1.00  0.00     0.178 C 
BRANCH  10  11
ATOM     11  S   UNL A   1      31.932  24.676  23.491  1.00  0.00    -0.075 SA
BRANCH  11  12
ATOM     12  C   UNL A   1      32.739  26.096  22.931  1.00  0.00     0.210 A 
ATOM     13  N   UNL A   1      33.678  26.110  22.011  1.00  0.00    -0.102 NA
ATOM     14  N   UNL A   1      32.441  27.395  23.273  1.00  0.00    -0.217 N 
ATOM     15  N   UNL A   1      33.933  27.434  21.755  1.00  0.00    -0.023 NA
ATOM     16  N   UNL A   1      33.160  28.222  22.491  1.00  0.00    -0.044 NA
BRANCH  14  17
ATOM     17  C   UNL A   1      31.540  27.939  24.266  1.00  0.00     0.112 C 
ATOM     18  C   UNL A   1      31.890  28.430  25.660  1.00  0.00     0.029 C 
ATOM     19  C   UNL A   1      31.527  29.416  24.605  1.00  0.00     0.029 C 
ENDBRANCH  14  17
ENDBRANCH  11  12
ENDBRANCH  10  11
ENDBRANCH   8  10
ENDBRANCH   5   6
BRANCH   5  20
ATOM     20  C   UNL A   1      34.800  21.806  26.538  1.00  0.00     0.193 C 
BRANCH  20  21
ATOM     21  O   UNL A   1      33.966  20.719  26.947  1.00  0.00    -0.394 OA
ATOM     22  H   UNL A   1      33.402  20.448  26.206  1.00  0.00     0.210 HD
ENDBRANCH  20  21
ENDBRANCH   5  20
ENDBRANCH   3   5
ENDBRANCH   2   3
ENDBRANCH   1   2
BRANCH   1  23
ATOM     23  C   UNL A   1      39.599  22.958  26.470  1.00  0.00     0.275 C 
BRANCH  23  24
ATOM     24  O   UNL A   1      40.071  24.003  27.313  1.00  0.00    -0.458 OA
BRANCH  24  25
ATOM     25  C   UNL A   1      40.400  25.111  26.615  1.00  0.00     0.338 C 
ATOM     26  O   UNL A   1      41.204  25.191  25.705  1.00  0.00    -0.246 OA
BRANCH  25  27
ATOM     27  C   UNL A   1      39.832  26.299  27.221  1.00  0.00     0.060 A 
ATOM     28  C   UNL A   1      40.325  27.524  26.751  1.00  0.00     0.016 A 
ATOM     29  C   UNL A   1      39.201  26.147  28.457  1.00  0.00     0.016 A 
ATOM     30  C   UNL A   1      40.351  28.585  27.621  1.00  0.00     0.010 A 
ATOM     31  C   UNL A   1      39.261  27.195  29.331  1.00  0.00     0.010 A 
ATOM     32  C   UNL A   1      39.894  28.372  28.921  1.00  0.00    -0.014 A 
BRANCH  32  33
ATOM     33  C   UNL A   1      40.018  29.444  29.876  1.00  0.00     0.031 A 
ATOM     34  C   UNL A   1      38.797  30.261  30.002  1.00  0.00     0.074 A 
ATOM     35  C   UNL A   1      41.080  29.518  30.697  1.00  0.00     0.049 A 
ATOM     36  N   UNL A   1      38.673  31.525  29.789  1.00  0.00    -0.248 NA
ATOM     37  C   UNL A   1      37.521  29.562  30.231  1.00  0.00     0.031 C 
ATOM     38  C   UNL A   1      42.184  28.563  30.813  1.00  0.00     0.029 A 
ATOM     39  N   UNL A   1      41.292  30.374  31.728  1.00  0.00    -0.354 N 
ATOM     40  C   UNL A   1      37.348  31.819  30.077  1.00  0.00     0.074 A 
ATOM     41  C   UNL A   1      36.651  30.564  30.120  1.00  0.00     0.031 C 
ATOM     42  C   UNL A   1      42.789  28.748  32.006  1.00  0.00     0.029 A 
ATOM     43  C   UNL A   1      42.169  29.877  32.682  1.00  0.00     0.049 A 
ATOM     44  H   UNL A   1      40.867  31.260  31.792  1.00  0.00     0.167 HD
ATOM     45  C   UNL A   1      36.977  33.051  30.511  1.00  0.00     0.034 A 
ATOM     46  C   UNL A   1      42.270  30.286  33.974  1.00  0.00     0.034 A 
ATOM     47  C   UNL A   1      38.007  34.029  30.255  1.00  0.00     0.049 A 
ATOM     48  C   UNL A   1      41.687  31.654  34.046  1.00  0.00     0.074 A 
ATOM     49  C   UNL A   1      38.664  34.450  29.114  1.00  0.00     0.029 A 
ATOM     50  N   UNL A   1      38.788  34.446  31.311  1.00  0.00    -0.354 N 
ATOM     51  N   UNL A   1      42.205  32.688  33.438  1.00  0.00    -0.248 NA
ATOM     52  C   UNL A   1      40.273  31.794  34.377  1.00  0.00     0.031 C 
ATOM     53  C   UNL A   1      40.016  34.643  29.518  1.00  0.00     0.029 A 
ATOM     54  C   UNL A   1      40.096  34.405  30.892  1.00  0.00     0.049 A 
ATOM     55  H   UNL A   1      38.468  34.721  32.202  1.00  0.00     0.167 HD
ATOM     56  C   UNL A   1      41.124  33.383  32.916  1.00  0.00     0.074 A 
ATOM     57  C   UNL A   1      39.961  32.858  33.629  1.00  0.00     0.031 C 
ATOM     58  C   UNL A   1      41.226  34.093  31.751  1.00  0.00     0.034 A 
BRANCH  45  59
ATOM     59  C   UNL A   1      35.834  33.305  31.458  1.00  0.00     0.023 A 
ATOM     60  C   UNL A   1      34.923  34.315  31.106  1.00  0.00     0.031 A 
ATOM     61  C   UNL A   1      35.743  32.821  32.785  1.00  0.00     0.131 A 
ATOM     62  C   UNL A   1      34.043  34.851  32.058  1.00  0.00     0.055 A 
ATOM     63  C   UNL A   1      34.808  33.299  33.704  1.00  0.00     0.041 A 
ATOM     64  F   UNL A   1      36.611  31.942  33.299  1.00  0.00    -0.206 F 
ATOM     65  C   UNL A   1      33.970  34.343  33.353  1.00  0.00     0.022 A 
BRANCH  62  66
ATOM     66  S   UNL A   1      33.135  36.354  31.627  1.00  0.00     0.124 S 
ATOM     67  O   UNL A   1      33.940  37.383  32.277  1.00  0.00    -0.237 OA
ATOM     68  O   UNL A   1      33.182  36.324  30.170  1.00  0.00    -0.237 OA
ATOM     69  O   UNL A   1      31.816  36.131  32.215  1.00  0.00    -0.744 OA
ENDBRANCH  62  66
ENDBRANCH  45  59
BRANCH  46  70
ATOM     70  C   UNL A   1      42.569  29.420  35.149  1.00  0.00     0.023 A 
ATOM     71  C   UNL A   1      41.870  28.225  35.409  1.00  0.00     0.031 A 
ATOM     72  C   UNL A   1      43.707  29.668  35.958  1.00  0.00     0.131 A 
ATOM     73  C   UNL A   1      42.295  27.361  36.447  1.00  0.00     0.055 A 
ATOM     74  C   UNL A   1      44.103  28.828  37.000  1.00  0.00     0.041 A 
ATOM     75  F   UNL A   1      44.533  30.697  35.711  1.00  0.00    -0.206 F 
ATOM     76  C   UNL A   1      43.399  27.664  37.246  1.00  0.00     0.022 A 
BRANCH  73  77
ATOM     77  S   UNL A   1      41.480  25.752  36.695  1.00  0.00     0.124 S 
ATOM     78  O   UNL A   1      42.601  24.886  37.040  1.00  0.00    -0.237 OA
ATOM     79  O   UNL A   1      40.530  26.043  37.763  1.00  0.00    -0.237 OA
ATOM     80  O   UNL A   1      40.868  25.478  35.394  1.00  0.00    -0.744 OA
ENDBRANCH  73  77
ENDBRANCH  46  70
BRANCH  58  81
ATOM     81  C   UNL A   1      42.605  34.347  31.170  1.00  0.00     0.023 A 
ATOM     82  C   UNL A   1      43.178  33.595  30.119  1.00  0.00     0.031 A 
ATOM     83  C   UNL A   1      43.296  35.495  31.595  1.00  0.00     0.131 A 
ATOM     84  C   UNL A   1      44.401  33.993  29.548  1.00  0.00     0.055 A 
ATOM     85  C   UNL A   1      44.495  35.903  31.009  1.00  0.00     0.041 A 
ATOM     86  F   UNL A   1      42.790  36.273  32.567  1.00  0.00    -0.206 F 
ATOM     87  C   UNL A   1      45.056  35.148  29.986  1.00  0.00     0.022 A 
BRANCH  84  88
ATOM     88  S   UNL A   1      45.167  33.003  28.225  1.00  0.00     0.124 S 
ATOM     89  O   UNL A   1      44.336  31.806  28.171  1.00  0.00    -0.237 OA
ATOM     90  O   UNL A   1      45.082  33.896  27.073  1.00  0.00    -0.237 OA
ATOM     91  O   UNL A   1      46.527  32.775  28.718  1.00  0.00    -0.744 OA
ENDBRANCH  84  88
ENDBRANCH  58  81
ENDBRANCH  32  33
ENDBRANCH  25  27
ENDBRANCH  24  25
ENDBRANCH  23  24
ENDBRANCH   1  23
TORSDOF 21
ENDMDL
MODEL 2
REMARK VINA RESULT:     -10.5      4.154      6.285
REMARK SMILES O=C(CSc1nnnn1C1CC1)N[C@H](CO)C(=O)OCCOC(=O)c1ccc(-c2c3nc(c(-c4cc(S(=O)(=O)[O-])ccc4F)c4ccc([nH]4)c(-c4cc(S(=O)(=O)[O-])ccc4F)c4nc(c(-c5cc(S(=O)(=O)[O-])ccc5F)c5ccc2[nH]5)C=C4)C=C3)cc1
REMARK SMILES IDX 20 1 19 2 17 3 18 4 14 5 13 6 1 7 2 8 3 10 4 11 5 12 6 13
REMARK SMILES IDX 9 14 7 15 8 16 10 17 11 18 12 19 15 20 16 21 21 23 22 24
REMARK SMILES IDX 23 25 24 26 25 27 26 28 87 29 27 30 86 31 28 32 29 33 30 34
REMARK SMILES IDX 80 35 31 36 85 37 79 38 81 39 32 40 84 41 78 42 77 43 33 45
REMARK SMILES IDX 65 46 45 47 64 48 46 49 49 50 63 51 82 52 47 53 48 54 62 56
REMARK SMILES IDX 83 57 50 58 34 59 35 60 43 61 36 62 42 63 44 64 41 65 37 66
REMARK SMILES IDX 38 67 39 68 40 69 66 70 67 71 75 72 68 73 74 74 76 75 73 76
REMARK SMILES IDX 69 77 70 78 71 79 72 80 51 81 52 82 60 83 53 84 59 85 61 86
REMARK SMILES IDX 58 87 54 88 55 89 56 90 57 91
REMARK H PARENT 13 9 16 22 81 44 49 55
REMARK Flexibility Score: inf
ROOT
ATOM      1  C   UNL A   1      42.025  22.079  26.836  1.00  0.00     0.274 C 
ENDROOT
BRANCH   1   2
ATOM      2  O   UNL A   1      43.469  22.047  26.924  1.00  0.00    -0.460 OA
BRANCH   2   3
ATOM      3  C   UNL A   1      44.165  21.808  25.776  1.00  0.00     0.331 C 
ATOM      4  O   UNL A   1      43.829  20.973  24.939  1.00  0.00    -0.250 OA
BRANCH   3   5
ATOM      5  C   UNL A   1      45.551  22.474  25.747  1.00  0.00     0.218 C 
BRANCH   5   6
ATOM      6  N   UNL A   1      45.384  23.727  26.525  1.00  0.00    -0.340 N 
ATOM      7  O   UNL A   1      47.558  24.030  27.172  1.00  0.00    -0.274 OA
ATOM      8  C   UNL A   1      46.390  24.404  27.168  1.00  0.00     0.231 C 
ATOM      9  H   UNL A   1      44.476  24.104  26.585  1.00  0.00     0.164 HD
BRANCH   8  10
ATOM     10  C   UNL A   1      45.968  25.661  27.906  1.00  0.00     0.178 C 
BRANCH  10  11
ATOM     11  S   UNL A   1      45.120  26.875  26.855  1.00  0.00    -0.075 SA
BRANCH  11  12
ATOM     12  C   UNL A   1      46.302  27.190  25.637  1.00  0.00     0.210 A 
ATOM     13  N   UNL A   1      46.290  26.671  24.430  1.00  0.00    -0.102 NA
ATOM     14  N   UNL A   1      47.334  28.097  25.713  1.00  0.00    -0.217 N 
ATOM     15  N   UNL A   1      47.302  27.294  23.743  1.00  0.00    -0.023 NA
ATOM     16  N   UNL A   1      47.918  28.188  24.504  1.00  0.00    -0.044 NA
BRANCH  14  17
ATOM     17  C   UNL A   1      47.828  28.894  26.817  1.00  0.00     0.112 C 
ATOM     18  C   UNL A   1      48.640  28.417  28.009  1.00  0.00     0.029 C 
ATOM     19  C   UNL A   1      49.297  29.240  26.956  1.00  0.00     0.029 C 
ENDBRANCH  14  17
ENDBRANCH  11  12
ENDBRANCH  10  11
ENDBRANCH   8  10
ENDBRANCH   5   6
BRANCH   5  20
ATOM     20  C   UNL A   1      46.164  22.636  24.347  1.00  0.00     0.193 C 
BRANCH  20  21
ATOM     21  O   UNL A   1      45.153  22.865  23.362  1.00  0.00    -0.394 OA
ATOM     22  H   UNL A   1      44.278  22.777  23.770  1.00  0.00     0.210 HD
ENDBRANCH  20  21
ENDBRANCH   5  20
ENDBRANCH   3   5
ENDBRANCH   2   3
ENDBRANCH   1   2
BRANCH   1  23
ATOM     23  C   UNL A   1      41.524  23.215  25.964  1.00  0.00     0.275 C 
BRANCH  23  24
ATOM     24  O   UNL A   1      41.070  24.294  26.773  1.00  0.00    -0.458 OA
BRANCH  24  25
ATOM     25  C   UNL A   1      41.163  25.482  26.138  1.00  0.00     0.338 C 
ATOM     26  O   UNL A   1      41.863  25.745  25.177  1.00  0.00    -0.246 OA
BRANCH  25  27
ATOM     27  C   UNL A   1      40.477  26.525  26.874  1.00  0.00     0.060 A 
ATOM     28  C   UNL A   1      40.700  27.836  26.434  1.00  0.00     0.016 A 
ATOM     29  C   UNL A   1      40.025  26.210  28.157  1.00  0.00     0.016 A 
ATOM     30  C   UNL A   1      40.648  28.845  27.363  1.00  0.00     0.010 A 
ATOM     31  C   UNL A   1      40.007  27.212  29.085  1.00  0.00     0.010 A 
ATOM     32  C   UNL A   1      40.383  28.498  28.687  1.00  0.00    -0.014 A 
BRANCH  32  33
ATOM     33  C   UNL A   1      40.434  29.531  29.690  1.00  0.00     0.031 A 
ATOM     34  C   UNL A   1      39.165  30.269  29.835  1.00  0.00     0.074 A 
ATOM     35  C   UNL A   1      41.480  29.630  30.528  1.00  0.00     0.049 A 
ATOM     36  N   UNL A   1      38.969  31.532  29.677  1.00  0.00    -0.248 NA
ATOM     37  C   UNL A   1      37.929  29.487  30.016  1.00  0.00     0.031 C 
ATOM     38  C   UNL A   1      42.637  28.738  30.617  1.00  0.00     0.029 A 
ATOM     39  N   UNL A   1      41.630  30.450  31.599  1.00  0.00    -0.354 N 
ATOM     40  C   UNL A   1      37.626  31.735  29.960  1.00  0.00     0.074 A 
ATOM     41  C   UNL A   1      37.004  30.441  29.938  1.00  0.00     0.031 C 
ATOM     42  C   UNL A   1      43.217  28.903  31.824  1.00  0.00     0.029 A 
ATOM     43  C   UNL A   1      42.524  29.962  32.542  1.00  0.00     0.049 A 
ATOM     44  H   UNL A   1      41.153  31.306  31.697  1.00  0.00     0.167 HD
ATOM     45  C   UNL A   1      37.178  32.923  30.443  1.00  0.00     0.034 A 
ATOM     46  C   UNL A   1      42.587  30.318  33.852  1.00  0.00     0.034 A 
ATOM     47  C   UNL A   1      38.152  33.970  30.245  1.00  0.00     0.049 A 
ATOM     48  C   UNL A   1      41.923  31.645  33.976  1.00  0.00     0.074 A 
ATOM     49  C   UNL A   1      38.796  34.479  29.133  1.00  0.00     0.029 A 
ATOM     50  N   UNL A   1      38.895  34.383  31.329  1.00  0.00    -0.354 N 
ATOM     51  N   UNL A   1      42.386  32.734  33.422  1.00  0.00    -0.248 NA
ATOM     52  C   UNL A   1      40.500  31.687  34.294  1.00  0.00     0.031 C 
ATOM     53  C   UNL A   1      40.129  34.732  29.563  1.00  0.00     0.029 A 
ATOM     54  C   UNL A   1      40.208  34.437  30.927  1.00  0.00     0.049 A 
ATOM     55  H   UNL A   1      38.550  34.599  32.226  1.00  0.00     0.167 HD
ATOM     56  C   UNL A   1      41.272  33.387  32.917  1.00  0.00     0.074 A 
ATOM     57  C   UNL A   1      40.134  32.764  33.590  1.00  0.00     0.031 C 
ATOM     58  C   UNL A   1      41.345  34.154  31.786  1.00  0.00     0.034 A 
BRANCH  45  59
ATOM     59  C   UNL A   1      36.012  33.067  31.384  1.00  0.00     0.023 A 
ATOM     60  C   UNL A   1      34.948  33.882  30.966  1.00  0.00     0.031 A 
ATOM     61  C   UNL A   1      36.005  32.688  32.748  1.00  0.00     0.131 A 
ATOM     62  C   UNL A   1      33.995  34.346  31.885  1.00  0.00     0.055 A 
ATOM     63  C   UNL A   1      35.007  33.083  33.640  1.00  0.00     0.041 A 
ATOM     64  F   UNL A   1      37.006  32.008  33.319  1.00  0.00    -0.206 F 
ATOM     65  C   UNL A   1      34.009  33.944  33.218  1.00  0.00     0.022 A 
BRANCH  62  66
ATOM     66  S   UNL A   1      32.851  35.640  31.346  1.00  0.00     0.124 S 
ATOM     67  O   UNL A   1      31.754  35.479  32.295  1.00  0.00    -0.237 OA
ATOM     68  O   UNL A   1      33.666  36.840  31.499  1.00  0.00    -0.237 OA
ATOM     69  O   UNL A   1      32.544  35.265  29.968  1.00  0.00    -0.744 OA
ENDBRANCH  62  66
ENDBRANCH  45  59
BRANCH  46  70
ATOM     70  C   UNL A   1      42.923  29.419  34.992  1.00  0.00     0.023 A 
ATOM     71  C   UNL A   1      42.098  28.345  35.380  1.00  0.00     0.031 A 
ATOM     72  C   UNL A   1      44.193  29.491  35.618  1.00  0.00     0.131 A 
ATOM     73  C   UNL A   1      42.537  27.428  36.366  1.00  0.00     0.055 A 
ATOM     74  C   UNL A   1      44.608  28.603  36.611  1.00  0.00     0.041 A 
ATOM     75  F   UNL A   1      45.118  30.381  35.227  1.00  0.00    -0.206 F 
ATOM     76  C   UNL A   1      43.781  27.561  36.987  1.00  0.00     0.022 A 
BRANCH  73  77
ATOM     77  S   UNL A   1      41.534  25.963  36.770  1.00  0.00     0.124 S 
ATOM     78  O   UNL A   1      40.593  26.493  37.749  1.00  0.00    -0.237 OA
ATOM     79  O   UNL A   1      40.983  25.592  35.471  1.00  0.00    -0.237 OA
ATOM     80  O   UNL A   1      42.516  25.019  37.307  1.00  0.00    -0.744 OA
ENDBRANCH  73  77
ENDBRANCH  46  70
BRANCH  58  81
ATOM     81  C   UNL A   1      42.713  34.514  31.235  1.00  0.00     0.023 A 
ATOM     82  C   UNL A   1      43.332  33.856  30.148  1.00  0.00     0.031 A 
ATOM     83  C   UNL A   1      43.338  35.669  31.735  1.00  0.00     0.131 A 
ATOM     84  C   UNL A   1      44.537  34.351  29.615  1.00  0.00     0.055 A 
ATOM     85  C   UNL A   1      44.518  36.174  31.186  1.00  0.00     0.041 A 
ATOM     86  F   UNL A   1      42.784  36.361  32.745  1.00  0.00    -0.206 F 
ATOM     87  C   UNL A   1      45.127  35.511  30.127  1.00  0.00     0.022 A 
BRANCH  84  88
ATOM     88  S   UNL A   1      45.365  33.482  28.245  1.00  0.00     0.124 S 
ATOM     89  O   UNL A   1      45.861  32.259  28.867  1.00  0.00    -0.237 OA
ATOM     90  O   UNL A   1      44.284  33.317  27.277  1.00  0.00    -0.237 OA
ATOM     91  O   UNL A   1      46.412  34.420  27.832  1.00  0.00    -0.744 OA
ENDBRANCH  84  88
ENDBRANCH  58  81
ENDBRANCH  32  33
ENDBRANCH  25  27
ENDBRANCH  24  25
ENDBRANCH  23  24
ENDBRANCH   1  23
TORSDOF 21
ENDMDL
MODEL 3
REMARK VINA RESULT:     -10.2      4.574      9.510
REMARK SMILES O=C(CSc1nnnn1C1CC1)N[C@H](CO)C(=O)OCCOC(=O)c1ccc(-c2c3nc(c(-c4cc(S(=O)(=O)[O-])ccc4F)c4ccc([nH]4)c(-c4cc(S(=O)(=O)[O-])ccc4F)c4nc(c(-c5cc(S(=O)(=O)[O-])ccc5F)c5ccc2[nH]5)C=C4)C=C3)cc1
REMARK SMILES IDX 20 1 19 2 17 3 18 4 14 5 13 6 1 7 2 8 3 10 4 11 5 12 6 13
REMARK SMILES IDX 9 14 7 15 8 16 10 17 11 18 12 19 15 20 16 21 21 23 22 24
REMARK SMILES IDX 23 25 24 26 25 27 26 28 87 29 27 30 86 31 28 32 29 33 30 34
REMARK SMILES IDX 80 35 31 36 85 37 79 38 81 39 32 40 84 41 78 42 77 43 33 45
REMARK SMILES IDX 65 46 45 47 64 48 46 49 49 50 63 51 82 52 47 53 48 54 62 56
REMARK SMILES IDX 83 57 50 58 34 59 35 60 43 61 36 62 42 63 44 64 41 65 37 66
REMARK SMILES IDX 38 67 39 68 40 69 66 70 67 71 75 72 68 73 74 74 76 75 73 76
REMARK SMILES IDX 69 77 70 78 71 79 72 80 51 81 52 82 60 83 53 84 59 85 61 86
REMARK SMILES IDX 58 87 54 88 55 89 56 90 57 91
REMARK H PARENT 13 9 16 22 81 44 49 55
REMARK Flexibility Score: inf
ROOT
ATOM      1  C   UNL A   1      41.195  20.437  26.812  1.00  0.00     0.274 C 
ENDROOT
BRANCH   1   2
ATOM      2  O   UNL A   1      42.610  20.144  26.729  1.00  0.00    -0.460 OA
BRANCH   2   3
ATOM      3  C   UNL A   1      43.084  19.657  25.548  1.00  0.00     0.331 C 
ATOM      4  O   UNL A   1      42.613  18.674  24.981  1.00  0.00    -0.250 OA
BRANCH   3   5
ATOM      5  C   UNL A   1      44.428  20.272  25.124  1.00  0.00     0.218 C 
BRANCH   5   6
ATOM      6  N   UNL A   1      44.104  21.676  24.765  1.00  0.00    -0.340 N 
ATOM      7  O   UNL A   1      45.053  22.725  26.564  1.00  0.00    -0.274 OA
ATOM      8  C   UNL A   1      44.441  22.783  25.502  1.00  0.00     0.231 C 
ATOM      9  H   UNL A   1      43.606  21.825  23.928  1.00  0.00     0.164 HD
BRANCH   8  10
ATOM     10  C   UNL A   1      43.990  24.115  24.930  1.00  0.00     0.178 C 
BRANCH  10  11
ATOM     11  S   UNL A   1      44.459  25.543  25.950  1.00  0.00    -0.075 SA
BRANCH  11  12
ATOM     12  C   UNL A   1      46.001  25.965  25.298  1.00  0.00     0.210 A 
ATOM     13  N   UNL A   1      46.644  25.269  24.388  1.00  0.00    -0.102 NA
ATOM     14  N   UNL A   1      46.706  27.120  25.545  1.00  0.00    -0.217 N 
ATOM     15  N   UNL A   1      47.737  26.023  24.041  1.00  0.00    -0.023 NA
ATOM     16  N   UNL A   1      47.763  27.166  24.713  1.00  0.00    -0.044 NA
BRANCH  14  17
ATOM     17  C   UNL A   1      46.481  28.194  26.490  1.00  0.00     0.112 C 
ATOM     18  C   UNL A   1      46.509  28.110  28.006  1.00  0.00     0.029 C 
ATOM     19  C   UNL A   1      47.616  28.802  27.289  1.00  0.00     0.029 C 
ENDBRANCH  14  17
ENDBRANCH  11  12
ENDBRANCH  10  11
ENDBRANCH   8  10
ENDBRANCH   5   6
BRANCH   5  20
ATOM     20  C   UNL A   1      45.201  19.475  24.061  1.00  0.00     0.193 C 
BRANCH  20  21
ATOM     21  O   UNL A   1      44.576  19.579  22.779  1.00  0.00    -0.394 OA
ATOM     22  H   UNL A   1      44.752  20.456  22.404  1.00  0.00     0.210 HD
ENDBRANCH  20  21
ENDBRANCH   5  20
ENDBRANCH   3   5
ENDBRANCH   2   3
ENDBRANCH   1   2
BRANCH   1  23
ATOM     23  C   UNL A   1      40.870  21.852  26.371  1.00  0.00     0.275 C 
BRANCH  23  24
ATOM     24  O   UNL A   1      40.784  22.713  27.501  1.00  0.00    -0.458 OA
BRANCH  24  25
ATOM     25  C   UNL A   1      39.955  23.757  27.284  1.00  0.00     0.338 C 
ATOM     26  O   UNL A   1      38.803  23.708  26.896  1.00  0.00    -0.246 OA
BRANCH  25  27
ATOM     27  C   UNL A   1      40.669  25.016  27.357  1.00  0.00     0.060 A 
ATOM     28  C   UNL A   1      41.603  25.134  28.395  1.00  0.00     0.016 A 
ATOM     29  C   UNL A   1      40.099  26.113  26.707  1.00  0.00     0.016 A 
ATOM     30  C   UNL A   1      41.830  26.381  28.919  1.00  0.00     0.010 A 
ATOM     31  C   UNL A   1      40.302  27.348  27.254  1.00  0.00     0.010 A 
ATOM     32  C   UNL A   1      41.110  27.451  28.390  1.00  0.00    -0.014 A 
BRANCH  32  33
ATOM     33  C   UNL A   1      41.257  28.747  29.003  1.00  0.00     0.031 A 
ATOM     34  C   UNL A   1      42.367  29.539  28.441  1.00  0.00     0.074 A 
ATOM     35  C   UNL A   1      40.322  29.223  29.844  1.00  0.00     0.049 A 
ATOM     36  N   UNL A   1      43.393  30.005  29.064  1.00  0.00    -0.248 NA
ATOM     37  C   UNL A   1      42.431  29.692  26.977  1.00  0.00     0.031 C 
ATOM     38  C   UNL A   1      39.051  28.595  30.211  1.00  0.00     0.029 A 
ATOM     39  N   UNL A   1      40.239  30.457  30.402  1.00  0.00    -0.354 N 
ATOM     40  C   UNL A   1      44.118  30.703  28.109  1.00  0.00     0.074 A 
ATOM     41  C   UNL A   1      43.610  30.292  26.830  1.00  0.00     0.031 C 
ATOM     42  C   UNL A   1      38.228  29.545  30.702  1.00  0.00     0.029 A 
ATOM     43  C   UNL A   1      38.944  30.810  30.759  1.00  0.00     0.049 A 
ATOM     44  H   UNL A   1      41.017  31.043  30.541  1.00  0.00     0.167 HD
ATOM     45  C   UNL A   1      44.905  31.756  28.452  1.00  0.00     0.034 A 
ATOM     46  C   UNL A   1      38.477  32.072  30.952  1.00  0.00     0.034 A 
ATOM     47  C   UNL A   1      45.168  31.774  29.871  1.00  0.00     0.049 A 
ATOM     48  C   UNL A   1      39.658  32.936  31.229  1.00  0.00     0.074 A 
ATOM     49  C   UNL A   1      45.721  30.864  30.753  1.00  0.00     0.029 A 
ATOM     50  N   UNL A   1      44.482  32.681  30.650  1.00  0.00    -0.354 N 
ATOM     51  N   UNL A   1      40.410  32.807  32.289  1.00  0.00    -0.248 NA
ATOM     52  C   UNL A   1      40.303  33.616  30.110  1.00  0.00     0.031 C 
ATOM     53  C   UNL A   1      44.939  30.979  31.938  1.00  0.00     0.029 A 
ATOM     54  C   UNL A   1      44.005  32.000  31.744  1.00  0.00     0.049 A 
ATOM     55  H   UNL A   1      44.357  33.639  30.458  1.00  0.00     0.167 HD
ATOM     56  C   UNL A   1      41.711  32.961  31.834  1.00  0.00     0.074 A 
ATOM     57  C   UNL A   1      41.576  33.580  30.517  1.00  0.00     0.031 C 
ATOM     58  C   UNL A   1      42.757  32.303  32.422  1.00  0.00     0.034 A 
BRANCH  45  59
ATOM     59  C   UNL A   1      45.158  32.945  27.564  1.00  0.00     0.023 A 
ATOM     60  C   UNL A   1      46.465  33.114  27.077  1.00  0.00     0.031 A 
ATOM     61  C   UNL A   1      44.286  34.048  27.398  1.00  0.00     0.131 A 
ATOM     62  C   UNL A   1      46.877  34.342  26.538  1.00  0.00     0.055 A 
ATOM     63  C   UNL A   1      44.678  35.239  26.784  1.00  0.00     0.041 A 
ATOM     64  F   UNL A   1      43.049  34.079  27.907  1.00  0.00    -0.206 F 
ATOM     65  C   UNL A   1      45.990  35.404  26.377  1.00  0.00     0.022 A 
BRANCH  62  66
ATOM     66  S   UNL A   1      48.643  34.589  26.233  1.00  0.00     0.124 S 
ATOM     67  O   UNL A   1      49.162  34.720  27.591  1.00  0.00    -0.237 OA
ATOM     68  O   UNL A   1      48.996  33.365  25.523  1.00  0.00    -0.237 OA
ATOM     69  O   UNL A   1      48.679  35.810  25.432  1.00  0.00    -0.744 OA
ENDBRANCH  62  66
ENDBRANCH  45  59
BRANCH  46  70
ATOM     70  C   UNL A   1      37.116  32.568  30.606  1.00  0.00     0.023 A 
ATOM     71  C   UNL A   1      36.346  33.349  31.491  1.00  0.00     0.031 A 
ATOM     72  C   UNL A   1      36.611  32.433  29.289  1.00  0.00     0.131 A 
ATOM     73  C   UNL A   1      35.127  33.926  31.057  1.00  0.00     0.055 A 
ATOM     74  C   UNL A   1      35.393  32.977  28.876  1.00  0.00     0.041 A 
ATOM     75  F   UNL A   1      37.324  31.836  28.322  1.00  0.00    -0.206 F 
ATOM     76  C   UNL A   1      34.647  33.733  29.760  1.00  0.00     0.022 A 
BRANCH  73  77
ATOM     77  S   UNL A   1      34.200  35.047  32.152  1.00  0.00     0.124 S 
ATOM     78  O   UNL A   1      35.254  35.596  32.997  1.00  0.00    -0.237 OA
ATOM     79  O   UNL A   1      33.580  35.967  31.205  1.00  0.00    -0.237 OA
ATOM     80  O   UNL A   1      33.264  34.155  32.836  1.00  0.00    -0.744 OA
ENDBRANCH  73  77
ENDBRANCH  46  70
BRANCH  58  81
ATOM     81  C   UNL A   1      42.528  31.613  33.754  1.00  0.00     0.023 A 
ATOM     82  C   UNL A   1      42.531  32.273  35.004  1.00  0.00     0.031 A 
ATOM     83  C   UNL A   1      42.137  30.263  33.736  1.00  0.00     0.131 A 
ATOM     84  C   UNL A   1      42.167  31.578  36.173  1.00  0.00     0.055 A 
ATOM     85  C   UNL A   1      41.750  29.583  34.892  1.00  0.00     0.041 A 
ATOM     86  F   UNL A   1      42.079  29.586  32.576  1.00  0.00    -0.206 F 
ATOM     87  C   UNL A   1      41.770  30.238  36.118  1.00  0.00     0.022 A 
BRANCH  84  88
ATOM     88  S   UNL A   1      42.214  32.409  37.793  1.00  0.00     0.124 S 
ATOM     89  O   UNL A   1      42.650  31.357  38.703  1.00  0.00    -0.237 OA
ATOM     90  O   UNL A   1      43.163  33.494  37.563  1.00  0.00    -0.237 OA
ATOM     91  O   UNL A   1      40.829  32.845  37.989  1.00  0.00    -0.744 OA
ENDBRANCH  84  88
ENDBRANCH  58  81
ENDBRANCH  32  33
ENDBRANCH  25  27
ENDBRANCH  24  25
ENDBRANCH  23  24
ENDBRANCH   1  23
TORSDOF 21
ENDMDL
