MODEL 1
REMARK VINA RESULT:     -10.5      0.000      0.000
REMARK SMILES C=CC[N@@H+](CC(=O)Nc1cc(C)on1)CC(=O)OCCOC(=O)c1ccc(-c2c3nc(c(-c4cc(S(=O)(=O)[O-])ccc4F)c4ccc([nH]4)c(-c4cc(S(=O)(=O)[O-])ccc4F)c4nc(c(-c5cc(S(=O)(=O)[O-])ccc5F)c5ccc2[nH]5)C=C4)C=C3)cc1
REMARK SMILES IDX 19 1 18 2 16 3 17 4 15 5 4 6 3 8 2 9 1 10 5 11 6 12 7 13
REMARK SMILES IDX 8 14 9 16 10 17 14 18 11 19 13 20 12 21 20 22 21 23 22 24
REMARK SMILES IDX 23 25 24 26 25 27 86 28 26 29 85 30 27 31 28 32 29 33 79 34
REMARK SMILES IDX 30 35 84 36 78 37 80 38 31 39 83 40 77 41 76 42 32 44 64 45
REMARK SMILES IDX 44 46 63 47 45 48 48 49 62 50 81 51 46 52 47 53 61 55 82 56
REMARK SMILES IDX 49 57 33 58 34 59 42 60 35 61 41 62 43 63 40 64 36 65 37 66
REMARK SMILES IDX 38 67 39 68 65 69 66 70 74 71 67 72 73 73 75 74 72 75 68 76
REMARK SMILES IDX 69 77 70 78 71 79 50 80 51 81 59 82 52 83 58 84 60 85 57 86
REMARK SMILES IDX 53 87 54 88 55 89 56 90
REMARK H PARENT 4 7 8 15 80 43 48 54
REMARK Flexibility Score: inf
ROOT
ATOM      1  C   UNL A   1      32.557  28.202  25.003  1.00  0.00     0.274 C 
ENDROOT
BRANCH   1   2
ATOM      2  O   UNL A   1      31.276  27.563  24.851  1.00  0.00    -0.458 OA
BRANCH   2   3
ATOM      3  C   UNL A   1      30.928  26.644  25.780  1.00  0.00     0.361 C 
ATOM      4  O   UNL A   1      31.083  26.803  26.988  1.00  0.00    -0.245 OA
BRANCH   3   5
ATOM      5  C   UNL A   1      30.486  25.315  25.185  1.00  0.00     0.387 C 
BRANCH   5   6
ATOM      6  N   UNL A   1      31.498  24.356  24.730  1.00  0.00    -0.315 N 
ATOM      7  H   UNL A   1      30.897  23.533  24.765  1.00  0.00     0.349 HD
BRANCH   6   8
ATOM      8  C   UNL A   1      31.863  24.355  23.325  1.00  0.00     0.291 C 
BRANCH   8   9
ATOM      9  C   UNL A   1      32.869  23.323  22.906  1.00  0.00     0.025 C 
ATOM     10  C   UNL A   1      32.526  22.066  22.588  1.00  0.00     0.010 C 
ENDBRANCH   8   9
ENDBRANCH   6   8
BRANCH   6  11
ATOM     11  C   UNL A   1      32.559  23.949  25.682  1.00  0.00     0.364 C 
BRANCH  11  12
ATOM     12  C   UNL A   1      32.129  23.018  26.835  1.00  0.00     0.280 C 
ATOM     13  O   UNL A   1      31.239  23.361  27.625  1.00  0.00    -0.268 OA
ATOM     14  N   UNL A   1      32.772  21.830  27.050  1.00  0.00    -0.303 N 
ATOM     15  H   UNL A   1      32.741  21.471  27.966  1.00  0.00     0.171 HD
BRANCH  14  16
ATOM     16  C   UNL A   1      33.457  21.085  26.120  1.00  0.00     0.176 A 
ATOM     17  C   UNL A   1      32.918  19.969  25.440  1.00  0.00     0.095 A 
ATOM     18  N   UNL A   1      34.734  21.282  25.780  1.00  0.00    -0.062 NA
ATOM     19  C   UNL A   1      34.013  19.377  24.860  1.00  0.00     0.135 A 
ATOM     20  O   UNL A   1      35.089  20.196  24.999  1.00  0.00    -0.360 OA
ATOM     21  C   UNL A   1      34.268  18.060  24.248  1.00  0.00     0.091 C 
ENDBRANCH  14  16
ENDBRANCH  11  12
ENDBRANCH   6  11
ENDBRANCH   5   6
ENDBRANCH   3   5
ENDBRANCH   2   3
ENDBRANCH   1   2
BRANCH   1  22
ATOM     22  C   UNL A   1      32.404  29.703  25.214  1.00  0.00     0.275 C 
BRANCH  22  23
ATOM     23  O   UNL A   1      32.281  29.990  26.615  1.00  0.00    -0.458 OA
BRANCH  23  24
ATOM     24  C   UNL A   1      32.840  31.151  27.017  1.00  0.00     0.338 C 
ATOM     25  O   UNL A   1      32.373  32.278  26.908  1.00  0.00    -0.246 OA
BRANCH  24  26
ATOM     26  C   UNL A   1      34.147  30.876  27.622  1.00  0.00     0.060 A 
ATOM     27  C   UNL A   1      34.492  29.567  27.961  1.00  0.00     0.016 A 
ATOM     28  C   UNL A   1      34.992  31.938  27.944  1.00  0.00     0.016 A 
ATOM     29  C   UNL A   1      35.667  29.322  28.669  1.00  0.00     0.010 A 
ATOM     30  C   UNL A   1      36.195  31.682  28.608  1.00  0.00     0.010 A 
ATOM     31  C   UNL A   1      36.534  30.375  28.996  1.00  0.00    -0.014 A 
BRANCH  31  32
ATOM     32  C   UNL A   1      37.801  30.112  29.724  1.00  0.00     0.031 A 
ATOM     33  C   UNL A   1      38.845  29.201  29.138  1.00  0.00     0.074 A 
ATOM     34  C   UNL A   1      37.998  30.680  30.930  1.00  0.00     0.049 A 
ATOM     35  N   UNL A   1      39.936  28.730  29.686  1.00  0.00    -0.248 NA
ATOM     36  C   UNL A   1      38.628  28.756  27.753  1.00  0.00     0.031 C 
ATOM     37  C   UNL A   1      37.075  31.612  31.582  1.00  0.00     0.029 A 
ATOM     38  N   UNL A   1      39.029  30.551  31.825  1.00  0.00    -0.354 N 
ATOM     39  C   UNL A   1      40.522  27.909  28.729  1.00  0.00     0.074 A 
ATOM     40  C   UNL A   1      39.656  27.938  27.568  1.00  0.00     0.031 C 
ATOM     41  C   UNL A   1      37.584  31.975  32.768  1.00  0.00     0.029 A 
ATOM     42  C   UNL A   1      38.828  31.248  32.993  1.00  0.00     0.049 A 
ATOM     43  H   UNL A   1      39.834  30.013  31.648  1.00  0.00     0.167 HD
ATOM     44  C   UNL A   1      41.674  27.197  28.818  1.00  0.00     0.034 A 
ATOM     45  C   UNL A   1      39.539  31.265  34.138  1.00  0.00     0.034 A 
ATOM     46  C   UNL A   1      42.529  27.192  29.983  1.00  0.00     0.049 A 
ATOM     47  C   UNL A   1      40.777  30.418  34.235  1.00  0.00     0.074 A 
ATOM     48  C   UNL A   1      43.730  26.527  30.171  1.00  0.00     0.029 A 
ATOM     49  N   UNL A   1      42.272  27.880  31.163  1.00  0.00    -0.354 N 
ATOM     50  N   UNL A   1      41.303  29.620  33.334  1.00  0.00    -0.248 NA
ATOM     51  C   UNL A   1      41.513  30.468  35.503  1.00  0.00     0.031 C 
ATOM     52  C   UNL A   1      44.165  26.763  31.481  1.00  0.00     0.029 A 
ATOM     53  C   UNL A   1      43.273  27.629  32.091  1.00  0.00     0.049 A 
ATOM     54  H   UNL A   1      41.492  28.460  31.318  1.00  0.00     0.167 HD
ATOM     55  C   UNL A   1      42.442  29.083  33.925  1.00  0.00     0.074 A 
ATOM     56  C   UNL A   1      42.534  29.663  35.251  1.00  0.00     0.031 C 
ATOM     57  C   UNL A   1      43.332  28.193  33.419  1.00  0.00     0.034 A 
BRANCH  44  58
ATOM     58  C   UNL A   1      42.046  26.318  27.647  1.00  0.00     0.023 A 
ATOM     59  C   UNL A   1      41.635  24.976  27.559  1.00  0.00     0.031 A 
ATOM     60  C   UNL A   1      42.836  26.833  26.603  1.00  0.00     0.131 A 
ATOM     61  C   UNL A   1      42.063  24.183  26.481  1.00  0.00     0.055 A 
ATOM     62  C   UNL A   1      43.200  26.059  25.499  1.00  0.00     0.041 A 
ATOM     63  F   UNL A   1      43.278  28.101  26.644  1.00  0.00    -0.206 F 
ATOM     64  C   UNL A   1      42.822  24.721  25.439  1.00  0.00     0.022 A 
BRANCH  61  65
ATOM     65  S   UNL A   1      41.718  22.402  26.522  1.00  0.00     0.124 S 
ATOM     66  O   UNL A   1      40.288  22.371  26.220  1.00  0.00    -0.237 OA
ATOM     67  O   UNL A   1      42.604  21.886  25.484  1.00  0.00    -0.237 OA
ATOM     68  O   UNL A   1      42.065  22.016  27.888  1.00  0.00    -0.744 OA
ENDBRANCH  61  65
ENDBRANCH  44  58
BRANCH  45  69
ATOM     69  C   UNL A   1      39.060  32.063  35.300  1.00  0.00     0.023 A 
ATOM     70  C   UNL A   1      38.430  31.449  36.392  1.00  0.00     0.031 A 
ATOM     71  C   UNL A   1      39.217  33.462  35.326  1.00  0.00     0.131 A 
ATOM     72  C   UNL A   1      37.958  32.233  37.455  1.00  0.00     0.055 A 
ATOM     73  C   UNL A   1      38.788  34.231  36.407  1.00  0.00     0.041 A 
ATOM     74  F   UNL A   1      39.815  34.097  34.305  1.00  0.00    -0.206 F 
ATOM     75  C   UNL A   1      38.146  33.617  37.477  1.00  0.00     0.022 A 
BRANCH  72  76
ATOM     76  S   UNL A   1      37.033  31.421  38.787  1.00  0.00     0.124 S 
ATOM     77  O   UNL A   1      36.889  30.066  38.268  1.00  0.00    -0.237 OA
ATOM     78  O   UNL A   1      37.936  31.581  39.923  1.00  0.00    -0.237 OA
ATOM     79  O   UNL A   1      35.797  32.196  38.864  1.00  0.00    -0.744 OA
ENDBRANCH  72  76
ENDBRANCH  45  69
BRANCH  57  80
ATOM     80  C   UNL A   1      44.494  27.825  34.307  1.00  0.00     0.023 A 
ATOM     81  C   UNL A   1      44.443  26.705  35.155  1.00  0.00     0.031 A 
ATOM     82  C   UNL A   1      45.645  28.630  34.336  1.00  0.00     0.131 A 
ATOM     83  C   UNL A   1      45.501  26.453  36.041  1.00  0.00     0.055 A 
ATOM     84  C   UNL A   1      46.718  28.344  35.181  1.00  0.00     0.041 A 
ATOM     85  F   UNL A   1      45.742  29.712  33.548  1.00  0.00    -0.206 F 
ATOM     86  C   UNL A   1      46.643  27.259  36.050  1.00  0.00     0.022 A 
BRANCH  83  87
ATOM     87  S   UNL A   1      45.325  25.113  37.249  1.00  0.00     0.124 S 
ATOM     88  O   UNL A   1      43.925  25.243  37.645  1.00  0.00    -0.237 OA
ATOM     89  O   UNL A   1      45.657  23.933  36.458  1.00  0.00    -0.237 OA
ATOM     90  O   UNL A   1      46.296  25.455  38.287  1.00  0.00    -0.744 OA
ENDBRANCH  83  87
ENDBRANCH  57  80
ENDBRANCH  31  32
ENDBRANCH  24  26
ENDBRANCH  23  24
ENDBRANCH  22  23
ENDBRANCH   1  22
TORSDOF 20
ENDMDL
MODEL 2
REMARK VINA RESULT:     -10.4      5.278      9.833
REMARK SMILES C=CC[N@@H+](CC(=O)Nc1cc(C)on1)CC(=O)OCCOC(=O)c1ccc(-c2c3nc(c(-c4cc(S(=O)(=O)[O-])ccc4F)c4ccc([nH]4)c(-c4cc(S(=O)(=O)[O-])ccc4F)c4nc(c(-c5cc(S(=O)(=O)[O-])ccc5F)c5ccc2[nH]5)C=C4)C=C3)cc1
REMARK SMILES IDX 19 1 18 2 16 3 17 4 15 5 4 6 3 8 2 9 1 10 5 11 6 12 7 13
REMARK SMILES IDX 8 14 9 16 10 17 14 18 11 19 13 20 12 21 20 22 21 23 22 24
REMARK SMILES IDX 23 25 24 26 25 27 86 28 26 29 85 30 27 31 28 32 29 33 79 34
REMARK SMILES IDX 30 35 84 36 78 37 80 38 31 39 83 40 77 41 76 42 32 44 64 45
REMARK SMILES IDX 44 46 63 47 45 48 48 49 62 50 81 51 46 52 47 53 61 55 82 56
REMARK SMILES IDX 49 57 33 58 34 59 42 60 35 61 41 62 43 63 40 64 36 65 37 66
REMARK SMILES IDX 38 67 39 68 65 69 66 70 74 71 67 72 73 73 75 74 72 75 68 76
REMARK SMILES IDX 69 77 70 78 71 79 50 80 51 81 59 82 52 83 58 84 60 85 57 86
REMARK SMILES IDX 53 87 54 88 55 89 56 90
REMARK H PARENT 4 7 8 15 80 43 48 54
REMARK Flexibility Score: inf
ROOT
ATOM      1  C   UNL A   1      36.643  22.373  23.616  1.00  0.00     0.274 C 
ENDROOT
BRANCH   1   2
ATOM      2  O   UNL A   1      36.433  23.667  24.212  1.00  0.00    -0.458 OA
BRANCH   2   3
ATOM      3  C   UNL A   1      35.154  24.069  24.387  1.00  0.00     0.361 C 
ATOM      4  O   UNL A   1      34.778  24.754  25.335  1.00  0.00    -0.245 OA
BRANCH   3   5
ATOM      5  C   UNL A   1      34.181  23.448  23.396  1.00  0.00     0.387 C 
BRANCH   5   6
ATOM      6  N   UNL A   1      32.797  23.190  23.808  1.00  0.00    -0.315 N 
ATOM      7  H   UNL A   1      32.848  23.691  24.694  1.00  0.00     0.349 HD
BRANCH   6   8
ATOM      8  C   UNL A   1      31.734  23.927  23.149  1.00  0.00     0.291 C 
BRANCH   8   9
ATOM      9  C   UNL A   1      30.927  24.841  24.023  1.00  0.00     0.025 C 
ATOM     10  C   UNL A   1      29.902  25.570  23.555  1.00  0.00     0.010 C 
ENDBRANCH   8   9
ENDBRANCH   6   8
BRANCH   6  11
ATOM     11  C   UNL A   1      32.449  21.832  24.291  1.00  0.00     0.364 C 
BRANCH  11  12
ATOM     12  C   UNL A   1      32.775  21.523  25.767  1.00  0.00     0.280 C 
ATOM     13  O   UNL A   1      32.593  22.377  26.646  1.00  0.00    -0.268 OA
ATOM     14  N   UNL A   1      33.338  20.328  26.123  1.00  0.00    -0.303 N 
ATOM     15  H   UNL A   1      33.863  20.319  26.955  1.00  0.00     0.171 HD
BRANCH  14  16
ATOM     16  C   UNL A   1      33.248  19.140  25.438  1.00  0.00     0.176 A 
ATOM     17  C   UNL A   1      34.285  18.596  24.647  1.00  0.00     0.095 A 
ATOM     18  N   UNL A   1      32.152  18.376  25.384  1.00  0.00    -0.062 NA
ATOM     19  C   UNL A   1      33.666  17.596  23.936  1.00  0.00     0.135 A 
ATOM     20  O   UNL A   1      32.411  17.413  24.424  1.00  0.00    -0.360 OA
ATOM     21  C   UNL A   1      34.029  16.802  22.748  1.00  0.00     0.091 C 
ENDBRANCH  14  16
ENDBRANCH  11  12
ENDBRANCH   6  11
ENDBRANCH   5   6
ENDBRANCH   3   5
ENDBRANCH   2   3
ENDBRANCH   1   2
BRANCH   1  22
ATOM     22  C   UNL A   1      36.944  21.320  24.675  1.00  0.00     0.275 C 
BRANCH  22  23
ATOM     23  O   UNL A   1      37.491  21.945  25.846  1.00  0.00    -0.458 OA
BRANCH  23  24
ATOM     24  C   UNL A   1      38.771  21.624  26.127  1.00  0.00     0.338 C 
ATOM     25  O   UNL A   1      39.283  20.513  26.091  1.00  0.00    -0.246 OA
BRANCH  24  26
ATOM     26  C   UNL A   1      39.503  22.837  26.508  1.00  0.00     0.060 A 
ATOM     27  C   UNL A   1      40.539  22.757  27.438  1.00  0.00     0.016 A 
ATOM     28  C   UNL A   1      39.089  24.073  26.011  1.00  0.00     0.016 A 
ATOM     29  C   UNL A   1      41.135  23.924  27.913  1.00  0.00     0.010 A 
ATOM     30  C   UNL A   1      39.725  25.238  26.449  1.00  0.00     0.010 A 
ATOM     31  C   UNL A   1      40.739  25.176  27.420  1.00  0.00    -0.014 A 
BRANCH  31  32
ATOM     32  C   UNL A   1      41.395  26.419  27.902  1.00  0.00     0.031 A 
ATOM     33  C   UNL A   1      40.607  27.456  28.656  1.00  0.00     0.074 A 
ATOM     34  C   UNL A   1      42.700  26.620  27.639  1.00  0.00     0.049 A 
ATOM     35  N   UNL A   1      40.960  28.662  29.019  1.00  0.00    -0.248 NA
ATOM     36  C   UNL A   1      39.238  27.087  29.045  1.00  0.00     0.031 C 
ATOM     37  C   UNL A   1      43.576  25.669  26.951  1.00  0.00     0.029 A 
ATOM     38  N   UNL A   1      43.515  27.691  27.906  1.00  0.00    -0.354 N 
ATOM     39  C   UNL A   1      39.850  29.212  29.653  1.00  0.00     0.074 A 
ATOM     40  C   UNL A   1      38.807  28.207  29.612  1.00  0.00     0.031 C 
ATOM     41  C   UNL A   1      44.806  26.195  26.857  1.00  0.00     0.029 A 
ATOM     42  C   UNL A   1      44.788  27.545  27.408  1.00  0.00     0.049 A 
ATOM     43  H   UNL A   1      43.218  28.485  28.405  1.00  0.00     0.167 HD
ATOM     44  C   UNL A   1      39.720  30.442  30.211  1.00  0.00     0.034 A 
ATOM     45  C   UNL A   1      45.815  28.416  27.356  1.00  0.00     0.034 A 
ATOM     46  C   UNL A   1      40.778  31.424  30.250  1.00  0.00     0.049 A 
ATOM     47  C   UNL A   1      45.625  29.795  27.924  1.00  0.00     0.074 A 
ATOM     48  C   UNL A   1      40.763  32.691  30.812  1.00  0.00     0.029 A 
ATOM     49  N   UNL A   1      42.043  31.255  29.699  1.00  0.00    -0.354 N 
ATOM     50  N   UNL A   1      44.560  30.314  28.491  1.00  0.00    -0.248 NA
ATOM     51  C   UNL A   1      46.772  30.707  27.840  1.00  0.00     0.031 C 
ATOM     52  C   UNL A   1      41.992  33.307  30.547  1.00  0.00     0.029 A 
ATOM     53  C   UNL A   1      42.802  32.403  29.880  1.00  0.00     0.049 A 
ATOM     54  H   UNL A   1      42.356  30.439  29.247  1.00  0.00     0.167 HD
ATOM     55  C   UNL A   1      44.915  31.612  28.843  1.00  0.00     0.074 A 
ATOM     56  C   UNL A   1      46.297  31.788  28.441  1.00  0.00     0.031 C 
ATOM     57  C   UNL A   1      44.169  32.571  29.445  1.00  0.00     0.034 A 
BRANCH  44  58
ATOM     58  C   UNL A   1      38.367  30.816  30.771  1.00  0.00     0.023 A 
ATOM     59  C   UNL A   1      37.385  31.452  29.991  1.00  0.00     0.031 A 
ATOM     60  C   UNL A   1      38.062  30.539  32.115  1.00  0.00     0.131 A 
ATOM     61  C   UNL A   1      36.169  31.838  30.578  1.00  0.00     0.055 A 
ATOM     62  C   UNL A   1      36.823  30.863  32.674  1.00  0.00     0.041 A 
ATOM     63  F   UNL A   1      38.969  29.955  32.915  1.00  0.00    -0.206 F 
ATOM     64  C   UNL A   1      35.872  31.527  31.907  1.00  0.00     0.022 A 
BRANCH  61  65
ATOM     65  S   UNL A   1      35.026  32.867  29.613  1.00  0.00     0.124 S 
ATOM     66  O   UNL A   1      34.409  31.876  28.733  1.00  0.00    -0.237 OA
ATOM     67  O   UNL A   1      34.164  33.433  30.645  1.00  0.00    -0.237 OA
ATOM     68  O   UNL A   1      35.906  33.820  28.942  1.00  0.00    -0.744 OA
ENDBRANCH  61  65
ENDBRANCH  44  58
BRANCH  45  69
ATOM     69  C   UNL A   1      47.088  28.027  26.688  1.00  0.00     0.023 A 
ATOM     70  C   UNL A   1      47.201  28.021  25.291  1.00  0.00     0.031 A 
ATOM     71  C   UNL A   1      48.211  27.644  27.446  1.00  0.00     0.131 A 
ATOM     72  C   UNL A   1      48.403  27.616  24.690  1.00  0.00     0.055 A 
ATOM     73  C   UNL A   1      49.418  27.288  26.846  1.00  0.00     0.041 A 
ATOM     74  F   UNL A   1      48.153  27.635  28.788  1.00  0.00    -0.206 F 
ATOM     75  C   UNL A   1      49.516  27.264  25.459  1.00  0.00     0.022 A 
BRANCH  72  76
ATOM     76  S   UNL A   1      48.472  27.494  22.883  1.00  0.00     0.124 S 
ATOM     77  O   UNL A   1      48.479  26.049  22.681  1.00  0.00    -0.237 OA
ATOM     78  O   UNL A   1      47.254  28.192  22.486  1.00  0.00    -0.237 OA
ATOM     79  O   UNL A   1      49.718  28.178  22.543  1.00  0.00    -0.744 OA
ENDBRANCH  72  76
ENDBRANCH  45  69
BRANCH  57  80
ATOM     80  C   UNL A   1      44.858  33.882  29.725  1.00  0.00     0.023 A 
ATOM     81  C   UNL A   1      44.817  34.943  28.802  1.00  0.00     0.031 A 
ATOM     82  C   UNL A   1      45.599  34.056  30.906  1.00  0.00     0.131 A 
ATOM     83  C   UNL A   1      45.555  36.111  29.050  1.00  0.00     0.055 A 
ATOM     84  C   UNL A   1      46.287  35.240  31.172  1.00  0.00     0.041 A 
ATOM     85  F   UNL A   1      45.672  33.072  31.817  1.00  0.00    -0.206 F 
ATOM     86  C   UNL A   1      46.279  36.269  30.235  1.00  0.00     0.022 A 
BRANCH  83  87
ATOM     87  S   UNL A   1      45.632  37.382  27.760  1.00  0.00     0.124 S 
ATOM     88  O   UNL A   1      44.412  37.120  27.002  1.00  0.00    -0.237 OA
ATOM     89  O   UNL A   1      45.646  38.616  28.538  1.00  0.00    -0.237 OA
ATOM     90  O   UNL A   1      46.876  37.081  27.055  1.00  0.00    -0.744 OA
ENDBRANCH  83  87
ENDBRANCH  57  80
ENDBRANCH  31  32
ENDBRANCH  24  26
ENDBRANCH  23  24
ENDBRANCH  22  23
ENDBRANCH   1  22
TORSDOF 20
ENDMDL
MODEL 3
REMARK VINA RESULT:     -10.3      5.168     10.033
REMARK SMILES C=CC[N@@H+](CC(=O)Nc1cc(C)on1)CC(=O)OCCOC(=O)c1ccc(-c2c3nc(c(-c4cc(S(=O)(=O)[O-])ccc4F)c4ccc([nH]4)c(-c4cc(S(=O)(=O)[O-])ccc4F)c4nc(c(-c5cc(S(=O)(=O)[O-])ccc5F)c5ccc2[nH]5)C=C4)C=C3)cc1
REMARK SMILES IDX 19 1 18 2 16 3 17 4 15 5 4 6 3 8 2 9 1 10 5 11 6 12 7 13
REMARK SMILES IDX 8 14 9 16 10 17 14 18 11 19 13 20 12 21 20 22 21 23 22 24
REMARK SMILES IDX 23 25 24 26 25 27 86 28 26 29 85 30 27 31 28 32 29 33 79 34
REMARK SMILES IDX 30 35 84 36 78 37 80 38 31 39 83 40 77 41 76 42 32 44 64 45
REMARK SMILES IDX 44 46 63 47 45 48 48 49 62 50 81 51 46 52 47 53 61 55 82 56
REMARK SMILES IDX 49 57 33 58 34 59 42 60 35 61 41 62 43 63 40 64 36 65 37 66
REMARK SMILES IDX 38 67 39 68 65 69 66 70 74 71 67 72 73 73 75 74 72 75 68 76
REMARK SMILES IDX 69 77 70 78 71 79 50 80 51 81 59 82 52 83 58 84 60 85 57 86
REMARK SMILES IDX 53 87 54 88 55 89 56 90
REMARK H PARENT 4 7 8 15 80 43 48 54
REMARK Flexibility Score: inf
ROOT
ATOM      1  C   UNL A   1      34.954  20.784  25.411  1.00  0.00     0.274 C 
ENDROOT
BRANCH   1   2
ATOM      2  O   UNL A   1      34.103  19.933  24.619  1.00  0.00    -0.458 OA
BRANCH   2   3
ATOM      3  C   UNL A   1      32.792  20.257  24.553  1.00  0.00     0.361 C 
ATOM      4  O   UNL A   1      31.890  19.545  24.986  1.00  0.00    -0.245 OA
BRANCH   3   5
ATOM      5  C   UNL A   1      32.517  21.508  23.732  1.00  0.00     0.387 C 
BRANCH   5   6
ATOM      6  N   UNL A   1      32.481  22.815  24.397  1.00  0.00    -0.315 N 
ATOM      7  H   UNL A   1      33.068  22.555  25.189  1.00  0.00     0.349 HD
BRANCH   6   8
ATOM      8  C   UNL A   1      33.268  23.896  23.832  1.00  0.00     0.291 C 
BRANCH   8   9
ATOM      9  C   UNL A   1      32.566  24.772  22.836  1.00  0.00     0.025 C 
ATOM     10  C   UNL A   1      33.225  25.587  21.998  1.00  0.00     0.010 C 
ENDBRANCH   8   9
ENDBRANCH   6   8
BRANCH   6  11
ATOM     11  C   UNL A   1      31.240  23.210  25.104  1.00  0.00     0.364 C 
BRANCH  11  12
ATOM     12  C   UNL A   1      31.404  23.707  26.555  1.00  0.00     0.280 C 
ATOM     13  O   UNL A   1      31.685  22.916  27.466  1.00  0.00    -0.268 OA
ATOM     14  N   UNL A   1      31.171  25.017  26.876  1.00  0.00    -0.303 N 
ATOM     15  H   UNL A   1      30.915  25.204  27.808  1.00  0.00     0.171 HD
BRANCH  14  16
ATOM     16  C   UNL A   1      31.257  26.098  26.032  1.00  0.00     0.176 A 
ATOM     17  C   UNL A   1      32.363  26.977  25.974  1.00  0.00     0.095 A 
ATOM     18  N   UNL A   1      30.288  26.492  25.200  1.00  0.00    -0.062 NA
ATOM     19  C   UNL A   1      31.899  28.040  25.239  1.00  0.00     0.135 A 
ATOM     20  O   UNL A   1      30.686  27.725  24.714  1.00  0.00    -0.360 OA
ATOM     21  C   UNL A   1      32.375  29.416  25.008  1.00  0.00     0.091 C 
ENDBRANCH  14  16
ENDBRANCH  11  12
ENDBRANCH   6  11
ENDBRANCH   5   6
ENDBRANCH   3   5
ENDBRANCH   2   3
ENDBRANCH   1   2
BRANCH   1  22
ATOM     22  C   UNL A   1      36.415  20.632  25.008  1.00  0.00     0.275 C 
BRANCH  22  23
ATOM     23  O   UNL A   1      37.226  21.556  25.749  1.00  0.00    -0.458 OA
BRANCH  23  24
ATOM     24  C   UNL A   1      38.521  21.206  25.886  1.00  0.00     0.338 C 
ATOM     25  O   UNL A   1      39.008  20.090  25.749  1.00  0.00    -0.246 OA
BRANCH  24  26
ATOM     26  C   UNL A   1      39.309  22.390  26.246  1.00  0.00     0.060 A 
ATOM     27  C   UNL A   1      40.396  22.261  27.111  1.00  0.00     0.016 A 
ATOM     28  C   UNL A   1      38.902  23.647  25.800  1.00  0.00     0.016 A 
ATOM     29  C   UNL A   1      41.052  23.401  27.571  1.00  0.00     0.010 A 
ATOM     30  C   UNL A   1      39.596  24.784  26.222  1.00  0.00     0.010 A 
ATOM     31  C   UNL A   1      40.663  24.674  27.128  1.00  0.00    -0.014 A 
BRANCH  31  32
ATOM     32  C   UNL A   1      41.381  25.888  27.595  1.00  0.00     0.031 A 
ATOM     33  C   UNL A   1      40.658  26.952  28.375  1.00  0.00     0.074 A 
ATOM     34  C   UNL A   1      42.685  26.039  27.293  1.00  0.00     0.049 A 
ATOM     35  N   UNL A   1      41.069  28.142  28.732  1.00  0.00    -0.248 NA
ATOM     36  C   UNL A   1      39.287  26.635  28.804  1.00  0.00     0.031 C 
ATOM     37  C   UNL A   1      43.502  25.058  26.575  1.00  0.00     0.029 A 
ATOM     38  N   UNL A   1      43.549  27.076  27.539  1.00  0.00    -0.354 N 
ATOM     39  C   UNL A   1      40.001  28.732  29.401  1.00  0.00     0.074 A 
ATOM     40  C   UNL A   1      38.918  27.769  29.388  1.00  0.00     0.031 C 
ATOM     41  C   UNL A   1      44.748  25.536  26.446  1.00  0.00     0.029 A 
ATOM     42  C   UNL A   1      44.800  26.883  27.002  1.00  0.00     0.049 A 
ATOM     43  H   UNL A   1      43.298  27.879  28.049  1.00  0.00     0.167 HD
ATOM     44  C   UNL A   1      39.936  29.963  29.967  1.00  0.00     0.034 A 
ATOM     45  C   UNL A   1      45.859  27.713  26.923  1.00  0.00     0.034 A 
ATOM     46  C   UNL A   1      41.033  30.903  29.977  1.00  0.00     0.049 A 
ATOM     47  C   UNL A   1      45.740  29.096  27.500  1.00  0.00     0.074 A 
ATOM     48  C   UNL A   1      41.084  32.167  30.543  1.00  0.00     0.029 A 
ATOM     49  N   UNL A   1      42.273  30.687  29.388  1.00  0.00    -0.354 N 
ATOM     50  N   UNL A   1      44.713  29.653  28.101  1.00  0.00    -0.248 NA
ATOM     51  C   UNL A   1      46.918  29.963  27.385  1.00  0.00     0.031 C 
ATOM     52  C   UNL A   1      42.327  32.735  30.244  1.00  0.00     0.029 A 
ATOM     53  C   UNL A   1      43.081  31.804  29.550  1.00  0.00     0.049 A 
ATOM     54  H   UNL A   1      42.539  29.862  28.923  1.00  0.00     0.167 HD
ATOM     55  C   UNL A   1      45.130  30.935  28.446  1.00  0.00     0.074 A 
ATOM     56  C   UNL A   1      46.505  31.058  28.004  1.00  0.00     0.031 C 
ATOM     57  C   UNL A   1      44.440  31.920  29.074  1.00  0.00     0.034 A 
BRANCH  44  58
ATOM     58  C   UNL A   1      38.616  30.388  30.568  1.00  0.00     0.023 A 
ATOM     59  C   UNL A   1      37.645  31.082  29.826  1.00  0.00     0.031 A 
ATOM     60  C   UNL A   1      38.332  30.098  31.915  1.00  0.00     0.131 A 
ATOM     61  C   UNL A   1      36.463  31.512  30.451  1.00  0.00     0.055 A 
ATOM     62  C   UNL A   1      37.124  30.467  32.512  1.00  0.00     0.041 A 
ATOM     63  F   UNL A   1      39.231  29.458  32.680  1.00  0.00    -0.206 F 
ATOM     64  C   UNL A   1      36.185  31.188  31.782  1.00  0.00     0.022 A 
BRANCH  61  65
ATOM     65  S   UNL A   1      35.345  32.610  29.536  1.00  0.00     0.124 S 
ATOM     66  O   UNL A   1      34.932  31.752  28.426  1.00  0.00    -0.237 OA
ATOM     67  O   UNL A   1      34.319  32.912  30.527  1.00  0.00    -0.237 OA
ATOM     68  O   UNL A   1      36.199  33.732  29.158  1.00  0.00    -0.744 OA
ENDBRANCH  61  65
ENDBRANCH  44  58
BRANCH  45  69
ATOM     69  C   UNL A   1      47.094  27.278  26.215  1.00  0.00     0.023 A 
ATOM     70  C   UNL A   1      48.114  26.593  26.891  1.00  0.00     0.031 A 
ATOM     71  C   UNL A   1      47.275  27.554  24.847  1.00  0.00     0.131 A 
ATOM     72  C   UNL A   1      49.282  26.227  26.204  1.00  0.00     0.055 A 
ATOM     73  C   UNL A   1      48.417  27.147  24.158  1.00  0.00     0.041 A 
ATOM     74  F   UNL A   1      46.326  28.206  24.154  1.00  0.00    -0.206 F 
ATOM     75  C   UNL A   1      49.433  26.486  24.839  1.00  0.00     0.022 A 
BRANCH  72  76
ATOM     76  S   UNL A   1      50.634  25.461  27.138  1.00  0.00     0.124 S 
ATOM     77  O   UNL A   1      49.925  24.449  27.914  1.00  0.00    -0.237 OA
ATOM     78  O   UNL A   1      51.495  24.963  26.070  1.00  0.00    -0.237 OA
ATOM     79  O   UNL A   1      51.184  26.570  27.913  1.00  0.00    -0.744 OA
ENDBRANCH  72  76
ENDBRANCH  45  69
BRANCH  57  80
ATOM     80  C   UNL A   1      45.188  33.202  29.337  1.00  0.00     0.023 A 
ATOM     81  C   UNL A   1      45.158  34.270  28.422  1.00  0.00     0.031 A 
ATOM     82  C   UNL A   1      45.974  33.339  30.494  1.00  0.00     0.131 A 
ATOM     83  C   UNL A   1      45.947  35.406  28.651  1.00  0.00     0.055 A 
ATOM     84  C   UNL A   1      46.716  34.494  30.743  1.00  0.00     0.041 A 
ATOM     85  F   UNL A   1      46.039  32.348  31.397  1.00  0.00    -0.206 F 
ATOM     86  C   UNL A   1      46.717  35.529  29.812  1.00  0.00     0.022 A 
BRANCH  83  87
ATOM     87  S   UNL A   1      46.031  36.682  27.366  1.00  0.00     0.124 S 
ATOM     88  O   UNL A   1      46.003  35.884  26.143  1.00  0.00    -0.237 OA
ATOM     89  O   UNL A   1      44.837  37.476  27.636  1.00  0.00    -0.237 OA
ATOM     90  O   UNL A   1      47.298  37.358  27.635  1.00  0.00    -0.744 OA
ENDBRANCH  83  87
ENDBRANCH  57  80
ENDBRANCH  31  32
ENDBRANCH  24  26
ENDBRANCH  23  24
ENDBRANCH  22  23
ENDBRANCH   1  22
TORSDOF 20
ENDMDL
