MODEL 1
REMARK VINA RESULT:     -10.0      0.000      0.000
REMARK SMILES NS(=O)(=O)c1ccc(-n2nc(NC(=O)NCCCCCCCCCCC(=O)OCCOC(=O)c3ccc(-c4c5nc(c(-c6cc(S(=O)(=O)[O-])ccc6F)c6ccc([nH]6)c(-c6cc(S(=O)(=O)[O-])ccc6F)c6nc(c(-c7cc(S(=O)(=O)[O-])ccc7F)c7ccc4[nH]7)C=C6)C=C5)cc3)cc2-c2ccccc2)cc1
REMARK SMILES IDX 23 1 22 2 21 3 20 4 19 5 18 6 17 7 16 8 15 9 12 10 13 11
REMARK SMILES IDX 14 13 11 15 9 16 10 17 98 18 97 19 8 20 5 21 6 22 106 23
REMARK SMILES IDX 7 24 105 25 2 26 3 27 4 28 1 29 99 32 100 33 104 34 101 35
REMARK SMILES IDX 103 36 102 37 24 38 25 39 26 40 27 41 28 42 29 43 30 44
REMARK SMILES IDX 31 45 32 46 33 47 34 48 35 49 96 50 36 51 95 52 37 53 38 54
REMARK SMILES IDX 39 55 89 56 40 57 94 58 88 59 90 60 41 61 93 62 87 63 86 64
REMARK SMILES IDX 42 66 74 67 54 68 73 69 55 70 58 71 72 72 91 73 56 74 57 75
REMARK SMILES IDX 71 77 92 78 59 79 43 80 44 81 52 82 45 83 51 84 53 85 50 86
REMARK SMILES IDX 46 87 47 88 48 89 49 90 75 91 76 92 84 93 77 94 83 95 85 96
REMARK SMILES IDX 82 97 78 98 79 99 80 100 81 101 60 102 61 103 69 104 62 105
REMARK SMILES IDX 68 106 70 107 67 108 63 109 64 110 65 111 66 112
REMARK H PARENT 12 12 15 14 1 30 1 31 90 65 58 76
REMARK Flexibility Score: inf
ROOT
ATOM      1  C   UNL A   1      34.456  24.063  22.974  1.00  0.00     0.001 C 
ENDROOT
BRANCH   1   2
ATOM      2  C   UNL A   1      33.236  23.835  22.082  1.00  0.00     0.000 C 
BRANCH   2   3
ATOM      3  C   UNL A   1      32.111  24.801  22.459  1.00  0.00     0.000 C 
BRANCH   3   4
ATOM      4  C   UNL A   1      32.165  26.068  21.601  1.00  0.00     0.000 C 
BRANCH   4   5
ATOM      5  C   UNL A   1      31.535  27.272  22.314  1.00  0.00     0.000 C 
BRANCH   5   6
ATOM      6  C   UNL A   1      30.193  26.928  22.975  1.00  0.00     0.002 C 
BRANCH   6   7
ATOM      7  C   UNL A   1      29.251  28.111  23.032  1.00  0.00     0.021 C 
BRANCH   7   8
ATOM      8  C   UNL A   1      29.909  29.421  22.678  1.00  0.00     0.117 C 
BRANCH   8   9
ATOM      9  N   UNL A   1      29.068  30.584  22.611  1.00  0.00    -0.338 N 
ATOM     10  N   UNL A   1      29.577  31.523  24.741  1.00  0.00    -0.291 N 
ATOM     11  C   UNL A   1      28.888  31.523  23.570  1.00  0.00     0.320 C 
ATOM     12  H   UNL A   1      29.163  32.066  25.450  1.00  0.00     0.173 HD
ATOM     13  O   UNL A   1      27.968  32.336  23.422  1.00  0.00    -0.248 OA
ATOM     14  H   UNL A   1      28.565  30.713  21.774  1.00  0.00     0.165 HD
BRANCH  10  15
ATOM     15  C   UNL A   1      30.753  30.902  25.117  1.00  0.00     0.157 A 
ATOM     16  N   UNL A   1      32.012  29.306  25.720  1.00  0.00    -0.231 N 
ATOM     17  N   UNL A   1      31.169  29.690  24.731  1.00  0.00    -0.149 NA
ATOM     18  C   UNL A   1      32.543  30.426  26.350  1.00  0.00     0.076 A 
ATOM     19  C   UNL A   1      31.704  31.469  25.994  1.00  0.00     0.078 A 
BRANCH  16  20
ATOM     20  C   UNL A   1      32.261  27.924  25.989  1.00  0.00     0.065 A 
ATOM     21  C   UNL A   1      32.555  25.154  26.233  1.00  0.00     0.082 A 
ATOM     22  C   UNL A   1      33.606  25.914  25.711  1.00  0.00     0.024 A 
ATOM     23  C   UNL A   1      31.399  25.776  26.712  1.00  0.00     0.024 A 
ATOM     24  C   UNL A   1      33.455  27.301  25.579  1.00  0.00     0.030 A 
ATOM     25  C   UNL A   1      31.266  27.167  26.620  1.00  0.00     0.030 A 
BRANCH  21  26
ATOM     26  S   UNL A   1      32.680  23.385  26.224  1.00  0.00     0.238 S 
ATOM     27  O   UNL A   1      34.050  23.004  26.297  1.00  0.00    -0.207 OA
ATOM     28  O   UNL A   1      31.781  22.888  25.181  1.00  0.00    -0.207 OA
BRANCH  26  29
ATOM     29  N   UNL A   1      31.999  22.951  27.689  1.00  0.00    -0.225 NA
ATOM     30  H   UNL A   1      32.462  22.115  28.045  1.00  0.00     0.137 HD
ATOM     31  H   UNL A   1      31.006  22.762  27.560  1.00  0.00     0.137 HD
ENDBRANCH  26  29
ENDBRANCH  21  26
ENDBRANCH  16  20
BRANCH  18  32
ATOM     32  C   UNL A   1      33.784  30.410  27.113  1.00  0.00     0.000 A 
ATOM     33  C   UNL A   1      34.396  29.175  27.386  1.00  0.00     0.010 A 
ATOM     34  C   UNL A   1      34.376  31.584  27.582  1.00  0.00     0.010 A 
ATOM     35  C   UNL A   1      35.554  29.105  28.151  1.00  0.00     0.001 A 
ATOM     36  C   UNL A   1      35.551  31.514  28.335  1.00  0.00     0.001 A 
ATOM     37  C   UNL A   1      36.132  30.277  28.624  1.00  0.00     0.000 A 
ENDBRANCH  18  32
ENDBRANCH  10  15
ENDBRANCH   8   9
ENDBRANCH   7   8
ENDBRANCH   6   7
ENDBRANCH   5   6
ENDBRANCH   4   5
ENDBRANCH   3   4
ENDBRANCH   2   3
ENDBRANCH   1   2
BRANCH   1  38
ATOM     38  C   UNL A   1      35.429  22.896  22.831  1.00  0.00     0.012 C 
BRANCH  38  39
ATOM     39  C   UNL A   1      36.650  22.947  23.761  1.00  0.00     0.123 C 
BRANCH  39  40
ATOM     40  C   UNL A   1      36.835  21.863  24.814  1.00  0.00     0.305 C 
ATOM     41  O   UNL A   1      36.232  20.797  24.767  1.00  0.00    -0.252 OA
BRANCH  40  42
ATOM     42  O   UNL A   1      37.749  22.181  25.765  1.00  0.00    -0.462 OA
BRANCH  42  43
ATOM     43  C   UNL A   1      38.042  23.571  26.010  1.00  0.00     0.274 C 
BRANCH  43  44
ATOM     44  C   UNL A   1      39.198  23.719  26.985  1.00  0.00     0.275 C 
BRANCH  44  45
ATOM     45  O   UNL A   1      38.871  24.747  27.909  1.00  0.00    -0.458 OA
BRANCH  45  46
ATOM     46  C   UNL A   1      39.872  25.634  28.097  1.00  0.00     0.338 C 
ATOM     47  O   UNL A   1      41.067  25.419  28.030  1.00  0.00    -0.246 OA
BRANCH  46  48
ATOM     48  C   UNL A   1      39.337  26.837  28.692  1.00  0.00     0.060 A 
ATOM     49  C   UNL A   1      39.249  28.018  27.944  1.00  0.00     0.016 A 
ATOM     50  C   UNL A   1      39.535  26.861  30.058  1.00  0.00     0.016 A 
ATOM     51  C   UNL A   1      39.807  29.161  28.521  1.00  0.00     0.010 A 
ATOM     52  C   UNL A   1      39.699  28.083  30.613  1.00  0.00     0.010 A 
ATOM     53  C   UNL A   1      40.300  29.072  29.836  1.00  0.00    -0.014 A 
BRANCH  53  54
ATOM     54  C   UNL A   1      40.773  30.201  30.673  1.00  0.00     0.031 A 
ATOM     55  C   UNL A   1      39.493  30.921  31.103  1.00  0.00     0.074 A 
ATOM     56  C   UNL A   1      42.080  30.389  31.101  1.00  0.00     0.049 A 
ATOM     57  N   UNL A   1      38.942  31.900  30.442  1.00  0.00    -0.248 NA
ATOM     58  C   UNL A   1      38.478  30.284  32.003  1.00  0.00     0.031 C 
ATOM     59  C   UNL A   1      43.362  29.724  30.737  1.00  0.00     0.029 A 
ATOM     60  N   UNL A   1      42.577  31.328  32.007  1.00  0.00    -0.354 N 
ATOM     61  C   UNL A   1      37.797  32.234  31.169  1.00  0.00     0.074 A 
ATOM     62  C   UNL A   1      37.387  31.030  31.799  1.00  0.00     0.031 C 
ATOM     63  C   UNL A   1      44.381  30.090  31.581  1.00  0.00     0.029 A 
ATOM     64  C   UNL A   1      43.912  31.101  32.523  1.00  0.00     0.049 A 
ATOM     65  H   UNL A   1      42.045  32.107  32.284  1.00  0.00     0.167 HD
ATOM     66  C   UNL A   1      37.635  33.519  31.600  1.00  0.00     0.034 A 
ATOM     67  C   UNL A   1      44.660  31.901  33.400  1.00  0.00     0.034 A 
ATOM     68  C   UNL A   1      38.523  34.366  30.833  1.00  0.00     0.049 A 
ATOM     69  C   UNL A   1      43.962  33.215  33.365  1.00  0.00     0.074 A 
ATOM     70  C   UNL A   1      38.654  34.728  29.511  1.00  0.00     0.029 A 
ATOM     71  N   UNL A   1      39.765  34.481  31.402  1.00  0.00    -0.354 N 
ATOM     72  N   UNL A   1      43.964  33.953  32.288  1.00  0.00    -0.248 NA
ATOM     73  C   UNL A   1      42.796  33.332  34.228  1.00  0.00     0.031 C 
ATOM     74  C   UNL A   1      40.062  34.736  29.259  1.00  0.00     0.029 A 
ATOM     75  C   UNL A   1      40.747  34.562  30.460  1.00  0.00     0.049 A 
ATOM     76  H   UNL A   1      39.928  34.501  32.372  1.00  0.00     0.167 HD
ATOM     77  C   UNL A   1      42.630  34.261  32.078  1.00  0.00     0.074 A 
ATOM     78  C   UNL A   1      41.957  33.869  33.334  1.00  0.00     0.031 C 
ATOM     79  C   UNL A   1      42.150  34.436  30.804  1.00  0.00     0.034 A 
BRANCH  66  80
ATOM     80  C   UNL A   1      37.223  33.918  33.021  1.00  0.00     0.023 A 
ATOM     81  C   UNL A   1      37.980  33.347  34.064  1.00  0.00     0.031 A 
ATOM     82  C   UNL A   1      36.006  34.521  33.428  1.00  0.00     0.131 A 
ATOM     83  C   UNL A   1      37.494  33.294  35.383  1.00  0.00     0.055 A 
ATOM     84  C   UNL A   1      35.553  34.520  34.754  1.00  0.00     0.041 A 
ATOM     85  F   UNL A   1      35.138  35.071  32.571  1.00  0.00    -0.206 F 
ATOM     86  C   UNL A   1      36.285  33.883  35.739  1.00  0.00     0.022 A 
BRANCH  83  87
ATOM     87  S   UNL A   1      38.391  32.275  36.581  1.00  0.00     0.124 S 
ATOM     88  O   UNL A   1      38.044  32.925  37.838  1.00  0.00    -0.237 OA
ATOM     89  O   UNL A   1      37.804  30.959  36.350  1.00  0.00    -0.237 OA
ATOM     90  O   UNL A   1      39.786  32.415  36.168  1.00  0.00    -0.744 OA
ENDBRANCH  83  87
ENDBRANCH  66  80
BRANCH  67  91
ATOM     91  C   UNL A   1      45.465  31.532  34.677  1.00  0.00     0.023 A 
ATOM     92  C   UNL A   1      45.082  30.656  35.772  1.00  0.00     0.031 A 
ATOM     93  C   UNL A   1      46.826  31.883  34.662  1.00  0.00     0.131 A 
ATOM     94  C   UNL A   1      46.048  30.213  36.751  1.00  0.00     0.055 A 
ATOM     95  C   UNL A   1      47.763  31.409  35.591  1.00  0.00     0.041 A 
ATOM     96  F   UNL A   1      47.315  32.651  33.680  1.00  0.00    -0.206 F 
ATOM     97  C   UNL A   1      47.388  30.572  36.628  1.00  0.00     0.022 A 
BRANCH  94  98
ATOM     98  S   UNL A   1      45.656  29.175  38.250  1.00  0.00     0.124 S 
ATOM     99  O   UNL A   1      44.559  29.908  38.871  1.00  0.00    -0.237 OA
ATOM    100  O   UNL A   1      45.329  27.873  37.682  1.00  0.00    -0.237 OA
ATOM    101  O   UNL A   1      46.901  29.196  39.024  1.00  0.00    -0.744 OA
ENDBRANCH  94  98
ENDBRANCH  67  91
BRANCH  79 102
ATOM    102  C   UNL A   1      43.149  34.525  29.660  1.00  0.00     0.023 A 
ATOM    103  C   UNL A   1      43.564  33.483  28.787  1.00  0.00     0.031 A 
ATOM    104  C   UNL A   1      43.639  35.813  29.406  1.00  0.00     0.131 A 
ATOM    105  C   UNL A   1      44.475  33.765  27.739  1.00  0.00     0.055 A 
ATOM    106  C   UNL A   1      44.490  36.093  28.342  1.00  0.00     0.041 A 
ATOM    107  F   UNL A   1      43.259  36.842  30.180  1.00  0.00    -0.206 F 
ATOM    108  C   UNL A   1      44.924  35.069  27.512  1.00  0.00     0.022 A 
BRANCH 105 109
ATOM    109  S   UNL A   1      45.172  32.430  26.695  1.00  0.00     0.124 S 
ATOM    110  O   UNL A   1      44.210  32.332  25.603  1.00  0.00    -0.237 OA
ATOM    111  O   UNL A   1      46.488  32.952  26.336  1.00  0.00    -0.237 OA
ATOM    112  O   UNL A   1      45.201  31.272  27.590  1.00  0.00    -0.744 OA
ENDBRANCH 105 109
ENDBRANCH  79 102
ENDBRANCH  53  54
ENDBRANCH  46  48
ENDBRANCH  45  46
ENDBRANCH  44  45
ENDBRANCH  43  44
ENDBRANCH  42  43
ENDBRANCH  40  42
ENDBRANCH  39  40
ENDBRANCH  38  39
ENDBRANCH   1  38
TORSDOF 29
ENDMDL
MODEL 2
REMARK VINA RESULT:      -9.8      2.005      2.333
REMARK SMILES NS(=O)(=O)c1ccc(-n2nc(NC(=O)NCCCCCCCCCCC(=O)OCCOC(=O)c3ccc(-c4c5nc(c(-c6cc(S(=O)(=O)[O-])ccc6F)c6ccc([nH]6)c(-c6cc(S(=O)(=O)[O-])ccc6F)c6nc(c(-c7cc(S(=O)(=O)[O-])ccc7F)c7ccc4[nH]7)C=C6)C=C5)cc3)cc2-c2ccccc2)cc1
REMARK SMILES IDX 23 1 22 2 21 3 20 4 19 5 18 6 17 7 16 8 15 9 12 10 13 11
REMARK SMILES IDX 14 13 11 15 9 16 10 17 98 18 97 19 8 20 5 21 6 22 106 23
REMARK SMILES IDX 7 24 105 25 2 26 3 27 4 28 1 29 99 32 100 33 104 34 101 35
REMARK SMILES IDX 103 36 102 37 24 38 25 39 26 40 27 41 28 42 29 43 30 44
REMARK SMILES IDX 31 45 32 46 33 47 34 48 35 49 96 50 36 51 95 52 37 53 38 54
REMARK SMILES IDX 39 55 89 56 40 57 94 58 88 59 90 60 41 61 93 62 87 63 86 64
REMARK SMILES IDX 42 66 74 67 54 68 73 69 55 70 58 71 72 72 91 73 56 74 57 75
REMARK SMILES IDX 71 77 92 78 59 79 43 80 44 81 52 82 45 83 51 84 53 85 50 86
REMARK SMILES IDX 46 87 47 88 48 89 49 90 75 91 76 92 84 93 77 94 83 95 85 96
REMARK SMILES IDX 82 97 78 98 79 99 80 100 81 101 60 102 61 103 69 104 62 105
REMARK SMILES IDX 68 106 70 107 67 108 63 109 64 110 65 111 66 112
REMARK H PARENT 12 12 15 14 1 30 1 31 90 65 58 76
REMARK Flexibility Score: inf
ROOT
ATOM      1  C   UNL A   1      34.868  23.876  23.018  1.00  0.00     0.001 C 
ENDROOT
BRANCH   1   2
ATOM      2  C   UNL A   1      33.733  23.228  22.226  1.00  0.00     0.000 C 
BRANCH   2   3
ATOM      3  C   UNL A   1      32.433  24.009  22.422  1.00  0.00     0.000 C 
BRANCH   3   4
ATOM      4  C   UNL A   1      32.425  25.284  21.574  1.00  0.00     0.000 C 
BRANCH   4   5
ATOM      5  C   UNL A   1      31.984  26.511  22.384  1.00  0.00     0.000 C 
BRANCH   5   6
ATOM      6  C   UNL A   1      30.667  26.276  23.136  1.00  0.00     0.002 C 
BRANCH   6   7
ATOM      7  C   UNL A   1      29.678  27.406  22.948  1.00  0.00     0.021 C 
BRANCH   7   8
ATOM      8  C   UNL A   1      30.326  28.718  22.585  1.00  0.00     0.117 C 
BRANCH   8   9
ATOM      9  N   UNL A   1      29.459  29.841  22.356  1.00  0.00    -0.338 N 
ATOM     10  N   UNL A   1      29.834  31.011  24.397  1.00  0.00    -0.291 N 
ATOM     11  C   UNL A   1      29.205  30.868  23.201  1.00  0.00     0.320 C 
ATOM     12  H   UNL A   1      29.370  31.611  25.025  1.00  0.00     0.173 HD
ATOM     13  O   UNL A   1      28.273  31.631  22.925  1.00  0.00    -0.248 OA
ATOM     14  H   UNL A   1      28.996  29.866  21.486  1.00  0.00     0.165 HD
BRANCH  10  15
ATOM     15  C   UNL A   1      31.005  30.470  24.893  1.00  0.00     0.157 A 
ATOM     16  N   UNL A   1      32.295  28.966  25.646  1.00  0.00    -0.231 N 
ATOM     17  N   UNL A   1      31.524  29.278  24.577  1.00  0.00    -0.149 NA
ATOM     18  C   UNL A   1      32.702  30.129  26.292  1.00  0.00     0.076 A 
ATOM     19  C   UNL A   1      31.839  31.112  25.835  1.00  0.00     0.078 A 
BRANCH  16  20
ATOM     20  C   UNL A   1      32.600  27.607  25.972  1.00  0.00     0.065 A 
ATOM     21  C   UNL A   1      32.961  24.862  26.365  1.00  0.00     0.082 A 
ATOM     22  C   UNL A   1      33.912  25.584  25.637  1.00  0.00     0.024 A 
ATOM     23  C   UNL A   1      31.883  25.516  26.969  1.00  0.00     0.024 A 
ATOM     24  C   UNL A   1      33.726  26.958  25.431  1.00  0.00     0.030 A 
ATOM     25  C   UNL A   1      31.721  26.896  26.799  1.00  0.00     0.030 A 
BRANCH  21  26
ATOM     26  S   UNL A   1      33.105  23.098  26.463  1.00  0.00     0.238 S 
ATOM     27  O   UNL A   1      34.448  22.746  26.782  1.00  0.00    -0.207 OA
ATOM     28  O   UNL A   1      32.398  22.536  25.312  1.00  0.00    -0.207 OA
BRANCH  26  29
ATOM     29  N   UNL A   1      32.194  22.719  27.815  1.00  0.00    -0.225 NA
ATOM     30  H   UNL A   1      31.233  23.033  27.676  1.00  0.00     0.137 HD
ATOM     31  H   UNL A   1      32.589  23.183  28.633  1.00  0.00     0.137 HD
ENDBRANCH  26  29
ENDBRANCH  21  26
ENDBRANCH  16  20
BRANCH  18  32
ATOM     32  C   UNL A   1      33.868  30.203  27.162  1.00  0.00     0.000 A 
ATOM     33  C   UNL A   1      34.024  31.326  27.992  1.00  0.00     0.010 A 
ATOM     34  C   UNL A   1      34.832  29.195  27.188  1.00  0.00     0.010 A 
ATOM     35  C   UNL A   1      35.144  31.464  28.803  1.00  0.00     0.001 A 
ATOM     36  C   UNL A   1      35.949  29.326  28.018  1.00  0.00     0.001 A 
ATOM     37  C   UNL A   1      36.106  30.461  28.816  1.00  0.00     0.000 A 
ENDBRANCH  18  32
ENDBRANCH  10  15
ENDBRANCH   8   9
ENDBRANCH   7   8
ENDBRANCH   6   7
ENDBRANCH   5   6
ENDBRANCH   4   5
ENDBRANCH   3   4
ENDBRANCH   2   3
ENDBRANCH   1   2
BRANCH   1  38
ATOM     38  C   UNL A   1      35.987  22.862  23.244  1.00  0.00     0.012 C 
BRANCH  38  39
ATOM     39  C   UNL A   1      36.848  23.108  24.491  1.00  0.00     0.123 C 
BRANCH  39  40
ATOM     40  C   UNL A   1      37.611  21.947  25.115  1.00  0.00     0.305 C 
ATOM     41  O   UNL A   1      37.256  20.782  24.976  1.00  0.00    -0.252 OA
BRANCH  40  42
ATOM     42  O   UNL A   1      38.723  22.330  25.792  1.00  0.00    -0.462 OA
BRANCH  42  43
ATOM     43  C   UNL A   1      38.649  23.485  26.652  1.00  0.00     0.274 C 
BRANCH  43  44
ATOM     44  C   UNL A   1      39.998  24.180  26.745  1.00  0.00     0.275 C 
BRANCH  44  45
ATOM     45  O   UNL A   1      39.770  25.570  26.927  1.00  0.00    -0.458 OA
BRANCH  45  46
ATOM     46  C   UNL A   1      39.926  25.973  28.207  1.00  0.00     0.338 C 
ATOM     47  O   UNL A   1      39.184  25.749  29.145  1.00  0.00    -0.246 OA
BRANCH  46  48
ATOM     48  C   UNL A   1      40.962  26.978  28.267  1.00  0.00     0.060 A 
ATOM     49  C   UNL A   1      42.025  26.845  29.168  1.00  0.00     0.016 A 
ATOM     50  C   UNL A   1      40.492  28.218  27.882  1.00  0.00     0.016 A 
ATOM     51  C   UNL A   1      42.282  27.945  29.991  1.00  0.00     0.010 A 
ATOM     52  C   UNL A   1      41.076  29.284  28.473  1.00  0.00     0.010 A 
ATOM     53  C   UNL A   1      41.548  29.126  29.776  1.00  0.00    -0.014 A 
BRANCH  53  54
ATOM     54  C   UNL A   1      41.784  30.437  30.426  1.00  0.00     0.031 A 
ATOM     55  C   UNL A   1      40.429  30.813  31.031  1.00  0.00     0.074 A 
ATOM     56  C   UNL A   1      43.024  31.038  30.591  1.00  0.00     0.049 A 
ATOM     57  N   UNL A   1      39.515  31.506  30.412  1.00  0.00    -0.248 NA
ATOM     58  C   UNL A   1      39.804  30.032  32.146  1.00  0.00     0.031 C 
ATOM     59  C   UNL A   1      44.374  30.724  30.047  1.00  0.00     0.029 A 
ATOM     60  N   UNL A   1      43.350  32.184  31.319  1.00  0.00    -0.354 N 
ATOM     61  C   UNL A   1      38.449  31.591  31.311  1.00  0.00     0.074 A 
ATOM     62  C   UNL A   1      38.522  30.407  32.093  1.00  0.00     0.031 C 
ATOM     63  C   UNL A   1      45.353  31.464  30.659  1.00  0.00     0.029 A 
ATOM     64  C   UNL A   1      44.754  32.410  31.595  1.00  0.00     0.049 A 
ATOM     65  H   UNL A   1      42.658  32.810  31.630  1.00  0.00     0.167 HD
ATOM     66  C   UNL A   1      37.978  32.820  31.670  1.00  0.00     0.034 A 
ATOM     67  C   UNL A   1      45.354  33.492  32.258  1.00  0.00     0.034 A 
ATOM     68  C   UNL A   1      38.441  33.782  30.693  1.00  0.00     0.049 A 
ATOM     69  C   UNL A   1      44.297  34.539  32.256  1.00  0.00     0.074 A 
ATOM     70  C   UNL A   1      38.251  33.999  29.346  1.00  0.00     0.029 A 
ATOM     71  N   UNL A   1      39.663  34.313  31.013  1.00  0.00    -0.354 N 
ATOM     72  N   UNL A   1      43.911  35.109  31.146  1.00  0.00    -0.248 NA
ATOM     73  C   UNL A   1      43.298  34.429  33.309  1.00  0.00     0.031 C 
ATOM     74  C   UNL A   1      39.535  34.373  28.839  1.00  0.00     0.029 A 
ATOM     75  C   UNL A   1      40.418  34.551  29.902  1.00  0.00     0.049 A 
ATOM     76  H   UNL A   1      39.960  34.499  31.932  1.00  0.00     0.167 HD
ATOM     77  C   UNL A   1      42.530  34.998  31.163  1.00  0.00     0.074 A 
ATOM     78  C   UNL A   1      42.209  34.591  32.547  1.00  0.00     0.031 C 
ATOM     79  C   UNL A   1      41.829  34.870  29.990  1.00  0.00     0.034 A 
BRANCH  66  80
ATOM     80  C   UNL A   1      37.689  33.260  33.110  1.00  0.00     0.023 A 
ATOM     81  C   UNL A   1      38.406  32.580  34.114  1.00  0.00     0.031 A 
ATOM     82  C   UNL A   1      36.588  34.022  33.573  1.00  0.00     0.131 A 
ATOM     83  C   UNL A   1      37.977  32.583  35.454  1.00  0.00     0.055 A 
ATOM     84  C   UNL A   1      36.199  34.072  34.919  1.00  0.00     0.041 A 
ATOM     85  F   UNL A   1      35.767  34.695  32.759  1.00  0.00    -0.206 F 
ATOM     86  C   UNL A   1      36.879  33.330  35.868  1.00  0.00     0.022 A 
BRANCH  83  87
ATOM     87  S   UNL A   1      38.776  31.437  36.607  1.00  0.00     0.124 S 
ATOM     88  O   UNL A   1      39.658  30.693  35.718  1.00  0.00    -0.237 OA
ATOM     89  O   UNL A   1      39.422  32.356  37.538  1.00  0.00    -0.237 OA
ATOM     90  O   UNL A   1      37.656  30.677  37.159  1.00  0.00    -0.744 OA
ENDBRANCH  83  87
ENDBRANCH  66  80
BRANCH  67  91
ATOM     91  C   UNL A   1      46.420  33.527  33.389  1.00  0.00     0.023 A 
ATOM     92  C   UNL A   1      47.564  34.412  33.531  1.00  0.00     0.031 A 
ATOM     93  C   UNL A   1      46.110  32.788  34.543  1.00  0.00     0.131 A 
ATOM     94  C   UNL A   1      48.303  34.489  34.771  1.00  0.00     0.055 A 
ATOM     95  C   UNL A   1      46.806  32.905  35.754  1.00  0.00     0.041 A 
ATOM     96  F   UNL A   1      45.051  31.967  34.555  1.00  0.00    -0.206 F 
ATOM     97  C   UNL A   1      47.892  33.754  35.879  1.00  0.00     0.022 A 
BRANCH  94  98
ATOM     98  S   UNL A   1      49.842  35.507  35.039  1.00  0.00     0.124 S 
ATOM     99  O   UNL A   1      49.322  36.719  35.661  1.00  0.00    -0.237 OA
ATOM    100  O   UNL A   1      50.671  34.650  35.877  1.00  0.00    -0.237 OA
ATOM    101  O   UNL A   1      50.367  35.709  33.685  1.00  0.00    -0.744 OA
ENDBRANCH  94  98
ENDBRANCH  67  91
BRANCH  79 102
ATOM    102  C   UNL A   1      42.566  35.095  28.679  1.00  0.00     0.023 A 
ATOM    103  C   UNL A   1      43.302  34.144  27.922  1.00  0.00     0.031 A 
ATOM    104  C   UNL A   1      42.416  36.377  28.132  1.00  0.00     0.131 A 
ATOM    105  C   UNL A   1      43.886  34.526  26.688  1.00  0.00     0.055 A 
ATOM    106  C   UNL A   1      42.947  36.730  26.896  1.00  0.00     0.041 A 
ATOM    107  F   UNL A   1      41.707  37.310  28.789  1.00  0.00    -0.206 F 
ATOM    108  C   UNL A   1      43.695  35.812  26.173  1.00  0.00     0.022 A 
BRANCH 105 109
ATOM    109  S   UNL A   1      44.984  33.391  25.760  1.00  0.00     0.124 S 
ATOM    110  O   UNL A   1      44.130  32.928  24.670  1.00  0.00    -0.237 OA
ATOM    111  O   UNL A   1      46.094  34.256  25.373  1.00  0.00    -0.237 OA
ATOM    112  O   UNL A   1      45.329  32.363  26.744  1.00  0.00    -0.744 OA
ENDBRANCH 105 109
ENDBRANCH  79 102
ENDBRANCH  53  54
ENDBRANCH  46  48
ENDBRANCH  45  46
ENDBRANCH  44  45
ENDBRANCH  43  44
ENDBRANCH  42  43
ENDBRANCH  40  42
ENDBRANCH  39  40
ENDBRANCH  38  39
ENDBRANCH   1  38
TORSDOF 29
ENDMDL
MODEL 3
REMARK VINA RESULT:      -8.9      2.805      6.786
REMARK SMILES NS(=O)(=O)c1ccc(-n2nc(NC(=O)NCCCCCCCCCCC(=O)OCCOC(=O)c3ccc(-c4c5nc(c(-c6cc(S(=O)(=O)[O-])ccc6F)c6ccc([nH]6)c(-c6cc(S(=O)(=O)[O-])ccc6F)c6nc(c(-c7cc(S(=O)(=O)[O-])ccc7F)c7ccc4[nH]7)C=C6)C=C5)cc3)cc2-c2ccccc2)cc1
REMARK SMILES IDX 23 1 22 2 21 3 20 4 19 5 18 6 17 7 16 8 15 9 12 10 13 11
REMARK SMILES IDX 14 13 11 15 9 16 10 17 98 18 97 19 8 20 5 21 6 22 106 23
REMARK SMILES IDX 7 24 105 25 2 26 3 27 4 28 1 29 99 32 100 33 104 34 101 35
REMARK SMILES IDX 103 36 102 37 24 38 25 39 26 40 27 41 28 42 29 43 30 44
REMARK SMILES IDX 31 45 32 46 33 47 34 48 35 49 96 50 36 51 95 52 37 53 38 54
REMARK SMILES IDX 39 55 89 56 40 57 94 58 88 59 90 60 41 61 93 62 87 63 86 64
REMARK SMILES IDX 42 66 74 67 54 68 73 69 55 70 58 71 72 72 91 73 56 74 57 75
REMARK SMILES IDX 71 77 92 78 59 79 43 80 44 81 52 82 45 83 51 84 53 85 50 86
REMARK SMILES IDX 46 87 47 88 48 89 49 90 75 91 76 92 84 93 77 94 83 95 85 96
REMARK SMILES IDX 82 97 78 98 79 99 80 100 81 101 60 102 61 103 69 104 62 105
REMARK SMILES IDX 68 106 70 107 67 108 63 109 64 110 65 111 66 112
REMARK H PARENT 12 12 15 14 1 30 1 31 90 65 58 76
REMARK Flexibility Score: inf
ROOT
ATOM      1  C   UNL A   1      34.597  24.000  23.022  1.00  0.00     0.001 C 
ENDROOT
BRANCH   1   2
ATOM      2  C   UNL A   1      33.260  23.312  22.748  1.00  0.00     0.000 C 
BRANCH   2   3
ATOM      3  C   UNL A   1      32.133  24.343  22.680  1.00  0.00     0.000 C 
BRANCH   3   4
ATOM      4  C   UNL A   1      32.651  25.688  22.162  1.00  0.00     0.000 C 
BRANCH   4   5
ATOM      5  C   UNL A   1      31.508  26.671  21.873  1.00  0.00     0.000 C 
BRANCH   5   6
ATOM      6  C   UNL A   1      30.296  26.449  22.788  1.00  0.00     0.002 C 
BRANCH   6   7
ATOM      7  C   UNL A   1      29.407  27.671  22.885  1.00  0.00     0.021 C 
BRANCH   7   8
ATOM      8  C   UNL A   1      30.058  28.930  22.372  1.00  0.00     0.117 C 
BRANCH   8   9
ATOM      9  N   UNL A   1      29.225  30.092  22.229  1.00  0.00    -0.338 N 
ATOM     10  N   UNL A   1      29.651  31.104  24.344  1.00  0.00    -0.291 N 
ATOM     11  C   UNL A   1      29.010  31.064  23.147  1.00  0.00     0.320 C 
ATOM     12  H   UNL A   1      29.211  31.672  25.017  1.00  0.00     0.173 HD
ATOM     13  O   UNL A   1      28.100  31.873  22.934  1.00  0.00    -0.248 OA
ATOM     14  H   UNL A   1      28.756  30.192  21.368  1.00  0.00     0.165 HD
BRANCH  10  15
ATOM     15  C   UNL A   1      30.809  30.494  24.789  1.00  0.00     0.157 A 
ATOM     16  N   UNL A   1      32.056  28.902  25.423  1.00  0.00    -0.231 N 
ATOM     17  N   UNL A   1      31.287  29.311  24.386  1.00  0.00    -0.149 NA
ATOM     18  C   UNL A   1      32.504  30.003  26.145  1.00  0.00     0.076 A 
ATOM     19  C   UNL A   1      31.669  31.042  25.766  1.00  0.00     0.078 A 
BRANCH  16  20
ATOM     20  C   UNL A   1      32.320  27.515  25.651  1.00  0.00     0.065 A 
ATOM     21  C   UNL A   1      32.984  24.903  26.397  1.00  0.00     0.082 A 
ATOM     22  C   UNL A   1      31.666  25.345  26.541  1.00  0.00     0.024 A 
ATOM     23  C   UNL A   1      33.948  25.724  25.804  1.00  0.00     0.024 A 
ATOM     24  C   UNL A   1      31.335  26.658  26.177  1.00  0.00     0.030 A 
ATOM     25  C   UNL A   1      33.607  27.020  25.401  1.00  0.00     0.030 A 
BRANCH  21  26
ATOM     26  S   UNL A   1      33.435  23.309  27.030  1.00  0.00     0.238 S 
ATOM     27  O   UNL A   1      32.497  22.908  28.023  1.00  0.00    -0.207 OA
ATOM     28  O   UNL A   1      34.878  23.328  27.274  1.00  0.00    -0.207 OA
BRANCH  26  29
ATOM     29  N   UNL A   1      33.185  22.298  25.721  1.00  0.00    -0.225 NA
ATOM     30  H   UNL A   1      33.362  22.809  24.857  1.00  0.00     0.137 HD
ATOM     31  H   UNL A   1      32.221  21.964  25.728  1.00  0.00     0.137 HD
ENDBRANCH  26  29
ENDBRANCH  21  26
ENDBRANCH  16  20
BRANCH  18  32
ATOM     32  C   UNL A   1      33.678  29.981  27.006  1.00  0.00     0.000 A 
ATOM     33  C   UNL A   1      33.939  31.092  27.826  1.00  0.00     0.010 A 
ATOM     34  C   UNL A   1      34.550  28.891  27.035  1.00  0.00     0.010 A 
ATOM     35  C   UNL A   1      35.073  31.136  28.628  1.00  0.00     0.001 A 
ATOM     36  C   UNL A   1      35.680  28.929  27.856  1.00  0.00     0.001 A 
ATOM     37  C   UNL A   1      35.943  30.052  28.644  1.00  0.00     0.000 A 
ENDBRANCH  18  32
ENDBRANCH  10  15
ENDBRANCH   8   9
ENDBRANCH   7   8
ENDBRANCH   6   7
ENDBRANCH   5   6
ENDBRANCH   4   5
ENDBRANCH   3   4
ENDBRANCH   2   3
ENDBRANCH   1   2
BRANCH   1  38
ATOM     38  C   UNL A   1      35.719  22.966  23.041  1.00  0.00     0.012 C 
BRANCH  38  39
ATOM     39  C   UNL A   1      36.525  22.901  24.347  1.00  0.00     0.123 C 
BRANCH  39  40
ATOM     40  C   UNL A   1      36.780  21.550  25.003  1.00  0.00     0.305 C 
ATOM     41  O   UNL A   1      35.867  20.820  25.372  1.00  0.00    -0.252 OA
BRANCH  40  42
ATOM     42  O   UNL A   1      38.096  21.233  25.096  1.00  0.00    -0.462 OA
BRANCH  42  43
ATOM     43  C   UNL A   1      38.934  21.995  25.988  1.00  0.00     0.274 C 
BRANCH  43  44
ATOM     44  C   UNL A   1      40.152  21.190  26.409  1.00  0.00     0.275 C 
BRANCH  44  45
ATOM     45  O   UNL A   1      41.312  21.966  26.140  1.00  0.00    -0.458 OA
BRANCH  45  46
ATOM     46  C   UNL A   1      41.814  22.573  27.238  1.00  0.00     0.338 C 
ATOM     47  O   UNL A   1      41.923  22.101  28.354  1.00  0.00    -0.246 OA
BRANCH  46  48
ATOM     48  C   UNL A   1      41.938  23.990  26.984  1.00  0.00     0.060 A 
ATOM     49  C   UNL A   1      43.060  24.492  26.313  1.00  0.00     0.016 A 
ATOM     50  C   UNL A   1      41.269  24.738  27.931  1.00  0.00     0.016 A 
ATOM     51  C   UNL A   1      43.734  25.546  26.934  1.00  0.00     0.010 A 
ATOM     52  C   UNL A   1      41.796  25.950  28.212  1.00  0.00     0.010 A 
ATOM     53  C   UNL A   1      43.178  26.097  28.104  1.00  0.00    -0.014 A 
BRANCH  53  54
ATOM     54  C   UNL A   1      43.648  27.313  28.810  1.00  0.00     0.031 A 
ATOM     55  C   UNL A   1      44.312  26.782  30.083  1.00  0.00     0.074 A 
ATOM     56  C   UNL A   1      43.640  28.597  28.287  1.00  0.00     0.049 A 
ATOM     57  N   UNL A   1      43.692  26.602  31.216  1.00  0.00    -0.248 NA
ATOM     58  C   UNL A   1      45.558  25.951  30.051  1.00  0.00     0.031 C 
ATOM     59  C   UNL A   1      43.029  29.179  27.059  1.00  0.00     0.029 A 
ATOM     60  N   UNL A   1      44.199  29.762  28.818  1.00  0.00    -0.354 N 
ATOM     61  C   UNL A   1      44.658  26.089  32.085  1.00  0.00     0.074 A 
ATOM     62  C   UNL A   1      45.565  25.375  31.258  1.00  0.00     0.031 C 
ATOM     63  C   UNL A   1      43.469  30.459  26.831  1.00  0.00     0.029 A 
ATOM     64  C   UNL A   1      44.332  30.894  27.924  1.00  0.00     0.049 A 
ATOM     65  H   UNL A   1      44.490  29.811  29.756  1.00  0.00     0.167 HD
ATOM     66  C   UNL A   1      44.906  26.736  33.260  1.00  0.00     0.034 A 
ATOM     67  C   UNL A   1      44.812  32.182  28.206  1.00  0.00     0.034 A 
ATOM     68  C   UNL A   1      43.788  27.613  33.535  1.00  0.00     0.049 A 
ATOM     69  C   UNL A   1      44.772  32.257  29.692  1.00  0.00     0.074 A 
ATOM     70  C   UNL A   1      42.445  27.457  33.798  1.00  0.00     0.029 A 
ATOM     71  N   UNL A   1      43.943  28.856  32.981  1.00  0.00    -0.354 N 
ATOM     72  N   UNL A   1      43.638  32.266  30.339  1.00  0.00    -0.248 NA
ATOM     73  C   UNL A   1      45.908  31.666  30.384  1.00  0.00     0.031 C 
ATOM     74  C   UNL A   1      41.795  28.508  33.078  1.00  0.00     0.029 A 
ATOM     75  C   UNL A   1      42.755  29.373  32.555  1.00  0.00     0.049 A 
ATOM     76  H   UNL A   1      44.807  29.320  32.899  1.00  0.00     0.167 HD
ATOM     77  C   UNL A   1      43.780  31.275  31.297  1.00  0.00     0.074 A 
ATOM     78  C   UNL A   1      45.223  30.959  31.291  1.00  0.00     0.031 C 
ATOM     79  C   UNL A   1      42.690  30.552  31.715  1.00  0.00     0.034 A 
BRANCH  66  80
ATOM     80  C   UNL A   1      46.302  27.075  33.794  1.00  0.00     0.023 A 
ATOM     81  C   UNL A   1      46.481  26.924  35.184  1.00  0.00     0.031 A 
ATOM     82  C   UNL A   1      47.322  27.808  33.135  1.00  0.00     0.131 A 
ATOM     83  C   UNL A   1      47.540  27.556  35.861  1.00  0.00     0.055 A 
ATOM     84  C   UNL A   1      48.409  28.384  33.806  1.00  0.00     0.041 A 
ATOM     85  F   UNL A   1      47.295  28.089  31.828  1.00  0.00    -0.206 F 
ATOM     86  C   UNL A   1      48.512  28.283  35.181  1.00  0.00     0.022 A 
BRANCH  83  87
ATOM     87  S   UNL A   1      47.510  27.561  37.672  1.00  0.00     0.124 S 
ATOM     88  O   UNL A   1      46.587  26.469  37.954  1.00  0.00    -0.237 OA
ATOM     89  O   UNL A   1      48.912  27.321  37.994  1.00  0.00    -0.237 OA
ATOM     90  O   UNL A   1      47.016  28.897  37.999  1.00  0.00    -0.744 OA
ENDBRANCH  83  87
ENDBRANCH  66  80
BRANCH  67  91
ATOM     91  C   UNL A   1      45.841  33.072  27.454  1.00  0.00     0.023 A 
ATOM     92  C   UNL A   1      47.274  32.880  27.308  1.00  0.00     0.031 A 
ATOM     93  C   UNL A   1      45.295  34.045  26.600  1.00  0.00     0.131 A 
ATOM     94  C   UNL A   1      48.042  33.653  26.359  1.00  0.00     0.055 A 
ATOM     95  C   UNL A   1      46.042  34.757  25.651  1.00  0.00     0.041 A 
ATOM     96  F   UNL A   1      43.977  34.287  26.605  1.00  0.00    -0.206 F 
ATOM     97  C   UNL A   1      47.406  34.563  25.518  1.00  0.00     0.022 A 
BRANCH  94  98
ATOM     98  S   UNL A   1      49.893  33.567  26.156  1.00  0.00     0.124 S 
ATOM     99  O   UNL A   1      50.157  32.134  26.207  1.00  0.00    -0.237 OA
ATOM    100  O   UNL A   1      50.122  34.225  24.875  1.00  0.00    -0.237 OA
ATOM    101  O   UNL A   1      50.406  34.310  27.312  1.00  0.00    -0.744 OA
ENDBRANCH  94  98
ENDBRANCH  67  91
BRANCH  79 102
ATOM    102  C   UNL A   1      41.306  31.018  31.290  1.00  0.00     0.023 A 
ATOM    103  C   UNL A   1      40.640  32.216  31.666  1.00  0.00     0.031 A 
ATOM    104  C   UNL A   1      40.669  30.193  30.353  1.00  0.00     0.131 A 
ATOM    105  C   UNL A   1      39.362  32.509  31.129  1.00  0.00     0.055 A 
ATOM    106  C   UNL A   1      39.439  30.514  29.789  1.00  0.00     0.041 A 
ATOM    107  F   UNL A   1      41.263  29.063  29.938  1.00  0.00    -0.206 F 
ATOM    108  C   UNL A   1      38.773  31.665  30.182  1.00  0.00     0.022 A 
BRANCH 105 109
ATOM    109  S   UNL A   1      38.390  33.949  31.709  1.00  0.00     0.124 S 
ATOM    110  O   UNL A   1      37.038  33.411  31.812  1.00  0.00    -0.237 OA
ATOM    111  O   UNL A   1      39.035  34.289  32.974  1.00  0.00    -0.237 OA
ATOM    112  O   UNL A   1      38.574  34.941  30.647  1.00  0.00    -0.744 OA
ENDBRANCH 105 109
ENDBRANCH  79 102
ENDBRANCH  53  54
ENDBRANCH  46  48
ENDBRANCH  45  46
ENDBRANCH  44  45
ENDBRANCH  43  44
ENDBRANCH  42  43
ENDBRANCH  40  42
ENDBRANCH  39  40
ENDBRANCH  38  39
ENDBRANCH   1  38
TORSDOF 29
ENDMDL
