MODEL 1
REMARK VINA RESULT:     -11.6      0.000      0.000
REMARK SMILES O=C(OCCOC(=O)[C@H]1C=C[C@@H](NS(=O)(=O)c2ccc(Br)cc2)C1)c1ccc(-c2c3nc(c(-c4cc(S(=O)(=O)[O-])ccc4F)c4ccc([nH]4)c(-c4cc(S(=O)(=O)[O-])ccc4F)c4nc(c(-c5cc(S(=O)(=O)[O-])ccc5F)c5ccc2[nH]5)C=C4)C=C3)cc1
REMARK SMILES IDX 4 1 3 2 2 3 1 4 25 5 26 6 87 7 27 8 86 9 28 10 29 11 30 12
REMARK SMILES IDX 80 13 31 14 85 15 79 16 81 17 32 18 84 19 78 20 77 21 33 23
REMARK SMILES IDX 65 24 45 25 64 26 46 27 49 28 63 29 82 30 47 31 48 32 62 34
REMARK SMILES IDX 83 35 50 36 34 37 35 38 43 39 36 40 42 41 44 42 41 43 37 44
REMARK SMILES IDX 38 45 39 46 40 47 66 48 67 49 75 50 68 51 74 52 76 53 73 54
REMARK SMILES IDX 69 55 70 56 71 57 72 58 51 59 52 60 60 61 53 62 59 63 61 64
REMARK SMILES IDX 58 65 54 66 55 67 56 68 57 69 5 70 6 71 7 72 8 73 9 74 10 75
REMARK SMILES IDX 24 76 11 77 12 78 13 79 14 81 15 82 16 83 17 84 18 85 23 86
REMARK SMILES IDX 19 87 22 88 20 89 21 90
REMARK H PARENT 81 22 49 33 13 80
REMARK Flexibility Score: inf
ROOT
ATOM      1  C   UNL A   1      37.598  20.473  24.944  1.00  0.00     0.275 C 
ENDROOT
BRANCH   1   2
ATOM      2  O   UNL A   1      38.114  21.441  25.869  1.00  0.00    -0.458 OA
BRANCH   2   3
ATOM      3  C   UNL A   1      39.385  21.630  26.294  1.00  0.00     0.338 C 
ATOM      4  O   UNL A   1      40.125  20.649  26.361  1.00  0.00    -0.246 OA
BRANCH   3   5
ATOM      5  C   UNL A   1      39.896  22.924  26.858  1.00  0.00     0.060 A 
ATOM      6  C   UNL A   1      40.784  23.080  27.926  1.00  0.00     0.016 A 
ATOM      7  C   UNL A   1      39.455  24.093  26.205  1.00  0.00     0.016 A 
ATOM      8  C   UNL A   1      41.291  24.336  28.274  1.00  0.00     0.010 A 
ATOM      9  C   UNL A   1      39.974  25.350  26.533  1.00  0.00     0.010 A 
ATOM     10  C   UNL A   1      40.907  25.476  27.569  1.00  0.00    -0.014 A 
BRANCH  10  11
ATOM     11  C   UNL A   1      41.354  26.807  28.037  1.00  0.00     0.031 A 
ATOM     12  C   UNL A   1      42.777  27.196  27.766  1.00  0.00     0.074 A 
ATOM     13  C   UNL A   1      40.504  27.657  28.646  1.00  0.00     0.049 A 
ATOM     14  N   UNL A   1      43.420  28.286  28.088  1.00  0.00    -0.248 NA
ATOM     15  C   UNL A   1      43.592  26.198  27.055  1.00  0.00     0.031 C 
ATOM     16  C   UNL A   1      39.096  27.382  28.943  1.00  0.00     0.029 A 
ATOM     17  N   UNL A   1      40.696  28.930  29.120  1.00  0.00    -0.354 N 
ATOM     18  C   UNL A   1      44.718  28.095  27.630  1.00  0.00     0.074 A 
ATOM     19  C   UNL A   1      44.787  26.757  27.089  1.00  0.00     0.031 C 
ATOM     20  C   UNL A   1      38.552  28.459  29.537  1.00  0.00     0.029 A 
ATOM     21  C   UNL A   1      39.574  29.491  29.688  1.00  0.00     0.049 A 
ATOM     22  H   UNL A   1      41.560  29.401  29.059  1.00  0.00     0.167 HD
ATOM     23  C   UNL A   1      45.753  28.971  27.627  1.00  0.00     0.034 A 
ATOM     24  C   UNL A   1      39.404  30.698  30.267  1.00  0.00     0.034 A 
ATOM     25  C   UNL A   1      45.657  30.299  28.170  1.00  0.00     0.049 A 
ATOM     26  C   UNL A   1      40.583  31.646  30.298  1.00  0.00     0.074 A 
ATOM     27  C   UNL A   1      46.629  31.278  28.246  1.00  0.00     0.029 A 
ATOM     28  N   UNL A   1      44.506  30.832  28.742  1.00  0.00    -0.354 N 
ATOM     29  N   UNL A   1      41.800  31.464  29.838  1.00  0.00    -0.248 NA
ATOM     30  C   UNL A   1      40.363  32.963  30.911  1.00  0.00     0.031 C 
ATOM     31  C   UNL A   1      46.081  32.381  28.911  1.00  0.00     0.029 A 
ATOM     32  C   UNL A   1      44.748  32.118  29.190  1.00  0.00     0.049 A 
ATOM     33  H   UNL A   1      43.644  30.360  28.817  1.00  0.00     0.167 HD
ATOM     34  C   UNL A   1      42.483  32.655  30.082  1.00  0.00     0.074 A 
ATOM     35  C   UNL A   1      41.534  33.551  30.713  1.00  0.00     0.031 C 
ATOM     36  C   UNL A   1      43.773  32.984  29.811  1.00  0.00     0.034 A 
BRANCH  23  37
ATOM     37  C   UNL A   1      47.057  28.463  27.063  1.00  0.00     0.023 A 
ATOM     38  C   UNL A   1      47.288  28.437  25.673  1.00  0.00     0.031 A 
ATOM     39  C   UNL A   1      48.011  27.863  27.899  1.00  0.00     0.131 A 
ATOM     40  C   UNL A   1      48.366  27.701  25.160  1.00  0.00     0.055 A 
ATOM     41  C   UNL A   1      49.141  27.224  27.384  1.00  0.00     0.041 A 
ATOM     42  F   UNL A   1      47.834  27.837  29.230  1.00  0.00    -0.206 F 
ATOM     43  C   UNL A   1      49.309  27.115  26.006  1.00  0.00     0.022 A 
BRANCH  40  44
ATOM     44  S   UNL A   1      48.381  27.329  23.383  1.00  0.00     0.124 S 
ATOM     45  O   UNL A   1      48.302  25.869  23.390  1.00  0.00    -0.237 OA
ATOM     46  O   UNL A   1      47.195  28.029  22.903  1.00  0.00    -0.237 OA
ATOM     47  O   UNL A   1      49.657  27.876  22.929  1.00  0.00    -0.744 OA
ENDBRANCH  40  44
ENDBRANCH  23  37
BRANCH  24  48
ATOM     48  C   UNL A   1      38.096  31.082  30.882  1.00  0.00     0.023 A 
ATOM     49  C   UNL A   1      37.118  31.781  30.155  1.00  0.00     0.031 A 
ATOM     50  C   UNL A   1      37.830  30.805  32.235  1.00  0.00     0.131 A 
ATOM     51  C   UNL A   1      35.946  32.222  30.795  1.00  0.00     0.055 A 
ATOM     52  C   UNL A   1      36.643  31.204  32.855  1.00  0.00     0.041 A 
ATOM     53  F   UNL A   1      38.724  30.134  32.980  1.00  0.00    -0.206 F 
ATOM     54  C   UNL A   1      35.698  31.929  32.137  1.00  0.00     0.022 A 
BRANCH  51  55
ATOM     55  S   UNL A   1      34.781  33.261  29.867  1.00  0.00     0.124 S 
ATOM     56  O   UNL A   1      33.967  33.825  30.937  1.00  0.00    -0.237 OA
ATOM     57  O   UNL A   1      35.681  34.188  29.187  1.00  0.00    -0.237 OA
ATOM     58  O   UNL A   1      34.096  32.309  28.995  1.00  0.00    -0.744 OA
ENDBRANCH  51  55
ENDBRANCH  24  48
BRANCH  36  59
ATOM     59  C   UNL A   1      44.210  34.385  30.153  1.00  0.00     0.023 A 
ATOM     60  C   UNL A   1      44.091  35.441  29.234  1.00  0.00     0.031 A 
ATOM     61  C   UNL A   1      44.726  34.668  31.430  1.00  0.00     0.131 A 
ATOM     62  C   UNL A   1      44.521  36.727  29.593  1.00  0.00     0.055 A 
ATOM     63  C   UNL A   1      45.098  35.960  31.800  1.00  0.00     0.041 A 
ATOM     64  F   UNL A   1      44.859  33.693  32.344  1.00  0.00    -0.206 F 
ATOM     65  C   UNL A   1      45.005  36.997  30.877  1.00  0.00     0.022 A 
BRANCH  62  66
ATOM     66  S   UNL A   1      44.503  38.032  28.335  1.00  0.00     0.124 S 
ATOM     67  O   UNL A   1      44.352  39.234  29.148  1.00  0.00    -0.237 OA
ATOM     68  O   UNL A   1      45.800  37.859  27.688  1.00  0.00    -0.237 OA
ATOM     69  O   UNL A   1      43.348  37.695  27.506  1.00  0.00    -0.744 OA
ENDBRANCH  62  66
ENDBRANCH  36  59
ENDBRANCH  10  11
ENDBRANCH   3   5
ENDBRANCH   2   3
ENDBRANCH   1   2
BRANCH   1  70
ATOM     70  C   UNL A   1      36.070  20.424  24.903  1.00  0.00     0.274 C 
BRANCH  70  71
ATOM     71  O   UNL A   1      35.438  21.184  25.949  1.00  0.00    -0.462 OA
BRANCH  71  72
ATOM     72  C   UNL A   1      34.399  21.988  25.564  1.00  0.00     0.312 C 
ATOM     73  O   UNL A   1      33.750  22.693  26.327  1.00  0.00    -0.252 OA
BRANCH  72  74
ATOM     74  C   UNL A   1      34.148  21.853  24.062  1.00  0.00     0.123 C 
ATOM     75  C   UNL A   1      32.825  21.219  23.763  1.00  0.00    -0.015 C 
ATOM     76  C   UNL A   1      34.009  23.212  23.377  1.00  0.00     0.043 C 
ATOM     77  C   UNL A   1      32.101  21.935  22.895  1.00  0.00    -0.011 C 
ATOM     78  C   UNL A   1      32.807  23.156  22.422  1.00  0.00     0.093 C 
BRANCH  78  79
ATOM     79  N   UNL A   1      31.998  24.353  22.569  1.00  0.00    -0.204 NA
ATOM     80  H   UNL A   1      31.864  24.472  23.572  1.00  0.00     0.142 HD
BRANCH  79  81
ATOM     81  S   UNL A   1      32.422  25.857  21.996  1.00  0.00     0.241 S 
ATOM     82  O   UNL A   1      33.620  25.744  21.184  1.00  0.00    -0.207 OA
ATOM     83  O   UNL A   1      31.214  26.424  21.449  1.00  0.00    -0.207 OA
BRANCH  81  84
ATOM     84  C   UNL A   1      32.854  26.796  23.443  1.00  0.00     0.082 A 
ATOM     85  C   UNL A   1      33.045  28.179  23.350  1.00  0.00     0.023 A 
ATOM     86  C   UNL A   1      33.139  26.121  24.636  1.00  0.00     0.023 A 
ATOM     87  C   UNL A   1      33.511  28.888  24.461  1.00  0.00     0.017 A 
ATOM     88  C   UNL A   1      33.589  26.834  25.748  1.00  0.00     0.017 A 
ATOM     89  C   UNL A   1      33.782  28.213  25.652  1.00  0.00     0.018 A 
ATOM     90  Br  UNL A   1      34.454  29.168  27.139  1.00  0.00    -0.051 Br
ENDBRANCH  81  84
ENDBRANCH  79  81
ENDBRANCH  78  79
ENDBRANCH  72  74
ENDBRANCH  71  72
ENDBRANCH  70  71
ENDBRANCH   1  70
TORSDOF 17
ENDMDL
MODEL 2
REMARK VINA RESULT:     -11.5      1.752      2.093
REMARK SMILES O=C(OCCOC(=O)[C@H]1C=C[C@@H](NS(=O)(=O)c2ccc(Br)cc2)C1)c1ccc(-c2c3nc(c(-c4cc(S(=O)(=O)[O-])ccc4F)c4ccc([nH]4)c(-c4cc(S(=O)(=O)[O-])ccc4F)c4nc(c(-c5cc(S(=O)(=O)[O-])ccc5F)c5ccc2[nH]5)C=C4)C=C3)cc1
REMARK SMILES IDX 4 1 3 2 2 3 1 4 25 5 26 6 87 7 27 8 86 9 28 10 29 11 30 12
REMARK SMILES IDX 80 13 31 14 85 15 79 16 81 17 32 18 84 19 78 20 77 21 33 23
REMARK SMILES IDX 65 24 45 25 64 26 46 27 49 28 63 29 82 30 47 31 48 32 62 34
REMARK SMILES IDX 83 35 50 36 34 37 35 38 43 39 36 40 42 41 44 42 41 43 37 44
REMARK SMILES IDX 38 45 39 46 40 47 66 48 67 49 75 50 68 51 74 52 76 53 73 54
REMARK SMILES IDX 69 55 70 56 71 57 72 58 51 59 52 60 60 61 53 62 59 63 61 64
REMARK SMILES IDX 58 65 54 66 55 67 56 68 57 69 5 70 6 71 7 72 8 73 9 74 10 75
REMARK SMILES IDX 24 76 11 77 12 78 13 79 14 81 15 82 16 83 17 84 18 85 23 86
REMARK SMILES IDX 19 87 22 88 20 89 21 90
REMARK H PARENT 81 22 49 33 13 80
REMARK Flexibility Score: inf
ROOT
ATOM      1  C   UNL A   1      37.685  21.159  25.007  1.00  0.00     0.275 C 
ENDROOT
BRANCH   1   2
ATOM      2  O   UNL A   1      38.033  22.240  25.884  1.00  0.00    -0.458 OA
BRANCH   2   3
ATOM      3  C   UNL A   1      39.225  22.534  26.454  1.00  0.00     0.338 C 
ATOM      4  O   UNL A   1      39.935  21.600  26.825  1.00  0.00    -0.246 OA
BRANCH   3   5
ATOM      5  C   UNL A   1      39.656  23.923  26.826  1.00  0.00     0.060 A 
ATOM      6  C   UNL A   1      40.049  24.940  25.951  1.00  0.00     0.016 A 
ATOM      7  C   UNL A   1      39.617  24.229  28.201  1.00  0.00     0.016 A 
ATOM      8  C   UNL A   1      40.301  26.237  26.410  1.00  0.00     0.010 A 
ATOM      9  C   UNL A   1      39.847  25.529  28.665  1.00  0.00     0.010 A 
ATOM     10  C   UNL A   1      40.182  26.546  27.764  1.00  0.00    -0.014 A 
BRANCH  10  11
ATOM     11  C   UNL A   1      40.579  27.890  28.242  1.00  0.00     0.031 A 
ATOM     12  C   UNL A   1      42.032  28.255  28.158  1.00  0.00     0.074 A 
ATOM     13  C   UNL A   1      39.665  28.769  28.697  1.00  0.00     0.049 A 
ATOM     14  N   UNL A   1      42.639  29.350  28.527  1.00  0.00    -0.248 NA
ATOM     15  C   UNL A   1      42.922  27.225  27.601  1.00  0.00     0.031 C 
ATOM     16  C   UNL A   1      38.227  28.518  28.806  1.00  0.00     0.029 A 
ATOM     17  N   UNL A   1      39.809  30.057  29.149  1.00  0.00    -0.354 N 
ATOM     18  C   UNL A   1      43.986  29.131  28.260  1.00  0.00     0.074 A 
ATOM     19  C   UNL A   1      44.109  27.773  27.781  1.00  0.00     0.031 C 
ATOM     20  C   UNL A   1      37.621  29.621  29.281  1.00  0.00     0.029 A 
ATOM     21  C   UNL A   1      38.627  30.649  29.536  1.00  0.00     0.049 A 
ATOM     22  H   UNL A   1      40.679  30.517  29.192  1.00  0.00     0.167 HD
ATOM     23  C   UNL A   1      45.023  29.996  28.370  1.00  0.00     0.034 A 
ATOM     24  C   UNL A   1      38.396  31.878  30.043  1.00  0.00     0.034 A 
ATOM     25  C   UNL A   1      44.872  31.344  28.849  1.00  0.00     0.049 A 
ATOM     26  C   UNL A   1      39.572  32.815  30.204  1.00  0.00     0.074 A 
ATOM     27  C   UNL A   1      45.838  32.316  29.024  1.00  0.00     0.029 A 
ATOM     28  N   UNL A   1      43.661  31.908  29.236  1.00  0.00    -0.354 N 
ATOM     29  N   UNL A   1      40.839  32.605  29.924  1.00  0.00    -0.248 NA
ATOM     30  C   UNL A   1      39.289  34.155  30.735  1.00  0.00     0.031 C 
ATOM     31  C   UNL A   1      45.219  33.448  29.568  1.00  0.00     0.029 A 
ATOM     32  C   UNL A   1      43.857  33.207  29.668  1.00  0.00     0.049 A 
ATOM     33  H   UNL A   1      42.790  31.448  29.208  1.00  0.00     0.167 HD
ATOM     34  C   UNL A   1      41.498  33.797  30.218  1.00  0.00     0.074 A 
ATOM     35  C   UNL A   1      40.485  34.725  30.681  1.00  0.00     0.031 C 
ATOM     36  C   UNL A   1      42.818  34.104  30.117  1.00  0.00     0.034 A 
BRANCH  23  37
ATOM     37  C   UNL A   1      46.385  29.456  28.010  1.00  0.00     0.023 A 
ATOM     38  C   UNL A   1      46.732  29.188  26.671  1.00  0.00     0.031 A 
ATOM     39  C   UNL A   1      47.285  29.064  29.013  1.00  0.00     0.131 A 
ATOM     40  C   UNL A   1      47.872  28.423  26.386  1.00  0.00     0.055 A 
ATOM     41  C   UNL A   1      48.474  28.396  28.712  1.00  0.00     0.041 A 
ATOM     42  F   UNL A   1      46.999  29.273  30.309  1.00  0.00    -0.206 F 
ATOM     43  C   UNL A   1      48.759  28.046  27.395  1.00  0.00     0.022 A 
BRANCH  40  44
ATOM     44  S   UNL A   1      48.046  27.734  24.715  1.00  0.00     0.124 S 
ATOM     45  O   UNL A   1      47.699  26.332  24.940  1.00  0.00    -0.237 OA
ATOM     46  O   UNL A   1      47.081  28.515  23.949  1.00  0.00    -0.237 OA
ATOM     47  O   UNL A   1      49.449  27.978  24.389  1.00  0.00    -0.744 OA
ENDBRANCH  40  44
ENDBRANCH  23  37
BRANCH  24  48
ATOM     48  C   UNL A   1      37.021  32.296  30.457  1.00  0.00     0.023 A 
ATOM     49  C   UNL A   1      36.150  32.947  29.568  1.00  0.00     0.031 A 
ATOM     50  C   UNL A   1      36.579  32.102  31.779  1.00  0.00     0.131 A 
ATOM     51  C   UNL A   1      34.907  33.424  30.020  1.00  0.00     0.055 A 
ATOM     52  C   UNL A   1      35.323  32.536  32.212  1.00  0.00     0.041 A 
ATOM     53  F   UNL A   1      37.364  31.481  32.674  1.00  0.00    -0.206 F 
ATOM     54  C   UNL A   1      34.485  33.213  31.334  1.00  0.00     0.022 A 
BRANCH  51  55
ATOM     55  S   UNL A   1      33.880  34.400  28.886  1.00  0.00     0.124 S 
ATOM     56  O   UNL A   1      34.793  35.470  28.503  1.00  0.00    -0.237 OA
ATOM     57  O   UNL A   1      33.564  33.423  27.849  1.00  0.00    -0.237 OA
ATOM     58  O   UNL A   1      32.750  34.810  29.717  1.00  0.00    -0.744 OA
ENDBRANCH  51  55
ENDBRANCH  24  48
BRANCH  36  59
ATOM     59  C   UNL A   1      43.224  35.513  30.468  1.00  0.00     0.023 A 
ATOM     60  C   UNL A   1      43.471  35.901  31.795  1.00  0.00     0.031 A 
ATOM     61  C   UNL A   1      43.392  36.469  29.452  1.00  0.00     0.131 A 
ATOM     62  C   UNL A   1      43.837  37.225  32.076  1.00  0.00     0.055 A 
ATOM     63  C   UNL A   1      43.811  37.770  29.731  1.00  0.00     0.041 A 
ATOM     64  F   UNL A   1      43.167  36.148  28.167  1.00  0.00    -0.206 F 
ATOM     65  C   UNL A   1      44.028  38.157  31.051  1.00  0.00     0.022 A 
BRANCH  62  66
ATOM     66  S   UNL A   1      43.995  37.737  33.808  1.00  0.00     0.124 S 
ATOM     67  O   UNL A   1      44.476  36.514  34.442  1.00  0.00    -0.237 OA
ATOM     68  O   UNL A   1      44.954  38.833  33.724  1.00  0.00    -0.237 OA
ATOM     69  O   UNL A   1      42.636  38.132  34.174  1.00  0.00    -0.744 OA
ENDBRANCH  62  66
ENDBRANCH  36  59
ENDBRANCH  10  11
ENDBRANCH   3   5
ENDBRANCH   2   3
ENDBRANCH   1   2
BRANCH   1  70
ATOM     70  C   UNL A   1      36.198  20.805  25.038  1.00  0.00     0.274 C 
BRANCH  70  71
ATOM     71  O   UNL A   1      35.469  21.453  26.097  1.00  0.00    -0.462 OA
BRANCH  71  72
ATOM     72  C   UNL A   1      34.285  22.039  25.741  1.00  0.00     0.312 C 
ATOM     73  O   UNL A   1      33.469  22.488  26.536  1.00  0.00    -0.252 OA
BRANCH  72  74
ATOM     74  C   UNL A   1      34.115  22.019  24.221  1.00  0.00     0.123 C 
ATOM     75  C   UNL A   1      32.810  21.417  23.804  1.00  0.00    -0.015 C 
ATOM     76  C   UNL A   1      34.016  23.427  23.635  1.00  0.00     0.043 C 
ATOM     77  C   UNL A   1      32.135  22.201  22.956  1.00  0.00    -0.011 C 
ATOM     78  C   UNL A   1      32.866  23.450  22.616  1.00  0.00     0.093 C 
BRANCH  78  79
ATOM     79  N   UNL A   1      32.053  24.637  22.809  1.00  0.00    -0.204 NA
ATOM     80  H   UNL A   1      31.974  24.753  23.819  1.00  0.00     0.142 HD
BRANCH  79  81
ATOM     81  S   UNL A   1      32.425  26.146  22.215  1.00  0.00     0.241 S 
ATOM     82  O   UNL A   1      33.673  26.080  21.477  1.00  0.00    -0.207 OA
ATOM     83  O   UNL A   1      31.221  26.627  21.582  1.00  0.00    -0.207 OA
BRANCH  81  84
ATOM     84  C   UNL A   1      32.716  27.149  23.655  1.00  0.00     0.082 A 
ATOM     85  C   UNL A   1      32.186  28.442  23.727  1.00  0.00     0.023 A 
ATOM     86  C   UNL A   1      33.594  26.688  24.642  1.00  0.00     0.023 A 
ATOM     87  C   UNL A   1      32.527  29.269  24.800  1.00  0.00     0.017 A 
ATOM     88  C   UNL A   1      33.920  27.511  25.721  1.00  0.00     0.017 A 
ATOM     89  C   UNL A   1      33.393  28.801  25.790  1.00  0.00     0.018 A 
ATOM     90  Br  UNL A   1      33.888  29.937  27.217  1.00  0.00    -0.051 Br
ENDBRANCH  81  84
ENDBRANCH  79  81
ENDBRANCH  78  79
ENDBRANCH  72  74
ENDBRANCH  71  72
ENDBRANCH  70  71
ENDBRANCH   1  70
TORSDOF 17
ENDMDL
MODEL 3
REMARK VINA RESULT:     -11.4      3.728      6.108
REMARK SMILES O=C(OCCOC(=O)[C@H]1C=C[C@@H](NS(=O)(=O)c2ccc(Br)cc2)C1)c1ccc(-c2c3nc(c(-c4cc(S(=O)(=O)[O-])ccc4F)c4ccc([nH]4)c(-c4cc(S(=O)(=O)[O-])ccc4F)c4nc(c(-c5cc(S(=O)(=O)[O-])ccc5F)c5ccc2[nH]5)C=C4)C=C3)cc1
REMARK SMILES IDX 4 1 3 2 2 3 1 4 25 5 26 6 87 7 27 8 86 9 28 10 29 11 30 12
REMARK SMILES IDX 80 13 31 14 85 15 79 16 81 17 32 18 84 19 78 20 77 21 33 23
REMARK SMILES IDX 65 24 45 25 64 26 46 27 49 28 63 29 82 30 47 31 48 32 62 34
REMARK SMILES IDX 83 35 50 36 34 37 35 38 43 39 36 40 42 41 44 42 41 43 37 44
REMARK SMILES IDX 38 45 39 46 40 47 66 48 67 49 75 50 68 51 74 52 76 53 73 54
REMARK SMILES IDX 69 55 70 56 71 57 72 58 51 59 52 60 60 61 53 62 59 63 61 64
REMARK SMILES IDX 58 65 54 66 55 67 56 68 57 69 5 70 6 71 7 72 8 73 9 74 10 75
REMARK SMILES IDX 24 76 11 77 12 78 13 79 14 81 15 82 16 83 17 84 18 85 23 86
REMARK SMILES IDX 19 87 22 88 20 89 21 90
REMARK H PARENT 81 22 49 33 13 80
REMARK Flexibility Score: inf
ROOT
ATOM      1  C   UNL A   1      41.169  21.039  26.964  1.00  0.00     0.275 C 
ENDROOT
BRANCH   1   2
ATOM      2  O   UNL A   1      39.772  21.234  26.700  1.00  0.00    -0.458 OA
BRANCH   2   3
ATOM      3  C   UNL A   1      39.114  22.363  26.349  1.00  0.00     0.338 C 
ATOM      4  O   UNL A   1      38.167  22.264  25.569  1.00  0.00    -0.246 OA
BRANCH   3   5
ATOM      5  C   UNL A   1      39.575  23.747  26.708  1.00  0.00     0.060 A 
ATOM      6  C   UNL A   1      40.117  24.700  25.842  1.00  0.00     0.016 A 
ATOM      7  C   UNL A   1      39.397  24.121  28.056  1.00  0.00     0.016 A 
ATOM      8  C   UNL A   1      40.385  26.003  26.270  1.00  0.00     0.010 A 
ATOM      9  C   UNL A   1      39.643  25.429  28.487  1.00  0.00     0.010 A 
ATOM     10  C   UNL A   1      40.131  26.384  27.587  1.00  0.00    -0.014 A 
BRANCH  10  11
ATOM     11  C   UNL A   1      40.544  27.728  28.051  1.00  0.00     0.031 A 
ATOM     12  C   UNL A   1      41.991  28.098  27.909  1.00  0.00     0.074 A 
ATOM     13  C   UNL A   1      39.646  28.605  28.542  1.00  0.00     0.049 A 
ATOM     14  N   UNL A   1      42.610  29.194  28.254  1.00  0.00    -0.248 NA
ATOM     15  C   UNL A   1      42.861  27.069  27.316  1.00  0.00     0.031 C 
ATOM     16  C   UNL A   1      38.213  28.350  28.707  1.00  0.00     0.029 A 
ATOM     17  N   UNL A   1      39.804  29.893  28.988  1.00  0.00    -0.354 N 
ATOM     18  C   UNL A   1      43.945  28.978  27.934  1.00  0.00     0.074 A 
ATOM     19  C   UNL A   1      44.053  27.621  27.449  1.00  0.00     0.031 C 
ATOM     20  C   UNL A   1      37.624  29.451  29.206  1.00  0.00     0.029 A 
ATOM     21  C   UNL A   1      38.637  30.481  29.422  1.00  0.00     0.049 A 
ATOM     22  H   UNL A   1      40.674  30.355  28.997  1.00  0.00     0.167 HD
ATOM     23  C   UNL A   1      44.983  29.846  28.003  1.00  0.00     0.034 A 
ATOM     24  C   UNL A   1      38.423  31.710  29.939  1.00  0.00     0.034 A 
ATOM     25  C   UNL A   1      44.848  31.193  28.488  1.00  0.00     0.049 A 
ATOM     26  C   UNL A   1      39.602  32.650  30.054  1.00  0.00     0.074 A 
ATOM     27  C   UNL A   1      45.818  32.168  28.625  1.00  0.00     0.029 A 
ATOM     28  N   UNL A   1      43.652  31.754  28.923  1.00  0.00    -0.354 N 
ATOM     29  N   UNL A   1      40.858  32.444  29.723  1.00  0.00    -0.248 NA
ATOM     30  C   UNL A   1      39.336  33.989  30.595  1.00  0.00     0.031 C 
ATOM     31  C   UNL A   1      45.218  33.298  29.194  1.00  0.00     0.029 A 
ATOM     32  C   UNL A   1      43.861  33.054  29.348  1.00  0.00     0.049 A 
ATOM     33  H   UNL A   1      42.782  31.292  28.929  1.00  0.00     0.167 HD
ATOM     34  C   UNL A   1      41.525  33.637  29.992  1.00  0.00     0.074 A 
ATOM     35  C   UNL A   1      40.528  34.562  30.494  1.00  0.00     0.031 C 
ATOM     36  C   UNL A   1      42.838  33.948  29.838  1.00  0.00     0.034 A 
BRANCH  23  37
ATOM     37  C   UNL A   1      46.331  29.310  27.589  1.00  0.00     0.023 A 
ATOM     38  C   UNL A   1      46.639  29.080  26.234  1.00  0.00     0.031 A 
ATOM     39  C   UNL A   1      47.257  28.883  28.554  1.00  0.00     0.131 A 
ATOM     40  C   UNL A   1      47.766  28.318  25.894  1.00  0.00     0.055 A 
ATOM     41  C   UNL A   1      48.433  28.218  28.200  1.00  0.00     0.041 A 
ATOM     42  F   UNL A   1      47.009  29.054  29.863  1.00  0.00    -0.206 F 
ATOM     43  C   UNL A   1      48.679  27.906  26.866  1.00  0.00     0.022 A 
BRANCH  40  44
ATOM     44  S   UNL A   1      47.889  27.679  24.199  1.00  0.00     0.124 S 
ATOM     45  O   UNL A   1      46.973  28.566  23.485  1.00  0.00    -0.237 OA
ATOM     46  O   UNL A   1      49.307  27.850  23.899  1.00  0.00    -0.237 OA
ATOM     47  O   UNL A   1      47.439  26.294  24.321  1.00  0.00    -0.744 OA
ENDBRANCH  40  44
ENDBRANCH  23  37
BRANCH  24  48
ATOM     48  C   UNL A   1      37.064  32.124  30.407  1.00  0.00     0.023 A 
ATOM     49  C   UNL A   1      36.156  32.770  29.552  1.00  0.00     0.031 A 
ATOM     50  C   UNL A   1      36.677  31.931  31.746  1.00  0.00     0.131 A 
ATOM     51  C   UNL A   1      34.931  33.244  30.054  1.00  0.00     0.055 A 
ATOM     52  C   UNL A   1      35.438  32.361  32.229  1.00  0.00     0.041 A 
ATOM     53  F   UNL A   1      37.499  31.314  32.609  1.00  0.00    -0.206 F 
ATOM     54  C   UNL A   1      34.562  33.035  31.384  1.00  0.00     0.022 A 
BRANCH  51  55
ATOM     55  S   UNL A   1      33.855  34.216  28.960  1.00  0.00     0.124 S 
ATOM     56  O   UNL A   1      32.851  34.712  29.894  1.00  0.00    -0.237 OA
ATOM     57  O   UNL A   1      34.785  35.208  28.429  1.00  0.00    -0.237 OA
ATOM     58  O   UNL A   1      33.377  33.232  27.991  1.00  0.00    -0.744 OA
ENDBRANCH  51  55
ENDBRANCH  24  48
BRANCH  36  59
ATOM     59  C   UNL A   1      43.254  35.357  30.173  1.00  0.00     0.023 A 
ATOM     60  C   UNL A   1      43.233  36.381  29.212  1.00  0.00     0.031 A 
ATOM     61  C   UNL A   1      43.649  35.681  31.483  1.00  0.00     0.131 A 
ATOM     62  C   UNL A   1      43.638  37.676  29.566  1.00  0.00     0.055 A 
ATOM     63  C   UNL A   1      43.996  36.983  31.844  1.00  0.00     0.041 A 
ATOM     64  F   UNL A   1      43.686  34.738  32.438  1.00  0.00    -0.206 F 
ATOM     65  C   UNL A   1      44.001  37.988  30.881  1.00  0.00     0.022 A 
BRANCH  62  66
ATOM     66  S   UNL A   1      43.753  38.938  28.270  1.00  0.00     0.124 S 
ATOM     67  O   UNL A   1      45.194  39.035  28.067  1.00  0.00    -0.237 OA
ATOM     68  O   UNL A   1      42.994  38.334  27.179  1.00  0.00    -0.237 OA
ATOM     69  O   UNL A   1      43.131  40.113  28.878  1.00  0.00    -0.744 OA
ENDBRANCH  62  66
ENDBRANCH  36  59
ENDBRANCH  10  11
ENDBRANCH   3   5
ENDBRANCH   2   3
ENDBRANCH   1   2
BRANCH   1  70
ATOM     70  C   UNL A   1      41.613  19.580  26.851  1.00  0.00     0.274 C 
BRANCH  70  71
ATOM     71  O   UNL A   1      42.595  19.352  25.824  1.00  0.00    -0.462 OA
BRANCH  71  72
ATOM     72  C   UNL A   1      43.472  18.325  26.048  1.00  0.00     0.312 C 
ATOM     73  O   UNL A   1      43.300  17.435  26.872  1.00  0.00    -0.252 OA
BRANCH  72  74
ATOM     74  C   UNL A   1      44.704  18.470  25.153  1.00  0.00     0.123 C 
ATOM     75  C   UNL A   1      44.405  19.225  23.895  1.00  0.00    -0.015 C 
ATOM     76  C   UNL A   1      45.783  19.340  25.796  1.00  0.00     0.043 C 
ATOM     77  C   UNL A   1      45.264  20.229  23.688  1.00  0.00    -0.011 C 
ATOM     78  C   UNL A   1      46.315  20.317  24.737  1.00  0.00     0.093 C 
BRANCH  78  79
ATOM     79  N   UNL A   1      46.422  21.652  25.300  1.00  0.00    -0.204 NA
ATOM     80  H   UNL A   1      47.237  22.072  24.854  1.00  0.00     0.142 HD
BRANCH  79  81
ATOM     81  S   UNL A   1      45.229  22.809  25.226  1.00  0.00     0.241 S 
ATOM     82  O   UNL A   1      45.515  23.729  24.140  1.00  0.00    -0.207 OA
ATOM     83  O   UNL A   1      43.980  22.089  25.270  1.00  0.00    -0.207 OA
BRANCH  81  84
ATOM     84  C   UNL A   1      45.380  23.723  26.744  1.00  0.00     0.082 A 
ATOM     85  C   UNL A   1      46.547  24.446  27.013  1.00  0.00     0.023 A 
ATOM     86  C   UNL A   1      44.386  23.594  27.722  1.00  0.00     0.023 A 
ATOM     87  C   UNL A   1      46.711  25.053  28.262  1.00  0.00     0.017 A 
ATOM     88  C   UNL A   1      44.546  24.214  28.962  1.00  0.00     0.017 A 
ATOM     89  C   UNL A   1      45.712  24.933  29.229  1.00  0.00     0.018 A 
ATOM     90  Br  UNL A   1      45.957  25.717  30.932  1.00  0.00    -0.051 Br
ENDBRANCH  81  84
ENDBRANCH  79  81
ENDBRANCH  78  79
ENDBRANCH  72  74
ENDBRANCH  71  72
ENDBRANCH  70  71
ENDBRANCH   1  70
TORSDOF 17
ENDMDL
