MODEL 1
REMARK VINA RESULT:     -12.5      0.000      0.000
REMARK SMILES Cc1ccc(Nc2c(Cl)cc(Cl)cc2Cl)c(CC(=O)OCCOC(=O)c2ccc(-c3c4nc(c(-c5cc(S(=O)(=O)[O-])ccc5F)c5ccc([nH]5)c(-c5cc(S(=O)(=O)[O-])ccc5F)c5nc(c(-c6cc(S(=O)(=O)[O-])ccc6F)c6ccc3[nH]6)C=C5)C=C4)cc2)c1
REMARK SMILES IDX 21 1 20 2 18 3 19 4 17 5 16 6 1 7 2 8 3 9 89 10 4 11 5 12
REMARK SMILES IDX 6 13 7 15 8 16 14 17 9 18 10 19 13 20 15 21 11 22 12 23
REMARK SMILES IDX 22 24 23 25 24 26 25 27 26 28 27 29 88 30 28 31 87 32 29 33
REMARK SMILES IDX 30 34 31 35 81 36 32 37 86 38 80 39 82 40 33 41 85 42 79 43
REMARK SMILES IDX 78 44 34 46 66 47 46 48 65 49 47 50 50 51 64 52 83 53 48 54
REMARK SMILES IDX 49 55 63 57 84 58 51 59 35 60 36 61 44 62 37 63 43 64 45 65
REMARK SMILES IDX 42 66 38 67 39 68 40 69 41 70 67 71 68 72 76 73 69 74 75 75
REMARK SMILES IDX 77 76 74 77 70 78 71 79 72 80 73 81 52 82 53 83 61 84 54 85
REMARK SMILES IDX 60 86 62 87 59 88 55 89 56 90 57 91 58 92
REMARK H PARENT 6 14 82 45 50 56
REMARK Flexibility Score: inf
ROOT
ATOM      1  C   UNL A   1      33.504  30.323  26.717  1.00  0.00     0.274 C 
ENDROOT
BRANCH   1   2
ATOM      2  O   UNL A   1      32.432  29.815  27.499  1.00  0.00    -0.462 OA
BRANCH   2   3
ATOM      3  C   UNL A   1      32.019  28.538  27.282  1.00  0.00     0.310 C 
ATOM      4  O   UNL A   1      31.278  27.897  27.992  1.00  0.00    -0.252 OA
BRANCH   3   5
ATOM      5  C   UNL A   1      32.689  28.034  26.017  1.00  0.00     0.160 C 
BRANCH   5   6
ATOM      6  C   UNL A   1      31.624  27.535  25.078  1.00  0.00    -0.013 A 
ATOM      7  C   UNL A   1      29.183  29.375  22.829  1.00  0.00     0.044 C 
ATOM      8  C   UNL A   1      29.865  28.268  23.569  1.00  0.00    -0.051 A 
ATOM      9  C   UNL A   1      29.308  26.991  23.638  1.00  0.00     0.005 A 
ATOM     10  C   UNL A   1      31.037  28.523  24.268  1.00  0.00     0.009 A 
ATOM     11  C   UNL A   1      29.913  25.987  24.402  1.00  0.00     0.026 A 
ATOM     12  C   UNL A   1      31.070  26.235  25.148  1.00  0.00     0.042 A 
BRANCH  12  13
ATOM     13  N   UNL A   1      31.590  25.234  25.990  1.00  0.00    -0.353 N 
ATOM     14  H   UNL A   1      31.655  25.487  26.939  1.00  0.00     0.167 HD
BRANCH  13  15
ATOM     15  C   UNL A   1      32.034  23.920  25.692  1.00  0.00     0.076 A 
ATOM     16  C   UNL A   1      31.249  22.796  26.006  1.00  0.00     0.067 A 
ATOM     17  C   UNL A   1      33.160  23.703  24.869  1.00  0.00     0.067 A 
ATOM     18  Cl  UNL A   1      29.853  22.920  27.023  1.00  0.00    -0.082 Cl
ATOM     19  C   UNL A   1      31.579  21.523  25.526  1.00  0.00     0.043 A 
ATOM     20  C   UNL A   1      33.438  22.453  24.310  1.00  0.00     0.043 A 
ATOM     21  Cl  UNL A   1      34.382  24.907  24.678  1.00  0.00    -0.082 Cl
ATOM     22  C   UNL A   1      32.651  21.366  24.656  1.00  0.00     0.044 A 
ATOM     23  Cl  UNL A   1      33.045  19.801  24.056  1.00  0.00    -0.084 Cl
ENDBRANCH  13  15
ENDBRANCH  12  13
ENDBRANCH   5   6
ENDBRANCH   3   5
ENDBRANCH   2   3
ENDBRANCH   1   2
BRANCH   1  24
ATOM     24  C   UNL A   1      34.592  30.843  27.670  1.00  0.00     0.275 C 
BRANCH  24  25
ATOM     25  O   UNL A   1      35.536  29.845  28.219  1.00  0.00    -0.458 OA
BRANCH  25  26
ATOM     26  C   UNL A   1      36.716  29.998  28.893  1.00  0.00     0.338 C 
ATOM     27  O   UNL A   1      36.793  30.669  29.918  1.00  0.00    -0.246 OA
BRANCH  26  28
ATOM     28  C   UNL A   1      37.835  29.133  28.499  1.00  0.00     0.060 A 
ATOM     29  C   UNL A   1      38.653  29.411  27.388  1.00  0.00     0.016 A 
ATOM     30  C   UNL A   1      38.186  28.157  29.397  1.00  0.00     0.016 A 
ATOM     31  C   UNL A   1      39.898  28.792  27.294  1.00  0.00     0.010 A 
ATOM     32  C   UNL A   1      39.506  27.859  29.509  1.00  0.00     0.010 A 
ATOM     33  C   UNL A   1      40.321  28.048  28.394  1.00  0.00    -0.014 A 
BRANCH  33  34
ATOM     34  C   UNL A   1      41.430  27.108  28.402  1.00  0.00     0.031 A 
ATOM     35  C   UNL A   1      41.191  25.676  28.218  1.00  0.00     0.074 A 
ATOM     36  C   UNL A   1      42.628  27.731  28.518  1.00  0.00     0.049 A 
ATOM     37  N   UNL A   1      41.665  24.751  28.977  1.00  0.00    -0.248 NA
ATOM     38  C   UNL A   1      40.319  25.158  27.162  1.00  0.00     0.031 C 
ATOM     39  C   UNL A   1      43.994  27.275  28.404  1.00  0.00     0.029 A 
ATOM     40  N   UNL A   1      42.779  29.067  28.908  1.00  0.00    -0.354 N 
ATOM     41  C   UNL A   1      41.539  23.585  28.248  1.00  0.00     0.074 A 
ATOM     42  C   UNL A   1      40.500  23.836  27.280  1.00  0.00     0.031 C 
ATOM     43  C   UNL A   1      44.796  28.182  29.012  1.00  0.00     0.029 A 
ATOM     44  C   UNL A   1      43.958  29.224  29.604  1.00  0.00     0.049 A 
ATOM     45  H   UNL A   1      42.136  29.787  28.714  1.00  0.00     0.167 HD
ATOM     46  C   UNL A   1      42.549  22.670  28.259  1.00  0.00     0.034 A 
ATOM     47  C   UNL A   1      43.814  29.556  30.921  1.00  0.00     0.034 A 
ATOM     48  C   UNL A   1      43.701  23.219  28.971  1.00  0.00     0.049 A 
ATOM     49  C   UNL A   1      44.115  28.341  31.761  1.00  0.00     0.074 A 
ATOM     50  C   UNL A   1      44.861  23.819  28.509  1.00  0.00     0.029 A 
ATOM     51  N   UNL A   1      43.586  23.560  30.310  1.00  0.00    -0.354 N 
ATOM     52  N   UNL A   1      44.011  27.111  31.332  1.00  0.00    -0.248 NA
ATOM     53  C   UNL A   1      44.656  28.428  33.108  1.00  0.00     0.031 C 
ATOM     54  C   UNL A   1      45.409  24.584  29.574  1.00  0.00     0.029 A 
ATOM     55  C   UNL A   1      44.580  24.448  30.674  1.00  0.00     0.049 A 
ATOM     56  H   UNL A   1      42.893  23.217  30.918  1.00  0.00     0.167 HD
ATOM     57  C   UNL A   1      44.543  26.260  32.259  1.00  0.00     0.074 A 
ATOM     58  C   UNL A   1      44.921  27.135  33.360  1.00  0.00     0.031 C 
ATOM     59  C   UNL A   1      44.665  24.914  32.045  1.00  0.00     0.034 A 
BRANCH  46  60
ATOM     60  C   UNL A   1      42.653  21.494  27.319  1.00  0.00     0.023 A 
ATOM     61  C   UNL A   1      43.680  21.466  26.353  1.00  0.00     0.031 A 
ATOM     62  C   UNL A   1      41.817  20.362  27.354  1.00  0.00     0.131 A 
ATOM     63  C   UNL A   1      43.813  20.404  25.444  1.00  0.00     0.055 A 
ATOM     64  C   UNL A   1      41.932  19.310  26.430  1.00  0.00     0.041 A 
ATOM     65  F   UNL A   1      40.881  20.217  28.305  1.00  0.00    -0.206 F 
ATOM     66  C   UNL A   1      42.931  19.329  25.464  1.00  0.00     0.022 A 
BRANCH  63  67
ATOM     67  S   UNL A   1      45.185  20.446  24.256  1.00  0.00     0.124 S 
ATOM     68  O   UNL A   1      44.751  21.481  23.324  1.00  0.00    -0.237 OA
ATOM     69  O   UNL A   1      46.323  20.780  25.105  1.00  0.00    -0.237 OA
ATOM     70  O   UNL A   1      45.202  19.090  23.710  1.00  0.00    -0.744 OA
ENDBRANCH  63  67
ENDBRANCH  46  60
BRANCH  47  71
ATOM     71  C   UNL A   1      42.720  30.576  31.167  1.00  0.00     0.023 A 
ATOM     72  C   UNL A   1      41.541  30.119  31.814  1.00  0.00     0.031 A 
ATOM     73  C   UNL A   1      42.903  31.964  31.105  1.00  0.00     0.131 A 
ATOM     74  C   UNL A   1      40.687  31.008  32.490  1.00  0.00     0.055 A 
ATOM     75  C   UNL A   1      42.000  32.858  31.715  1.00  0.00     0.041 A 
ATOM     76  F   UNL A   1      43.998  32.487  30.537  1.00  0.00    -0.206 F 
ATOM     77  C   UNL A   1      40.908  32.382  32.443  1.00  0.00     0.022 A 
BRANCH  74  78
ATOM     78  S   UNL A   1      39.481  30.336  33.680  1.00  0.00     0.124 S 
ATOM     79  O   UNL A   1      39.679  31.195  34.841  1.00  0.00    -0.237 OA
ATOM     80  O   UNL A   1      38.212  30.492  32.973  1.00  0.00    -0.237 OA
ATOM     81  O   UNL A   1      39.905  28.947  33.834  1.00  0.00    -0.744 OA
ENDBRANCH  74  78
ENDBRANCH  47  71
BRANCH  59  82
ATOM     82  C   UNL A   1      44.977  23.898  33.111  1.00  0.00     0.023 A 
ATOM     83  C   UNL A   1      46.253  23.769  33.657  1.00  0.00     0.031 A 
ATOM     84  C   UNL A   1      43.971  23.080  33.684  1.00  0.00     0.131 A 
ATOM     85  C   UNL A   1      46.530  22.780  34.608  1.00  0.00     0.055 A 
ATOM     86  C   UNL A   1      44.222  22.194  34.730  1.00  0.00     0.041 A 
ATOM     87  F   UNL A   1      42.697  23.109  33.262  1.00  0.00    -0.206 F 
ATOM     88  C   UNL A   1      45.519  22.014  35.179  1.00  0.00     0.022 A 
BRANCH  85  89
ATOM     89  S   UNL A   1      48.268  22.443  34.958  1.00  0.00     0.124 S 
ATOM     90  O   UNL A   1      48.930  23.534  34.246  1.00  0.00    -0.237 OA
ATOM     91  O   UNL A   1      48.317  22.518  36.414  1.00  0.00    -0.237 OA
ATOM     92  O   UNL A   1      48.478  21.113  34.391  1.00  0.00    -0.744 OA
ENDBRANCH  85  89
ENDBRANCH  59  82
ENDBRANCH  33  34
ENDBRANCH  26  28
ENDBRANCH  25  26
ENDBRANCH  24  25
ENDBRANCH   1  24
TORSDOF 17
ENDMDL
MODEL 2
REMARK VINA RESULT:     -12.4      4.501      9.832
REMARK SMILES Cc1ccc(Nc2c(Cl)cc(Cl)cc2Cl)c(CC(=O)OCCOC(=O)c2ccc(-c3c4nc(c(-c5cc(S(=O)(=O)[O-])ccc5F)c5ccc([nH]5)c(-c5cc(S(=O)(=O)[O-])ccc5F)c5nc(c(-c6cc(S(=O)(=O)[O-])ccc6F)c6ccc3[nH]6)C=C5)C=C4)cc2)c1
REMARK SMILES IDX 21 1 20 2 18 3 19 4 17 5 16 6 1 7 2 8 3 9 89 10 4 11 5 12
REMARK SMILES IDX 6 13 7 15 8 16 14 17 9 18 10 19 13 20 15 21 11 22 12 23
REMARK SMILES IDX 22 24 23 25 24 26 25 27 26 28 27 29 88 30 28 31 87 32 29 33
REMARK SMILES IDX 30 34 31 35 81 36 32 37 86 38 80 39 82 40 33 41 85 42 79 43
REMARK SMILES IDX 78 44 34 46 66 47 46 48 65 49 47 50 50 51 64 52 83 53 48 54
REMARK SMILES IDX 49 55 63 57 84 58 51 59 35 60 36 61 44 62 37 63 43 64 45 65
REMARK SMILES IDX 42 66 38 67 39 68 40 69 41 70 67 71 68 72 76 73 69 74 75 75
REMARK SMILES IDX 77 76 74 77 70 78 71 79 72 80 73 81 52 82 53 83 61 84 54 85
REMARK SMILES IDX 60 86 62 87 59 88 55 89 56 90 57 91 58 92
REMARK H PARENT 6 14 82 45 50 56
REMARK Flexibility Score: inf
ROOT
ATOM      1  C   UNL A   1      36.778  22.342  24.574  1.00  0.00     0.274 C 
ENDROOT
BRANCH   1   2
ATOM      2  O   UNL A   1      36.588  23.713  24.253  1.00  0.00    -0.462 OA
BRANCH   2   3
ATOM      3  C   UNL A   1      35.319  24.194  24.186  1.00  0.00     0.310 C 
ATOM      4  O   UNL A   1      34.630  24.254  23.194  1.00  0.00    -0.252 OA
BRANCH   3   5
ATOM      5  C   UNL A   1      34.928  24.688  25.567  1.00  0.00     0.160 C 
BRANCH   5   6
ATOM      6  C   UNL A   1      33.615  25.416  25.461  1.00  0.00    -0.013 A 
ATOM      7  C   UNL A   1      32.796  29.112  25.196  1.00  0.00     0.044 C 
ATOM      8  C   UNL A   1      32.626  27.634  25.347  1.00  0.00    -0.051 A 
ATOM      9  C   UNL A   1      31.401  27.079  25.717  1.00  0.00     0.005 A 
ATOM     10  C   UNL A   1      33.719  26.793  25.193  1.00  0.00     0.009 A 
ATOM     11  C   UNL A   1      31.276  25.703  25.936  1.00  0.00     0.026 A 
ATOM     12  C   UNL A   1      32.375  24.844  25.829  1.00  0.00     0.042 A 
BRANCH  12  13
ATOM     13  N   UNL A   1      32.237  23.483  26.162  1.00  0.00    -0.353 N 
ATOM     14  H   UNL A   1      31.787  23.313  27.021  1.00  0.00     0.167 HD
BRANCH  13  15
ATOM     15  C   UNL A   1      32.641  22.319  25.460  1.00  0.00     0.076 A 
ATOM     16  C   UNL A   1      33.449  21.342  26.071  1.00  0.00     0.067 A 
ATOM     17  C   UNL A   1      32.064  21.984  24.216  1.00  0.00     0.067 A 
ATOM     18  Cl  UNL A   1      34.233  21.632  27.588  1.00  0.00    -0.082 Cl
ATOM     19  C   UNL A   1      33.671  20.100  25.464  1.00  0.00     0.043 A 
ATOM     20  C   UNL A   1      32.205  20.712  23.653  1.00  0.00     0.043 A 
ATOM     21  Cl  UNL A   1      31.335  23.181  23.210  1.00  0.00    -0.082 Cl
ATOM     22  C   UNL A   1      33.022  19.782  24.277  1.00  0.00     0.044 A 
ATOM     23  Cl  UNL A   1      33.285  18.248  23.541  1.00  0.00    -0.084 Cl
ENDBRANCH  13  15
ENDBRANCH  12  13
ENDBRANCH   5   6
ENDBRANCH   3   5
ENDBRANCH   2   3
ENDBRANCH   1   2
BRANCH   1  24
ATOM     24  C   UNL A   1      37.791  22.252  25.727  1.00  0.00     0.275 C 
BRANCH  24  25
ATOM     25  O   UNL A   1      38.501  23.498  26.095  1.00  0.00    -0.458 OA
BRANCH  25  26
ATOM     26  C   UNL A   1      39.748  23.702  26.619  1.00  0.00     0.338 C 
ATOM     27  O   UNL A   1      40.692  22.966  26.346  1.00  0.00    -0.246 OA
BRANCH  26  28
ATOM     28  C   UNL A   1      39.988  24.971  27.315  1.00  0.00     0.060 A 
ATOM     29  C   UNL A   1      40.461  26.121  26.654  1.00  0.00     0.016 A 
ATOM     30  C   UNL A   1      39.518  25.050  28.602  1.00  0.00     0.016 A 
ATOM     31  C   UNL A   1      40.304  27.363  27.264  1.00  0.00     0.010 A 
ATOM     32  C   UNL A   1      39.029  26.248  29.014  1.00  0.00     0.010 A 
ATOM     33  C   UNL A   1      39.543  27.405  28.432  1.00  0.00    -0.014 A 
BRANCH  33  34
ATOM     34  C   UNL A   1      39.490  28.518  29.365  1.00  0.00     0.031 A 
ATOM     35  C   UNL A   1      38.519  29.596  29.181  1.00  0.00     0.074 A 
ATOM     36  C   UNL A   1      40.360  28.365  30.394  1.00  0.00     0.049 A 
ATOM     37  N   UNL A   1      38.805  30.851  29.202  1.00  0.00    -0.248 NA
ATOM     38  C   UNL A   1      37.108  29.337  28.887  1.00  0.00     0.031 C 
ATOM     39  C   UNL A   1      40.562  29.081  31.633  1.00  0.00     0.029 A 
ATOM     40  N   UNL A   1      41.406  27.435  30.401  1.00  0.00    -0.354 N 
ATOM     41  C   UNL A   1      37.598  31.495  29.384  1.00  0.00     0.074 A 
ATOM     42  C   UNL A   1      36.586  30.570  28.934  1.00  0.00     0.031 C 
ATOM     43  C   UNL A   1      41.803  28.793  32.093  1.00  0.00     0.029 A 
ATOM     44  C   UNL A   1      42.472  27.930  31.119  1.00  0.00     0.049 A 
ATOM     45  H   UNL A   1      41.382  26.556  29.956  1.00  0.00     0.167 HD
ATOM     46  C   UNL A   1      37.521  32.561  30.230  1.00  0.00     0.034 A 
ATOM     47  C   UNL A   1      43.597  28.183  30.387  1.00  0.00     0.034 A 
ATOM     48  C   UNL A   1      38.791  32.720  30.934  1.00  0.00     0.049 A 
ATOM     49  C   UNL A   1      43.729  29.673  30.206  1.00  0.00     0.074 A 
ATOM     50  C   UNL A   1      39.193  32.323  32.199  1.00  0.00     0.029 A 
ATOM     51  N   UNL A   1      39.949  32.983  30.218  1.00  0.00    -0.354 N 
ATOM     52  N   UNL A   1      42.726  30.509  30.263  1.00  0.00    -0.248 NA
ATOM     53  C   UNL A   1      45.014  30.338  30.053  1.00  0.00     0.031 C 
ATOM     54  C   UNL A   1      40.613  32.286  32.214  1.00  0.00     0.029 A 
ATOM     55  C   UNL A   1      41.067  32.656  30.960  1.00  0.00     0.049 A 
ATOM     56  H   UNL A   1      39.972  33.352  29.306  1.00  0.00     0.167 HD
ATOM     57  C   UNL A   1      43.201  31.791  30.260  1.00  0.00     0.074 A 
ATOM     58  C   UNL A   1      44.642  31.628  30.112  1.00  0.00     0.031 C 
ATOM     59  C   UNL A   1      42.390  32.882  30.411  1.00  0.00     0.034 A 
BRANCH  46  60
ATOM     60  C   UNL A   1      36.235  33.184  30.714  1.00  0.00     0.023 A 
ATOM     61  C   UNL A   1      35.466  33.966  29.827  1.00  0.00     0.031 A 
ATOM     62  C   UNL A   1      35.692  33.008  32.000  1.00  0.00     0.131 A 
ATOM     63  C   UNL A   1      34.269  34.581  30.229  1.00  0.00     0.055 A 
ATOM     64  C   UNL A   1      34.508  33.642  32.413  1.00  0.00     0.041 A 
ATOM     65  F   UNL A   1      36.269  32.189  32.893  1.00  0.00    -0.206 F 
ATOM     66  C   UNL A   1      33.792  34.438  31.528  1.00  0.00     0.022 A 
BRANCH  63  67
ATOM     67  S   UNL A   1      33.335  35.544  29.007  1.00  0.00     0.124 S 
ATOM     68  O   UNL A   1      34.401  36.126  28.197  1.00  0.00    -0.237 OA
ATOM     69  O   UNL A   1      32.521  34.522  28.360  1.00  0.00    -0.237 OA
ATOM     70  O   UNL A   1      32.590  36.498  29.825  1.00  0.00    -0.744 OA
ENDBRANCH  63  67
ENDBRANCH  46  60
BRANCH  47  71
ATOM     71  C   UNL A   1      43.892  27.117  29.351  1.00  0.00     0.023 A 
ATOM     72  C   UNL A   1      43.854  27.511  27.987  1.00  0.00     0.031 A 
ATOM     73  C   UNL A   1      44.501  25.886  29.631  1.00  0.00     0.131 A 
ATOM     74  C   UNL A   1      44.531  26.779  26.995  1.00  0.00     0.055 A 
ATOM     75  C   UNL A   1      45.109  25.114  28.621  1.00  0.00     0.041 A 
ATOM     76  F   UNL A   1      44.606  25.444  30.892  1.00  0.00    -0.206 F 
ATOM     77  C   UNL A   1      45.160  25.575  27.305  1.00  0.00     0.022 A 
BRANCH  74  78
ATOM     78  S   UNL A   1      44.849  27.566  25.383  1.00  0.00     0.124 S 
ATOM     79  O   UNL A   1      45.454  28.835  25.770  1.00  0.00    -0.237 OA
ATOM     80  O   UNL A   1      45.733  26.605  24.726  1.00  0.00    -0.237 OA
ATOM     81  O   UNL A   1      43.519  27.648  24.785  1.00  0.00    -0.744 OA
ENDBRANCH  74  78
ENDBRANCH  47  71
BRANCH  59  82
ATOM     82  C   UNL A   1      42.803  34.304  30.141  1.00  0.00     0.023 A 
ATOM     83  C   UNL A   1      42.628  34.900  28.893  1.00  0.00     0.031 A 
ATOM     84  C   UNL A   1      43.307  35.145  31.164  1.00  0.00     0.131 A 
ATOM     85  C   UNL A   1      43.070  36.205  28.651  1.00  0.00     0.055 A 
ATOM     86  C   UNL A   1      43.616  36.488  30.956  1.00  0.00     0.041 A 
ATOM     87  F   UNL A   1      43.516  34.706  32.415  1.00  0.00    -0.206 F 
ATOM     88  C   UNL A   1      43.529  37.021  29.681  1.00  0.00     0.022 A 
BRANCH  85  89
ATOM     89  S   UNL A   1      43.155  36.738  26.929  1.00  0.00     0.124 S 
ATOM     90  O   UNL A   1      43.251  35.460  26.229  1.00  0.00    -0.237 OA
ATOM     91  O   UNL A   1      41.896  37.458  26.760  1.00  0.00    -0.237 OA
ATOM     92  O   UNL A   1      44.359  37.563  26.886  1.00  0.00    -0.744 OA
ENDBRANCH  85  89
ENDBRANCH  59  82
ENDBRANCH  33  34
ENDBRANCH  26  28
ENDBRANCH  25  26
ENDBRANCH  24  25
ENDBRANCH   1  24
TORSDOF 17
ENDMDL
MODEL 3
REMARK VINA RESULT:     -12.2      1.512      2.048
REMARK SMILES Cc1ccc(Nc2c(Cl)cc(Cl)cc2Cl)c(CC(=O)OCCOC(=O)c2ccc(-c3c4nc(c(-c5cc(S(=O)(=O)[O-])ccc5F)c5ccc([nH]5)c(-c5cc(S(=O)(=O)[O-])ccc5F)c5nc(c(-c6cc(S(=O)(=O)[O-])ccc6F)c6ccc3[nH]6)C=C5)C=C4)cc2)c1
REMARK SMILES IDX 21 1 20 2 18 3 19 4 17 5 16 6 1 7 2 8 3 9 89 10 4 11 5 12
REMARK SMILES IDX 6 13 7 15 8 16 14 17 9 18 10 19 13 20 15 21 11 22 12 23
REMARK SMILES IDX 22 24 23 25 24 26 25 27 26 28 27 29 88 30 28 31 87 32 29 33
REMARK SMILES IDX 30 34 31 35 81 36 32 37 86 38 80 39 82 40 33 41 85 42 79 43
REMARK SMILES IDX 78 44 34 46 66 47 46 48 65 49 47 50 50 51 64 52 83 53 48 54
REMARK SMILES IDX 49 55 63 57 84 58 51 59 35 60 36 61 44 62 37 63 43 64 45 65
REMARK SMILES IDX 42 66 38 67 39 68 40 69 41 70 67 71 68 72 76 73 69 74 75 75
REMARK SMILES IDX 77 76 74 77 70 78 71 79 72 80 73 81 52 82 53 83 61 84 54 85
REMARK SMILES IDX 60 86 62 87 59 88 55 89 56 90 57 91 58 92
REMARK H PARENT 6 14 82 45 50 56
REMARK Flexibility Score: inf
ROOT
ATOM      1  C   UNL A   1      33.079  30.902  26.791  1.00  0.00     0.274 C 
ENDROOT
BRANCH   1   2
ATOM      2  O   UNL A   1      31.920  30.224  27.252  1.00  0.00    -0.462 OA
BRANCH   2   3
ATOM      3  C   UNL A   1      31.870  28.870  27.137  1.00  0.00     0.310 C 
ATOM      4  O   UNL A   1      31.403  28.102  27.945  1.00  0.00    -0.252 OA
BRANCH   3   5
ATOM      5  C   UNL A   1      32.545  28.484  25.833  1.00  0.00     0.160 C 
BRANCH   5   6
ATOM      6  C   UNL A   1      31.507  27.905  24.910  1.00  0.00    -0.013 A 
ATOM      7  C   UNL A   1      28.848  29.553  22.761  1.00  0.00     0.044 C 
ATOM      8  C   UNL A   1      29.649  28.500  23.459  1.00  0.00    -0.051 A 
ATOM      9  C   UNL A   1      29.215  27.175  23.514  1.00  0.00     0.005 A 
ATOM     10  C   UNL A   1      30.810  28.850  24.135  1.00  0.00     0.009 A 
ATOM     11  C   UNL A   1      29.931  26.218  24.241  1.00  0.00     0.026 A 
ATOM     12  C   UNL A   1      31.078  26.558  24.965  1.00  0.00     0.042 A 
BRANCH  12  13
ATOM     13  N   UNL A   1      31.711  25.594  25.772  1.00  0.00    -0.353 N 
ATOM     14  H   UNL A   1      31.791  25.840  26.722  1.00  0.00     0.167 HD
BRANCH  13  15
ATOM     15  C   UNL A   1      32.251  24.326  25.438  1.00  0.00     0.076 A 
ATOM     16  C   UNL A   1      33.396  24.211  24.629  1.00  0.00     0.067 A 
ATOM     17  C   UNL A   1      31.806  23.153  26.087  1.00  0.00     0.067 A 
ATOM     18  Cl  UNL A   1      34.034  25.566  23.761  1.00  0.00    -0.082 Cl
ATOM     19  C   UNL A   1      34.055  22.985  24.474  1.00  0.00     0.043 A 
ATOM     20  C   UNL A   1      32.516  21.952  26.011  1.00  0.00     0.043 A 
ATOM     21  Cl  UNL A   1      30.251  23.070  26.831  1.00  0.00    -0.082 Cl
ATOM     22  C   UNL A   1      33.630  21.873  25.191  1.00  0.00     0.044 A 
ATOM     23  Cl  UNL A   1      34.452  20.371  25.010  1.00  0.00    -0.084 Cl
ENDBRANCH  13  15
ENDBRANCH  12  13
ENDBRANCH   5   6
ENDBRANCH   3   5
ENDBRANCH   2   3
ENDBRANCH   1   2
BRANCH   1  24
ATOM     24  C   UNL A   1      33.982  31.194  28.001  1.00  0.00     0.275 C 
BRANCH  24  25
ATOM     25  O   UNL A   1      35.054  30.216  28.289  1.00  0.00    -0.458 OA
BRANCH  25  26
ATOM     26  C   UNL A   1      36.255  30.360  28.928  1.00  0.00     0.338 C 
ATOM     27  O   UNL A   1      36.355  30.977  29.985  1.00  0.00    -0.246 OA
BRANCH  26  28
ATOM     28  C   UNL A   1      37.376  29.542  28.450  1.00  0.00     0.060 A 
ATOM     29  C   UNL A   1      37.981  29.746  27.195  1.00  0.00     0.016 A 
ATOM     30  C   UNL A   1      37.953  28.711  29.376  1.00  0.00     0.016 A 
ATOM     31  C   UNL A   1      39.249  29.217  26.963  1.00  0.00     0.010 A 
ATOM     32  C   UNL A   1      39.296  28.530  29.300  1.00  0.00     0.010 A 
ATOM     33  C   UNL A   1      39.907  28.644  28.052  1.00  0.00    -0.014 A 
BRANCH  33  34
ATOM     34  C   UNL A   1      41.087  27.799  27.976  1.00  0.00     0.031 A 
ATOM     35  C   UNL A   1      40.960  26.342  27.999  1.00  0.00     0.074 A 
ATOM     36  C   UNL A   1      42.223  28.522  27.814  1.00  0.00     0.049 A 
ATOM     37  N   UNL A   1      41.636  25.560  28.766  1.00  0.00    -0.248 NA
ATOM     38  C   UNL A   1      39.983  25.629  27.173  1.00  0.00     0.031 C 
ATOM     39  C   UNL A   1      43.590  28.159  27.521  1.00  0.00     0.029 A 
ATOM     40  N   UNL A   1      42.306  29.903  28.019  1.00  0.00    -0.354 N 
ATOM     41  C   UNL A   1      41.507  24.305  28.206  1.00  0.00     0.074 A 
ATOM     42  C   UNL A   1      40.307  24.350  27.407  1.00  0.00     0.031 C 
ATOM     43  C   UNL A   1      44.389  29.194  27.876  1.00  0.00     0.029 A 
ATOM     44  C   UNL A   1      43.561  30.237  28.481  1.00  0.00     0.049 A 
ATOM     45  H   UNL A   1      41.574  30.543  27.858  1.00  0.00     0.167 HD
ATOM     46  C   UNL A   1      42.588  23.477  28.148  1.00  0.00     0.034 A 
ATOM     47  C   UNL A   1      43.598  30.722  29.757  1.00  0.00     0.034 A 
ATOM     48  C   UNL A   1      43.781  24.197  28.585  1.00  0.00     0.049 A 
ATOM     49  C   UNL A   1      44.146  29.651  30.665  1.00  0.00     0.074 A 
ATOM     50  C   UNL A   1      44.790  24.820  27.867  1.00  0.00     0.029 A 
ATOM     51  N   UNL A   1      43.851  24.697  29.877  1.00  0.00    -0.354 N 
ATOM     52  N   UNL A   1      44.092  28.372  30.402  1.00  0.00    -0.248 NA
ATOM     53  C   UNL A   1      44.885  29.949  31.881  1.00  0.00     0.031 C 
ATOM     54  C   UNL A   1      45.425  25.753  28.729  1.00  0.00     0.029 A 
ATOM     55  C   UNL A   1      44.800  25.697  29.963  1.00  0.00     0.049 A 
ATOM     56  H   UNL A   1      43.300  24.383  30.629  1.00  0.00     0.167 HD
ATOM     57  C   UNL A   1      44.845  27.688  31.315  1.00  0.00     0.074 A 
ATOM     58  C   UNL A   1      45.309  28.723  32.229  1.00  0.00     0.031 C 
ATOM     59  C   UNL A   1      45.060  26.339  31.237  1.00  0.00     0.034 A 
BRANCH  46  60
ATOM     60  C   UNL A   1      42.652  22.202  27.343  1.00  0.00     0.023 A 
ATOM     61  C   UNL A   1      43.674  22.035  26.387  1.00  0.00     0.031 A 
ATOM     62  C   UNL A   1      41.781  21.108  27.502  1.00  0.00     0.131 A 
ATOM     63  C   UNL A   1      43.771  20.876  25.600  1.00  0.00     0.055 A 
ATOM     64  C   UNL A   1      41.860  19.957  26.700  1.00  0.00     0.041 A 
ATOM     65  F   UNL A   1      40.844  21.098  28.464  1.00  0.00    -0.206 F 
ATOM     66  C   UNL A   1      42.856  19.838  25.738  1.00  0.00     0.022 A 
BRANCH  63  67
ATOM     67  S   UNL A   1      45.140  20.743  24.415  1.00  0.00     0.124 S 
ATOM     68  O   UNL A   1      46.229  21.398  25.131  1.00  0.00    -0.237 OA
ATOM     69  O   UNL A   1      45.261  19.300  24.239  1.00  0.00    -0.237 OA
ATOM     70  O   UNL A   1      44.646  21.466  23.245  1.00  0.00    -0.744 OA
ENDBRANCH  63  67
ENDBRANCH  46  60
BRANCH  47  71
ATOM     71  C   UNL A   1      42.466  31.679  30.070  1.00  0.00     0.023 A 
ATOM     72  C   UNL A   1      41.399  31.184  30.865  1.00  0.00     0.031 A 
ATOM     73  C   UNL A   1      42.539  33.071  29.915  1.00  0.00     0.131 A 
ATOM     74  C   UNL A   1      40.559  32.053  31.585  1.00  0.00     0.055 A 
ATOM     75  C   UNL A   1      41.644  33.937  30.575  1.00  0.00     0.041 A 
ATOM     76  F   UNL A   1      43.527  33.631  29.203  1.00  0.00    -0.206 F 
ATOM     77  C   UNL A   1      40.674  33.434  31.442  1.00  0.00     0.022 A 
BRANCH  74  78
ATOM     78  S   UNL A   1      39.540  31.374  32.934  1.00  0.00     0.124 S 
ATOM     79  O   UNL A   1      38.270  32.064  32.742  1.00  0.00    -0.237 OA
ATOM     80  O   UNL A   1      39.543  29.941  32.648  1.00  0.00    -0.237 OA
ATOM     81  O   UNL A   1      40.290  31.738  34.133  1.00  0.00    -0.744 OA
ENDBRANCH  74  78
ENDBRANCH  47  71
BRANCH  59  82
ATOM     82  C   UNL A   1      45.634  25.494  32.343  1.00  0.00     0.023 A 
ATOM     83  C   UNL A   1      44.881  24.521  32.996  1.00  0.00     0.031 A 
ATOM     84  C   UNL A   1      46.999  25.578  32.717  1.00  0.00     0.131 A 
ATOM     85  C   UNL A   1      45.421  23.787  34.057  1.00  0.00     0.055 A 
ATOM     86  C   UNL A   1      47.571  24.748  33.679  1.00  0.00     0.041 A 
ATOM     87  F   UNL A   1      47.841  26.463  32.163  1.00  0.00    -0.206 F 
ATOM     88  C   UNL A   1      46.772  23.863  34.383  1.00  0.00     0.022 A 
BRANCH  85  89
ATOM     89  S   UNL A   1      44.267  22.846  35.077  1.00  0.00     0.124 S 
ATOM     90  O   UNL A   1      44.640  23.279  36.422  1.00  0.00    -0.237 OA
ATOM     91  O   UNL A   1      42.970  23.316  34.600  1.00  0.00    -0.237 OA
ATOM     92  O   UNL A   1      44.585  21.456  34.760  1.00  0.00    -0.744 OA
ENDBRANCH  85  89
ENDBRANCH  59  82
ENDBRANCH  33  34
ENDBRANCH  26  28
ENDBRANCH  25  26
ENDBRANCH  24  25
ENDBRANCH   1  24
TORSDOF 17
ENDMDL
