MODEL 1
REMARK VINA RESULT:     -11.8      0.000      0.000
REMARK SMILES COc1cccc(OC)c1[C@@H](C(=O)OCCOC(=O)c1ccc(-c2c3nc(c(-c4cc(S(=O)(=O)[O-])ccc4F)c4ccc([nH]4)c(-c4cc(S(=O)(=O)[O-])ccc4F)c4nc(c(-c5cc(S(=O)(=O)[O-])ccc5F)c5ccc2[nH]5)C=C4)C=C3)cc1)[N@@H+](C)Cc1c(C)n[nH]c1C
REMARK SMILES IDX 15 1 14 2 12 3 13 4 11 5 10 6 3 7 4 8 5 9 7 10 6 11 2 12
REMARK SMILES IDX 1 13 8 14 9 15 83 16 84 17 85 19 86 20 87 21 91 22 88 23
REMARK SMILES IDX 89 24 90 25 92 26 16 28 17 29 18 30 19 31 20 32 21 33 82 34
REMARK SMILES IDX 22 35 81 36 23 37 24 38 25 39 75 40 26 41 80 42 74 43 76 44
REMARK SMILES IDX 27 45 79 46 73 47 72 48 28 50 60 51 40 52 59 53 41 54 44 55
REMARK SMILES IDX 58 56 77 57 42 58 43 59 57 61 78 62 45 63 29 64 30 65 38 66
REMARK SMILES IDX 31 67 37 68 39 69 36 70 32 71 33 72 34 73 35 74 61 75 62 76
REMARK SMILES IDX 70 77 63 78 69 79 71 80 68 81 64 82 65 83 66 84 67 85 46 86
REMARK SMILES IDX 47 87 55 88 48 89 54 90 56 91 53 92 49 93 50 94 51 95 52 96
REMARK H PARENT 83 18 90 27 76 49 44 60
REMARK Flexibility Score: inf
ROOT
ATOM      1  C   UNL A   1      33.506  27.810  26.556  1.00  0.00     0.274 C 
ENDROOT
BRANCH   1   2
ATOM      2  O   UNL A   1      33.636  26.857  25.442  1.00  0.00    -0.457 OA
BRANCH   2   3
ATOM      3  C   UNL A   1      33.440  27.391  24.205  1.00  0.00     0.370 C 
ATOM      4  O   UNL A   1      34.125  28.349  23.822  1.00  0.00    -0.245 OA
BRANCH   3   5
ATOM      5  C   UNL A   1      32.311  26.806  23.282  1.00  0.00     0.334 C 
BRANCH   5   6
ATOM      6  C   UNL A   1      30.784  26.996  23.524  1.00  0.00     0.105 A 
ATOM      7  C   UNL A   1      30.020  25.966  24.121  1.00  0.00     0.132 A 
ATOM      8  C   UNL A   1      28.606  26.027  24.197  1.00  0.00     0.047 A 
ATOM      9  C   UNL A   1      27.894  27.113  23.709  1.00  0.00     0.008 A 
ATOM     10  C   UNL A   1      30.016  28.159  23.258  1.00  0.00     0.132 A 
ATOM     11  C   UNL A   1      28.608  28.199  23.276  1.00  0.00     0.047 A 
BRANCH   7  12
ATOM     12  O   UNL A   1      30.538  24.805  24.648  1.00  0.00    -0.496 OA
ATOM     13  C   UNL A   1      30.812  24.837  26.055  1.00  0.00     0.278 C 
ENDBRANCH   7  12
BRANCH  10  14
ATOM     14  O   UNL A   1      30.538  29.424  23.177  1.00  0.00    -0.496 OA
ATOM     15  C   UNL A   1      30.369  29.875  21.850  1.00  0.00     0.278 C 
ENDBRANCH  10  14
ENDBRANCH   5   6
BRANCH   5  16
ATOM     16  N   UNL A   1      32.743  25.600  22.537  1.00  0.00    -0.318 N 
ATOM     17  C   UNL A   1      32.392  25.593  21.113  1.00  0.00     0.334 C 
ATOM     18  H   UNL A   1      32.151  24.912  23.002  1.00  0.00     0.349 HD
BRANCH  16  19
ATOM     19  C   UNL A   1      34.074  25.081  22.773  1.00  0.00     0.303 C 
BRANCH  19  20
ATOM     20  C   UNL A   1      34.249  23.770  23.576  1.00  0.00     0.050 A 
ATOM     21  C   UNL A   1      35.225  23.517  25.327  1.00  0.00     0.068 A 
ATOM     22  C   UNL A   1      33.186  22.269  23.396  1.00  0.00     0.041 A 
ATOM     23  C   UNL A   1      36.596  23.910  25.863  1.00  0.00     0.069 C 
ATOM     24  N   UNL A   1      34.793  21.936  25.946  1.00  0.00    -0.180 NA
ATOM     25  N   UNL A   1      33.434  21.240  24.904  1.00  0.00    -0.282 N 
ATOM     26  C   UNL A   1      31.907  21.909  22.664  1.00  0.00     0.066 C 
ATOM     27  H   UNL A   1      32.915  20.434  25.125  1.00  0.00     0.190 HD
ENDBRANCH  19  20
ENDBRANCH  16  19
ENDBRANCH   5  16
ENDBRANCH   3   5
ENDBRANCH   2   3
ENDBRANCH   1   2
BRANCH   1  28
ATOM     28  C   UNL A   1      32.105  28.471  26.787  1.00  0.00     0.275 C 
BRANCH  28  29
ATOM     29  O   UNL A   1      31.894  29.777  26.137  1.00  0.00    -0.458 OA
BRANCH  29  30
ATOM     30  C   UNL A   1      32.666  30.860  26.812  1.00  0.00     0.338 C 
ATOM     31  O   UNL A   1      31.792  31.797  26.865  1.00  0.00    -0.246 OA
BRANCH  30  32
ATOM     32  C   UNL A   1      34.748  30.872  27.573  1.00  0.00     0.060 A 
ATOM     33  C   UNL A   1      35.518  29.707  28.115  1.00  0.00     0.016 A 
ATOM     34  C   UNL A   1      35.717  31.985  27.928  1.00  0.00     0.016 A 
ATOM     35  C   UNL A   1      36.223  29.692  29.276  1.00  0.00     0.010 A 
ATOM     36  C   UNL A   1      36.934  31.832  28.681  1.00  0.00     0.010 A 
ATOM     37  C   UNL A   1      37.192  30.624  29.311  1.00  0.00    -0.014 A 
BRANCH  37  38
ATOM     38  C   UNL A   1      38.343  30.120  30.065  1.00  0.00     0.031 A 
ATOM     39  C   UNL A   1      39.374  29.379  29.307  1.00  0.00     0.074 A 
ATOM     40  C   UNL A   1      38.597  30.665  31.284  1.00  0.00     0.049 A 
ATOM     41  N   UNL A   1      40.449  28.807  29.751  1.00  0.00    -0.248 NA
ATOM     42  C   UNL A   1      39.164  29.271  27.856  1.00  0.00     0.031 C 
ATOM     43  C   UNL A   1      37.769  31.693  31.956  1.00  0.00     0.029 A 
ATOM     44  N   UNL A   1      39.663  30.545  32.130  1.00  0.00    -0.354 N 
ATOM     45  C   UNL A   1      40.992  28.166  28.651  1.00  0.00     0.074 A 
ATOM     46  C   UNL A   1      40.145  28.452  27.516  1.00  0.00     0.031 C 
ATOM     47  C   UNL A   1      38.400  32.156  33.041  1.00  0.00     0.029 A 
ATOM     48  C   UNL A   1      39.563  31.327  33.261  1.00  0.00     0.049 A 
ATOM     49  H   UNL A   1      40.431  29.957  31.948  1.00  0.00     0.167 HD
ATOM     50  C   UNL A   1      42.081  27.368  28.652  1.00  0.00     0.034 A 
ATOM     51  C   UNL A   1      40.282  31.301  34.395  1.00  0.00     0.034 A 
ATOM     52  C   UNL A   1      42.853  27.151  29.849  1.00  0.00     0.049 A 
ATOM     53  C   UNL A   1      41.375  30.275  34.434  1.00  0.00     0.074 A 
ATOM     54  C   UNL A   1      43.921  26.303  30.047  1.00  0.00     0.029 A 
ATOM     55  N   UNL A   1      42.618  27.794  31.066  1.00  0.00    -0.354 N 
ATOM     56  N   UNL A   1      41.785  29.488  33.464  1.00  0.00    -0.248 NA
ATOM     57  C   UNL A   1      42.081  30.110  35.702  1.00  0.00     0.031 C 
ATOM     58  C   UNL A   1      44.256  26.350  31.404  1.00  0.00     0.029 A 
ATOM     59  C   UNL A   1      43.492  27.327  32.030  1.00  0.00     0.049 A 
ATOM     60  H   UNL A   1      41.928  28.481  31.216  1.00  0.00     0.167 HD
ATOM     61  C   UNL A   1      42.831  28.752  33.991  1.00  0.00     0.074 A 
ATOM     62  C   UNL A   1      42.987  29.204  35.366  1.00  0.00     0.031 C 
ATOM     63  C   UNL A   1      43.597  27.801  33.394  1.00  0.00     0.034 A 
BRANCH  50  64
ATOM     64  C   UNL A   1      42.320  26.566  27.403  1.00  0.00     0.023 A 
ATOM     65  C   UNL A   1      41.860  25.247  27.251  1.00  0.00     0.031 A 
ATOM     66  C   UNL A   1      43.181  27.081  26.417  1.00  0.00     0.131 A 
ATOM     67  C   UNL A   1      42.362  24.453  26.208  1.00  0.00     0.055 A 
ATOM     68  C   UNL A   1      43.578  26.324  25.316  1.00  0.00     0.041 A 
ATOM     69  F   UNL A   1      43.702  28.312  26.538  1.00  0.00    -0.206 F 
ATOM     70  C   UNL A   1      43.188  24.993  25.220  1.00  0.00     0.022 A 
BRANCH  67  71
ATOM     71  S   UNL A   1      42.122  22.656  26.302  1.00  0.00     0.124 S 
ATOM     72  O   UNL A   1      42.981  22.303  27.431  1.00  0.00    -0.237 OA
ATOM     73  O   UNL A   1      40.687  22.540  26.531  1.00  0.00    -0.237 OA
ATOM     74  O   UNL A   1      42.589  22.181  25.002  1.00  0.00    -0.744 OA
ENDBRANCH  67  71
ENDBRANCH  50  64
BRANCH  51  75
ATOM     75  C   UNL A   1      39.931  32.153  35.569  1.00  0.00     0.023 A 
ATOM     76  C   UNL A   1      38.985  31.727  36.510  1.00  0.00     0.031 A 
ATOM     77  C   UNL A   1      40.511  33.426  35.758  1.00  0.00     0.131 A 
ATOM     78  C   UNL A   1      38.620  32.571  37.572  1.00  0.00     0.055 A 
ATOM     79  C   UNL A   1      40.196  34.232  36.856  1.00  0.00     0.041 A 
ATOM     80  F   UNL A   1      41.411  33.904  34.885  1.00  0.00    -0.206 F 
ATOM     81  C   UNL A   1      39.235  33.810  37.765  1.00  0.00     0.022 A 
BRANCH  78  82
ATOM     82  S   UNL A   1      37.245  32.066  38.640  1.00  0.00     0.124 S 
ATOM     83  O   UNL A   1      37.147  30.643  38.338  1.00  0.00    -0.237 OA
ATOM     84  O   UNL A   1      37.749  32.410  39.965  1.00  0.00    -0.237 OA
ATOM     85  O   UNL A   1      36.130  32.883  38.167  1.00  0.00    -0.744 OA
ENDBRANCH  78  82
ENDBRANCH  51  75
BRANCH  63  86
ATOM     86  C   UNL A   1      44.727  27.259  34.221  1.00  0.00     0.023 A 
ATOM     87  C   UNL A   1      44.582  26.114  35.017  1.00  0.00     0.031 A 
ATOM     88  C   UNL A   1      45.961  27.934  34.233  1.00  0.00     0.131 A 
ATOM     89  C   UNL A   1      45.623  25.738  35.873  1.00  0.00     0.055 A 
ATOM     90  C   UNL A   1      47.031  27.484  34.999  1.00  0.00     0.041 A 
ATOM     91  F   UNL A   1      46.143  29.042  33.498  1.00  0.00    -0.206 F 
ATOM     92  C   UNL A   1      46.857  26.393  35.844  1.00  0.00     0.022 A 
BRANCH  89  93
ATOM     93  S   UNL A   1      45.274  24.502  37.150  1.00  0.00     0.124 S 
ATOM     94  O   UNL A   1      44.965  23.323  36.346  1.00  0.00    -0.237 OA
ATOM     95  O   UNL A   1      46.528  24.456  37.893  1.00  0.00    -0.237 OA
ATOM     96  O   UNL A   1      44.141  25.074  37.874  1.00  0.00    -0.744 OA
ENDBRANCH  89  93
ENDBRANCH  63  86
ENDBRANCH  37  38
ENDBRANCH  30  32
ENDBRANCH  29  30
ENDBRANCH  28  29
ENDBRANCH   1  28
TORSDOF 20
ENDMDL
MODEL 2
REMARK VINA RESULT:     -11.7      5.050     10.039
REMARK SMILES COc1cccc(OC)c1[C@@H](C(=O)OCCOC(=O)c1ccc(-c2c3nc(c(-c4cc(S(=O)(=O)[O-])ccc4F)c4ccc([nH]4)c(-c4cc(S(=O)(=O)[O-])ccc4F)c4nc(c(-c5cc(S(=O)(=O)[O-])ccc5F)c5ccc2[nH]5)C=C4)C=C3)cc1)[N@@H+](C)Cc1c(C)n[nH]c1C
REMARK SMILES IDX 15 1 14 2 12 3 13 4 11 5 10 6 3 7 4 8 5 9 7 10 6 11 2 12
REMARK SMILES IDX 1 13 8 14 9 15 83 16 84 17 85 19 86 20 87 21 91 22 88 23
REMARK SMILES IDX 89 24 90 25 92 26 16 28 17 29 18 30 19 31 20 32 21 33 82 34
REMARK SMILES IDX 22 35 81 36 23 37 24 38 25 39 75 40 26 41 80 42 74 43 76 44
REMARK SMILES IDX 27 45 79 46 73 47 72 48 28 50 60 51 40 52 59 53 41 54 44 55
REMARK SMILES IDX 58 56 77 57 42 58 43 59 57 61 78 62 45 63 29 64 30 65 38 66
REMARK SMILES IDX 31 67 37 68 39 69 36 70 32 71 33 72 34 73 35 74 61 75 62 76
REMARK SMILES IDX 70 77 63 78 69 79 71 80 68 81 64 82 65 83 66 84 67 85 46 86
REMARK SMILES IDX 47 87 55 88 48 89 54 90 56 91 53 92 49 93 50 94 51 95 52 96
REMARK H PARENT 83 18 90 27 76 49 44 60
REMARK Flexibility Score: inf
ROOT
ATOM      1  C   UNL A   1      35.568  23.924  23.950  1.00  0.00     0.274 C 
ENDROOT
BRANCH   1   2
ATOM      2  O   UNL A   1      34.775  24.606  22.916  1.00  0.00    -0.457 OA
BRANCH   2   3
ATOM      3  C   UNL A   1      33.437  24.358  22.962  1.00  0.00     0.370 C 
ATOM      4  O   UNL A   1      32.700  24.725  22.037  1.00  0.00    -0.245 OA
BRANCH   3   5
ATOM      5  C   UNL A   1      32.829  23.635  24.217  1.00  0.00     0.334 C 
BRANCH   5   6
ATOM      6  C   UNL A   1      32.746  22.090  24.393  1.00  0.00     0.105 A 
ATOM      7  C   UNL A   1      32.944  21.502  25.664  1.00  0.00     0.132 A 
ATOM      8  C   UNL A   1      33.052  20.098  25.834  1.00  0.00     0.047 A 
ATOM      9  C   UNL A   1      32.947  19.222  24.764  1.00  0.00     0.008 A 
ATOM     10  C   UNL A   1      32.424  21.133  23.395  1.00  0.00     0.132 A 
ATOM     11  C   UNL A   1      32.591  19.743  23.548  1.00  0.00     0.047 A 
BRANCH   7  12
ATOM     12  O   UNL A   1      33.087  22.200  26.841  1.00  0.00    -0.496 OA
ATOM     13  C   UNL A   1      34.350  22.041  27.501  1.00  0.00     0.278 C 
ENDBRANCH   7  12
BRANCH  10  14
ATOM     14  O   UNL A   1      31.708  21.416  22.261  1.00  0.00    -0.496 OA
ATOM     15  C   UNL A   1      31.731  20.268  21.440  1.00  0.00     0.278 C 
ENDBRANCH  10  14
ENDBRANCH   5   6
BRANCH   5  16
ATOM     16  N   UNL A   1      31.825  24.462  24.928  1.00  0.00    -0.318 N 
ATOM     17  C   UNL A   1      30.625  23.740  25.363  1.00  0.00     0.334 C 
ATOM     18  H   UNL A   1      31.552  25.070  24.156  1.00  0.00     0.349 HD
BRANCH  16  19
ATOM     19  C   UNL A   1      32.286  25.405  25.924  1.00  0.00     0.303 C 
BRANCH  19  20
ATOM     20  C   UNL A   1      32.141  26.923  25.662  1.00  0.00     0.050 A 
ATOM     21  C   UNL A   1      33.531  28.361  25.942  1.00  0.00     0.068 A 
ATOM     22  C   UNL A   1      30.869  27.689  24.562  1.00  0.00     0.041 A 
ATOM     23  C   UNL A   1      34.465  28.750  27.082  1.00  0.00     0.069 C 
ATOM     24  N   UNL A   1      32.955  29.812  25.147  1.00  0.00    -0.180 NA
ATOM     25  N   UNL A   1      31.451  29.390  24.158  1.00  0.00    -0.282 N 
ATOM     26  C   UNL A   1      29.824  27.196  23.580  1.00  0.00     0.066 C 
ATOM     27  H   UNL A   1      31.022  29.990  23.506  1.00  0.00     0.190 HD
ENDBRANCH  19  20
ENDBRANCH  16  19
ENDBRANCH   5  16
ENDBRANCH   3   5
ENDBRANCH   2   3
ENDBRANCH   1   2
BRANCH   1  28
ATOM     28  C   UNL A   1      36.401  22.670  23.518  1.00  0.00     0.275 C 
BRANCH  28  29
ATOM     29  O   UNL A   1      36.259  21.477  24.371  1.00  0.00    -0.458 OA
BRANCH  29  30
ATOM     30  C   UNL A   1      37.489  21.225  25.176  1.00  0.00     0.338 C 
ATOM     31  O   UNL A   1      37.638  19.960  25.019  1.00  0.00    -0.246 OA
BRANCH  30  32
ATOM     32  C   UNL A   1      38.766  22.633  26.316  1.00  0.00     0.060 A 
ATOM     33  C   UNL A   1      38.725  24.129  26.268  1.00  0.00     0.016 A 
ATOM     34  C   UNL A   1      40.024  22.453  27.147  1.00  0.00     0.016 A 
ATOM     35  C   UNL A   1      39.799  24.948  26.118  1.00  0.00     0.010 A 
ATOM     36  C   UNL A   1      40.897  23.509  27.588  1.00  0.00     0.010 A 
ATOM     37  C   UNL A   1      40.718  24.790  27.087  1.00  0.00    -0.014 A 
BRANCH  37  38
ATOM     38  C   UNL A   1      41.359  26.073  27.383  1.00  0.00     0.031 A 
ATOM     39  C   UNL A   1      40.736  26.913  28.428  1.00  0.00     0.074 A 
ATOM     40  C   UNL A   1      42.648  26.250  26.989  1.00  0.00     0.049 A 
ATOM     41  N   UNL A   1      41.087  28.093  28.833  1.00  0.00    -0.248 NA
ATOM     42  C   UNL A   1      39.561  26.345  29.106  1.00  0.00     0.031 C 
ATOM     43  C   UNL A   1      43.455  25.272  26.223  1.00  0.00     0.029 A 
ATOM     44  N   UNL A   1      43.556  27.232  27.264  1.00  0.00    -0.354 N 
ATOM     45  C   UNL A   1      40.108  28.466  29.738  1.00  0.00     0.074 A 
ATOM     46  C   UNL A   1      39.171  27.371  29.844  1.00  0.00     0.031 C 
ATOM     47  C   UNL A   1      44.732  25.667  26.175  1.00  0.00     0.029 A 
ATOM     48  C   UNL A   1      44.800  27.006  26.714  1.00  0.00     0.049 A 
ATOM     49  H   UNL A   1      43.343  28.027  27.806  1.00  0.00     0.167 HD
ATOM     50  C   UNL A   1      40.013  29.660  30.359  1.00  0.00     0.034 A 
ATOM     51  C   UNL A   1      45.848  27.835  26.578  1.00  0.00     0.034 A 
ATOM     52  C   UNL A   1      41.008  30.685  30.176  1.00  0.00     0.049 A 
ATOM     53  C   UNL A   1      45.643  29.217  27.122  1.00  0.00     0.074 A 
ATOM     54  C   UNL A   1      41.016  31.979  30.653  1.00  0.00     0.029 A 
ATOM     55  N   UNL A   1      42.182  30.521  29.438  1.00  0.00    -0.354 N 
ATOM     56  N   UNL A   1      44.621  29.676  27.810  1.00  0.00    -0.248 NA
ATOM     57  C   UNL A   1      46.697  30.193  26.860  1.00  0.00     0.031 C 
ATOM     58  C   UNL A   1      42.130  32.626  30.110  1.00  0.00     0.029 A 
ATOM     59  C   UNL A   1      42.896  31.704  29.408  1.00  0.00     0.049 A 
ATOM     60  H   UNL A   1      42.460  29.683  29.001  1.00  0.00     0.167 HD
ATOM     61  C   UNL A   1      44.922  30.994  28.101  1.00  0.00     0.074 A 
ATOM     62  C   UNL A   1      46.231  31.245  27.517  1.00  0.00     0.031 C 
ATOM     63  C   UNL A   1      44.193  31.907  28.796  1.00  0.00     0.034 A 
BRANCH  50  64
ATOM     64  C   UNL A   1      38.721  29.934  31.080  1.00  0.00     0.023 A 
ATOM     65  C   UNL A   1      37.629  30.564  30.461  1.00  0.00     0.031 A 
ATOM     66  C   UNL A   1      38.657  29.714  32.468  1.00  0.00     0.131 A 
ATOM     67  C   UNL A   1      36.578  31.061  31.248  1.00  0.00     0.055 A 
ATOM     68  C   UNL A   1      37.551  30.102  33.225  1.00  0.00     0.041 A 
ATOM     69  F   UNL A   1      39.694  29.172  33.125  1.00  0.00    -0.206 F 
ATOM     70  C   UNL A   1      36.514  30.802  32.619  1.00  0.00     0.022 A 
BRANCH  67  71
ATOM     71  S   UNL A   1      35.433  32.256  30.501  1.00  0.00     0.124 S 
ATOM     72  O   UNL A   1      36.254  33.465  30.462  1.00  0.00    -0.237 OA
ATOM     73  O   UNL A   1      35.136  31.645  29.212  1.00  0.00    -0.237 OA
ATOM     74  O   UNL A   1      34.319  32.299  31.446  1.00  0.00    -0.744 OA
ENDBRANCH  67  71
ENDBRANCH  50  64
BRANCH  51  75
ATOM     75  C   UNL A   1      47.076  27.434  25.830  1.00  0.00     0.023 A 
ATOM     76  C   UNL A   1      47.238  27.772  24.480  1.00  0.00     0.031 A 
ATOM     77  C   UNL A   1      48.100  26.679  26.441  1.00  0.00     0.131 A 
ATOM     78  C   UNL A   1      48.371  27.330  23.777  1.00  0.00     0.055 A 
ATOM     79  C   UNL A   1      49.258  26.302  25.755  1.00  0.00     0.041 A 
ATOM     80  F   UNL A   1      48.001  26.306  27.727  1.00  0.00    -0.206 F 
ATOM     81  C   UNL A   1      49.392  26.618  24.408  1.00  0.00     0.022 A 
BRANCH  78  82
ATOM     82  S   UNL A   1      48.436  27.609  21.987  1.00  0.00     0.124 S 
ATOM     83  O   UNL A   1      48.604  26.251  21.484  1.00  0.00    -0.237 OA
ATOM     84  O   UNL A   1      47.143  28.235  21.730  1.00  0.00    -0.237 OA
ATOM     85  O   UNL A   1      49.594  28.484  21.821  1.00  0.00    -0.744 OA
ENDBRANCH  78  82
ENDBRANCH  51  75
BRANCH  63  86
ATOM     86  C   UNL A   1      44.856  33.236  29.022  1.00  0.00     0.023 A 
ATOM     87  C   UNL A   1      44.575  34.351  28.221  1.00  0.00     0.031 A 
ATOM     88  C   UNL A   1      45.815  33.365  30.042  1.00  0.00     0.131 A 
ATOM     89  C   UNL A   1      45.324  35.521  28.389  1.00  0.00     0.055 A 
ATOM     90  C   UNL A   1      46.472  34.568  30.278  1.00  0.00     0.041 A 
ATOM     91  F   UNL A   1      46.127  32.320  30.826  1.00  0.00    -0.206 F 
ATOM     92  C   UNL A   1      46.245  35.649  29.432  1.00  0.00     0.022 A 
BRANCH  89  93
ATOM     93  S   UNL A   1      45.208  36.799  27.110  1.00  0.00     0.124 S 
ATOM     94  O   UNL A   1      43.849  36.602  26.615  1.00  0.00    -0.237 OA
ATOM     95  O   UNL A   1      45.438  38.024  27.870  1.00  0.00    -0.237 OA
ATOM     96  O   UNL A   1      46.269  36.439  26.173  1.00  0.00    -0.744 OA
ENDBRANCH  89  93
ENDBRANCH  63  86
ENDBRANCH  37  38
ENDBRANCH  30  32
ENDBRANCH  29  30
ENDBRANCH  28  29
ENDBRANCH   1  28
TORSDOF 20
ENDMDL
MODEL 3
REMARK VINA RESULT:     -11.6      4.988      7.609
REMARK SMILES COc1cccc(OC)c1[C@@H](C(=O)OCCOC(=O)c1ccc(-c2c3nc(c(-c4cc(S(=O)(=O)[O-])ccc4F)c4ccc([nH]4)c(-c4cc(S(=O)(=O)[O-])ccc4F)c4nc(c(-c5cc(S(=O)(=O)[O-])ccc5F)c5ccc2[nH]5)C=C4)C=C3)cc1)[N@@H+](C)Cc1c(C)n[nH]c1C
REMARK SMILES IDX 15 1 14 2 12 3 13 4 11 5 10 6 3 7 4 8 5 9 7 10 6 11 2 12
REMARK SMILES IDX 1 13 8 14 9 15 83 16 84 17 85 19 86 20 87 21 91 22 88 23
REMARK SMILES IDX 89 24 90 25 92 26 16 28 17 29 18 30 19 31 20 32 21 33 82 34
REMARK SMILES IDX 22 35 81 36 23 37 24 38 25 39 75 40 26 41 80 42 74 43 76 44
REMARK SMILES IDX 27 45 79 46 73 47 72 48 28 50 60 51 40 52 59 53 41 54 44 55
REMARK SMILES IDX 58 56 77 57 42 58 43 59 57 61 78 62 45 63 29 64 30 65 38 66
REMARK SMILES IDX 31 67 37 68 39 69 36 70 32 71 33 72 34 73 35 74 61 75 62 76
REMARK SMILES IDX 70 77 63 78 69 79 71 80 68 81 64 82 65 83 66 84 67 85 46 86
REMARK SMILES IDX 47 87 55 88 48 89 54 90 56 91 53 92 49 93 50 94 51 95 52 96
REMARK H PARENT 83 18 90 27 76 49 44 60
REMARK Flexibility Score: inf
ROOT
ATOM      1  C   UNL A   1      37.299  22.531  24.536  1.00  0.00     0.274 C 
ENDROOT
BRANCH   1   2
ATOM      2  O   UNL A   1      36.227  23.340  23.935  1.00  0.00    -0.457 OA
BRANCH   2   3
ATOM      3  C   UNL A   1      35.489  24.063  24.821  1.00  0.00     0.370 C 
ATOM      4  O   UNL A   1      35.911  24.265  25.968  1.00  0.00    -0.245 OA
BRANCH   3   5
ATOM      5  C   UNL A   1      34.081  24.609  24.390  1.00  0.00     0.334 C 
BRANCH   5   6
ATOM      6  C   UNL A   1      33.345  25.798  25.076  1.00  0.00     0.105 A 
ATOM      7  C   UNL A   1      33.500  27.115  24.584  1.00  0.00     0.132 A 
ATOM      8  C   UNL A   1      32.994  28.241  25.281  1.00  0.00     0.047 A 
ATOM      9  C   UNL A   1      32.299  28.111  26.475  1.00  0.00     0.008 A 
ATOM     10  C   UNL A   1      32.440  25.726  26.167  1.00  0.00     0.132 A 
ATOM     11  C   UNL A   1      31.988  26.844  26.895  1.00  0.00     0.047 A 
BRANCH   7  12
ATOM     12  O   UNL A   1      34.168  27.452  23.430  1.00  0.00    -0.496 OA
ATOM     13  C   UNL A   1      33.346  27.599  22.264  1.00  0.00     0.278 C 
ENDBRANCH   7  12
BRANCH  10  14
ATOM     14  O   UNL A   1      31.724  24.606  26.499  1.00  0.00    -0.496 OA
ATOM     15  C   UNL A   1      30.562  24.585  25.697  1.00  0.00     0.278 C 
ENDBRANCH  10  14
ENDBRANCH   5   6
BRANCH   5  16
ATOM     16  N   UNL A   1      33.248  23.585  23.714  1.00  0.00    -0.318 N 
ATOM     17  C   UNL A   1      32.556  24.048  22.508  1.00  0.00     0.334 C 
ATOM     18  H   UNL A   1      32.544  23.456  24.441  1.00  0.00     0.349 HD
BRANCH  16  19
ATOM     19  C   UNL A   1      33.786  22.251  23.557  1.00  0.00     0.303 C 
BRANCH  19  20
ATOM     20  C   UNL A   1      33.229  21.097  24.424  1.00  0.00     0.050 A 
ATOM     21  C   UNL A   1      32.852  19.196  23.854  1.00  0.00     0.068 A 
ATOM     22  C   UNL A   1      33.271  21.046  26.272  1.00  0.00     0.041 A 
ATOM     23  C   UNL A   1      32.109  18.547  22.692  1.00  0.00     0.069 C 
ATOM     24  N   UNL A   1      32.590  18.252  25.306  1.00  0.00    -0.180 NA
ATOM     25  N   UNL A   1      33.014  19.292  26.775  1.00  0.00    -0.282 N 
ATOM     26  C   UNL A   1      33.895  21.871  27.380  1.00  0.00     0.066 C 
ATOM     27  H   UNL A   1      33.092  18.956  27.696  1.00  0.00     0.190 HD
ENDBRANCH  19  20
ENDBRANCH  16  19
ENDBRANCH   5  16
ENDBRANCH   3   5
ENDBRANCH   2   3
ENDBRANCH   1   2
BRANCH   1  28
ATOM     28  C   UNL A   1      36.909  21.138  25.137  1.00  0.00     0.275 C 
BRANCH  28  29
ATOM     29  O   UNL A   1      37.809  20.019  24.808  1.00  0.00    -0.458 OA
BRANCH  29  30
ATOM     30  C   UNL A   1      39.026  20.018  25.670  1.00  0.00     0.338 C 
ATOM     31  O   UNL A   1      39.417  18.802  25.553  1.00  0.00    -0.246 OA
BRANCH  30  32
ATOM     32  C   UNL A   1      39.961  21.663  26.825  1.00  0.00     0.060 A 
ATOM     33  C   UNL A   1      39.842  23.132  26.562  1.00  0.00     0.016 A 
ATOM     34  C   UNL A   1      41.036  21.698  27.897  1.00  0.00     0.016 A 
ATOM     35  C   UNL A   1      40.873  24.016  26.505  1.00  0.00     0.010 A 
ATOM     36  C   UNL A   1      41.739  22.871  28.345  1.00  0.00     0.010 A 
ATOM     37  C   UNL A   1      41.587  24.059  27.645  1.00  0.00    -0.014 A 
BRANCH  37  38
ATOM     38  C   UNL A   1      42.077  25.420  27.875  1.00  0.00     0.031 A 
ATOM     39  C   UNL A   1      43.283  25.838  27.129  1.00  0.00     0.074 A 
ATOM     40  C   UNL A   1      41.225  26.322  28.430  1.00  0.00     0.049 A 
ATOM     41  N   UNL A   1      43.925  26.962  27.193  1.00  0.00    -0.248 NA
ATOM     42  C   UNL A   1      43.838  24.857  26.185  1.00  0.00     0.031 C 
ATOM     43  C   UNL A   1      39.845  26.033  28.886  1.00  0.00     0.029 A 
ATOM     44  N   UNL A   1      41.315  27.674  28.601  1.00  0.00    -0.354 N 
ATOM     45  C   UNL A   1      45.033  26.788  26.382  1.00  0.00     0.074 A 
ATOM     46  C   UNL A   1      44.953  25.462  25.813  1.00  0.00     0.031 C 
ATOM     47  C   UNL A   1      39.214  27.172  29.192  1.00  0.00     0.029 A 
ATOM     48  C   UNL A   1      40.187  28.239  29.158  1.00  0.00     0.049 A 
ATOM     49  H   UNL A   1      42.111  28.196  28.350  1.00  0.00     0.167 HD
ATOM     50  C   UNL A   1      46.036  27.672  26.205  1.00  0.00     0.034 A 
ATOM     51  C   UNL A   1      40.001  29.465  29.675  1.00  0.00     0.034 A 
ATOM     52  C   UNL A   1      46.013  28.972  26.828  1.00  0.00     0.049 A 
ATOM     53  C   UNL A   1      41.197  30.367  29.624  1.00  0.00     0.074 A 
ATOM     54  C   UNL A   1      46.987  29.947  26.831  1.00  0.00     0.029 A 
ATOM     55  N   UNL A   1      44.943  29.468  27.575  1.00  0.00    -0.354 N 
ATOM     56  N   UNL A   1      42.355  30.150  29.041  1.00  0.00    -0.248 NA
ATOM     57  C   UNL A   1      41.084  31.652  30.309  1.00  0.00     0.031 C 
ATOM     58  C   UNL A   1      46.554  30.978  27.670  1.00  0.00     0.029 A 
ATOM     59  C   UNL A   1      45.253  30.716  28.082  1.00  0.00     0.049 A 
ATOM     60  H   UNL A   1      44.091  28.996  27.721  1.00  0.00     0.167 HD
ATOM     61  C   UNL A   1      43.107  31.291  29.254  1.00  0.00     0.074 A 
ATOM     62  C   UNL A   1      42.256  32.195  30.015  1.00  0.00     0.031 C 
ATOM     63  C   UNL A   1      44.373  31.572  28.851  1.00  0.00     0.034 A 
BRANCH  50  64
ATOM     64  C   UNL A   1      47.262  27.157  25.501  1.00  0.00     0.023 A 
ATOM     65  C   UNL A   1      48.263  26.426  26.162  1.00  0.00     0.031 A 
ATOM     66  C   UNL A   1      47.508  27.565  24.177  1.00  0.00     0.131 A 
ATOM     67  C   UNL A   1      49.506  26.234  25.540  1.00  0.00     0.055 A 
ATOM     68  C   UNL A   1      48.701  27.263  23.523  1.00  0.00     0.041 A 
ATOM     69  F   UNL A   1      46.616  28.318  23.515  1.00  0.00    -0.206 F 
ATOM     70  C   UNL A   1      49.720  26.615  24.214  1.00  0.00     0.022 A 
BRANCH  67  71
ATOM     71  S   UNL A   1      50.910  25.710  26.565  1.00  0.00     0.124 S 
ATOM     72  O   UNL A   1      51.320  26.975  27.172  1.00  0.00    -0.237 OA
ATOM     73  O   UNL A   1      50.299  24.740  27.465  1.00  0.00    -0.237 OA
ATOM     74  O   UNL A   1      51.854  25.158  25.596  1.00  0.00    -0.744 OA
ENDBRANCH  67  71
ENDBRANCH  50  64
BRANCH  51  75
ATOM     75  C   UNL A   1      38.728  29.846  30.354  1.00  0.00     0.023 A 
ATOM     76  C   UNL A   1      37.771  30.633  29.699  1.00  0.00     0.031 A 
ATOM     77  C   UNL A   1      38.453  29.457  31.682  1.00  0.00     0.131 A 
ATOM     78  C   UNL A   1      36.609  31.035  30.378  1.00  0.00     0.055 A 
ATOM     79  C   UNL A   1      37.263  29.801  32.329  1.00  0.00     0.041 A 
ATOM     80  F   UNL A   1      39.334  28.717  32.374  1.00  0.00    -0.206 F 
ATOM     81  C   UNL A   1      36.336  30.607  31.678  1.00  0.00     0.022 A 
BRANCH  78  82
ATOM     82  S   UNL A   1      35.505  32.222  29.566  1.00  0.00     0.124 S 
ATOM     83  O   UNL A   1      35.162  31.512  28.339  1.00  0.00    -0.237 OA
ATOM     84  O   UNL A   1      34.435  32.362  30.548  1.00  0.00    -0.237 OA
ATOM     85  O   UNL A   1      36.346  33.403  29.389  1.00  0.00    -0.744 OA
ENDBRANCH  78  82
ENDBRANCH  51  75
BRANCH  63  86
ATOM     86  C   UNL A   1      44.867  32.956  29.163  1.00  0.00     0.023 A 
ATOM     87  C   UNL A   1      44.597  34.047  28.326  1.00  0.00     0.031 A 
ATOM     88  C   UNL A   1      45.657  33.165  30.307  1.00  0.00     0.131 A 
ATOM     89  C   UNL A   1      45.200  35.281  28.593  1.00  0.00     0.055 A 
ATOM     90  C   UNL A   1      46.156  34.423  30.629  1.00  0.00     0.041 A 
ATOM     91  F   UNL A   1      45.954  32.148  31.132  1.00  0.00    -0.206 F 
ATOM     92  C   UNL A   1      45.949  35.485  29.755  1.00  0.00     0.022 A 
BRANCH  89  93
ATOM     93  S   UNL A   1      45.143  36.554  27.306  1.00  0.00     0.124 S 
ATOM     94  O   UNL A   1      46.249  36.154  26.442  1.00  0.00    -0.237 OA
ATOM     95  O   UNL A   1      43.805  36.380  26.751  1.00  0.00    -0.237 OA
ATOM     96  O   UNL A   1      45.353  37.796  28.048  1.00  0.00    -0.744 OA
ENDBRANCH  89  93
ENDBRANCH  63  86
ENDBRANCH  37  38
ENDBRANCH  30  32
ENDBRANCH  29  30
ENDBRANCH  28  29
ENDBRANCH   1  28
TORSDOF 20
ENDMDL
