MODEL 1
REMARK VINA RESULT:     -11.9      0.000      0.000
REMARK SMILES O=C(OCCOC(=O)[C@@H]1[C@@H](C(=O)NCCn2cc(Cl)cn2)[C@H]2CC[C@@H]1O2)c1ccc(-c2c3nc(c(-c4cc(S(=O)(=O)[O-])ccc4F)c4ccc([nH]4)c(-c4cc(S(=O)(=O)[O-])ccc4F)c4nc(c(-c5cc(S(=O)(=O)[O-])ccc5F)c5ccc2[nH]5)C=C4)C=C3)cc1
REMARK SMILES IDX 5 1 4 2 3 3 2 4 1 5 27 6 28 7 89 8 29 9 88 10 30 11 31 12
REMARK SMILES IDX 32 13 82 14 33 15 87 16 81 17 83 18 34 19 86 20 80 21 79 22
REMARK SMILES IDX 35 24 67 25 47 26 66 27 48 28 51 29 65 30 84 31 49 32 50 33
REMARK SMILES IDX 64 35 85 36 52 37 36 38 37 39 45 40 38 41 44 42 46 43 43 44
REMARK SMILES IDX 39 45 40 46 41 47 42 48 68 49 69 50 77 51 70 52 76 53 78 54
REMARK SMILES IDX 75 55 71 56 72 57 73 58 74 59 53 60 54 61 62 62 55 63 61 64
REMARK SMILES IDX 63 65 60 66 56 67 57 68 58 69 59 70 6 71 7 72 8 73 9 74
REMARK SMILES IDX 10 75 25 76 22 77 24 78 26 79 23 80 11 81 12 82 13 83 14 85
REMARK SMILES IDX 15 86 16 87 17 88 21 89 18 90 20 91 19 92
REMARK H PARENT 83 23 51 34 13 84
REMARK Flexibility Score: inf
ROOT
ATOM      1  C   UNL A   1      32.533  30.636  27.232  1.00  0.00     0.274 C 
ENDROOT
BRANCH   1   2
ATOM      2  C   UNL A   1      33.644  31.677  27.384  1.00  0.00     0.275 C 
BRANCH   2   3
ATOM      3  O   UNL A   1      34.992  31.192  27.499  1.00  0.00    -0.458 OA
BRANCH   3   4
ATOM      4  C   UNL A   1      35.881  31.957  28.172  1.00  0.00     0.338 C 
ATOM      5  O   UNL A   1      35.665  33.087  28.563  1.00  0.00    -0.246 OA
BRANCH   4   6
ATOM      6  C   UNL A   1      37.121  31.200  28.450  1.00  0.00     0.060 A 
ATOM      7  C   UNL A   1      38.158  31.732  29.229  1.00  0.00     0.016 A 
ATOM      8  C   UNL A   1      37.186  29.884  27.991  1.00  0.00     0.016 A 
ATOM      9  C   UNL A   1      39.272  30.958  29.525  1.00  0.00     0.010 A 
ATOM     10  C   UNL A   1      38.288  29.105  28.308  1.00  0.00     0.010 A 
ATOM     11  C   UNL A   1      39.346  29.647  29.049  1.00  0.00    -0.014 A 
BRANCH  11  12
ATOM     12  C   UNL A   1      40.502  28.830  29.418  1.00  0.00     0.031 A 
ATOM     13  C   UNL A   1      40.751  28.646  30.881  1.00  0.00     0.074 A 
ATOM     14  C   UNL A   1      41.194  28.091  28.529  1.00  0.00     0.049 A 
ATOM     15  N   UNL A   1      41.708  29.113  31.617  1.00  0.00    -0.248 NA
ATOM     16  C   UNL A   1      39.727  27.927  31.644  1.00  0.00     0.031 C 
ATOM     17  C   UNL A   1      40.927  27.881  27.106  1.00  0.00     0.029 A 
ATOM     18  N   UNL A   1      42.244  27.261  28.767  1.00  0.00    -0.354 N 
ATOM     19  C   UNL A   1      41.524  28.580  32.898  1.00  0.00     0.074 A 
ATOM     20  C   UNL A   1      40.193  28.036  32.890  1.00  0.00     0.031 C 
ATOM     21  C   UNL A   1      41.623  26.805  26.674  1.00  0.00     0.029 A 
ATOM     22  C   UNL A   1      42.513  26.372  27.737  1.00  0.00     0.049 A 
ATOM     23  H   UNL A   1      42.768  27.289  29.600  1.00  0.00     0.167 HD
ATOM     24  C   UNL A   1      42.553  28.450  33.791  1.00  0.00     0.034 A 
ATOM     25  C   UNL A   1      43.377  25.326  27.770  1.00  0.00     0.034 A 
ATOM     26  C   UNL A   1      43.711  29.195  33.345  1.00  0.00     0.049 A 
ATOM     27  C   UNL A   1      44.357  25.621  28.848  1.00  0.00     0.074 A 
ATOM     28  C   UNL A   1      43.972  30.523  33.067  1.00  0.00     0.029 A 
ATOM     29  N   UNL A   1      44.737  28.496  32.747  1.00  0.00    -0.354 N 
ATOM     30  N   UNL A   1      45.169  26.644  28.806  1.00  0.00    -0.248 NA
ATOM     31  C   UNL A   1      44.101  25.091  30.180  1.00  0.00     0.031 C 
ATOM     32  C   UNL A   1      44.773  30.487  31.884  1.00  0.00     0.029 A 
ATOM     33  C   UNL A   1      45.019  29.148  31.574  1.00  0.00     0.049 A 
ATOM     34  H   UNL A   1      45.180  27.687  33.094  1.00  0.00     0.167 HD
ATOM     35  C   UNL A   1      45.179  27.151  30.098  1.00  0.00     0.074 A 
ATOM     36  C   UNL A   1      44.588  26.094  30.919  1.00  0.00     0.031 C 
ATOM     37  C   UNL A   1      45.401  28.477  30.346  1.00  0.00     0.034 A 
BRANCH  24  38
ATOM     38  C   UNL A   1      42.685  27.387  34.876  1.00  0.00     0.023 A 
ATOM     39  C   UNL A   1      43.468  26.249  34.568  1.00  0.00     0.031 A 
ATOM     40  C   UNL A   1      41.900  27.271  36.042  1.00  0.00     0.131 A 
ATOM     41  C   UNL A   1      43.333  25.047  35.285  1.00  0.00     0.055 A 
ATOM     42  C   UNL A   1      41.817  26.090  36.793  1.00  0.00     0.041 A 
ATOM     43  F   UNL A   1      41.116  28.252  36.493  1.00  0.00    -0.206 F 
ATOM     44  C   UNL A   1      42.500  24.957  36.393  1.00  0.00     0.022 A 
BRANCH  41  45
ATOM     45  S   UNL A   1      44.110  23.552  34.616  1.00  0.00     0.124 S 
ATOM     46  O   UNL A   1      43.013  22.971  33.847  1.00  0.00    -0.237 OA
ATOM     47  O   UNL A   1      45.216  24.108  33.844  1.00  0.00    -0.237 OA
ATOM     48  O   UNL A   1      44.495  22.805  35.811  1.00  0.00    -0.744 OA
ENDBRANCH  41  45
ENDBRANCH  24  38
BRANCH  25  49
ATOM     49  C   UNL A   1      43.138  23.982  27.180  1.00  0.00     0.023 A 
ATOM     50  C   UNL A   1      43.946  23.423  26.171  1.00  0.00     0.031 A 
ATOM     51  C   UNL A   1      42.186  23.124  27.782  1.00  0.00     0.131 A 
ATOM     52  C   UNL A   1      43.775  22.069  25.794  1.00  0.00     0.055 A 
ATOM     53  C   UNL A   1      42.022  21.789  27.406  1.00  0.00     0.041 A 
ATOM     54  F   UNL A   1      41.433  23.539  28.813  1.00  0.00    -0.206 F 
ATOM     55  C   UNL A   1      42.823  21.254  26.412  1.00  0.00     0.022 A 
BRANCH  52  56
ATOM     56  S   UNL A   1      44.853  21.320  24.530  1.00  0.00     0.124 S 
ATOM     57  O   UNL A   1      44.282  19.985  24.387  1.00  0.00    -0.237 OA
ATOM     58  O   UNL A   1      44.682  22.223  23.397  1.00  0.00    -0.237 OA
ATOM     59  O   UNL A   1      46.181  21.356  25.145  1.00  0.00    -0.744 OA
ENDBRANCH  52  56
ENDBRANCH  25  49
BRANCH  37  60
ATOM     60  C   UNL A   1      45.859  29.371  29.211  1.00  0.00     0.023 A 
ATOM     61  C   UNL A   1      44.995  30.135  28.391  1.00  0.00     0.031 A 
ATOM     62  C   UNL A   1      47.241  29.585  29.079  1.00  0.00     0.131 A 
ATOM     63  C   UNL A   1      45.532  31.074  27.486  1.00  0.00     0.055 A 
ATOM     64  C   UNL A   1      47.767  30.527  28.197  1.00  0.00     0.041 A 
ATOM     65  F   UNL A   1      48.110  28.914  29.856  1.00  0.00    -0.206 F 
ATOM     66  C   UNL A   1      46.913  31.274  27.394  1.00  0.00     0.022 A 
BRANCH  63  67
ATOM     67  S   UNL A   1      44.441  32.064  26.410  1.00  0.00     0.124 S 
ATOM     68  O   UNL A   1      45.330  32.516  25.346  1.00  0.00    -0.237 OA
ATOM     69  O   UNL A   1      43.415  31.099  26.022  1.00  0.00    -0.237 OA
ATOM     70  O   UNL A   1      43.965  33.128  27.296  1.00  0.00    -0.744 OA
ENDBRANCH  63  67
ENDBRANCH  37  60
ENDBRANCH  11  12
ENDBRANCH   4   6
ENDBRANCH   3   4
ENDBRANCH   2   3
ENDBRANCH   1   2
BRANCH   1  71
ATOM     71  O   UNL A   1      32.987  29.319  27.614  1.00  0.00    -0.462 OA
BRANCH  71  72
ATOM     72  C   UNL A   1      32.172  28.294  27.247  1.00  0.00     0.312 C 
ATOM     73  O   UNL A   1      31.279  27.838  27.957  1.00  0.00    -0.252 OA
BRANCH  72  74
ATOM     74  C   UNL A   1      32.507  27.671  25.909  1.00  0.00     0.143 C 
ATOM     75  C   UNL A   1      31.310  27.310  25.019  1.00  0.00     0.124 C 
ATOM     76  C   UNL A   1      33.202  26.320  26.089  1.00  0.00     0.133 C 
ATOM     77  C   UNL A   1      31.634  25.860  24.649  1.00  0.00     0.132 C 
ATOM     78  C   UNL A   1      34.011  25.969  24.842  1.00  0.00     0.036 C 
ATOM     79  O   UNL A   1      32.096  25.399  25.943  1.00  0.00    -0.373 OA
ATOM     80  C   UNL A   1      32.911  25.622  23.840  1.00  0.00     0.035 C 
BRANCH  75  81
ATOM     81  C   UNL A   1      31.150  28.231  23.834  1.00  0.00     0.226 C 
ATOM     82  O   UNL A   1      32.039  28.971  23.421  1.00  0.00    -0.275 OA
ATOM     83  N   UNL A   1      29.954  28.274  23.193  1.00  0.00    -0.354 N 
ATOM     84  H   UNL A   1      29.935  28.881  22.418  1.00  0.00     0.163 HD
BRANCH  83  85
ATOM     85  C   UNL A   1      28.695  27.590  23.440  1.00  0.00     0.139 C 
BRANCH  85  86
ATOM     86  C   UNL A   1      27.491  28.486  23.135  1.00  0.00     0.165 C 
BRANCH  86  87
ATOM     87  N   UNL A   1      27.838  29.815  22.659  1.00  0.00    -0.269 N 
ATOM     88  C   UNL A   1      27.804  30.236  21.358  1.00  0.00     0.129 A 
ATOM     89  N   UNL A   1      28.195  30.791  23.522  1.00  0.00    -0.180 NA
ATOM     90  C   UNL A   1      28.111  31.574  21.386  1.00  0.00     0.079 A 
ATOM     91  C   UNL A   1      28.328  31.868  22.743  1.00  0.00     0.155 A 
ATOM     92  Cl  UNL A   1      28.208  32.656  20.093  1.00  0.00    -0.081 Cl
ENDBRANCH  86  87
ENDBRANCH  85  86
ENDBRANCH  83  85
ENDBRANCH  75  81
ENDBRANCH  72  74
ENDBRANCH  71  72
ENDBRANCH   1  71
TORSDOF 18
ENDMDL
MODEL 2
REMARK VINA RESULT:     -11.4      6.000     12.407
REMARK SMILES O=C(OCCOC(=O)[C@@H]1[C@@H](C(=O)NCCn2cc(Cl)cn2)[C@H]2CC[C@@H]1O2)c1ccc(-c2c3nc(c(-c4cc(S(=O)(=O)[O-])ccc4F)c4ccc([nH]4)c(-c4cc(S(=O)(=O)[O-])ccc4F)c4nc(c(-c5cc(S(=O)(=O)[O-])ccc5F)c5ccc2[nH]5)C=C4)C=C3)cc1
REMARK SMILES IDX 5 1 4 2 3 3 2 4 1 5 27 6 28 7 89 8 29 9 88 10 30 11 31 12
REMARK SMILES IDX 32 13 82 14 33 15 87 16 81 17 83 18 34 19 86 20 80 21 79 22
REMARK SMILES IDX 35 24 67 25 47 26 66 27 48 28 51 29 65 30 84 31 49 32 50 33
REMARK SMILES IDX 64 35 85 36 52 37 36 38 37 39 45 40 38 41 44 42 46 43 43 44
REMARK SMILES IDX 39 45 40 46 41 47 42 48 68 49 69 50 77 51 70 52 76 53 78 54
REMARK SMILES IDX 75 55 71 56 72 57 73 58 74 59 53 60 54 61 62 62 55 63 61 64
REMARK SMILES IDX 63 65 60 66 56 67 57 68 58 69 59 70 6 71 7 72 8 73 9 74
REMARK SMILES IDX 10 75 25 76 22 77 24 78 26 79 23 80 11 81 12 82 13 83 14 85
REMARK SMILES IDX 15 86 16 87 17 88 21 89 18 90 20 91 19 92
REMARK H PARENT 83 23 51 34 13 84
REMARK Flexibility Score: inf
ROOT
ATOM      1  C   UNL A   1      43.487  21.182  25.301  1.00  0.00     0.274 C 
ENDROOT
BRANCH   1   2
ATOM      2  C   UNL A   1      42.348  21.343  26.310  1.00  0.00     0.275 C 
BRANCH   2   3
ATOM      3  O   UNL A   1      41.674  22.612  26.347  1.00  0.00    -0.458 OA
BRANCH   3   4
ATOM      4  C   UNL A   1      40.694  22.778  27.264  1.00  0.00     0.338 C 
ATOM      5  O   UNL A   1      39.937  21.903  27.633  1.00  0.00    -0.246 OA
BRANCH   4   6
ATOM      6  C   UNL A   1      40.727  24.146  27.826  1.00  0.00     0.060 A 
ATOM      7  C   UNL A   1      41.888  24.687  28.397  1.00  0.00     0.016 A 
ATOM      8  C   UNL A   1      39.582  24.929  27.678  1.00  0.00     0.016 A 
ATOM      9  C   UNL A   1      41.895  26.001  28.845  1.00  0.00     0.010 A 
ATOM     10  C   UNL A   1      39.599  26.248  28.105  1.00  0.00     0.010 A 
ATOM     11  C   UNL A   1      40.742  26.779  28.716  1.00  0.00    -0.014 A 
BRANCH  11  12
ATOM     12  C   UNL A   1      40.786  28.177  29.143  1.00  0.00     0.031 A 
ATOM     13  C   UNL A   1      41.837  29.035  28.516  1.00  0.00     0.074 A 
ATOM     14  C   UNL A   1      39.820  28.749  29.887  1.00  0.00     0.049 A 
ATOM     15  N   UNL A   1      42.899  29.553  29.045  1.00  0.00    -0.248 NA
ATOM     16  C   UNL A   1      41.739  29.255  27.070  1.00  0.00     0.031 C 
ATOM     17  C   UNL A   1      38.553  28.175  30.343  1.00  0.00     0.029 A 
ATOM     18  N   UNL A   1      39.732  30.042  30.296  1.00  0.00    -0.354 N 
ATOM     19  C   UNL A   1      43.500  30.335  28.051  1.00  0.00     0.074 A 
ATOM     20  C   UNL A   1      42.855  29.945  26.826  1.00  0.00     0.031 C 
ATOM     21  C   UNL A   1      37.727  29.171  30.737  1.00  0.00     0.029 A 
ATOM     22  C   UNL A   1      38.470  30.419  30.731  1.00  0.00     0.049 A 
ATOM     23  H   UNL A   1      40.499  30.659  30.284  1.00  0.00     0.167 HD
ATOM     24  C   UNL A   1      44.332  31.380  28.347  1.00  0.00     0.034 A 
ATOM     25  C   UNL A   1      38.053  31.676  31.026  1.00  0.00     0.034 A 
ATOM     26  C   UNL A   1      44.716  31.346  29.742  1.00  0.00     0.049 A 
ATOM     27  C   UNL A   1      39.273  32.465  31.335  1.00  0.00     0.074 A 
ATOM     28  C   UNL A   1      45.379  30.444  30.552  1.00  0.00     0.029 A 
ATOM     29  N   UNL A   1      44.071  32.199  30.611  1.00  0.00    -0.354 N 
ATOM     30  N   UNL A   1      40.054  32.193  32.347  1.00  0.00    -0.248 NA
ATOM     31  C   UNL A   1      39.898  33.224  30.261  1.00  0.00     0.031 C 
ATOM     32  C   UNL A   1      44.646  30.462  31.779  1.00  0.00     0.029 A 
ATOM     33  C   UNL A   1      43.647  31.433  31.666  1.00  0.00     0.049 A 
ATOM     34  H   UNL A   1      43.940  33.169  30.496  1.00  0.00     0.167 HD
ATOM     35  C   UNL A   1      41.344  32.354  31.861  1.00  0.00     0.074 A 
ATOM     36  C   UNL A   1      41.183  33.089  30.606  1.00  0.00     0.031 C 
ATOM     37  C   UNL A   1      42.396  31.641  32.367  1.00  0.00     0.034 A 
BRANCH  24  38
ATOM     38  C   UNL A   1      44.532  32.645  27.519  1.00  0.00     0.023 A 
ATOM     39  C   UNL A   1      43.900  33.823  27.982  1.00  0.00     0.031 A 
ATOM     40  C   UNL A   1      45.040  32.719  26.205  1.00  0.00     0.131 A 
ATOM     41  C   UNL A   1      43.659  34.913  27.128  1.00  0.00     0.055 A 
ATOM     42  C   UNL A   1      44.854  33.834  25.376  1.00  0.00     0.041 A 
ATOM     43  F   UNL A   1      45.682  31.710  25.613  1.00  0.00    -0.206 F 
ATOM     44  C   UNL A   1      44.123  34.921  25.819  1.00  0.00     0.022 A 
BRANCH  41  45
ATOM     45  S   UNL A   1      42.549  36.228  27.699  1.00  0.00     0.124 S 
ATOM     46  O   UNL A   1      41.248  35.572  27.613  1.00  0.00    -0.237 OA
ATOM     47  O   UNL A   1      43.055  36.484  29.043  1.00  0.00    -0.237 OA
ATOM     48  O   UNL A   1      42.770  37.302  26.734  1.00  0.00    -0.744 OA
ENDBRANCH  41  45
ENDBRANCH  24  38
BRANCH  25  49
ATOM     49  C   UNL A   1      36.729  32.256  30.677  1.00  0.00     0.023 A 
ATOM     50  C   UNL A   1      35.906  32.924  31.605  1.00  0.00     0.031 A 
ATOM     51  C   UNL A   1      36.345  32.333  29.316  1.00  0.00     0.131 A 
ATOM     52  C   UNL A   1      34.752  33.615  31.162  1.00  0.00     0.055 A 
ATOM     53  C   UNL A   1      35.206  33.016  28.885  1.00  0.00     0.041 A 
ATOM     54  F   UNL A   1      37.113  31.807  28.349  1.00  0.00    -0.206 F 
ATOM     55  C   UNL A   1      34.406  33.666  29.809  1.00  0.00     0.022 A 
BRANCH  52  56
ATOM     56  S   UNL A   1      33.711  34.528  32.347  1.00  0.00     0.124 S 
ATOM     57  O   UNL A   1      33.274  33.473  33.254  1.00  0.00    -0.237 OA
ATOM     58  O   UNL A   1      34.644  35.508  32.893  1.00  0.00    -0.237 OA
ATOM     59  O   UNL A   1      32.652  35.094  31.509  1.00  0.00    -0.744 OA
ENDBRANCH  52  56
ENDBRANCH  25  49
BRANCH  37  60
ATOM     60  C   UNL A   1      42.189  30.819  33.624  1.00  0.00     0.023 A 
ATOM     61  C   UNL A   1      41.893  29.436  33.641  1.00  0.00     0.031 A 
ATOM     62  C   UNL A   1      42.481  31.438  34.851  1.00  0.00     0.131 A 
ATOM     63  C   UNL A   1      41.903  28.728  34.860  1.00  0.00     0.055 A 
ATOM     64  C   UNL A   1      42.507  30.731  36.052  1.00  0.00     0.041 A 
ATOM     65  F   UNL A   1      42.804  32.742  34.895  1.00  0.00    -0.206 F 
ATOM     66  C   UNL A   1      42.216  29.373  36.062  1.00  0.00     0.022 A 
BRANCH  63  67
ATOM     67  S   UNL A   1      41.514  26.947  34.911  1.00  0.00     0.124 S 
ATOM     68  O   UNL A   1      40.403  26.812  33.976  1.00  0.00    -0.237 OA
ATOM     69  O   UNL A   1      42.775  26.333  34.501  1.00  0.00    -0.237 OA
ATOM     70  O   UNL A   1      41.158  26.716  36.313  1.00  0.00    -0.744 OA
ENDBRANCH  63  67
ENDBRANCH  37  60
ENDBRANCH  11  12
ENDBRANCH   4   6
ENDBRANCH   3   4
ENDBRANCH   2   3
ENDBRANCH   1   2
BRANCH   1  71
ATOM     71  O   UNL A   1      43.515  22.273  24.356  1.00  0.00    -0.462 OA
BRANCH  71  72
ATOM     72  C   UNL A   1      44.651  23.020  24.363  1.00  0.00     0.312 C 
ATOM     73  O   UNL A   1      45.525  22.950  23.502  1.00  0.00    -0.252 OA
BRANCH  72  74
ATOM     74  C   UNL A   1      44.819  23.898  25.584  1.00  0.00     0.143 C 
ATOM     75  C   UNL A   1      45.617  25.192  25.374  1.00  0.00     0.124 C 
ATOM     76  C   UNL A   1      45.630  23.185  26.668  1.00  0.00     0.133 C 
ATOM     77  C   UNL A   1      46.626  25.117  26.523  1.00  0.00     0.132 C 
ATOM     78  C   UNL A   1      45.337  23.795  28.037  1.00  0.00     0.036 C 
ATOM     79  O   UNL A   1      46.958  23.708  26.434  1.00  0.00    -0.373 OA
ATOM     80  C   UNL A   1      46.058  25.139  27.944  1.00  0.00     0.035 C 
BRANCH  75  81
ATOM     81  C   UNL A   1      44.756  26.431  25.386  1.00  0.00     0.226 C 
ATOM     82  O   UNL A   1      43.604  26.456  25.810  1.00  0.00    -0.275 OA
ATOM     83  N   UNL A   1      45.260  27.586  24.879  1.00  0.00    -0.354 N 
ATOM     84  H   UNL A   1      44.647  28.354  24.943  1.00  0.00     0.163 HD
BRANCH  83  85
ATOM     85  C   UNL A   1      46.538  27.898  24.259  1.00  0.00     0.139 C 
BRANCH  85  86
ATOM     86  C   UNL A   1      47.631  28.146  25.302  1.00  0.00     0.165 C 
BRANCH  86  87
ATOM     87  N   UNL A   1      48.940  27.630  24.934  1.00  0.00    -0.269 N 
ATOM     88  C   UNL A   1      49.797  26.956  25.759  1.00  0.00     0.129 A 
ATOM     89  N   UNL A   1      49.404  27.751  23.671  1.00  0.00    -0.180 NA
ATOM     90  C   UNL A   1      50.857  26.577  24.972  1.00  0.00     0.079 A 
ATOM     91  C   UNL A   1      50.558  27.078  23.694  1.00  0.00     0.155 A 
ATOM     92  Cl  UNL A   1      52.229  25.696  25.413  1.00  0.00    -0.081 Cl
ENDBRANCH  86  87
ENDBRANCH  85  86
ENDBRANCH  83  85
ENDBRANCH  75  81
ENDBRANCH  72  74
ENDBRANCH  71  72
ENDBRANCH   1  71
TORSDOF 18
ENDMDL
MODEL 3
REMARK VINA RESULT:     -11.2      5.159      7.923
REMARK SMILES O=C(OCCOC(=O)[C@@H]1[C@@H](C(=O)NCCn2cc(Cl)cn2)[C@H]2CC[C@@H]1O2)c1ccc(-c2c3nc(c(-c4cc(S(=O)(=O)[O-])ccc4F)c4ccc([nH]4)c(-c4cc(S(=O)(=O)[O-])ccc4F)c4nc(c(-c5cc(S(=O)(=O)[O-])ccc5F)c5ccc2[nH]5)C=C4)C=C3)cc1
REMARK SMILES IDX 5 1 4 2 3 3 2 4 1 5 27 6 28 7 89 8 29 9 88 10 30 11 31 12
REMARK SMILES IDX 32 13 82 14 33 15 87 16 81 17 83 18 34 19 86 20 80 21 79 22
REMARK SMILES IDX 35 24 67 25 47 26 66 27 48 28 51 29 65 30 84 31 49 32 50 33
REMARK SMILES IDX 64 35 85 36 52 37 36 38 37 39 45 40 38 41 44 42 46 43 43 44
REMARK SMILES IDX 39 45 40 46 41 47 42 48 68 49 69 50 77 51 70 52 76 53 78 54
REMARK SMILES IDX 75 55 71 56 72 57 73 58 74 59 53 60 54 61 62 62 55 63 61 64
REMARK SMILES IDX 63 65 60 66 56 67 57 68 58 69 59 70 6 71 7 72 8 73 9 74
REMARK SMILES IDX 10 75 25 76 22 77 24 78 26 79 23 80 11 81 12 82 13 83 14 85
REMARK SMILES IDX 15 86 16 87 17 88 21 89 18 90 20 91 19 92
REMARK H PARENT 83 23 51 34 13 84
REMARK Flexibility Score: inf
ROOT
ATOM      1  C   UNL A   1      34.883  32.519  31.721  1.00  0.00     0.274 C 
ENDROOT
BRANCH   1   2
ATOM      2  C   UNL A   1      34.742  33.454  30.517  1.00  0.00     0.275 C 
BRANCH   2   3
ATOM      3  O   UNL A   1      35.831  33.493  29.580  1.00  0.00    -0.458 OA
BRANCH   3   4
ATOM      4  C   UNL A   1      35.909  32.501  28.664  1.00  0.00     0.338 C 
ATOM      5  O   UNL A   1      35.124  32.341  27.751  1.00  0.00    -0.246 OA
BRANCH   4   6
ATOM      6  C   UNL A   1      37.131  31.693  28.868  1.00  0.00     0.060 A 
ATOM      7  C   UNL A   1      38.322  32.255  29.348  1.00  0.00     0.016 A 
ATOM      8  C   UNL A   1      37.032  30.317  28.659  1.00  0.00     0.016 A 
ATOM      9  C   UNL A   1      39.422  31.445  29.594  1.00  0.00     0.010 A 
ATOM     10  C   UNL A   1      38.125  29.507  28.929  1.00  0.00     0.010 A 
ATOM     11  C   UNL A   1      39.330  30.070  29.366  1.00  0.00    -0.014 A 
BRANCH  11  12
ATOM     12  C   UNL A   1      40.483  29.227  29.684  1.00  0.00     0.031 A 
ATOM     13  C   UNL A   1      40.725  28.943  31.132  1.00  0.00     0.074 A 
ATOM     14  C   UNL A   1      41.177  28.548  28.750  1.00  0.00     0.049 A 
ATOM     15  N   UNL A   1      41.680  29.356  31.902  1.00  0.00    -0.248 NA
ATOM     16  C   UNL A   1      39.696  28.176  31.840  1.00  0.00     0.031 C 
ATOM     17  C   UNL A   1      40.915  28.436  27.315  1.00  0.00     0.029 A 
ATOM     18  N   UNL A   1      42.224  27.701  28.935  1.00  0.00    -0.354 N 
ATOM     19  C   UNL A   1      41.489  28.737  33.142  1.00  0.00     0.074 A 
ATOM     20  C   UNL A   1      40.156  28.198  33.092  1.00  0.00     0.031 C 
ATOM     21  C   UNL A   1      41.611  27.391  26.813  1.00  0.00     0.029 A 
ATOM     22  C   UNL A   1      42.495  26.884  27.848  1.00  0.00     0.049 A 
ATOM     23  H   UNL A   1      42.744  27.671  29.769  1.00  0.00     0.167 HD
ATOM     24  C   UNL A   1      42.513  28.544  34.029  1.00  0.00     0.034 A 
ATOM     25  C   UNL A   1      43.357  25.836  27.813  1.00  0.00     0.034 A 
ATOM     26  C   UNL A   1      43.675  29.314  33.640  1.00  0.00     0.049 A 
ATOM     27  C   UNL A   1      44.332  26.054  28.912  1.00  0.00     0.074 A 
ATOM     28  C   UNL A   1      43.941  30.658  33.454  1.00  0.00     0.029 A 
ATOM     29  N   UNL A   1      44.703  28.656  33.000  1.00  0.00    -0.354 N 
ATOM     30  N   UNL A   1      45.147  27.075  28.944  1.00  0.00    -0.248 NA
ATOM     31  C   UNL A   1      44.070  25.435  30.204  1.00  0.00     0.031 C 
ATOM     32  C   UNL A   1      44.747  30.701  32.275  1.00  0.00     0.029 A 
ATOM     33  C   UNL A   1      44.991  29.385  31.875  1.00  0.00     0.049 A 
ATOM     34  H   UNL A   1      45.142  27.824  33.293  1.00  0.00     0.167 HD
ATOM     35  C   UNL A   1      45.152  27.493  30.267  1.00  0.00     0.074 A 
ATOM     36  C   UNL A   1      44.555  26.384  31.012  1.00  0.00     0.031 C 
ATOM     37  C   UNL A   1      45.377  28.799  30.606  1.00  0.00     0.034 A 
BRANCH  24  38
ATOM     38  C   UNL A   1      42.639  27.409  35.039  1.00  0.00     0.023 A 
ATOM     39  C   UNL A   1      43.462  26.316  34.679  1.00  0.00     0.031 A 
ATOM     40  C   UNL A   1      41.819  27.190  36.167  1.00  0.00     0.131 A 
ATOM     41  C   UNL A   1      43.337  25.063  35.303  1.00  0.00     0.055 A 
ATOM     42  C   UNL A   1      41.744  25.957  36.828  1.00  0.00     0.041 A 
ATOM     43  F   UNL A   1      40.994  28.116  36.659  1.00  0.00    -0.206 F 
ATOM     44  C   UNL A   1      42.470  24.872  36.373  1.00  0.00     0.022 A 
BRANCH  41  45
ATOM     45  S   UNL A   1      44.175  23.639  34.557  1.00  0.00     0.124 S 
ATOM     46  O   UNL A   1      45.247  24.289  33.809  1.00  0.00    -0.237 OA
ATOM     47  O   UNL A   1      44.579  22.878  35.734  1.00  0.00    -0.237 OA
ATOM     48  O   UNL A   1      43.132  23.021  33.741  1.00  0.00    -0.744 OA
ENDBRANCH  41  45
ENDBRANCH  24  38
BRANCH  25  49
ATOM     49  C   UNL A   1      43.117  24.536  27.132  1.00  0.00     0.023 A 
ATOM     50  C   UNL A   1      44.015  23.968  26.208  1.00  0.00     0.031 A 
ATOM     51  C   UNL A   1      42.046  23.717  27.564  1.00  0.00     0.131 A 
ATOM     52  C   UNL A   1      43.815  22.644  25.746  1.00  0.00     0.055 A 
ATOM     53  C   UNL A   1      41.853  22.413  27.105  1.00  0.00     0.041 A 
ATOM     54  F   UNL A   1      41.191  24.138  28.510  1.00  0.00    -0.206 F 
ATOM     55  C   UNL A   1      42.743  21.868  26.196  1.00  0.00     0.022 A 
BRANCH  52  56
ATOM     56  S   UNL A   1      45.001  21.879  24.593  1.00  0.00     0.124 S 
ATOM     57  O   UNL A   1      46.181  21.705  25.433  1.00  0.00    -0.237 OA
ATOM     58  O   UNL A   1      44.307  20.661  24.191  1.00  0.00    -0.237 OA
ATOM     59  O   UNL A   1      45.145  22.879  23.534  1.00  0.00    -0.744 OA
ENDBRANCH  52  56
ENDBRANCH  25  49
BRANCH  37  60
ATOM     60  C   UNL A   1      45.841  29.767  29.536  1.00  0.00     0.023 A 
ATOM     61  C   UNL A   1      44.996  30.366  28.573  1.00  0.00     0.031 A 
ATOM     62  C   UNL A   1      47.166  30.227  29.619  1.00  0.00     0.131 A 
ATOM     63  C   UNL A   1      45.493  31.392  27.742  1.00  0.00     0.055 A 
ATOM     64  C   UNL A   1      47.648  31.254  28.808  1.00  0.00     0.041 A 
ATOM     65  F   UNL A   1      48.006  29.721  30.538  1.00  0.00    -0.206 F 
ATOM     66  C   UNL A   1      46.813  31.839  27.864  1.00  0.00     0.022 A 
BRANCH  63  67
ATOM     67  S   UNL A   1      44.428  32.174  26.485  1.00  0.00     0.124 S 
ATOM     68  O   UNL A   1      43.970  33.396  27.136  1.00  0.00    -0.237 OA
ATOM     69  O   UNL A   1      45.341  32.351  25.358  1.00  0.00    -0.237 OA
ATOM     70  O   UNL A   1      43.379  31.177  26.260  1.00  0.00    -0.744 OA
ENDBRANCH  63  67
ENDBRANCH  37  60
ENDBRANCH  11  12
ENDBRANCH   4   6
ENDBRANCH   3   4
ENDBRANCH   2   3
ENDBRANCH   1   2
BRANCH   1  71
ATOM     71  O   UNL A   1      36.178  32.652  32.345  1.00  0.00    -0.462 OA
BRANCH  71  72
ATOM     72  C   UNL A   1      36.797  31.482  32.656  1.00  0.00     0.312 C 
ATOM     73  O   UNL A   1      36.334  30.372  32.406  1.00  0.00    -0.252 OA
BRANCH  72  74
ATOM     74  C   UNL A   1      38.083  31.640  33.438  1.00  0.00     0.143 C 
ATOM     75  C   UNL A   1      37.937  32.181  34.866  1.00  0.00     0.124 C 
ATOM     76  C   UNL A   1      39.000  32.677  32.786  1.00  0.00     0.133 C 
ATOM     77  C   UNL A   1      38.968  33.313  34.869  1.00  0.00     0.132 C 
ATOM     78  C   UNL A   1      40.449  32.444  33.209  1.00  0.00     0.036 C 
ATOM     79  O   UNL A   1      38.697  33.863  33.555  1.00  0.00    -0.373 OA
ATOM     80  C   UNL A   1      40.432  32.915  34.663  1.00  0.00     0.035 C 
BRANCH  75  81
ATOM     81  C   UNL A   1      38.166  31.132  35.927  1.00  0.00     0.226 C 
ATOM     82  O   UNL A   1      38.502  29.977  35.681  1.00  0.00    -0.275 OA
ATOM     83  N   UNL A   1      37.970  31.461  37.229  1.00  0.00    -0.354 N 
ATOM     84  H   UNL A   1      38.161  30.731  37.862  1.00  0.00     0.163 HD
BRANCH  83  85
ATOM     85  C   UNL A   1      37.528  32.694  37.863  1.00  0.00     0.139 C 
BRANCH  85  86
ATOM     86  C   UNL A   1      38.255  32.945  39.187  1.00  0.00     0.165 C 
BRANCH  86  87
ATOM     87  N   UNL A   1      37.649  32.296  40.338  1.00  0.00    -0.269 N 
ATOM     88  C   UNL A   1      36.417  32.579  40.861  1.00  0.00     0.129 A 
ATOM     89  N   UNL A   1      38.277  31.285  40.976  1.00  0.00    -0.180 NA
ATOM     90  C   UNL A   1      36.217  31.666  41.867  1.00  0.00     0.079 A 
ATOM     91  C   UNL A   1      37.384  30.884  41.887  1.00  0.00     0.155 A 
ATOM     92  Cl  UNL A   1      34.871  31.492  42.873  1.00  0.00    -0.081 Cl
ENDBRANCH  86  87
ENDBRANCH  85  86
ENDBRANCH  83  85
ENDBRANCH  75  81
ENDBRANCH  72  74
ENDBRANCH  71  72
ENDBRANCH   1  71
TORSDOF 18
ENDMDL
