MODEL 1
REMARK VINA RESULT:     -11.7      0.000      0.000
REMARK SMILES O=C(CSc1nc2ccc(Cl)cc2c(=O)n1CC1CCCCC1)OCCOC(=O)c1ccc(-c2c3nc(c(-c4cc(S(=O)(=O)[O-])ccc4F)c4ccc([nH]4)c(-c4cc(S(=O)(=O)[O-])ccc4F)c4nc(c(-c5cc(S(=O)(=O)[O-])ccc5F)c5ccc2[nH]5)C=C4)C=C3)cc1
REMARK SMILES IDX 25 1 24 2 2 3 1 4 3 5 4 6 5 7 6 8 16 9 7 10 14 11 8 12 13 13
REMARK SMILES IDX 15 14 9 15 12 16 10 17 11 18 17 19 18 20 19 21 23 22 20 23
REMARK SMILES IDX 22 24 21 25 26 26 27 27 28 28 29 29 30 30 31 31 92 32 32 33
REMARK SMILES IDX 91 34 33 35 34 36 35 37 85 38 36 39 90 40 84 41 86 42 37 43
REMARK SMILES IDX 89 44 83 45 82 46 38 48 70 49 50 50 69 51 51 52 54 53 68 54
REMARK SMILES IDX 87 55 52 56 53 57 67 59 88 60 55 61 39 62 40 63 48 64 41 65
REMARK SMILES IDX 47 66 49 67 46 68 42 69 43 70 44 71 45 72 71 73 72 74 80 75
REMARK SMILES IDX 73 76 79 77 81 78 78 79 74 80 75 81 76 82 77 83 56 84 57 85
REMARK SMILES IDX 65 86 58 87 64 88 66 89 63 90 59 91 60 92 61 93 62 94
REMARK H PARENT 86 47 54 58
REMARK Flexibility Score: inf
ROOT
ATOM      1  C   UNL A   1      38.873  20.515  25.056  1.00  0.00     0.274 C 
ENDROOT
BRANCH   1   2
ATOM      2  O   UNL A   1      37.836  21.311  25.672  1.00  0.00    -0.461 OA
BRANCH   2   3
ATOM      3  C   UNL A   1      37.869  22.662  25.797  1.00  0.00     0.316 C 
ATOM      4  O   UNL A   1      38.807  23.195  26.390  1.00  0.00    -0.251 OA
BRANCH   3   5
ATOM      5  C   UNL A   1      36.830  23.496  25.087  1.00  0.00     0.200 C 
BRANCH   5   6
ATOM      6  S   UNL A   1      36.176  22.608  23.653  1.00  0.00    -0.076 SA
BRANCH   6   7
ATOM      7  C   UNL A   1      34.553  23.264  23.555  1.00  0.00     0.171 A 
ATOM      8  N   UNL A   1      34.460  24.362  22.877  1.00  0.00    -0.224 NA
ATOM      9  N   UNL A   1      33.502  22.668  24.240  1.00  0.00    -0.287 N 
ATOM     10  C   UNL A   1      33.243  25.049  22.874  1.00  0.00     0.079 A 
ATOM     11  C   UNL A   1      32.227  23.232  24.160  1.00  0.00     0.262 A 
ATOM     12  C   UNL A   1      33.166  26.306  22.269  1.00  0.00     0.031 A 
ATOM     13  C   UNL A   1      32.117  24.548  23.516  1.00  0.00     0.067 A 
ATOM     14  O   UNL A   1      31.207  22.706  24.600  1.00  0.00    -0.269 OA
ATOM     15  C   UNL A   1      31.988  27.060  22.340  1.00  0.00     0.023 A 
ATOM     16  C   UNL A   1      30.931  25.287  23.595  1.00  0.00     0.036 A 
ATOM     17  C   UNL A   1      30.881  26.551  23.016  1.00  0.00     0.042 A 
ATOM     18  Cl  UNL A   1      29.455  27.499  23.180  1.00  0.00    -0.084 Cl
BRANCH   9  19
ATOM     19  C   UNL A   1      33.584  21.399  24.975  1.00  0.00     0.131 C 
BRANCH  19  20
ATOM     20  C   UNL A   1      33.640  20.104  24.143  1.00  0.00     0.009 C 
ATOM     21  C   UNL A   1      34.447  18.988  24.820  1.00  0.00     0.005 C 
ATOM     22  C   UNL A   1      32.262  19.606  23.701  1.00  0.00     0.005 C 
ATOM     23  C   UNL A   1      34.538  17.741  23.947  1.00  0.00     0.000 C 
ATOM     24  C   UNL A   1      32.388  18.380  22.801  1.00  0.00     0.000 C 
ATOM     25  C   UNL A   1      33.162  17.267  23.499  1.00  0.00     0.000 C 
ENDBRANCH  19  20
ENDBRANCH   9  19
ENDBRANCH   6   7
ENDBRANCH   5   6
ENDBRANCH   3   5
ENDBRANCH   2   3
ENDBRANCH   1   2
BRANCH   1  26
ATOM     26  C   UNL A   1      39.595  19.693  26.123  1.00  0.00     0.275 C 
BRANCH  26  27
ATOM     27  O   UNL A   1      40.931  19.434  25.662  1.00  0.00    -0.458 OA
BRANCH  27  28
ATOM     28  C   UNL A   1      41.917  19.543  26.591  1.00  0.00     0.338 C 
ATOM     29  O   UNL A   1      42.636  18.648  26.998  1.00  0.00    -0.246 OA
BRANCH  28  30
ATOM     30  C   UNL A   1      42.141  20.991  26.814  1.00  0.00     0.060 A 
ATOM     31  C   UNL A   1      42.090  21.537  28.100  1.00  0.00     0.016 A 
ATOM     32  C   UNL A   1      42.289  21.824  25.699  1.00  0.00     0.016 A 
ATOM     33  C   UNL A   1      42.177  22.917  28.270  1.00  0.00     0.010 A 
ATOM     34  C   UNL A   1      42.359  23.208  25.868  1.00  0.00     0.010 A 
ATOM     35  C   UNL A   1      42.315  23.759  27.156  1.00  0.00    -0.014 A 
BRANCH  35  36
ATOM     36  C   UNL A   1      42.637  25.187  27.367  1.00  0.00     0.031 A 
ATOM     37  C   UNL A   1      41.655  26.154  27.940  1.00  0.00     0.074 A 
ATOM     38  C   UNL A   1      43.876  25.587  27.030  1.00  0.00     0.049 A 
ATOM     39  N   UNL A   1      41.860  27.386  28.324  1.00  0.00    -0.248 NA
ATOM     40  C   UNL A   1      40.270  25.691  28.107  1.00  0.00     0.031 C 
ATOM     41  C   UNL A   1      44.891  24.718  26.435  1.00  0.00     0.029 A 
ATOM     42  N   UNL A   1      44.489  26.808  27.128  1.00  0.00    -0.354 N 
ATOM     43  C   UNL A   1      40.643  27.846  28.802  1.00  0.00     0.074 A 
ATOM     44  C   UNL A   1      39.689  26.770  28.620  1.00  0.00     0.031 C 
ATOM     45  C   UNL A   1      46.002  25.432  26.220  1.00  0.00     0.029 A 
ATOM     46  C   UNL A   1      45.775  26.810  26.648  1.00  0.00     0.049 A 
ATOM     47  H   UNL A   1      44.051  27.604  27.507  1.00  0.00     0.167 HD
ATOM     48  C   UNL A   1      40.366  29.052  29.356  1.00  0.00     0.034 A 
ATOM     49  C   UNL A   1      46.679  27.806  26.563  1.00  0.00     0.034 A 
ATOM     50  C   UNL A   1      41.337  30.110  29.500  1.00  0.00     0.049 A 
ATOM     51  C   UNL A   1      46.337  29.147  27.149  1.00  0.00     0.074 A 
ATOM     52  C   UNL A   1      41.183  31.328  30.140  1.00  0.00     0.029 A 
ATOM     53  N   UNL A   1      42.622  30.100  28.972  1.00  0.00    -0.354 N 
ATOM     54  N   UNL A   1      45.233  29.519  27.752  1.00  0.00    -0.248 NA
ATOM     55  C   UNL A   1      47.361  30.196  27.070  1.00  0.00     0.031 C 
ATOM     56  C   UNL A   1      42.339  32.082  29.932  1.00  0.00     0.029 A 
ATOM     57  C   UNL A   1      43.250  31.310  29.226  1.00  0.00     0.049 A 
ATOM     58  H   UNL A   1      43.027  29.344  28.488  1.00  0.00     0.167 HD
ATOM     59  C   UNL A   1      45.434  30.838  28.144  1.00  0.00     0.074 A 
ATOM     60  C   UNL A   1      46.774  31.193  27.720  1.00  0.00     0.031 C 
ATOM     61  C   UNL A   1      44.583  31.669  28.798  1.00  0.00     0.034 A 
BRANCH  48  62
ATOM     62  C   UNL A   1      38.976  29.310  29.881  1.00  0.00     0.023 A 
ATOM     63  C   UNL A   1      38.096  30.149  29.172  1.00  0.00     0.031 A 
ATOM     64  C   UNL A   1      38.581  28.854  31.151  1.00  0.00     0.131 A 
ATOM     65  C   UNL A   1      36.879  30.529  29.752  1.00  0.00     0.055 A 
ATOM     66  C   UNL A   1      37.354  29.211  31.712  1.00  0.00     0.041 A 
ATOM     67  F   UNL A   1      39.390  28.059  31.872  1.00  0.00    -0.206 F 
ATOM     68  C   UNL A   1      36.502  30.064  31.016  1.00  0.00     0.022 A 
BRANCH  65  69
ATOM     69  S   UNL A   1      35.765  31.696  28.923  1.00  0.00     0.124 S 
ATOM     70  O   UNL A   1      36.680  32.787  28.593  1.00  0.00    -0.237 OA
ATOM     71  O   UNL A   1      35.293  30.913  27.783  1.00  0.00    -0.237 OA
ATOM     72  O   UNL A   1      34.763  32.005  29.935  1.00  0.00    -0.744 OA
ENDBRANCH  65  69
ENDBRANCH  48  62
BRANCH  49  73
ATOM     73  C   UNL A   1      48.008  27.494  25.969  1.00  0.00     0.023 A 
ATOM     74  C   UNL A   1      48.245  27.715  24.599  1.00  0.00     0.031 A 
ATOM     75  C   UNL A   1      48.976  26.797  26.708  1.00  0.00     0.131 A 
ATOM     76  C   UNL A   1      49.379  27.161  23.993  1.00  0.00     0.055 A 
ATOM     77  C   UNL A   1      50.140  26.309  26.114  1.00  0.00     0.041 A 
ATOM     78  F   UNL A   1      48.779  26.544  28.012  1.00  0.00    -0.206 F 
ATOM     79  C   UNL A   1      50.336  26.471  24.745  1.00  0.00     0.022 A 
BRANCH  76  80
ATOM     80  S   UNL A   1      49.570  27.181  22.189  1.00  0.00     0.124 S 
ATOM     81  O   UNL A   1      49.110  28.523  21.847  1.00  0.00    -0.237 OA
ATOM     82  O   UNL A   1      51.006  26.950  22.044  1.00  0.00    -0.237 OA
ATOM     83  O   UNL A   1      48.716  26.087  21.739  1.00  0.00    -0.744 OA
ENDBRANCH  76  80
ENDBRANCH  49  73
BRANCH  61  84
ATOM     84  C   UNL A   1      45.041  33.076  29.100  1.00  0.00     0.023 A 
ATOM     85  C   UNL A   1      44.798  34.111  28.176  1.00  0.00     0.031 A 
ATOM     86  C   UNL A   1      45.855  33.355  30.211  1.00  0.00     0.131 A 
ATOM     87  C   UNL A   1      45.408  35.360  28.350  1.00  0.00     0.055 A 
ATOM     88  C   UNL A   1      46.421  34.616  30.406  1.00  0.00     0.041 A 
ATOM     89  F   UNL A   1      46.120  32.401  31.118  1.00  0.00    -0.206 F 
ATOM     90  C   UNL A   1      46.212  35.620  29.465  1.00  0.00     0.022 A 
BRANCH  87  91
ATOM     91  S   UNL A   1      45.252  36.661  27.096  1.00  0.00     0.124 S 
ATOM     92  O   UNL A   1      46.250  36.255  26.110  1.00  0.00    -0.237 OA
ATOM     93  O   UNL A   1      43.861  36.515  26.673  1.00  0.00    -0.237 OA
ATOM     94  O   UNL A   1      45.562  37.889  27.822  1.00  0.00    -0.744 OA
ENDBRANCH  87  91
ENDBRANCH  61  84
ENDBRANCH  35  36
ENDBRANCH  28  30
ENDBRANCH  27  28
ENDBRANCH  26  27
ENDBRANCH   1  26
TORSDOF 18
ENDMDL
MODEL 2
REMARK VINA RESULT:     -11.6      5.450     11.228
REMARK SMILES O=C(CSc1nc2ccc(Cl)cc2c(=O)n1CC1CCCCC1)OCCOC(=O)c1ccc(-c2c3nc(c(-c4cc(S(=O)(=O)[O-])ccc4F)c4ccc([nH]4)c(-c4cc(S(=O)(=O)[O-])ccc4F)c4nc(c(-c5cc(S(=O)(=O)[O-])ccc5F)c5ccc2[nH]5)C=C4)C=C3)cc1
REMARK SMILES IDX 25 1 24 2 2 3 1 4 3 5 4 6 5 7 6 8 16 9 7 10 14 11 8 12 13 13
REMARK SMILES IDX 15 14 9 15 12 16 10 17 11 18 17 19 18 20 19 21 23 22 20 23
REMARK SMILES IDX 22 24 21 25 26 26 27 27 28 28 29 29 30 30 31 31 92 32 32 33
REMARK SMILES IDX 91 34 33 35 34 36 35 37 85 38 36 39 90 40 84 41 86 42 37 43
REMARK SMILES IDX 89 44 83 45 82 46 38 48 70 49 50 50 69 51 51 52 54 53 68 54
REMARK SMILES IDX 87 55 52 56 53 57 67 59 88 60 55 61 39 62 40 63 48 64 41 65
REMARK SMILES IDX 47 66 49 67 46 68 42 69 43 70 44 71 45 72 71 73 72 74 80 75
REMARK SMILES IDX 73 76 79 77 81 78 78 79 74 80 75 81 76 82 77 83 56 84 57 85
REMARK SMILES IDX 65 86 58 87 64 88 66 89 63 90 59 91 60 92 61 93 62 94
REMARK H PARENT 86 47 54 58
REMARK Flexibility Score: inf
ROOT
ATOM      1  C   UNL A   1      31.777  32.285  26.991  1.00  0.00     0.274 C 
ENDROOT
BRANCH   1   2
ATOM      2  O   UNL A   1      32.167  30.898  27.106  1.00  0.00    -0.461 OA
BRANCH   2   3
ATOM      3  C   UNL A   1      31.863  29.933  26.203  1.00  0.00     0.316 C 
ATOM      4  O   UNL A   1      31.185  30.214  25.215  1.00  0.00    -0.251 OA
BRANCH   3   5
ATOM      5  C   UNL A   1      32.480  28.562  26.351  1.00  0.00     0.200 C 
BRANCH   5   6
ATOM      6  S   UNL A   1      33.754  28.301  25.093  1.00  0.00    -0.076 SA
BRANCH   6   7
ATOM      7  C   UNL A   1      33.568  26.588  24.769  1.00  0.00     0.171 A 
ATOM      8  N   UNL A   1      33.931  25.817  25.742  1.00  0.00    -0.224 NA
ATOM      9  N   UNL A   1      33.147  26.141  23.523  1.00  0.00    -0.287 N 
ATOM     10  C   UNL A   1      33.973  24.437  25.526  1.00  0.00     0.079 A 
ATOM     11  C   UNL A   1      33.033  24.768  23.291  1.00  0.00     0.262 A 
ATOM     12  C   UNL A   1      34.500  23.603  26.516  1.00  0.00     0.031 A 
ATOM     13  C   UNL A   1      33.568  23.870  24.324  1.00  0.00     0.067 A 
ATOM     14  O   UNL A   1      32.532  24.274  22.284  1.00  0.00    -0.269 OA
ATOM     15  C   UNL A   1      34.649  22.229  26.286  1.00  0.00     0.023 A 
ATOM     16  C   UNL A   1      33.708  22.499  24.078  1.00  0.00     0.036 A 
ATOM     17  C   UNL A   1      34.265  21.687  25.061  1.00  0.00     0.042 A 
ATOM     18  Cl  UNL A   1      34.515  20.017  24.736  1.00  0.00    -0.084 Cl
BRANCH   9  19
ATOM     19  C   UNL A   1      32.690  27.004  22.426  1.00  0.00     0.131 C 
BRANCH  19  20
ATOM     20  C   UNL A   1      31.199  27.395  22.410  1.00  0.00     0.009 C 
ATOM     21  C   UNL A   1      30.420  26.844  23.612  1.00  0.00     0.005 C 
ATOM     22  C   UNL A   1      30.967  28.898  22.236  1.00  0.00     0.005 C 
ATOM     23  C   UNL A   1      28.938  27.192  23.538  1.00  0.00     0.000 C 
ATOM     24  C   UNL A   1      29.478  29.211  22.130  1.00  0.00     0.000 C 
ATOM     25  C   UNL A   1      28.721  28.688  23.346  1.00  0.00     0.000 C 
ENDBRANCH  19  20
ENDBRANCH   9  19
ENDBRANCH   6   7
ENDBRANCH   5   6
ENDBRANCH   3   5
ENDBRANCH   2   3
ENDBRANCH   1   2
BRANCH   1  26
ATOM     26  C   UNL A   1      32.963  33.185  27.336  1.00  0.00     0.275 C 
BRANCH  26  27
ATOM     27  O   UNL A   1      32.514  34.182  28.268  1.00  0.00    -0.458 OA
BRANCH  27  28
ATOM     28  C   UNL A   1      33.467  35.019  28.755  1.00  0.00     0.338 C 
ATOM     29  O   UNL A   1      33.359  36.219  28.934  1.00  0.00    -0.246 OA
BRANCH  28  30
ATOM     30  C   UNL A   1      34.558  34.168  29.285  1.00  0.00     0.060 A 
ATOM     31  C   UNL A   1      35.855  34.256  28.767  1.00  0.00     0.016 A 
ATOM     32  C   UNL A   1      34.242  33.188  30.233  1.00  0.00     0.016 A 
ATOM     33  C   UNL A   1      36.831  33.358  29.193  1.00  0.00     0.010 A 
ATOM     34  C   UNL A   1      35.216  32.278  30.646  1.00  0.00     0.010 A 
ATOM     35  C   UNL A   1      36.519  32.367  30.136  1.00  0.00    -0.014 A 
BRANCH  35  36
ATOM     36  C   UNL A   1      37.613  31.578  30.743  1.00  0.00     0.031 A 
ATOM     37  C   UNL A   1      38.324  30.492  30.006  1.00  0.00     0.074 A 
ATOM     38  C   UNL A   1      37.960  31.892  32.004  1.00  0.00     0.049 A 
ATOM     39  N   UNL A   1      39.398  29.840  30.362  1.00  0.00    -0.248 NA
ATOM     40  C   UNL A   1      37.768  30.081  28.709  1.00  0.00     0.031 C 
ATOM     41  C   UNL A   1      37.301  32.918  32.811  1.00  0.00     0.029 A 
ATOM     42  N   UNL A   1      38.934  31.387  32.824  1.00  0.00    -0.354 N 
ATOM     43  C   UNL A   1      39.670  28.956  29.329  1.00  0.00     0.074 A 
ATOM     44  C   UNL A   1      38.618  29.126  28.346  1.00  0.00     0.031 C 
ATOM     45  C   UNL A   1      37.888  32.968  34.013  1.00  0.00     0.029 A 
ATOM     46  C   UNL A   1      38.953  31.971  34.067  1.00  0.00     0.049 A 
ATOM     47  H   UNL A   1      39.559  30.677  32.550  1.00  0.00     0.167 HD
ATOM     48  C   UNL A   1      40.714  28.100  29.216  1.00  0.00     0.034 A 
ATOM     49  C   UNL A   1      39.742  31.738  35.135  1.00  0.00     0.034 A 
ATOM     50  C   UNL A   1      41.732  27.938  30.227  1.00  0.00     0.049 A 
ATOM     51  C   UNL A   1      40.871  30.755  35.001  1.00  0.00     0.074 A 
ATOM     52  C   UNL A   1      42.884  27.175  30.163  1.00  0.00     0.029 A 
ATOM     53  N   UNL A   1      41.708  28.515  31.491  1.00  0.00    -0.354 N 
ATOM     54  N   UNL A   1      41.219  30.046  33.953  1.00  0.00    -0.248 NA
ATOM     55  C   UNL A   1      41.731  30.556  36.173  1.00  0.00     0.031 C 
ATOM     56  C   UNL A   1      43.512  27.225  31.409  1.00  0.00     0.029 A 
ATOM     57  C   UNL A   1      42.796  28.080  32.232  1.00  0.00     0.049 A 
ATOM     58  H   UNL A   1      41.019  29.139  31.813  1.00  0.00     0.167 HD
ATOM     59  C   UNL A   1      42.348  29.329  34.331  1.00  0.00     0.074 A 
ATOM     60  C   UNL A   1      42.634  29.705  35.701  1.00  0.00     0.031 C 
ATOM     61  C   UNL A   1      43.079  28.447  33.602  1.00  0.00     0.034 A 
BRANCH  48  62
ATOM     62  C   UNL A   1      40.851  27.280  27.958  1.00  0.00     0.023 A 
ATOM     63  C   UNL A   1      40.570  25.900  27.979  1.00  0.00     0.031 A 
ATOM     64  C   UNL A   1      41.404  27.828  26.788  1.00  0.00     0.131 A 
ATOM     65  C   UNL A   1      40.872  25.112  26.860  1.00  0.00     0.055 A 
ATOM     66  C   UNL A   1      41.674  27.044  25.665  1.00  0.00     0.041 A 
ATOM     67  F   UNL A   1      41.698  29.137  26.721  1.00  0.00    -0.206 F 
ATOM     68  C   UNL A   1      41.420  25.677  25.703  1.00  0.00     0.022 A 
BRANCH  65  69
ATOM     69  S   UNL A   1      40.630  23.315  26.882  1.00  0.00     0.124 S 
ATOM     70  O   UNL A   1      41.606  22.878  25.884  1.00  0.00    -0.237 OA
ATOM     71  O   UNL A   1      40.959  22.978  28.264  1.00  0.00    -0.237 OA
ATOM     72  O   UNL A   1      39.233  23.143  26.505  1.00  0.00    -0.744 OA
ENDBRANCH  65  69
ENDBRANCH  48  62
BRANCH  49  73
ATOM     73  C   UNL A   1      39.504  32.539  36.367  1.00  0.00     0.023 A 
ATOM     74  C   UNL A   1      38.641  32.060  37.371  1.00  0.00     0.031 A 
ATOM     75  C   UNL A   1      39.971  33.858  36.464  1.00  0.00     0.131 A 
ATOM     76  C   UNL A   1      38.199  32.927  38.377  1.00  0.00     0.055 A 
ATOM     77  C   UNL A   1      39.585  34.697  37.510  1.00  0.00     0.041 A 
ATOM     78  F   UNL A   1      40.777  34.362  35.516  1.00  0.00    -0.206 F 
ATOM     79  C   UNL A   1      38.677  34.239  38.462  1.00  0.00     0.022 A 
BRANCH  76  80
ATOM     80  S   UNL A   1      36.874  32.432  39.513  1.00  0.00     0.124 S 
ATOM     81  O   UNL A   1      37.219  31.043  39.800  1.00  0.00    -0.237 OA
ATOM     82  O   UNL A   1      37.068  33.370  40.617  1.00  0.00    -0.237 OA
ATOM     83  O   UNL A   1      35.658  32.631  38.733  1.00  0.00    -0.744 OA
ENDBRANCH  76  80
ENDBRANCH  49  73
BRANCH  61  84
ATOM     84  C   UNL A   1      44.270  27.785  34.254  1.00  0.00     0.023 A 
ATOM     85  C   UNL A   1      44.100  26.597  34.992  1.00  0.00     0.031 A 
ATOM     86  C   UNL A   1      45.525  28.414  34.286  1.00  0.00     0.131 A 
ATOM     87  C   UNL A   1      45.153  26.105  35.773  1.00  0.00     0.055 A 
ATOM     88  C   UNL A   1      46.587  27.892  35.027  1.00  0.00     0.041 A 
ATOM     89  F   UNL A   1      45.736  29.550  33.603  1.00  0.00    -0.206 F 
ATOM     90  C   UNL A   1      46.398  26.742  35.788  1.00  0.00     0.022 A 
BRANCH  87  91
ATOM     91  S   UNL A   1      44.920  24.674  36.863  1.00  0.00     0.124 S 
ATOM     92  O   UNL A   1      43.820  25.118  37.716  1.00  0.00    -0.237 OA
ATOM     93  O   UNL A   1      44.585  23.616  35.913  1.00  0.00    -0.237 OA
ATOM     94  O   UNL A   1      46.207  24.530  37.535  1.00  0.00    -0.744 OA
ENDBRANCH  87  91
ENDBRANCH  61  84
ENDBRANCH  35  36
ENDBRANCH  28  30
ENDBRANCH  27  28
ENDBRANCH  26  27
ENDBRANCH   1  26
TORSDOF 18
ENDMDL
MODEL 3
REMARK VINA RESULT:     -11.2      2.297      8.558
REMARK SMILES O=C(CSc1nc2ccc(Cl)cc2c(=O)n1CC1CCCCC1)OCCOC(=O)c1ccc(-c2c3nc(c(-c4cc(S(=O)(=O)[O-])ccc4F)c4ccc([nH]4)c(-c4cc(S(=O)(=O)[O-])ccc4F)c4nc(c(-c5cc(S(=O)(=O)[O-])ccc5F)c5ccc2[nH]5)C=C4)C=C3)cc1
REMARK SMILES IDX 25 1 24 2 2 3 1 4 3 5 4 6 5 7 6 8 16 9 7 10 14 11 8 12 13 13
REMARK SMILES IDX 15 14 9 15 12 16 10 17 11 18 17 19 18 20 19 21 23 22 20 23
REMARK SMILES IDX 22 24 21 25 26 26 27 27 28 28 29 29 30 30 31 31 92 32 32 33
REMARK SMILES IDX 91 34 33 35 34 36 35 37 85 38 36 39 90 40 84 41 86 42 37 43
REMARK SMILES IDX 89 44 83 45 82 46 38 48 70 49 50 50 69 51 51 52 54 53 68 54
REMARK SMILES IDX 87 55 52 56 53 57 67 59 88 60 55 61 39 62 40 63 48 64 41 65
REMARK SMILES IDX 47 66 49 67 46 68 42 69 43 70 44 71 45 72 71 73 72 74 80 75
REMARK SMILES IDX 73 76 79 77 81 78 78 79 74 80 75 81 76 82 77 83 56 84 57 85
REMARK SMILES IDX 65 86 58 87 64 88 66 89 63 90 59 91 60 92 61 93 62 94
REMARK H PARENT 86 47 54 58
REMARK Flexibility Score: inf
ROOT
ATOM      1  C   UNL A   1      35.366  22.125  25.182  1.00  0.00     0.274 C 
ENDROOT
BRANCH   1   2
ATOM      2  O   UNL A   1      35.338  23.521  24.807  1.00  0.00    -0.461 OA
BRANCH   2   3
ATOM      3  C   UNL A   1      34.573  24.039  23.813  1.00  0.00     0.316 C 
ATOM      4  O   UNL A   1      34.739  23.656  22.656  1.00  0.00    -0.251 OA
BRANCH   3   5
ATOM      5  C   UNL A   1      33.438  24.972  24.164  1.00  0.00     0.200 C 
BRANCH   5   6
ATOM      6  S   UNL A   1      33.994  26.236  25.332  1.00  0.00    -0.076 SA
BRANCH   6   7
ATOM      7  C   UNL A   1      32.760  27.464  25.119  1.00  0.00     0.171 A 
ATOM      8  N   UNL A   1      32.043  27.322  24.052  1.00  0.00    -0.224 NA
ATOM      9  N   UNL A   1      32.659  28.531  26.002  1.00  0.00    -0.287 N 
ATOM     10  C   UNL A   1      31.143  28.334  23.709  1.00  0.00     0.079 A 
ATOM     11  C   UNL A   1      31.681  29.504  25.790  1.00  0.00     0.262 A 
ATOM     12  C   UNL A   1      30.467  28.267  22.487  1.00  0.00     0.031 A 
ATOM     13  C   UNL A   1      30.947  29.447  24.517  1.00  0.00     0.067 A 
ATOM     14  O   UNL A   1      31.409  30.400  26.585  1.00  0.00    -0.269 OA
ATOM     15  C   UNL A   1      29.638  29.316  22.072  1.00  0.00     0.023 A 
ATOM     16  C   UNL A   1      30.120  30.504  24.120  1.00  0.00     0.036 A 
ATOM     17  C   UNL A   1      29.481  30.437  22.886  1.00  0.00     0.042 A 
ATOM     18  Cl  UNL A   1      28.529  31.767  22.354  1.00  0.00    -0.084 Cl
BRANCH   9  19
ATOM     19  C   UNL A   1      33.436  28.679  27.240  1.00  0.00     0.131 C 
BRANCH  19  20
ATOM     20  C   UNL A   1      34.627  29.656  27.213  1.00  0.00     0.009 C 
ATOM     21  C   UNL A   1      34.320  30.999  27.888  1.00  0.00     0.005 C 
ATOM     22  C   UNL A   1      35.924  29.046  27.751  1.00  0.00     0.005 C 
ATOM     23  C   UNL A   1      35.493  31.967  27.792  1.00  0.00     0.000 C 
ATOM     24  C   UNL A   1      37.086  30.024  27.608  1.00  0.00     0.000 C 
ATOM     25  C   UNL A   1      36.782  31.342  28.312  1.00  0.00     0.000 C 
ENDBRANCH  19  20
ENDBRANCH   9  19
ENDBRANCH   6   7
ENDBRANCH   5   6
ENDBRANCH   3   5
ENDBRANCH   2   3
ENDBRANCH   1   2
BRANCH   1  26
ATOM     26  C   UNL A   1      36.798  21.599  25.103  1.00  0.00     0.275 C 
BRANCH  26  27
ATOM     27  O   UNL A   1      37.582  22.278  26.097  1.00  0.00    -0.458 OA
BRANCH  27  28
ATOM     28  C   UNL A   1      38.901  21.952  26.147  1.00  0.00     0.338 C 
ATOM     29  O   UNL A   1      39.430  20.983  25.633  1.00  0.00    -0.246 OA
BRANCH  28  30
ATOM     30  C   UNL A   1      39.614  23.126  26.701  1.00  0.00     0.060 A 
ATOM     31  C   UNL A   1      40.536  22.981  27.744  1.00  0.00     0.016 A 
ATOM     32  C   UNL A   1      39.263  24.400  26.242  1.00  0.00     0.016 A 
ATOM     33  C   UNL A   1      41.097  24.112  28.332  1.00  0.00     0.010 A 
ATOM     34  C   UNL A   1      39.813  25.534  26.843  1.00  0.00     0.010 A 
ATOM     35  C   UNL A   1      40.742  25.394  27.883  1.00  0.00    -0.014 A 
BRANCH  35  36
ATOM     36  C   UNL A   1      41.514  26.563  28.356  1.00  0.00     0.031 A 
ATOM     37  C   UNL A   1      42.937  26.794  27.971  1.00  0.00     0.074 A 
ATOM     38  C   UNL A   1      40.869  27.435  29.151  1.00  0.00     0.049 A 
ATOM     39  N   UNL A   1      43.672  27.853  28.183  1.00  0.00    -0.248 NA
ATOM     40  C   UNL A   1      43.628  25.710  27.259  1.00  0.00     0.031 C 
ATOM     41  C   UNL A   1      39.487  27.274  29.603  1.00  0.00     0.029 A 
ATOM     42  N   UNL A   1      41.278  28.612  29.720  1.00  0.00    -0.354 N 
ATOM     43  C   UNL A   1      44.907  27.582  27.613  1.00  0.00     0.074 A 
ATOM     44  C   UNL A   1      44.836  26.236  27.081  1.00  0.00     0.031 C 
ATOM     45  C   UNL A   1      39.161  28.313  30.382  1.00  0.00     0.029 A 
ATOM     46  C   UNL A   1      40.312  29.206  30.495  1.00  0.00     0.049 A 
ATOM     47  H   UNL A   1      42.175  28.995  29.586  1.00  0.00     0.167 HD
ATOM     48  C   UNL A   1      45.986  28.398  27.533  1.00  0.00     0.034 A 
ATOM     49  C   UNL A   1      40.341  30.344  31.215  1.00  0.00     0.034 A 
ATOM     50  C   UNL A   1      46.031  29.727  28.097  1.00  0.00     0.049 A 
ATOM     51  C   UNL A   1      41.563  31.216  31.143  1.00  0.00     0.074 A 
ATOM     52  C   UNL A   1      47.037  30.670  27.980  1.00  0.00     0.029 A 
ATOM     53  N   UNL A   1      45.052  30.290  28.907  1.00  0.00    -0.354 N 
ATOM     54  N   UNL A   1      42.667  31.024  30.460  1.00  0.00    -0.248 NA
ATOM     55  C   UNL A   1      41.543  32.466  31.912  1.00  0.00     0.031 C 
ATOM     56  C   UNL A   1      46.707  31.764  28.781  1.00  0.00     0.029 A 
ATOM     57  C   UNL A   1      45.458  31.543  29.340  1.00  0.00     0.049 A 
ATOM     58  H   UNL A   1      44.198  29.861  29.140  1.00  0.00     0.167 HD
ATOM     59  C   UNL A   1      43.466  32.136  30.699  1.00  0.00     0.074 A 
ATOM     60  C   UNL A   1      42.710  33.004  31.579  1.00  0.00     0.031 C 
ATOM     61  C   UNL A   1      44.708  32.407  30.225  1.00  0.00     0.034 A 
BRANCH  48  62
ATOM     62  C   UNL A   1      47.210  27.918  26.795  1.00  0.00     0.023 A 
ATOM     63  C   UNL A   1      47.282  28.033  25.393  1.00  0.00     0.031 A 
ATOM     64  C   UNL A   1      48.229  27.211  27.457  1.00  0.00     0.131 A 
ATOM     65  C   UNL A   1      48.335  27.424  24.698  1.00  0.00     0.055 A 
ATOM     66  C   UNL A   1      49.292  26.632  26.762  1.00  0.00     0.041 A 
ATOM     67  F   UNL A   1      48.202  27.065  28.792  1.00  0.00    -0.206 F 
ATOM     68  C   UNL A   1      49.341  26.726  25.375  1.00  0.00     0.022 A 
BRANCH  65  69
ATOM     69  S   UNL A   1      48.407  27.452  22.887  1.00  0.00     0.124 S 
ATOM     70  O   UNL A   1      49.704  28.088  22.658  1.00  0.00    -0.237 OA
ATOM     71  O   UNL A   1      48.342  26.031  22.554  1.00  0.00    -0.237 OA
ATOM     72  O   UNL A   1      47.247  28.245  22.500  1.00  0.00    -0.744 OA
ENDBRANCH  65  69
ENDBRANCH  48  62
BRANCH  49  73
ATOM     73  C   UNL A   1      39.118  30.721  31.975  1.00  0.00     0.023 A 
ATOM     74  C   UNL A   1      38.190  31.627  31.427  1.00  0.00     0.031 A 
ATOM     75  C   UNL A   1      38.965  30.341  33.317  1.00  0.00     0.131 A 
ATOM     76  C   UNL A   1      37.207  32.193  32.247  1.00  0.00     0.055 A 
ATOM     77  C   UNL A   1      37.939  30.854  34.111  1.00  0.00     0.041 A 
ATOM     78  F   UNL A   1      39.841  29.498  33.886  1.00  0.00    -0.206 F 
ATOM     79  C   UNL A   1      37.065  31.802  33.582  1.00  0.00     0.022 A 
BRANCH  76  80
ATOM     80  S   UNL A   1      36.182  33.568  31.652  1.00  0.00     0.124 S 
ATOM     81  O   UNL A   1      36.926  34.020  30.481  1.00  0.00    -0.237 OA
ATOM     82  O   UNL A   1      34.917  32.891  31.374  1.00  0.00    -0.237 OA
ATOM     83  O   UNL A   1      36.158  34.493  32.780  1.00  0.00    -0.744 OA
ENDBRANCH  76  80
ENDBRANCH  49  73
BRANCH  61  84
ATOM     84  C   UNL A   1      45.376  33.695  30.647  1.00  0.00     0.023 A 
ATOM     85  C   UNL A   1      45.156  34.877  29.913  1.00  0.00     0.031 A 
ATOM     86  C   UNL A   1      46.347  33.713  31.661  1.00  0.00     0.131 A 
ATOM     87  C   UNL A   1      45.938  36.011  30.167  1.00  0.00     0.055 A 
ATOM     88  C   UNL A   1      47.089  34.861  31.944  1.00  0.00     0.041 A 
ATOM     89  F   UNL A   1      46.597  32.611  32.386  1.00  0.00    -0.206 F 
ATOM     90  C   UNL A   1      46.898  36.012  31.185  1.00  0.00     0.022 A 
BRANCH  87  91
ATOM     91  S   UNL A   1      45.798  37.495  29.134  1.00  0.00     0.124 S 
ATOM     92  O   UNL A   1      47.025  38.215  29.467  1.00  0.00    -0.237 OA
ATOM     93  O   UNL A   1      45.753  36.929  27.788  1.00  0.00    -0.237 OA
ATOM     94  O   UNL A   1      44.565  38.128  29.590  1.00  0.00    -0.744 OA
ENDBRANCH  87  91
ENDBRANCH  61  84
ENDBRANCH  35  36
ENDBRANCH  28  30
ENDBRANCH  27  28
ENDBRANCH  26  27
ENDBRANCH   1  26
TORSDOF 18
ENDMDL
