MODEL 1
REMARK VINA RESULT:     -12.7      0.000      0.000
REMARK SMILES CC(C)(C)c1cc(Nc2ccccc2C(=O)OCCOC(=O)c2ccc(-c3c4nc(c(-c5cc(S(=O)(=O)[O-])ccc5F)c5ccc([nH]5)c(-c5cc(S(=O)(=O)[O-])ccc5F)c5nc(c(-c6cc(S(=O)(=O)[O-])ccc6F)c6ccc3[nH]6)C=C5)C=C4)cc2)cc2c1OCC2(C)C
REMARK SMILES IDX 18 1 17 2 15 3 16 4 14 5 9 6 10 7 11 8 13 9 12 10 8 11 7 13
REMARK SMILES IDX 5 14 6 15 88 16 87 17 89 18 86 19 91 20 90 21 92 22 93 23
REMARK SMILES IDX 2 24 1 25 3 26 4 27 19 28 20 29 21 30 22 31 23 32 24 33
REMARK SMILES IDX 85 34 25 35 84 36 26 37 27 38 28 39 78 40 29 41 83 42 77 43
REMARK SMILES IDX 79 44 30 45 82 46 76 47 75 48 31 50 63 51 43 52 62 53 44 54
REMARK SMILES IDX 47 55 61 56 80 57 45 58 46 59 60 61 81 62 48 63 32 64 33 65
REMARK SMILES IDX 41 66 34 67 40 68 42 69 39 70 35 71 36 72 37 73 38 74 64 75
REMARK SMILES IDX 65 76 73 77 66 78 72 79 74 80 71 81 67 82 68 83 69 84 70 85
REMARK SMILES IDX 49 86 50 87 58 88 51 89 57 90 59 91 56 92 52 93 53 94 54 95
REMARK SMILES IDX 55 96
REMARK H PARENT 8 12 79 49 47 60
REMARK Flexibility Score: inf
ROOT
ATOM      1  C   UNL A   1      36.554  23.187  23.734  1.00  0.00     0.275 C 
ENDROOT
BRANCH   1   2
ATOM      2  O   UNL A   1      35.286  22.799  23.173  1.00  0.00    -0.458 OA
BRANCH   2   3
ATOM      3  C   UNL A   1      34.301  23.736  23.132  1.00  0.00     0.340 C 
ATOM      4  O   UNL A   1      34.371  24.812  22.571  1.00  0.00    -0.246 OA
BRANCH   3   5
ATOM      5  C   UNL A   1      33.067  23.247  23.817  1.00  0.00     0.083 A 
ATOM      6  C   UNL A   1      31.825  23.913  23.785  1.00  0.00     0.053 A 
ATOM      7  C   UNL A   1      30.768  23.374  24.547  1.00  0.00     0.027 A 
ATOM      8  C   UNL A   1      30.941  22.250  25.355  1.00  0.00     0.002 A 
ATOM      9  C   UNL A   1      33.209  22.068  24.575  1.00  0.00     0.018 A 
ATOM     10  C   UNL A   1      32.163  21.595  25.368  1.00  0.00     0.001 A 
BRANCH   6  11
ATOM     11  N   UNL A   1      31.643  25.127  23.085  1.00  0.00    -0.355 N 
ATOM     12  H   UNL A   1      31.750  25.070  22.108  1.00  0.00     0.167 HD
BRANCH  11  13
ATOM     13  C   UNL A   1      31.331  26.409  23.581  1.00  0.00     0.039 A 
ATOM     14  C   UNL A   1      31.889  28.252  25.149  1.00  0.00     0.002 A 
ATOM     15  C   UNL A   1      32.102  26.951  24.633  1.00  0.00     0.034 A 
ATOM     16  C   UNL A   1      30.922  29.007  24.484  1.00  0.00     0.127 A 
ATOM     17  C   UNL A   1      30.144  28.484  23.463  1.00  0.00     0.006 A 
ATOM     18  O   UNL A   1      30.653  30.330  24.719  1.00  0.00    -0.492 OA
ATOM     19  C   UNL A   1      30.317  27.185  23.028  1.00  0.00     0.034 A 
ATOM     20  C   UNL A   1      29.211  29.503  22.913  1.00  0.00     0.028 C 
ATOM     21  C   UNL A   1      29.522  30.664  23.875  1.00  0.00     0.240 C 
ATOM     22  C   UNL A   1      29.577  29.842  21.462  1.00  0.00     0.020 C 
ATOM     23  C   UNL A   1      27.746  29.065  23.000  1.00  0.00     0.020 C 
BRANCH  14  24
ATOM     24  C   UNL A   1      32.697  28.791  26.340  1.00  0.00    -0.009 C 
ATOM     25  C   UNL A   1      31.868  28.623  27.626  1.00  0.00     0.016 C 
ATOM     26  C   UNL A   1      33.056  30.293  26.200  1.00  0.00     0.016 C 
ATOM     27  C   UNL A   1      34.049  28.053  26.500  1.00  0.00     0.016 C 
ENDBRANCH  14  24
ENDBRANCH  11  13
ENDBRANCH   6  11
ENDBRANCH   3   5
ENDBRANCH   2   3
ENDBRANCH   1   2
BRANCH   1  28
ATOM     28  C   UNL A   1      37.307  21.970  24.279  1.00  0.00     0.275 C 
BRANCH  28  29
ATOM     29  O   UNL A   1      37.523  22.112  25.693  1.00  0.00    -0.458 OA
BRANCH  29  30
ATOM     30  C   UNL A   1      38.763  21.779  26.126  1.00  0.00     0.338 C 
ATOM     31  O   UNL A   1      39.355  20.730  25.934  1.00  0.00    -0.246 OA
BRANCH  30  32
ATOM     32  C   UNL A   1      39.391  22.977  26.705  1.00  0.00     0.060 A 
ATOM     33  C   UNL A   1      40.502  22.910  27.543  1.00  0.00     0.016 A 
ATOM     34  C   UNL A   1      38.838  24.213  26.360  1.00  0.00     0.016 A 
ATOM     35  C   UNL A   1      41.044  24.098  28.051  1.00  0.00     0.010 A 
ATOM     36  C   UNL A   1      39.368  25.393  26.876  1.00  0.00     0.010 A 
ATOM     37  C   UNL A   1      40.479  25.349  27.723  1.00  0.00    -0.014 A 
BRANCH  37  38
ATOM     38  C   UNL A   1      41.145  26.609  28.139  1.00  0.00     0.031 A 
ATOM     39  C   UNL A   1      42.577  26.910  27.804  1.00  0.00     0.074 A 
ATOM     40  C   UNL A   1      40.439  27.476  28.890  1.00  0.00     0.049 A 
ATOM     41  N   UNL A   1      43.239  28.025  27.973  1.00  0.00    -0.248 NA
ATOM     42  C   UNL A   1      43.378  25.816  27.237  1.00  0.00     0.031 C 
ATOM     43  C   UNL A   1      39.087  27.228  29.391  1.00  0.00     0.029 A 
ATOM     44  N   UNL A   1      40.746  28.729  29.357  1.00  0.00    -0.354 N 
ATOM     45  C   UNL A   1      44.530  27.780  27.516  1.00  0.00     0.074 A 
ATOM     46  C   UNL A   1      44.573  26.386  27.128  1.00  0.00     0.031 C 
ATOM     47  C   UNL A   1      38.659  28.315  30.048  1.00  0.00     0.029 A 
ATOM     48  C   UNL A   1      39.708  29.331  30.028  1.00  0.00     0.049 A 
ATOM     49  H   UNL A   1      41.624  29.154  29.225  1.00  0.00     0.167 HD
ATOM     50  C   UNL A   1      45.564  28.649  27.403  1.00  0.00     0.034 A 
ATOM     51  C   UNL A   1      39.596  30.575  30.540  1.00  0.00     0.034 A 
ATOM     52  C   UNL A   1      45.491  30.036  27.802  1.00  0.00     0.049 A 
ATOM     53  C   UNL A   1      40.732  31.545  30.343  1.00  0.00     0.074 A 
ATOM     54  C   UNL A   1      46.447  31.024  27.640  1.00  0.00     0.029 A 
ATOM     55  N   UNL A   1      44.415  30.630  28.450  1.00  0.00    -0.354 N 
ATOM     56  N   UNL A   1      41.885  31.355  29.746  1.00  0.00    -0.248 NA
ATOM     57  C   UNL A   1      40.543  32.906  30.863  1.00  0.00     0.031 C 
ATOM     58  C   UNL A   1      45.980  32.193  28.248  1.00  0.00     0.029 A 
ATOM     59  C   UNL A   1      44.699  31.960  28.724  1.00  0.00     0.049 A 
ATOM     60  H   UNL A   1      43.574  30.174  28.680  1.00  0.00     0.167 HD
ATOM     61  C   UNL A   1      42.557  32.572  29.812  1.00  0.00     0.074 A 
ATOM     62  C   UNL A   1      41.658  33.503  30.462  1.00  0.00     0.031 C 
ATOM     63  C   UNL A   1      43.809  32.884  29.387  1.00  0.00     0.034 A 
BRANCH  50  64
ATOM     64  C   UNL A   1      46.855  28.172  26.775  1.00  0.00     0.023 A 
ATOM     65  C   UNL A   1      47.023  28.196  25.376  1.00  0.00     0.031 A 
ATOM     66  C   UNL A   1      47.848  27.545  27.549  1.00  0.00     0.131 A 
ATOM     67  C   UNL A   1      48.138  27.573  24.797  1.00  0.00     0.055 A 
ATOM     68  C   UNL A   1      48.979  26.967  26.971  1.00  0.00     0.041 A 
ATOM     69  F   UNL A   1      47.732  27.478  28.885  1.00  0.00    -0.206 F 
ATOM     70  C   UNL A   1      49.120  26.967  25.587  1.00  0.00     0.022 A 
BRANCH  67  71
ATOM     71  S   UNL A   1      48.322  27.453  22.995  1.00  0.00     0.124 S 
ATOM     72  O   UNL A   1      47.158  28.200  22.524  1.00  0.00    -0.237 OA
ATOM     73  O   UNL A   1      49.610  28.105  22.777  1.00  0.00    -0.237 OA
ATOM     74  O   UNL A   1      48.286  26.018  22.734  1.00  0.00    -0.744 OA
ENDBRANCH  67  71
ENDBRANCH  50  64
BRANCH  51  75
ATOM     75  C   UNL A   1      38.304  30.978  31.167  1.00  0.00     0.023 A 
ATOM     76  C   UNL A   1      37.270  31.540  30.399  1.00  0.00     0.031 A 
ATOM     77  C   UNL A   1      38.145  30.937  32.563  1.00  0.00     0.131 A 
ATOM     78  C   UNL A   1      36.157  32.105  31.038  1.00  0.00     0.055 A 
ATOM     79  C   UNL A   1      37.000  31.430  33.189  1.00  0.00     0.041 A 
ATOM     80  F   UNL A   1      39.115  30.430  33.340  1.00  0.00    -0.206 F 
ATOM     81  C   UNL A   1      36.007  32.037  32.427  1.00  0.00     0.022 A 
BRANCH  78  82
ATOM     82  S   UNL A   1      34.947  33.082  30.104  1.00  0.00     0.124 S 
ATOM     83  O   UNL A   1      34.024  33.507  31.152  1.00  0.00    -0.237 OA
ATOM     84  O   UNL A   1      35.787  34.136  29.539  1.00  0.00    -0.237 OA
ATOM     85  O   UNL A   1      34.410  32.133  29.135  1.00  0.00    -0.744 OA
ENDBRANCH  78  82
ENDBRANCH  51  75
BRANCH  63  86
ATOM     86  C   UNL A   1      44.319  34.286  29.639  1.00  0.00     0.023 A 
ATOM     87  C   UNL A   1      44.263  35.261  28.624  1.00  0.00     0.031 A 
ATOM     88  C   UNL A   1      44.967  34.621  30.842  1.00  0.00     0.131 A 
ATOM     89  C   UNL A   1      44.866  36.511  28.821  1.00  0.00     0.055 A 
ATOM     90  C   UNL A   1      45.521  35.885  31.053  1.00  0.00     0.041 A 
ATOM     91  F   UNL A   1      45.062  33.725  31.837  1.00  0.00    -0.206 F 
ATOM     92  C   UNL A   1      45.483  36.832  30.035  1.00  0.00     0.022 A 
BRANCH  89  93
ATOM     93  S   UNL A   1      44.952  37.735  27.485  1.00  0.00     0.124 S 
ATOM     94  O   UNL A   1      45.567  38.875  28.161  1.00  0.00    -0.237 OA
ATOM     95  O   UNL A   1      45.798  37.062  26.503  1.00  0.00    -0.237 OA
ATOM     96  O   UNL A   1      43.560  37.922  27.088  1.00  0.00    -0.744 OA
ENDBRANCH  89  93
ENDBRANCH  63  86
ENDBRANCH  37  38
ENDBRANCH  30  32
ENDBRANCH  29  30
ENDBRANCH  28  29
ENDBRANCH   1  28
TORSDOF 17
ENDMDL
MODEL 2
REMARK VINA RESULT:     -12.6      3.719      9.487
REMARK SMILES CC(C)(C)c1cc(Nc2ccccc2C(=O)OCCOC(=O)c2ccc(-c3c4nc(c(-c5cc(S(=O)(=O)[O-])ccc5F)c5ccc([nH]5)c(-c5cc(S(=O)(=O)[O-])ccc5F)c5nc(c(-c6cc(S(=O)(=O)[O-])ccc6F)c6ccc3[nH]6)C=C5)C=C4)cc2)cc2c1OCC2(C)C
REMARK SMILES IDX 18 1 17 2 15 3 16 4 14 5 9 6 10 7 11 8 13 9 12 10 8 11 7 13
REMARK SMILES IDX 5 14 6 15 88 16 87 17 89 18 86 19 91 20 90 21 92 22 93 23
REMARK SMILES IDX 2 24 1 25 3 26 4 27 19 28 20 29 21 30 22 31 23 32 24 33
REMARK SMILES IDX 85 34 25 35 84 36 26 37 27 38 28 39 78 40 29 41 83 42 77 43
REMARK SMILES IDX 79 44 30 45 82 46 76 47 75 48 31 50 63 51 43 52 62 53 44 54
REMARK SMILES IDX 47 55 61 56 80 57 45 58 46 59 60 61 81 62 48 63 32 64 33 65
REMARK SMILES IDX 41 66 34 67 40 68 42 69 39 70 35 71 36 72 37 73 38 74 64 75
REMARK SMILES IDX 65 76 73 77 66 78 72 79 74 80 71 81 67 82 68 83 69 84 70 85
REMARK SMILES IDX 49 86 50 87 58 88 51 89 57 90 59 91 56 92 52 93 53 94 54 95
REMARK SMILES IDX 55 96
REMARK H PARENT 8 12 79 49 47 60
REMARK Flexibility Score: inf
ROOT
ATOM      1  C   UNL A   1      42.268  19.034  26.713  1.00  0.00     0.275 C 
ENDROOT
BRANCH   1   2
ATOM      2  O   UNL A   1      41.606  20.152  26.093  1.00  0.00    -0.458 OA
BRANCH   2   3
ATOM      3  C   UNL A   1      40.256  20.081  25.942  1.00  0.00     0.340 C 
ATOM      4  O   UNL A   1      39.628  19.081  25.657  1.00  0.00    -0.246 OA
BRANCH   3   5
ATOM      5  C   UNL A   1      39.613  21.397  26.240  1.00  0.00     0.083 A 
ATOM      6  C   UNL A   1      38.367  21.806  25.724  1.00  0.00     0.053 A 
ATOM      7  C   UNL A   1      37.923  23.110  26.028  1.00  0.00     0.027 A 
ATOM      8  C   UNL A   1      38.702  23.998  26.771  1.00  0.00     0.002 A 
ATOM      9  C   UNL A   1      40.356  22.275  27.055  1.00  0.00     0.018 A 
ATOM     10  C   UNL A   1      39.920  23.579  27.287  1.00  0.00     0.001 A 
BRANCH   6  11
ATOM     11  N   UNL A   1      37.608  20.986  24.859  1.00  0.00    -0.355 N 
ATOM     12  H   UNL A   1      38.128  20.484  24.191  1.00  0.00     0.167 HD
BRANCH  11  13
ATOM     13  C   UNL A   1      36.214  20.784  24.812  1.00  0.00     0.039 A 
ATOM     14  C   UNL A   1      34.322  19.177  24.738  1.00  0.00     0.002 A 
ATOM     15  C   UNL A   1      35.707  19.468  24.733  1.00  0.00     0.034 A 
ATOM     16  C   UNL A   1      33.481  20.277  24.922  1.00  0.00     0.127 A 
ATOM     17  C   UNL A   1      33.961  21.576  24.983  1.00  0.00     0.006 A 
ATOM     18  O   UNL A   1      32.124  20.214  25.102  1.00  0.00    -0.492 OA
ATOM     19  C   UNL A   1      35.314  21.842  24.896  1.00  0.00     0.034 A 
ATOM     20  C   UNL A   1      32.862  22.553  25.207  1.00  0.00     0.028 C 
ATOM     21  C   UNL A   1      31.664  21.588  25.153  1.00  0.00     0.240 C 
ATOM     22  C   UNL A   1      33.005  23.220  26.580  1.00  0.00     0.020 C 
ATOM     23  C   UNL A   1      32.789  23.616  24.107  1.00  0.00     0.020 C 
BRANCH  14  24
ATOM     24  C   UNL A   1      33.796  17.742  24.582  1.00  0.00    -0.009 C 
ATOM     25  C   UNL A   1      33.059  17.621  23.236  1.00  0.00     0.016 C 
ATOM     26  C   UNL A   1      32.807  17.332  25.703  1.00  0.00     0.016 C 
ATOM     27  C   UNL A   1      34.941  16.701  24.636  1.00  0.00     0.016 C 
ENDBRANCH  14  24
ENDBRANCH  11  13
ENDBRANCH   6  11
ENDBRANCH   3   5
ENDBRANCH   2   3
ENDBRANCH   1   2
BRANCH   1  28
ATOM     28  C   UNL A   1      43.288  18.404  25.760  1.00  0.00     0.275 C 
BRANCH  28  29
ATOM     29  O   UNL A   1      43.472  19.239  24.605  1.00  0.00    -0.458 OA
BRANCH  29  30
ATOM     30  C   UNL A   1      44.739  19.667  24.395  1.00  0.00     0.338 C 
ATOM     31  O   UNL A   1      45.619  19.093  23.774  1.00  0.00    -0.246 OA
BRANCH  30  32
ATOM     32  C   UNL A   1      44.846  21.056  24.866  1.00  0.00     0.060 A 
ATOM     33  C   UNL A   1      45.261  21.381  26.156  1.00  0.00     0.016 A 
ATOM     34  C   UNL A   1      44.533  22.063  23.949  1.00  0.00     0.016 A 
ATOM     35  C   UNL A   1      45.341  22.730  26.526  1.00  0.00     0.010 A 
ATOM     36  C   UNL A   1      44.599  23.403  24.321  1.00  0.00     0.010 A 
ATOM     37  C   UNL A   1      45.007  23.751  25.612  1.00  0.00    -0.014 A 
BRANCH  37  38
ATOM     38  C   UNL A   1      45.237  25.177  25.957  1.00  0.00     0.031 A 
ATOM     39  C   UNL A   1      44.141  26.068  26.466  1.00  0.00     0.074 A 
ATOM     40  C   UNL A   1      46.465  25.686  25.744  1.00  0.00     0.049 A 
ATOM     41  N   UNL A   1      44.229  27.282  26.942  1.00  0.00    -0.248 NA
ATOM     42  C   UNL A   1      42.768  25.544  26.407  1.00  0.00     0.031 C 
ATOM     43  C   UNL A   1      47.570  24.954  25.125  1.00  0.00     0.029 A 
ATOM     44  N   UNL A   1      46.995  26.920  26.024  1.00  0.00    -0.354 N 
ATOM     45  C   UNL A   1      42.931  27.667  27.260  1.00  0.00     0.074 A 
ATOM     46  C   UNL A   1      42.066  26.579  26.855  1.00  0.00     0.031 C 
ATOM     47  C   UNL A   1      48.662  25.731  25.123  1.00  0.00     0.029 A 
ATOM     48  C   UNL A   1      48.334  27.021  25.725  1.00  0.00     0.049 A 
ATOM     49  H   UNL A   1      46.469  27.662  26.402  1.00  0.00     0.167 HD
ATOM     50  C   UNL A   1      42.513  28.807  27.864  1.00  0.00     0.034 A 
ATOM     51  C   UNL A   1      49.211  28.023  25.943  1.00  0.00     0.034 A 
ATOM     52  C   UNL A   1      43.400  29.878  28.254  1.00  0.00     0.049 A 
ATOM     53  C   UNL A   1      48.739  29.253  26.674  1.00  0.00     0.074 A 
ATOM     54  C   UNL A   1      43.094  31.030  28.957  1.00  0.00     0.029 A 
ATOM     55  N   UNL A   1      44.759  29.940  27.968  1.00  0.00    -0.354 N 
ATOM     56  N   UNL A   1      47.542  29.531  27.134  1.00  0.00    -0.248 NA
ATOM     57  C   UNL A   1      49.741  30.293  26.943  1.00  0.00     0.031 C 
ATOM     58  C   UNL A   1      44.246  31.818  29.038  1.00  0.00     0.029 A 
ATOM     59  C   UNL A   1      45.294  31.125  28.451  1.00  0.00     0.049 A 
ATOM     60  H   UNL A   1      45.267  29.244  27.493  1.00  0.00     0.167 HD
ATOM     61  C   UNL A   1      47.647  30.774  27.752  1.00  0.00     0.074 A 
ATOM     62  C   UNL A   1      49.037  31.167  27.651  1.00  0.00     0.031 C 
ATOM     63  C   UNL A   1      46.677  31.526  28.335  1.00  0.00     0.034 A 
BRANCH  50  64
ATOM     64  C   UNL A   1      41.047  28.958  28.204  1.00  0.00     0.023 A 
ATOM     65  C   UNL A   1      40.591  28.742  29.520  1.00  0.00     0.031 A 
ATOM     66  C   UNL A   1      40.086  29.156  27.196  1.00  0.00     0.131 A 
ATOM     67  C   UNL A   1      39.214  28.693  29.781  1.00  0.00     0.055 A 
ATOM     68  C   UNL A   1      38.717  29.152  27.470  1.00  0.00     0.041 A 
ATOM     69  F   UNL A   1      40.463  29.351  25.922  1.00  0.00    -0.206 F 
ATOM     70  C   UNL A   1      38.276  28.905  28.766  1.00  0.00     0.022 A 
BRANCH  67  71
ATOM     71  S   UNL A   1      38.581  28.273  31.430  1.00  0.00     0.124 S 
ATOM     72  O   UNL A   1      37.269  28.917  31.421  1.00  0.00    -0.237 OA
ATOM     73  O   UNL A   1      38.557  26.813  31.384  1.00  0.00    -0.237 OA
ATOM     74  O   UNL A   1      39.556  28.863  32.340  1.00  0.00    -0.744 OA
ENDBRANCH  67  71
ENDBRANCH  50  64
BRANCH  51  75
ATOM     75  C   UNL A   1      50.639  27.821  25.563  1.00  0.00     0.023 A 
ATOM     76  C   UNL A   1      51.058  27.945  24.227  1.00  0.00     0.031 A 
ATOM     77  C   UNL A   1      51.571  27.362  26.510  1.00  0.00     0.131 A 
ATOM     78  C   UNL A   1      52.351  27.544  23.863  1.00  0.00     0.055 A 
ATOM     79  C   UNL A   1      52.881  27.038  26.156  1.00  0.00     0.041 A 
ATOM     80  F   UNL A   1      51.211  27.206  27.793  1.00  0.00    -0.206 F 
ATOM     81  C   UNL A   1      53.271  27.108  24.823  1.00  0.00     0.022 A 
BRANCH  78  82
ATOM     82  S   UNL A   1      52.830  27.424  22.117  1.00  0.00     0.124 S 
ATOM     83  O   UNL A   1      53.228  28.796  21.816  1.00  0.00    -0.237 OA
ATOM     84  O   UNL A   1      53.918  26.450  22.172  1.00  0.00    -0.237 OA
ATOM     85  O   UNL A   1      51.616  26.959  21.457  1.00  0.00    -0.744 OA
ENDBRANCH  78  82
ENDBRANCH  51  75
BRANCH  63  86
ATOM     86  C   UNL A   1      47.060  32.882  28.886  1.00  0.00     0.023 A 
ATOM     87  C   UNL A   1      47.015  34.026  28.065  1.00  0.00     0.031 A 
ATOM     88  C   UNL A   1      47.581  33.020  30.185  1.00  0.00     0.131 A 
ATOM     89  C   UNL A   1      47.507  35.249  28.544  1.00  0.00     0.055 A 
ATOM     90  C   UNL A   1      48.021  34.251  30.675  1.00  0.00     0.041 A 
ATOM     91  F   UNL A   1      47.661  31.959  31.004  1.00  0.00    -0.206 F 
ATOM     92  C   UNL A   1      47.997  35.370  29.848  1.00  0.00     0.022 A 
BRANCH  89  93
ATOM     93  S   UNL A   1      47.611  36.706  27.468  1.00  0.00     0.124 S 
ATOM     94  O   UNL A   1      47.892  37.769  28.429  1.00  0.00    -0.237 OA
ATOM     95  O   UNL A   1      48.718  36.357  26.582  1.00  0.00    -0.237 OA
ATOM     96  O   UNL A   1      46.298  36.770  26.833  1.00  0.00    -0.744 OA
ENDBRANCH  89  93
ENDBRANCH  63  86
ENDBRANCH  37  38
ENDBRANCH  30  32
ENDBRANCH  29  30
ENDBRANCH  28  29
ENDBRANCH   1  28
TORSDOF 17
ENDMDL
MODEL 3
REMARK VINA RESULT:     -12.5      1.503      1.770
REMARK SMILES CC(C)(C)c1cc(Nc2ccccc2C(=O)OCCOC(=O)c2ccc(-c3c4nc(c(-c5cc(S(=O)(=O)[O-])ccc5F)c5ccc([nH]5)c(-c5cc(S(=O)(=O)[O-])ccc5F)c5nc(c(-c6cc(S(=O)(=O)[O-])ccc6F)c6ccc3[nH]6)C=C5)C=C4)cc2)cc2c1OCC2(C)C
REMARK SMILES IDX 18 1 17 2 15 3 16 4 14 5 9 6 10 7 11 8 13 9 12 10 8 11 7 13
REMARK SMILES IDX 5 14 6 15 88 16 87 17 89 18 86 19 91 20 90 21 92 22 93 23
REMARK SMILES IDX 2 24 1 25 3 26 4 27 19 28 20 29 21 30 22 31 23 32 24 33
REMARK SMILES IDX 85 34 25 35 84 36 26 37 27 38 28 39 78 40 29 41 83 42 77 43
REMARK SMILES IDX 79 44 30 45 82 46 76 47 75 48 31 50 63 51 43 52 62 53 44 54
REMARK SMILES IDX 47 55 61 56 80 57 45 58 46 59 60 61 81 62 48 63 32 64 33 65
REMARK SMILES IDX 41 66 34 67 40 68 42 69 39 70 35 71 36 72 37 73 38 74 64 75
REMARK SMILES IDX 65 76 73 77 66 78 72 79 74 80 71 81 67 82 68 83 69 84 70 85
REMARK SMILES IDX 49 86 50 87 58 88 51 89 57 90 59 91 56 92 52 93 53 94 54 95
REMARK SMILES IDX 55 96
REMARK H PARENT 8 12 79 49 47 60
REMARK Flexibility Score: inf
ROOT
ATOM      1  C   UNL A   1      36.218  22.977  23.421  1.00  0.00     0.275 C 
ENDROOT
BRANCH   1   2
ATOM      2  O   UNL A   1      34.968  22.895  22.709  1.00  0.00    -0.458 OA
BRANCH   2   3
ATOM      3  C   UNL A   1      34.064  23.891  22.904  1.00  0.00     0.340 C 
ATOM      4  O   UNL A   1      34.145  25.018  22.456  1.00  0.00    -0.246 OA
BRANCH   3   5
ATOM      5  C   UNL A   1      32.895  23.407  23.699  1.00  0.00     0.083 A 
ATOM      6  C   UNL A   1      31.652  24.067  23.764  1.00  0.00     0.053 A 
ATOM      7  C   UNL A   1      30.666  23.535  24.621  1.00  0.00     0.027 A 
ATOM      8  C   UNL A   1      30.914  22.422  25.426  1.00  0.00     0.002 A 
ATOM      9  C   UNL A   1      33.108  22.239  24.458  1.00  0.00     0.018 A 
ATOM     10  C   UNL A   1      32.136  21.772  25.344  1.00  0.00     0.001 A 
BRANCH   6  11
ATOM     11  N   UNL A   1      31.404  25.270  23.066  1.00  0.00    -0.355 N 
ATOM     12  H   UNL A   1      31.432  25.201  22.084  1.00  0.00     0.167 HD
BRANCH  11  13
ATOM     13  C   UNL A   1      31.124  26.557  23.570  1.00  0.00     0.039 A 
ATOM     14  C   UNL A   1      31.708  28.364  25.169  1.00  0.00     0.002 A 
ATOM     15  C   UNL A   1      31.889  27.062  24.643  1.00  0.00     0.034 A 
ATOM     16  C   UNL A   1      30.780  29.158  24.493  1.00  0.00     0.127 A 
ATOM     17  C   UNL A   1      30.009  28.671  23.449  1.00  0.00     0.006 A 
ATOM     18  O   UNL A   1      30.550  30.486  24.736  1.00  0.00    -0.492 OA
ATOM     19  C   UNL A   1      30.148  27.371  23.004  1.00  0.00     0.034 A 
ATOM     20  C   UNL A   1      29.121  29.726  22.891  1.00  0.00     0.028 C 
ATOM     21  C   UNL A   1      29.449  30.865  23.873  1.00  0.00     0.240 C 
ATOM     22  C   UNL A   1      29.530  30.068  21.452  1.00  0.00     0.020 C 
ATOM     23  C   UNL A   1      27.641  29.336  22.942  1.00  0.00     0.020 C 
BRANCH  14  24
ATOM     24  C   UNL A   1      32.507  28.864  26.384  1.00  0.00    -0.009 C 
ATOM     25  C   UNL A   1      31.635  28.737  27.645  1.00  0.00     0.016 C 
ATOM     26  C   UNL A   1      32.943  30.346  26.254  1.00  0.00     0.016 C 
ATOM     27  C   UNL A   1      33.816  28.061  26.581  1.00  0.00     0.016 C 
ENDBRANCH  14  24
ENDBRANCH  11  13
ENDBRANCH   6  11
ENDBRANCH   3   5
ENDBRANCH   2   3
ENDBRANCH   1   2
BRANCH   1  28
ATOM     28  C   UNL A   1      36.543  21.650  24.112  1.00  0.00     0.275 C 
BRANCH  28  29
ATOM     29  O   UNL A   1      37.008  21.887  25.451  1.00  0.00    -0.458 OA
BRANCH  29  30
ATOM     30  C   UNL A   1      38.259  21.443  25.717  1.00  0.00     0.338 C 
ATOM     31  O   UNL A   1      38.758  20.385  25.368  1.00  0.00    -0.246 OA
BRANCH  30  32
ATOM     32  C   UNL A   1      39.022  22.541  26.333  1.00  0.00     0.060 A 
ATOM     33  C   UNL A   1      40.144  22.320  27.129  1.00  0.00     0.016 A 
ATOM     34  C   UNL A   1      38.587  23.841  26.067  1.00  0.00     0.016 A 
ATOM     35  C   UNL A   1      40.817  23.420  27.676  1.00  0.00     0.010 A 
ATOM     36  C   UNL A   1      39.248  24.934  26.622  1.00  0.00     0.010 A 
ATOM     37  C   UNL A   1      40.373  24.736  27.429  1.00  0.00    -0.014 A 
BRANCH  37  38
ATOM     38  C   UNL A   1      41.174  25.901  27.883  1.00  0.00     0.031 A 
ATOM     39  C   UNL A   1      42.610  26.091  27.488  1.00  0.00     0.074 A 
ATOM     40  C   UNL A   1      40.592  26.776  28.725  1.00  0.00     0.049 A 
ATOM     41  N   UNL A   1      43.382  27.128  27.688  1.00  0.00    -0.248 NA
ATOM     42  C   UNL A   1      43.275  24.969  26.811  1.00  0.00     0.031 C 
ATOM     43  C   UNL A   1      39.249  26.618  29.284  1.00  0.00     0.029 A 
ATOM     44  N   UNL A   1      41.038  27.962  29.249  1.00  0.00    -0.354 N 
ATOM     45  C   UNL A   1      44.619  26.798  27.145  1.00  0.00     0.074 A 
ATOM     46  C   UNL A   1      44.511  25.434  26.670  1.00  0.00     0.031 C 
ATOM     47  C   UNL A   1      38.959  27.694  30.030  1.00  0.00     0.029 A 
ATOM     48  C   UNL A   1      40.096  28.610  30.013  1.00  0.00     0.049 A 
ATOM     49  H   UNL A   1      41.944  28.314  29.095  1.00  0.00     0.167 HD
ATOM     50  C   UNL A   1      45.723  27.575  27.028  1.00  0.00     0.034 A 
ATOM     51  C   UNL A   1      40.127  29.822  30.606  1.00  0.00     0.034 A 
ATOM     52  C   UNL A   1      45.802  28.933  27.515  1.00  0.00     0.049 A 
ATOM     53  C   UNL A   1      41.338  30.696  30.406  1.00  0.00     0.074 A 
ATOM     54  C   UNL A   1      46.836  29.840  27.361  1.00  0.00     0.029 A 
ATOM     55  N   UNL A   1      44.820  29.579  28.257  1.00  0.00    -0.354 N 
ATOM     56  N   UNL A   1      42.437  30.442  29.735  1.00  0.00    -0.248 NA
ATOM     57  C   UNL A   1      41.304  32.031  31.018  1.00  0.00     0.031 C 
ATOM     58  C   UNL A   1      46.513  31.003  28.064  1.00  0.00     0.029 A 
ATOM     59  C   UNL A   1      45.241  30.856  28.596  1.00  0.00     0.049 A 
ATOM     60  H   UNL A   1      43.952  29.186  28.506  1.00  0.00     0.167 HD
ATOM     61  C   UNL A   1      43.223  31.587  29.838  1.00  0.00     0.074 A 
ATOM     62  C   UNL A   1      42.449  32.550  30.593  1.00  0.00     0.031 C 
ATOM     63  C   UNL A   1      44.476  31.811  29.364  1.00  0.00     0.034 A 
BRANCH  50  64
ATOM     64  C   UNL A   1      46.930  27.026  26.301  1.00  0.00     0.023 A 
ATOM     65  C   UNL A   1      47.968  26.392  27.012  1.00  0.00     0.031 A 
ATOM     66  C   UNL A   1      47.125  27.275  24.929  1.00  0.00     0.131 A 
ATOM     67  C   UNL A   1      49.164  26.065  26.356  1.00  0.00     0.055 A 
ATOM     68  C   UNL A   1      48.299  26.905  24.272  1.00  0.00     0.041 A 
ATOM     69  F   UNL A   1      46.176  27.890  24.205  1.00  0.00    -0.206 F 
ATOM     70  C   UNL A   1      49.331  26.310  24.990  1.00  0.00     0.022 A 
BRANCH  67  71
ATOM     71  S   UNL A   1      50.580  25.382  27.263  1.00  0.00     0.124 S 
ATOM     72  O   UNL A   1      49.986  24.217  27.915  1.00  0.00    -0.237 OA
ATOM     73  O   UNL A   1      51.516  25.079  26.183  1.00  0.00    -0.237 OA
ATOM     74  O   UNL A   1      50.977  26.461  28.160  1.00  0.00    -0.744 OA
ENDBRANCH  67  71
ENDBRANCH  50  64
BRANCH  51  75
ATOM     75  C   UNL A   1      38.912  30.298  31.328  1.00  0.00     0.023 A 
ATOM     76  C   UNL A   1      37.861  30.930  30.641  1.00  0.00     0.031 A 
ATOM     77  C   UNL A   1      38.853  30.254  32.732  1.00  0.00     0.131 A 
ATOM     78  C   UNL A   1      36.835  31.557  31.362  1.00  0.00     0.055 A 
ATOM     79  C   UNL A   1      37.790  30.812  33.442  1.00  0.00     0.041 A 
ATOM     80  F   UNL A   1      39.844  29.681  33.433  1.00  0.00    -0.206 F 
ATOM     81  C   UNL A   1      36.783  31.485  32.758  1.00  0.00     0.022 A 
BRANCH  78  82
ATOM     82  S   UNL A   1      35.624  32.615  30.524  1.00  0.00     0.124 S 
ATOM     83  O   UNL A   1      35.545  32.002  29.202  1.00  0.00    -0.237 OA
ATOM     84  O   UNL A   1      34.443  32.446  31.369  1.00  0.00    -0.237 OA
ATOM     85  O   UNL A   1      36.232  33.940  30.570  1.00  0.00    -0.744 OA
ENDBRANCH  78  82
ENDBRANCH  51  75
BRANCH  63  86
ATOM     86  C   UNL A   1      45.128  33.141  29.672  1.00  0.00     0.023 A 
ATOM     87  C   UNL A   1      45.031  34.213  28.763  1.00  0.00     0.031 A 
ATOM     88  C   UNL A   1      45.941  33.309  30.808  1.00  0.00     0.131 A 
ATOM     89  C   UNL A   1      45.757  35.391  28.992  1.00  0.00     0.055 A 
ATOM     90  C   UNL A   1      46.619  34.502  31.058  1.00  0.00     0.041 A 
ATOM     91  F   UNL A   1      46.080  32.315  31.699  1.00  0.00    -0.206 F 
ATOM     92  C   UNL A   1      46.539  35.546  30.142  1.00  0.00     0.022 A 
BRANCH  89  93
ATOM     93  S   UNL A   1      45.783  36.732  27.770  1.00  0.00     0.124 S 
ATOM     94  O   UNL A   1      47.181  37.153  27.817  1.00  0.00    -0.237 OA
ATOM     95  O   UNL A   1      45.381  36.042  26.547  1.00  0.00    -0.237 OA
ATOM     96  O   UNL A   1      44.822  37.700  28.288  1.00  0.00    -0.744 OA
ENDBRANCH  89  93
ENDBRANCH  63  86
ENDBRANCH  37  38
ENDBRANCH  30  32
ENDBRANCH  29  30
ENDBRANCH  28  29
ENDBRANCH   1  28
TORSDOF 17
ENDMDL
