MODEL 1
REMARK VINA RESULT:     -10.9      0.000      0.000
REMARK SMILES O=C(Cn1cnc(-c2ccccc2)c1-c1ccccc1)OCCOC(=O)c1ccc(-c2c3nc(c(-c4cc(S(=O)(=O)[O-])ccc4F)c4ccc([nH]4)c(-c4cc(S(=O)(=O)[O-])ccc4F)c4nc(c(-c5cc(S(=O)(=O)[O-])ccc5F)c5ccc2[nH]5)C=C4)C=C3)cc1
REMARK SMILES IDX 23 1 22 2 21 3 2 4 1 5 3 6 4 7 5 8 14 9 6 10 7 11 15 12
REMARK SMILES IDX 16 13 20 14 17 15 19 16 18 17 8 18 9 19 13 20 10 21 12 22
REMARK SMILES IDX 11 23 24 24 25 25 26 26 27 27 28 28 89 29 29 30 88 31 30 32
REMARK SMILES IDX 31 33 32 34 82 35 33 36 87 37 81 38 83 39 34 40 86 41 80 42
REMARK SMILES IDX 79 43 35 45 67 46 47 47 66 48 48 49 51 50 65 51 84 52 49 53
REMARK SMILES IDX 50 54 64 56 85 57 52 58 36 59 37 60 45 61 38 62 44 63 46 64
REMARK SMILES IDX 43 65 39 66 40 67 41 68 42 69 68 70 69 71 77 72 70 73 76 74
REMARK SMILES IDX 78 75 75 76 71 77 72 78 73 79 74 80 53 81 54 82 62 83 55 84
REMARK SMILES IDX 61 85 63 86 60 87 56 88 57 89 58 90 59 91
REMARK H PARENT 83 44 51 55
REMARK Flexibility Score: inf
ROOT
ATOM      1  C   UNL A   1      35.431  31.171  27.883  1.00  0.00     0.275 C 
ENDROOT
BRANCH   1   2
ATOM      2  C   UNL A   1      35.240  32.665  28.036  1.00  0.00     0.274 C 
BRANCH   2   3
ATOM      3  O   UNL A   1      34.269  33.055  29.026  1.00  0.00    -0.461 OA
BRANCH   3   4
ATOM      4  C   UNL A   1      34.598  33.390  30.302  1.00  0.00     0.326 C 
ATOM      5  O   UNL A   1      34.859  34.559  30.582  1.00  0.00    -0.250 OA
BRANCH   4   6
ATOM      6  C   UNL A   1      34.736  32.291  31.331  1.00  0.00     0.246 C 
BRANCH   6   7
ATOM      7  N   UNL A   1      35.266  32.742  32.611  1.00  0.00    -0.319 N 
ATOM      8  C   UNL A   1      34.517  33.334  33.595  1.00  0.00     0.201 A 
ATOM      9  C   UNL A   1      36.588  32.796  33.006  1.00  0.00     0.076 A 
ATOM     10  N   UNL A   1      35.258  33.714  34.614  1.00  0.00    -0.236 NA
ATOM     11  C   UNL A   1      36.543  33.400  34.254  1.00  0.00     0.096 A 
BRANCH   9  12
ATOM     12  C   UNL A   1      37.730  32.249  32.289  1.00  0.00     0.000 A 
ATOM     13  C   UNL A   1      38.289  31.029  32.683  1.00  0.00     0.010 A 
ATOM     14  C   UNL A   1      38.290  32.949  31.209  1.00  0.00     0.010 A 
ATOM     15  C   UNL A   1      39.375  30.498  31.984  1.00  0.00     0.001 A 
ATOM     16  C   UNL A   1      39.371  32.413  30.508  1.00  0.00     0.001 A 
ATOM     17  C   UNL A   1      39.910  31.186  30.894  1.00  0.00     0.000 A 
ENDBRANCH   9  12
BRANCH  11  18
ATOM     18  C   UNL A   1      37.699  33.560  35.111  1.00  0.00     0.002 A 
ATOM     19  C   UNL A   1      38.581  34.618  34.879  1.00  0.00     0.010 A 
ATOM     20  C   UNL A   1      37.873  32.753  36.243  1.00  0.00     0.010 A 
ATOM     21  C   UNL A   1      39.587  34.903  35.804  1.00  0.00     0.001 A 
ATOM     22  C   UNL A   1      38.870  33.044  37.172  1.00  0.00     0.001 A 
ATOM     23  C   UNL A   1      39.720  34.128  36.957  1.00  0.00     0.000 A 
ENDBRANCH  11  18
ENDBRANCH   6   7
ENDBRANCH   4   6
ENDBRANCH   3   4
ENDBRANCH   2   3
ENDBRANCH   1   2
BRANCH   1  24
ATOM     24  O   UNL A   1      36.770  30.843  28.230  1.00  0.00    -0.458 OA
BRANCH  24  25
ATOM     25  C   UNL A   1      36.911  29.788  29.065  1.00  0.00     0.338 C 
ATOM     26  O   UNL A   1      36.272  29.524  30.056  1.00  0.00    -0.246 OA
BRANCH  25  27
ATOM     27  C   UNL A   1      38.055  29.029  28.566  1.00  0.00     0.060 A 
ATOM     28  C   UNL A   1      38.532  28.043  29.420  1.00  0.00     0.016 A 
ATOM     29  C   UNL A   1      38.749  29.443  27.415  1.00  0.00     0.016 A 
ATOM     30  C   UNL A   1      39.827  27.628  29.243  1.00  0.00     0.010 A 
ATOM     31  C   UNL A   1      40.044  29.015  27.232  1.00  0.00     0.010 A 
ATOM     32  C   UNL A   1      40.589  28.188  28.206  1.00  0.00    -0.014 A 
BRANCH  32  33
ATOM     33  C   UNL A   1      41.993  27.855  28.204  1.00  0.00     0.031 A 
ATOM     34  C   UNL A   1      42.304  26.600  27.499  1.00  0.00     0.074 A 
ATOM     35  C   UNL A   1      42.918  28.593  28.840  1.00  0.00     0.049 A 
ATOM     36  N   UNL A   1      42.642  25.472  28.022  1.00  0.00    -0.248 NA
ATOM     37  C   UNL A   1      42.029  26.552  26.058  1.00  0.00     0.031 C 
ATOM     38  C   UNL A   1      42.815  29.956  29.363  1.00  0.00     0.029 A 
ATOM     39  N   UNL A   1      44.210  28.259  29.082  1.00  0.00    -0.354 N 
ATOM     40  C   UNL A   1      42.815  24.603  26.954  1.00  0.00     0.074 A 
ATOM     41  C   UNL A   1      42.266  25.267  25.800  1.00  0.00     0.031 C 
ATOM     42  C   UNL A   1      44.055  30.404  29.666  1.00  0.00     0.029 A 
ATOM     43  C   UNL A   1      45.004  29.315  29.497  1.00  0.00     0.049 A 
ATOM     44  H   UNL A   1      44.554  27.344  28.971  1.00  0.00     0.167 HD
ATOM     45  C   UNL A   1      43.570  23.480  27.071  1.00  0.00     0.034 A 
ATOM     46  C   UNL A   1      46.355  29.298  29.606  1.00  0.00     0.034 A 
ATOM     47  C   UNL A   1      43.734  23.095  28.453  1.00  0.00     0.049 A 
ATOM     48  C   UNL A   1      46.762  27.877  29.771  1.00  0.00     0.074 A 
ATOM     49  C   UNL A   1      42.853  22.724  29.452  1.00  0.00     0.029 A 
ATOM     50  N   UNL A   1      44.900  23.434  29.101  1.00  0.00    -0.354 N 
ATOM     51  N   UNL A   1      46.448  27.160  30.817  1.00  0.00    -0.248 NA
ATOM     52  C   UNL A   1      47.098  27.108  28.581  1.00  0.00     0.031 C 
ATOM     53  C   UNL A   1      43.361  23.331  30.638  1.00  0.00     0.029 A 
ATOM     54  C   UNL A   1      44.550  23.985  30.312  1.00  0.00     0.049 A 
ATOM     55  H   UNL A   1      45.816  23.306  28.760  1.00  0.00     0.167 HD
ATOM     56  C   UNL A   1      46.141  25.901  30.320  1.00  0.00     0.074 A 
ATOM     57  C   UNL A   1      46.653  25.904  28.952  1.00  0.00     0.031 C 
ATOM     58  C   UNL A   1      45.267  25.069  30.962  1.00  0.00     0.034 A 
BRANCH  45  59
ATOM     59  C   UNL A   1      44.391  22.907  25.945  1.00  0.00     0.023 A 
ATOM     60  C   UNL A   1      44.147  21.578  25.559  1.00  0.00     0.031 A 
ATOM     61  C   UNL A   1      45.560  23.501  25.412  1.00  0.00     0.131 A 
ATOM     62  C   UNL A   1      45.058  20.890  24.738  1.00  0.00     0.055 A 
ATOM     63  C   UNL A   1      46.422  22.838  24.538  1.00  0.00     0.041 A 
ATOM     64  F   UNL A   1      45.990  24.714  25.782  1.00  0.00    -0.206 F 
ATOM     65  C   UNL A   1      46.189  21.514  24.217  1.00  0.00     0.022 A 
BRANCH  62  66
ATOM     66  S   UNL A   1      44.836  19.108  24.505  1.00  0.00     0.124 S 
ATOM     67  O   UNL A   1      43.696  18.832  25.374  1.00  0.00    -0.237 OA
ATOM     68  O   UNL A   1      44.590  19.022  23.070  1.00  0.00    -0.237 OA
ATOM     69  O   UNL A   1      46.109  18.548  24.956  1.00  0.00    -0.744 OA
ENDBRANCH  62  66
ENDBRANCH  45  59
BRANCH  46  70
ATOM     70  C   UNL A   1      47.265  30.384  29.154  1.00  0.00     0.023 A 
ATOM     71  C   UNL A   1      46.925  31.277  28.122  1.00  0.00     0.031 A 
ATOM     72  C   UNL A   1      48.421  30.692  29.911  1.00  0.00     0.131 A 
ATOM     73  C   UNL A   1      47.730  32.414  27.877  1.00  0.00     0.055 A 
ATOM     74  C   UNL A   1      49.215  31.810  29.660  1.00  0.00     0.041 A 
ATOM     75  F   UNL A   1      48.771  29.958  30.978  1.00  0.00    -0.206 F 
ATOM     76  C   UNL A   1      48.868  32.683  28.642  1.00  0.00     0.022 A 
BRANCH  73  77
ATOM     77  S   UNL A   1      47.246  33.620  26.601  1.00  0.00     0.124 S 
ATOM     78  O   UNL A   1      46.302  32.855  25.797  1.00  0.00    -0.237 OA
ATOM     79  O   UNL A   1      46.689  34.708  27.397  1.00  0.00    -0.237 OA
ATOM     80  O   UNL A   1      48.510  33.935  25.934  1.00  0.00    -0.744 OA
ENDBRANCH  73  77
ENDBRANCH  46  70
BRANCH  58  81
ATOM     81  C   UNL A   1      44.836  25.426  32.375  1.00  0.00     0.023 A 
ATOM     82  C   UNL A   1      43.841  26.380  32.696  1.00  0.00     0.031 A 
ATOM     83  C   UNL A   1      45.366  24.661  33.430  1.00  0.00     0.131 A 
ATOM     84  C   UNL A   1      43.422  26.542  34.031  1.00  0.00     0.055 A 
ATOM     85  C   UNL A   1      44.932  24.810  34.748  1.00  0.00     0.041 A 
ATOM     86  F   UNL A   1      46.291  23.718  33.188  1.00  0.00    -0.206 F 
ATOM     87  C   UNL A   1      43.962  25.756  35.055  1.00  0.00     0.022 A 
BRANCH  84  88
ATOM     88  S   UNL A   1      42.161  27.785  34.465  1.00  0.00     0.124 S 
ATOM     89  O   UNL A   1      41.729  28.299  33.172  1.00  0.00    -0.237 OA
ATOM     90  O   UNL A   1      41.176  26.994  35.200  1.00  0.00    -0.237 OA
ATOM     91  O   UNL A   1      42.898  28.747  35.287  1.00  0.00    -0.744 OA
ENDBRANCH  84  88
ENDBRANCH  58  81
ENDBRANCH  32  33
ENDBRANCH  25  27
ENDBRANCH  24  25
ENDBRANCH   1  24
TORSDOF 17
ENDMDL
MODEL 2
REMARK VINA RESULT:     -10.9      4.805      9.928
REMARK SMILES O=C(Cn1cnc(-c2ccccc2)c1-c1ccccc1)OCCOC(=O)c1ccc(-c2c3nc(c(-c4cc(S(=O)(=O)[O-])ccc4F)c4ccc([nH]4)c(-c4cc(S(=O)(=O)[O-])ccc4F)c4nc(c(-c5cc(S(=O)(=O)[O-])ccc5F)c5ccc2[nH]5)C=C4)C=C3)cc1
REMARK SMILES IDX 23 1 22 2 21 3 2 4 1 5 3 6 4 7 5 8 14 9 6 10 7 11 15 12
REMARK SMILES IDX 16 13 20 14 17 15 19 16 18 17 8 18 9 19 13 20 10 21 12 22
REMARK SMILES IDX 11 23 24 24 25 25 26 26 27 27 28 28 89 29 29 30 88 31 30 32
REMARK SMILES IDX 31 33 32 34 82 35 33 36 87 37 81 38 83 39 34 40 86 41 80 42
REMARK SMILES IDX 79 43 35 45 67 46 47 47 66 48 48 49 51 50 65 51 84 52 49 53
REMARK SMILES IDX 50 54 64 56 85 57 52 58 36 59 37 60 45 61 38 62 44 63 46 64
REMARK SMILES IDX 43 65 39 66 40 67 41 68 42 69 68 70 69 71 77 72 70 73 76 74
REMARK SMILES IDX 78 75 75 76 71 77 72 78 73 79 74 80 53 81 54 82 62 83 55 84
REMARK SMILES IDX 61 85 63 86 60 87 56 88 57 89 58 90 59 91
REMARK H PARENT 83 44 51 55
REMARK Flexibility Score: inf
ROOT
ATOM      1  C   UNL A   1      33.694  30.799  26.991  1.00  0.00     0.275 C 
ENDROOT
BRANCH   1   2
ATOM      2  C   UNL A   1      33.261  29.352  27.095  1.00  0.00     0.274 C 
BRANCH   2   3
ATOM      3  O   UNL A   1      32.639  28.819  25.910  1.00  0.00    -0.461 OA
BRANCH   3   4
ATOM      4  C   UNL A   1      33.174  27.806  25.178  1.00  0.00     0.326 C 
ATOM      5  O   UNL A   1      33.293  27.925  23.960  1.00  0.00    -0.250 OA
BRANCH   4   6
ATOM      6  C   UNL A   1      33.515  26.507  25.872  1.00  0.00     0.246 C 
BRANCH   6   7
ATOM      7  N   UNL A   1      32.822  25.346  25.329  1.00  0.00    -0.319 N 
ATOM      8  C   UNL A   1      31.460  25.236  25.222  1.00  0.00     0.201 A 
ATOM      9  C   UNL A   1      33.366  24.128  24.972  1.00  0.00     0.076 A 
ATOM     10  N   UNL A   1      31.097  24.055  24.772  1.00  0.00    -0.236 NA
ATOM     11  C   UNL A   1      32.266  23.355  24.629  1.00  0.00     0.096 A 
BRANCH   9  12
ATOM     12  C   UNL A   1      34.781  23.798  24.899  1.00  0.00     0.000 A 
ATOM     13  C   UNL A   1      35.380  23.542  23.661  1.00  0.00     0.010 A 
ATOM     14  C   UNL A   1      35.552  23.719  26.070  1.00  0.00     0.010 A 
ATOM     15  C   UNL A   1      36.742  23.241  23.591  1.00  0.00     0.001 A 
ATOM     16  C   UNL A   1      36.914  23.425  25.996  1.00  0.00     0.001 A 
ATOM     17  C   UNL A   1      37.509  23.190  24.756  1.00  0.00     0.000 A 
ENDBRANCH   9  12
BRANCH  11  18
ATOM     18  C   UNL A   1      32.364  22.022  24.072  1.00  0.00     0.002 A 
ATOM     19  C   UNL A   1      32.543  20.934  24.929  1.00  0.00     0.010 A 
ATOM     20  C   UNL A   1      32.150  21.795  22.705  1.00  0.00     0.010 A 
ATOM     21  C   UNL A   1      32.447  19.632  24.434  1.00  0.00     0.001 A 
ATOM     22  C   UNL A   1      32.042  20.496  22.214  1.00  0.00     0.001 A 
ATOM     23  C   UNL A   1      32.179  19.415  23.082  1.00  0.00     0.000 A 
ENDBRANCH  11  18
ENDBRANCH   6   7
ENDBRANCH   4   6
ENDBRANCH   3   4
ENDBRANCH   2   3
ENDBRANCH   1   2
BRANCH   1  24
ATOM     24  O   UNL A   1      34.271  31.193  28.230  1.00  0.00    -0.458 OA
BRANCH  24  25
ATOM     25  C   UNL A   1      35.408  31.921  28.134  1.00  0.00     0.338 C 
ATOM     26  O   UNL A   1      35.606  32.924  27.491  1.00  0.00    -0.246 OA
BRANCH  25  27
ATOM     27  C   UNL A   1      36.406  31.216  28.935  1.00  0.00     0.060 A 
ATOM     28  C   UNL A   1      37.654  31.822  28.996  1.00  0.00     0.016 A 
ATOM     29  C   UNL A   1      36.168  29.909  29.398  1.00  0.00     0.016 A 
ATOM     30  C   UNL A   1      38.726  31.027  29.316  1.00  0.00     0.010 A 
ATOM     31  C   UNL A   1      37.244  29.118  29.730  1.00  0.00     0.010 A 
ATOM     32  C   UNL A   1      38.511  29.667  29.590  1.00  0.00    -0.014 A 
BRANCH  32  33
ATOM     33  C   UNL A   1      39.697  28.856  29.719  1.00  0.00     0.031 A 
ATOM     34  C   UNL A   1      40.146  28.680  31.110  1.00  0.00     0.074 A 
ATOM     35  C   UNL A   1      40.359  28.359  28.661  1.00  0.00     0.049 A 
ATOM     36  N   UNL A   1      41.171  29.220  31.676  1.00  0.00    -0.248 NA
ATOM     37  C   UNL A   1      39.247  27.965  32.023  1.00  0.00     0.031 C 
ATOM     38  C   UNL A   1      39.923  28.238  27.270  1.00  0.00     0.029 A 
ATOM     39  N   UNL A   1      41.585  27.777  28.660  1.00  0.00    -0.354 N 
ATOM     40  C   UNL A   1      41.162  28.759  32.984  1.00  0.00     0.074 A 
ATOM     41  C   UNL A   1      39.879  28.135  33.183  1.00  0.00     0.031 C 
ATOM     42  C   UNL A   1      40.784  27.429  26.609  1.00  0.00     0.029 A 
ATOM     43  C   UNL A   1      41.895  27.105  27.490  1.00  0.00     0.049 A 
ATOM     44  H   UNL A   1      42.200  27.828  29.426  1.00  0.00     0.167 HD
ATOM     45  C   UNL A   1      42.289  28.759  33.743  1.00  0.00     0.034 A 
ATOM     46  C   UNL A   1      42.953  26.278  27.305  1.00  0.00     0.034 A 
ATOM     47  C   UNL A   1      43.275  29.678  33.223  1.00  0.00     0.049 A 
ATOM     48  C   UNL A   1      43.983  26.657  28.309  1.00  0.00     0.074 A 
ATOM     49  C   UNL A   1      43.293  31.045  33.021  1.00  0.00     0.029 A 
ATOM     50  N   UNL A   1      44.302  29.180  32.454  1.00  0.00    -0.354 N 
ATOM     51  N   UNL A   1      44.601  27.808  28.302  1.00  0.00    -0.248 NA
ATOM     52  C   UNL A   1      43.988  25.969  29.593  1.00  0.00     0.031 C 
ATOM     53  C   UNL A   1      43.982  31.228  31.786  1.00  0.00     0.029 A 
ATOM     54  C   UNL A   1      44.397  29.974  31.335  1.00  0.00     0.049 A 
ATOM     55  H   UNL A   1      44.866  28.401  32.667  1.00  0.00     0.167 HD
ATOM     56  C   UNL A   1      44.701  28.180  29.635  1.00  0.00     0.074 A 
ATOM     57  C   UNL A   1      44.394  26.965  30.386  1.00  0.00     0.031 C 
ATOM     58  C   UNL A   1      44.756  29.493  30.011  1.00  0.00     0.034 A 
BRANCH  45  59
ATOM     59  C   UNL A   1      42.593  27.713  34.783  1.00  0.00     0.023 A 
ATOM     60  C   UNL A   1      43.345  26.592  34.393  1.00  0.00     0.031 A 
ATOM     61  C   UNL A   1      41.975  27.632  36.054  1.00  0.00     0.131 A 
ATOM     62  C   UNL A   1      43.412  25.452  35.214  1.00  0.00     0.055 A 
ATOM     63  C   UNL A   1      42.106  26.528  36.896  1.00  0.00     0.041 A 
ATOM     64  F   UNL A   1      41.131  28.565  36.510  1.00  0.00    -0.206 F 
ATOM     65  C   UNL A   1      42.806  25.416  36.467  1.00  0.00     0.022 A 
BRANCH  62  66
ATOM     66  S   UNL A   1      44.157  23.945  34.540  1.00  0.00     0.124 S 
ATOM     67  O   UNL A   1      45.408  23.868  35.287  1.00  0.00    -0.237 OA
ATOM     68  O   UNL A   1      43.148  22.942  34.864  1.00  0.00    -0.237 OA
ATOM     69  O   UNL A   1      44.302  24.248  33.117  1.00  0.00    -0.744 OA
ENDBRANCH  62  66
ENDBRANCH  45  59
BRANCH  46  70
ATOM     70  C   UNL A   1      42.903  24.965  26.610  1.00  0.00     0.023 A 
ATOM     71  C   UNL A   1      43.951  24.499  25.794  1.00  0.00     0.031 A 
ATOM     72  C   UNL A   1      41.884  24.037  26.933  1.00  0.00     0.131 A 
ATOM     73  C   UNL A   1      43.946  23.162  25.331  1.00  0.00     0.055 A 
ATOM     74  C   UNL A   1      41.880  22.723  26.467  1.00  0.00     0.041 A 
ATOM     75  F   UNL A   1      40.897  24.355  27.785  1.00  0.00    -0.206 F 
ATOM     76  C   UNL A   1      42.918  22.276  25.667  1.00  0.00     0.022 A 
BRANCH  73  77
ATOM     77  S   UNL A   1      45.341  22.529  24.348  1.00  0.00     0.124 S 
ATOM     78  O   UNL A   1      46.100  21.777  25.339  1.00  0.00    -0.237 OA
ATOM     79  O   UNL A   1      44.666  21.748  23.317  1.00  0.00    -0.237 OA
ATOM     80  O   UNL A   1      45.996  23.745  23.863  1.00  0.00    -0.744 OA
ENDBRANCH  73  77
ENDBRANCH  46  70
BRANCH  58  81
ATOM     81  C   UNL A   1      44.980  30.544  28.937  1.00  0.00     0.023 A 
ATOM     82  C   UNL A   1      46.248  31.037  28.547  1.00  0.00     0.031 A 
ATOM     83  C   UNL A   1      43.864  30.957  28.187  1.00  0.00     0.131 A 
ATOM     84  C   UNL A   1      46.357  31.914  27.450  1.00  0.00     0.055 A 
ATOM     85  C   UNL A   1      43.981  31.809  27.089  1.00  0.00     0.041 A 
ATOM     86  F   UNL A   1      42.637  30.501  28.487  1.00  0.00    -0.206 F 
ATOM     87  C   UNL A   1      45.228  32.295  26.718  1.00  0.00     0.022 A 
BRANCH  84  88
ATOM     88  S   UNL A   1      47.980  32.580  26.951  1.00  0.00     0.124 S 
ATOM     89  O   UNL A   1      48.698  31.405  26.472  1.00  0.00    -0.237 OA
ATOM     90  O   UNL A   1      47.619  33.567  25.935  1.00  0.00    -0.237 OA
ATOM     91  O   UNL A   1      48.510  33.154  28.190  1.00  0.00    -0.744 OA
ENDBRANCH  84  88
ENDBRANCH  58  81
ENDBRANCH  32  33
ENDBRANCH  25  27
ENDBRANCH  24  25
ENDBRANCH   1  24
TORSDOF 17
ENDMDL
MODEL 3
REMARK VINA RESULT:     -10.7      5.372      8.911
REMARK SMILES O=C(Cn1cnc(-c2ccccc2)c1-c1ccccc1)OCCOC(=O)c1ccc(-c2c3nc(c(-c4cc(S(=O)(=O)[O-])ccc4F)c4ccc([nH]4)c(-c4cc(S(=O)(=O)[O-])ccc4F)c4nc(c(-c5cc(S(=O)(=O)[O-])ccc5F)c5ccc2[nH]5)C=C4)C=C3)cc1
REMARK SMILES IDX 23 1 22 2 21 3 2 4 1 5 3 6 4 7 5 8 14 9 6 10 7 11 15 12
REMARK SMILES IDX 16 13 20 14 17 15 19 16 18 17 8 18 9 19 13 20 10 21 12 22
REMARK SMILES IDX 11 23 24 24 25 25 26 26 27 27 28 28 89 29 29 30 88 31 30 32
REMARK SMILES IDX 31 33 32 34 82 35 33 36 87 37 81 38 83 39 34 40 86 41 80 42
REMARK SMILES IDX 79 43 35 45 67 46 47 47 66 48 48 49 51 50 65 51 84 52 49 53
REMARK SMILES IDX 50 54 64 56 85 57 52 58 36 59 37 60 45 61 38 62 44 63 46 64
REMARK SMILES IDX 43 65 39 66 40 67 41 68 42 69 68 70 69 71 77 72 70 73 76 74
REMARK SMILES IDX 78 75 75 76 71 77 72 78 73 79 74 80 53 81 54 82 62 83 55 84
REMARK SMILES IDX 61 85 63 86 60 87 56 88 57 89 58 90 59 91
REMARK H PARENT 83 44 51 55
REMARK Flexibility Score: inf
ROOT
ATOM      1  C   UNL A   1      31.711  31.142  26.130  1.00  0.00     0.275 C 
ENDROOT
BRANCH   1   2
ATOM      2  C   UNL A   1      31.769  29.652  25.861  1.00  0.00     0.274 C 
BRANCH   2   3
ATOM      3  O   UNL A   1      33.039  29.171  25.381  1.00  0.00    -0.461 OA
BRANCH   3   4
ATOM      4  C   UNL A   1      33.408  27.864  25.431  1.00  0.00     0.326 C 
ATOM      5  O   UNL A   1      33.600  27.321  26.518  1.00  0.00    -0.250 OA
BRANCH   4   6
ATOM      6  C   UNL A   1      33.677  27.132  24.136  1.00  0.00     0.246 C 
BRANCH   6   7
ATOM      7  N   UNL A   1      32.876  25.929  23.958  1.00  0.00    -0.319 N 
ATOM      8  C   UNL A   1      31.525  25.925  23.724  1.00  0.00     0.201 A 
ATOM      9  C   UNL A   1      33.272  24.617  24.129  1.00  0.00     0.076 A 
ATOM     10  N   UNL A   1      31.039  24.703  23.680  1.00  0.00    -0.236 NA
ATOM     11  C   UNL A   1      32.107  23.887  23.946  1.00  0.00     0.096 A 
BRANCH   9  12
ATOM     12  C   UNL A   1      34.628  24.144  24.359  1.00  0.00     0.000 A 
ATOM     13  C   UNL A   1      35.226  24.306  25.614  1.00  0.00     0.010 A 
ATOM     14  C   UNL A   1      35.353  23.537  23.321  1.00  0.00     0.010 A 
ATOM     15  C   UNL A   1      36.522  23.837  25.837  1.00  0.00     0.001 A 
ATOM     16  C   UNL A   1      36.646  23.064  23.550  1.00  0.00     0.001 A 
ATOM     17  C   UNL A   1      37.227  23.210  24.809  1.00  0.00     0.000 A 
ENDBRANCH   9  12
BRANCH  11  18
ATOM     18  C   UNL A   1      32.063  22.440  23.916  1.00  0.00     0.002 A 
ATOM     19  C   UNL A   1      32.071  21.780  22.685  1.00  0.00     0.010 A 
ATOM     20  C   UNL A   1      32.144  21.692  25.099  1.00  0.00     0.010 A 
ATOM     21  C   UNL A   1      32.222  20.393  22.637  1.00  0.00     0.001 A 
ATOM     22  C   UNL A   1      32.307  20.309  25.050  1.00  0.00     0.001 A 
ATOM     23  C   UNL A   1      32.358  19.662  23.817  1.00  0.00     0.000 A 
ENDBRANCH  11  18
ENDBRANCH   6   7
ENDBRANCH   4   6
ENDBRANCH   3   4
ENDBRANCH   2   3
ENDBRANCH   1   2
BRANCH   1  24
ATOM     24  O   UNL A   1      32.482  31.427  27.290  1.00  0.00    -0.458 OA
BRANCH  24  25
ATOM     25  C   UNL A   1      32.620  32.740  27.586  1.00  0.00     0.338 C 
ATOM     26  O   UNL A   1      31.883  33.654  27.305  1.00  0.00    -0.246 OA
BRANCH  25  27
ATOM     27  C   UNL A   1      33.896  32.864  28.286  1.00  0.00     0.060 A 
ATOM     28  C   UNL A   1      34.858  33.626  27.636  1.00  0.00     0.016 A 
ATOM     29  C   UNL A   1      34.183  32.068  29.410  1.00  0.00     0.016 A 
ATOM     30  C   UNL A   1      36.169  33.410  27.978  1.00  0.00     0.010 A 
ATOM     31  C   UNL A   1      35.499  31.863  29.758  1.00  0.00     0.010 A 
ATOM     32  C   UNL A   1      36.471  32.466  28.971  1.00  0.00    -0.014 A 
BRANCH  32  33
ATOM     33  C   UNL A   1      37.868  32.148  29.135  1.00  0.00     0.031 A 
ATOM     34  C   UNL A   1      38.196  30.744  28.835  1.00  0.00     0.074 A 
ATOM     35  C   UNL A   1      38.772  33.038  29.579  1.00  0.00     0.049 A 
ATOM     36  N   UNL A   1      38.494  29.812  29.674  1.00  0.00    -0.248 NA
ATOM     37  C   UNL A   1      37.991  30.285  27.456  1.00  0.00     0.031 C 
ATOM     38  C   UNL A   1      38.662  34.493  29.685  1.00  0.00     0.029 A 
ATOM     39  N   UNL A   1      40.046  32.788  29.971  1.00  0.00    -0.354 N 
ATOM     40  C   UNL A   1      38.705  28.674  28.909  1.00  0.00     0.074 A 
ATOM     41  C   UNL A   1      38.222  28.981  27.587  1.00  0.00     0.031 C 
ATOM     42  C   UNL A   1      39.892  35.010  29.909  1.00  0.00     0.029 A 
ATOM     43  C   UNL A   1      40.833  33.918  30.106  1.00  0.00     0.049 A 
ATOM     44  H   UNL A   1      40.382  31.879  30.144  1.00  0.00     0.167 HD
ATOM     45  C   UNL A   1      39.439  27.632  29.379  1.00  0.00     0.034 A 
ATOM     46  C   UNL A   1      42.177  33.935  30.283  1.00  0.00     0.034 A 
ATOM     47  C   UNL A   1      39.531  27.659  30.821  1.00  0.00     0.049 A 
ATOM     48  C   UNL A   1      42.556  32.620  30.868  1.00  0.00     0.074 A 
ATOM     49  C   UNL A   1      38.597  27.588  31.838  1.00  0.00     0.029 A 
ATOM     50  N   UNL A   1      40.669  28.170  31.402  1.00  0.00    -0.354 N 
ATOM     51  N   UNL A   1      42.183  32.232  32.058  1.00  0.00    -0.248 NA
ATOM     52  C   UNL A   1      42.939  31.544  29.965  1.00  0.00     0.031 C 
ATOM     53  C   UNL A   1      39.056  28.510  32.826  1.00  0.00     0.029 A 
ATOM     54  C   UNL A   1      40.268  29.045  32.386  1.00  0.00     0.049 A 
ATOM     55  H   UNL A   1      41.598  27.951  31.159  1.00  0.00     0.167 HD
ATOM     56  C   UNL A   1      41.883  30.883  31.927  1.00  0.00     0.074 A 
ATOM     57  C   UNL A   1      42.460  30.495  30.642  1.00  0.00     0.031 C 
ATOM     58  C   UNL A   1      40.967  30.270  32.735  1.00  0.00     0.034 A 
BRANCH  45  59
ATOM     59  C   UNL A   1      40.306  26.762  28.507  1.00  0.00     0.023 A 
ATOM     60  C   UNL A   1      41.389  27.362  27.843  1.00  0.00     0.031 A 
ATOM     61  C   UNL A   1      39.976  25.449  28.093  1.00  0.00     0.131 A 
ATOM     62  C   UNL A   1      42.048  26.693  26.796  1.00  0.00     0.055 A 
ATOM     63  C   UNL A   1      40.682  24.762  27.105  1.00  0.00     0.041 A 
ATOM     64  F   UNL A   1      38.899  24.795  28.545  1.00  0.00    -0.206 F 
ATOM     65  C   UNL A   1      41.709  25.393  26.430  1.00  0.00     0.022 A 
BRANCH  62  66
ATOM     66  S   UNL A   1      43.244  27.618  25.798  1.00  0.00     0.124 S 
ATOM     67  O   UNL A   1      43.635  28.686  26.712  1.00  0.00    -0.237 OA
ATOM     68  O   UNL A   1      44.253  26.601  25.522  1.00  0.00    -0.237 OA
ATOM     69  O   UNL A   1      42.457  28.047  24.643  1.00  0.00    -0.744 OA
ENDBRANCH  62  66
ENDBRANCH  45  59
BRANCH  46  70
ATOM     70  C   UNL A   1      43.123  34.846  29.586  1.00  0.00     0.023 A 
ATOM     71  C   UNL A   1      43.783  35.901  30.243  1.00  0.00     0.031 A 
ATOM     72  C   UNL A   1      43.562  34.535  28.277  1.00  0.00     0.131 A 
ATOM     73  C   UNL A   1      44.825  36.600  29.590  1.00  0.00     0.055 A 
ATOM     74  C   UNL A   1      44.584  35.232  27.635  1.00  0.00     0.041 A 
ATOM     75  F   UNL A   1      43.065  33.483  27.607  1.00  0.00    -0.206 F 
ATOM     76  C   UNL A   1      45.227  36.267  28.293  1.00  0.00     0.022 A 
BRANCH  73  77
ATOM     77  S   UNL A   1      45.740  37.907  30.466  1.00  0.00     0.124 S 
ATOM     78  O   UNL A   1      45.956  37.306  31.776  1.00  0.00    -0.237 OA
ATOM     79  O   UNL A   1      46.920  38.077  29.626  1.00  0.00    -0.237 OA
ATOM     80  O   UNL A   1      44.812  39.039  30.454  1.00  0.00    -0.744 OA
ENDBRANCH  73  77
ENDBRANCH  46  70
BRANCH  58  81
ATOM     81  C   UNL A   1      40.473  31.015  33.963  1.00  0.00     0.023 A 
ATOM     82  C   UNL A   1      39.289  31.788  34.013  1.00  0.00     0.031 A 
ATOM     83  C   UNL A   1      41.169  30.815  35.169  1.00  0.00     0.131 A 
ATOM     84  C   UNL A   1      38.851  32.331  35.237  1.00  0.00     0.055 A 
ATOM     85  C   UNL A   1      40.720  31.338  36.382  1.00  0.00     0.041 A 
ATOM     86  F   UNL A   1      42.284  30.067  35.196  1.00  0.00    -0.206 F 
ATOM     87  C   UNL A   1      39.560  32.103  36.420  1.00  0.00     0.022 A 
BRANCH  84  88
ATOM     88  S   UNL A   1      37.341  33.351  35.314  1.00  0.00     0.124 S 
ATOM     89  O   UNL A   1      37.779  34.647  34.810  1.00  0.00    -0.237 OA
ATOM     90  O   UNL A   1      36.416  32.612  34.458  1.00  0.00    -0.237 OA
ATOM     91  O   UNL A   1      36.992  33.338  36.736  1.00  0.00    -0.744 OA
ENDBRANCH  84  88
ENDBRANCH  58  81
ENDBRANCH  32  33
ENDBRANCH  25  27
ENDBRANCH  24  25
ENDBRANCH   1  24
TORSDOF 17
ENDMDL
