MODEL 1
REMARK VINA RESULT:     -12.3      0.000      0.000
REMARK SMILES COc1ccc(NC(=O)c2nn(C)cc2C(=O)OCCOC(=O)c2ccc(-c3c4nc(c(-c5cc(S(=O)(=O)[O-])ccc5F)c5ccc([nH]5)c(-c5cc(S(=O)(=O)[O-])ccc5F)c5nc(c(-c6cc(S(=O)(=O)[O-])ccc6F)c6ccc3[nH]6)C=C5)C=C4)cc2)c(C)c1
REMARK SMILES IDX 19 1 18 2 16 3 17 4 15 5 10 6 11 7 12 8 14 9 13 10 8 11 7 12
REMARK SMILES IDX 9 14 6 15 3 16 4 17 89 18 5 19 87 20 88 21 2 22 1 23 20 24
REMARK SMILES IDX 21 25 22 26 23 27 24 28 25 29 86 30 26 31 85 32 27 33 28 34
REMARK SMILES IDX 29 35 79 36 30 37 84 38 78 39 80 40 31 41 83 42 77 43 76 44
REMARK SMILES IDX 32 46 64 47 44 48 63 49 45 50 48 51 62 52 81 53 46 54 47 55
REMARK SMILES IDX 61 57 82 58 49 59 33 60 34 61 42 62 35 63 41 64 43 65 40 66
REMARK SMILES IDX 36 67 37 68 38 69 39 70 65 71 66 72 74 73 67 74 73 75 75 76
REMARK SMILES IDX 72 77 68 78 69 79 70 80 71 81 50 82 51 83 59 84 52 85 58 86
REMARK SMILES IDX 60 87 57 88 53 89 54 90 55 91 56 92
REMARK H PARENT 7 13 80 45 48 56
REMARK Flexibility Score: inf
ROOT
ATOM      1  C   UNL A   1      32.392  26.505  26.408  1.00  0.00     0.275 C 
ENDROOT
BRANCH   1   2
ATOM      2  O   UNL A   1      31.572  25.434  26.981  1.00  0.00    -0.458 OA
BRANCH   2   3
ATOM      3  C   UNL A   1      31.578  24.202  26.427  1.00  0.00     0.342 C 
ATOM      4  O   UNL A   1      30.539  23.537  26.369  1.00  0.00    -0.246 OA
BRANCH   3   5
ATOM      5  C   UNL A   1      32.806  23.743  25.815  1.00  0.00     0.111 A 
ATOM      6  C   UNL A   1      33.159  23.519  24.424  1.00  0.00     0.165 A 
ATOM      7  N   UNL A   1      34.480  23.253  24.325  1.00  0.00    -0.167 NA
ATOM      8  N   UNL A   1      34.926  23.200  25.578  1.00  0.00    -0.274 N 
ATOM      9  C   UNL A   1      33.971  23.451  26.512  1.00  0.00     0.125 A 
ATOM     10  C   UNL A   1      36.334  22.976  25.795  1.00  0.00     0.173 C 
BRANCH   6  11
ATOM     11  C   UNL A   1      32.359  23.386  23.180  1.00  0.00     0.277 C 
ATOM     12  N   UNL A   1      31.465  24.321  22.702  1.00  0.00    -0.320 N 
ATOM     13  H   UNL A   1      30.988  24.033  21.891  1.00  0.00     0.170 HD
ATOM     14  O   UNL A   1      32.454  22.357  22.498  1.00  0.00    -0.267 OA
BRANCH  12  15
ATOM     15  C   UNL A   1      31.102  25.598  23.145  1.00  0.00     0.044 A 
ATOM     16  C   UNL A   1      30.005  28.156  23.211  1.00  0.00     0.119 A 
ATOM     17  C   UNL A   1      29.323  27.098  23.809  1.00  0.00     0.048 A 
ATOM     18  C   UNL A   1      31.331  27.978  22.817  1.00  0.00     0.052 A 
ATOM     19  C   UNL A   1      29.876  25.817  23.780  1.00  0.00     0.030 A 
ATOM     20  C   UNL A   1      31.918  26.696  22.811  1.00  0.00    -0.024 A 
ATOM     21  C   UNL A   1      33.351  26.594  22.342  1.00  0.00     0.047 C 
BRANCH  16  22
ATOM     22  O   UNL A   1      29.435  29.373  22.946  1.00  0.00    -0.497 OA
ATOM     23  C   UNL A   1      29.749  29.889  21.650  1.00  0.00     0.278 C 
ENDBRANCH  16  22
ENDBRANCH  12  15
ENDBRANCH   6  11
ENDBRANCH   3   5
ENDBRANCH   2   3
ENDBRANCH   1   2
BRANCH   1  24
ATOM     24  C   UNL A   1      32.485  27.966  26.983  1.00  0.00     0.275 C 
BRANCH  24  25
ATOM     25  O   UNL A   1      33.748  28.568  27.338  1.00  0.00    -0.458 OA
BRANCH  25  26
ATOM     26  C   UNL A   1      33.916  29.883  27.060  1.00  0.00     0.338 C 
ATOM     27  O   UNL A   1      33.164  30.572  26.387  1.00  0.00    -0.246 OA
BRANCH  26  28
ATOM     28  C   UNL A   1      35.058  30.380  27.823  1.00  0.00     0.060 A 
ATOM     29  C   UNL A   1      35.668  31.610  27.522  1.00  0.00     0.016 A 
ATOM     30  C   UNL A   1      35.324  29.693  29.006  1.00  0.00     0.016 A 
ATOM     31  C   UNL A   1      36.552  32.164  28.433  1.00  0.00     0.010 A 
ATOM     32  C   UNL A   1      35.979  30.340  29.999  1.00  0.00     0.010 A 
ATOM     33  C   UNL A   1      36.717  31.477  29.635  1.00  0.00    -0.014 A 
BRANCH  33  34
ATOM     34  C   UNL A   1      38.008  31.369  30.288  1.00  0.00     0.031 A 
ATOM     35  C   UNL A   1      38.881  30.264  29.881  1.00  0.00     0.074 A 
ATOM     36  C   UNL A   1      38.321  32.618  30.729  1.00  0.00     0.049 A 
ATOM     37  N   UNL A   1      39.869  29.813  30.564  1.00  0.00    -0.248 NA
ATOM     38  C   UNL A   1      38.659  29.493  28.643  1.00  0.00     0.031 C 
ATOM     39  C   UNL A   1      39.554  33.384  30.745  1.00  0.00     0.029 A 
ATOM     40  N   UNL A   1      37.393  33.551  31.205  1.00  0.00    -0.354 N 
ATOM     41  C   UNL A   1      40.655  29.149  29.645  1.00  0.00     0.074 A 
ATOM     42  C   UNL A   1      39.767  28.747  28.584  1.00  0.00     0.031 C 
ATOM     43  C   UNL A   1      39.361  34.505  31.478  1.00  0.00     0.029 A 
ATOM     44  C   UNL A   1      38.008  34.474  32.030  1.00  0.00     0.049 A 
ATOM     45  H   UNL A   1      36.434  33.549  30.984  1.00  0.00     0.167 HD
ATOM     46  C   UNL A   1      42.003  29.358  29.648  1.00  0.00     0.034 A 
ATOM     47  C   UNL A   1      37.651  34.371  33.345  1.00  0.00     0.034 A 
ATOM     48  C   UNL A   1      42.334  30.427  30.597  1.00  0.00     0.049 A 
ATOM     49  C   UNL A   1      38.703  33.561  34.069  1.00  0.00     0.074 A 
ATOM     50  C   UNL A   1      42.671  31.760  30.422  1.00  0.00     0.029 A 
ATOM     51  N   UNL A   1      41.966  30.296  31.930  1.00  0.00    -0.354 N 
ATOM     52  N   UNL A   1      39.557  32.774  33.468  1.00  0.00    -0.248 NA
ATOM     53  C   UNL A   1      38.960  33.672  35.497  1.00  0.00     0.031 C 
ATOM     54  C   UNL A   1      42.441  32.436  31.656  1.00  0.00     0.029 A 
ATOM     55  C   UNL A   1      41.933  31.523  32.565  1.00  0.00     0.049 A 
ATOM     56  H   UNL A   1      41.755  29.439  32.368  1.00  0.00     0.167 HD
ATOM     57  C   UNL A   1      40.507  32.358  34.346  1.00  0.00     0.074 A 
ATOM     58  C   UNL A   1      40.081  32.939  35.613  1.00  0.00     0.031 C 
ATOM     59  C   UNL A   1      41.576  31.588  33.973  1.00  0.00     0.034 A 
BRANCH  46  60
ATOM     60  C   UNL A   1      42.947  28.892  28.568  1.00  0.00     0.023 A 
ATOM     61  C   UNL A   1      43.880  29.802  28.032  1.00  0.00     0.031 A 
ATOM     62  C   UNL A   1      43.034  27.574  28.077  1.00  0.00     0.131 A 
ATOM     63  C   UNL A   1      44.792  29.425  27.034  1.00  0.00     0.055 A 
ATOM     64  C   UNL A   1      43.921  27.203  27.054  1.00  0.00     0.041 A 
ATOM     65  F   UNL A   1      42.296  26.582  28.598  1.00  0.00    -0.206 F 
ATOM     66  C   UNL A   1      44.809  28.132  26.526  1.00  0.00     0.022 A 
BRANCH  63  67
ATOM     67  S   UNL A   1      45.994  30.654  26.455  1.00  0.00     0.124 S 
ATOM     68  O   UNL A   1      46.441  30.071  25.195  1.00  0.00    -0.237 OA
ATOM     69  O   UNL A   1      45.181  31.861  26.355  1.00  0.00    -0.237 OA
ATOM     70  O   UNL A   1      46.996  30.673  27.520  1.00  0.00    -0.744 OA
ENDBRANCH  63  67
ENDBRANCH  46  60
BRANCH  47  71
ATOM     71  C   UNL A   1      36.149  34.302  33.502  1.00  0.00     0.023 A 
ATOM     72  C   UNL A   1      35.448  35.522  33.326  1.00  0.00     0.031 A 
ATOM     73  C   UNL A   1      35.395  33.121  33.411  1.00  0.00     0.131 A 
ATOM     74  C   UNL A   1      34.097  35.541  32.941  1.00  0.00     0.055 A 
ATOM     75  C   UNL A   1      34.029  33.143  33.061  1.00  0.00     0.041 A 
ATOM     76  F   UNL A   1      35.982  31.922  33.545  1.00  0.00    -0.206 F 
ATOM     77  C   UNL A   1      33.385  34.352  32.783  1.00  0.00     0.022 A 
BRANCH  74  78
ATOM     78  S   UNL A   1      33.349  37.123  32.431  1.00  0.00     0.124 S 
ATOM     79  O   UNL A   1      34.155  38.091  33.167  1.00  0.00    -0.237 OA
ATOM     80  O   UNL A   1      33.527  37.117  30.981  1.00  0.00    -0.237 OA
ATOM     81  O   UNL A   1      31.968  37.001  32.880  1.00  0.00    -0.744 OA
ENDBRANCH  74  78
ENDBRANCH  47  71
BRANCH  59  82
ATOM     82  C   UNL A   1      42.437  30.836  34.945  1.00  0.00     0.023 A 
ATOM     83  C   UNL A   1      42.264  29.471  35.165  1.00  0.00     0.031 A 
ATOM     84  C   UNL A   1      43.534  31.443  35.599  1.00  0.00     0.131 A 
ATOM     85  C   UNL A   1      43.044  28.795  36.104  1.00  0.00     0.055 A 
ATOM     86  C   UNL A   1      44.407  30.730  36.419  1.00  0.00     0.041 A 
ATOM     87  F   UNL A   1      43.814  32.748  35.466  1.00  0.00    -0.206 F 
ATOM     88  C   UNL A   1      44.144  29.401  36.704  1.00  0.00     0.022 A 
BRANCH  85  89
ATOM     89  S   UNL A   1      42.469  27.167  36.622  1.00  0.00     0.124 S 
ATOM     90  O   UNL A   1      43.287  26.930  37.809  1.00  0.00    -0.237 OA
ATOM     91  O   UNL A   1      41.050  27.396  36.869  1.00  0.00    -0.237 OA
ATOM     92  O   UNL A   1      42.777  26.316  35.476  1.00  0.00    -0.744 OA
ENDBRANCH  85  89
ENDBRANCH  59  82
ENDBRANCH  33  34
ENDBRANCH  26  28
ENDBRANCH  25  26
ENDBRANCH  24  25
ENDBRANCH   1  24
TORSDOF 17
ENDMDL
MODEL 2
REMARK VINA RESULT:     -12.2      3.512      9.090
REMARK SMILES COc1ccc(NC(=O)c2nn(C)cc2C(=O)OCCOC(=O)c2ccc(-c3c4nc(c(-c5cc(S(=O)(=O)[O-])ccc5F)c5ccc([nH]5)c(-c5cc(S(=O)(=O)[O-])ccc5F)c5nc(c(-c6cc(S(=O)(=O)[O-])ccc6F)c6ccc3[nH]6)C=C5)C=C4)cc2)c(C)c1
REMARK SMILES IDX 19 1 18 2 16 3 17 4 15 5 10 6 11 7 12 8 14 9 13 10 8 11 7 12
REMARK SMILES IDX 9 14 6 15 3 16 4 17 89 18 5 19 87 20 88 21 2 22 1 23 20 24
REMARK SMILES IDX 21 25 22 26 23 27 24 28 25 29 86 30 26 31 85 32 27 33 28 34
REMARK SMILES IDX 29 35 79 36 30 37 84 38 78 39 80 40 31 41 83 42 77 43 76 44
REMARK SMILES IDX 32 46 64 47 44 48 63 49 45 50 48 51 62 52 81 53 46 54 47 55
REMARK SMILES IDX 61 57 82 58 49 59 33 60 34 61 42 62 35 63 41 64 43 65 40 66
REMARK SMILES IDX 36 67 37 68 38 69 39 70 65 71 66 72 74 73 67 74 73 75 75 76
REMARK SMILES IDX 72 77 68 78 69 79 70 80 71 81 50 82 51 83 59 84 52 85 58 86
REMARK SMILES IDX 60 87 57 88 53 89 54 90 55 91 56 92
REMARK H PARENT 7 13 80 45 48 56
REMARK Flexibility Score: inf
ROOT
ATOM      1  C   UNL A   1      37.742  21.672  25.439  1.00  0.00     0.275 C 
ENDROOT
BRANCH   1   2
ATOM      2  O   UNL A   1      36.464  21.465  26.126  1.00  0.00    -0.458 OA
BRANCH   2   3
ATOM      3  C   UNL A   1      35.388  22.214  25.801  1.00  0.00     0.342 C 
ATOM      4  O   UNL A   1      35.492  23.438  25.677  1.00  0.00    -0.246 OA
BRANCH   3   5
ATOM      5  C   UNL A   1      34.152  21.525  25.500  1.00  0.00     0.111 A 
ATOM      6  C   UNL A   1      32.767  21.902  25.719  1.00  0.00     0.165 A 
ATOM      7  N   UNL A   1      31.950  21.010  25.115  1.00  0.00    -0.167 NA
ATOM      8  N   UNL A   1      32.753  20.064  24.634  1.00  0.00    -0.274 N 
ATOM      9  C   UNL A   1      34.072  20.295  24.859  1.00  0.00     0.125 A 
ATOM     10  C   UNL A   1      32.162  18.983  23.882  1.00  0.00     0.173 C 
BRANCH   6  11
ATOM     11  C   UNL A   1      32.114  22.937  26.559  1.00  0.00     0.277 C 
ATOM     12  N   UNL A   1      31.816  24.222  26.155  1.00  0.00    -0.320 N 
ATOM     13  H   UNL A   1      31.433  24.782  26.868  1.00  0.00     0.170 HD
ATOM     14  O   UNL A   1      31.818  22.677  27.733  1.00  0.00    -0.267 OA
BRANCH  12  15
ATOM     15  C   UNL A   1      31.953  24.886  24.930  1.00  0.00     0.044 A 
ATOM     16  C   UNL A   1      32.794  25.527  22.355  1.00  0.00     0.119 A 
ATOM     17  C   UNL A   1      31.590  24.852  22.539  1.00  0.00     0.048 A 
ATOM     18  C   UNL A   1      33.431  26.097  23.457  1.00  0.00     0.052 A 
ATOM     19  C   UNL A   1      31.166  24.535  23.830  1.00  0.00     0.030 A 
ATOM     20  C   UNL A   1      32.999  25.815  24.769  1.00  0.00    -0.024 A 
ATOM     21  C   UNL A   1      33.768  26.453  25.902  1.00  0.00     0.047 C 
BRANCH  16  22
ATOM     22  O   UNL A   1      33.424  25.640  21.143  1.00  0.00    -0.497 OA
ATOM     23  C   UNL A   1      32.551  25.486  20.022  1.00  0.00     0.278 C 
ENDBRANCH  16  22
ENDBRANCH  12  15
ENDBRANCH   6  11
ENDBRANCH   3   5
ENDBRANCH   2   3
ENDBRANCH   1   2
BRANCH   1  24
ATOM     24  C   UNL A   1      39.041  22.246  26.117  1.00  0.00     0.275 C 
BRANCH  24  25
ATOM     25  O   UNL A   1      39.091  23.581  26.662  1.00  0.00    -0.458 OA
BRANCH  25  26
ATOM     26  C   UNL A   1      40.107  23.875  27.508  1.00  0.00     0.338 C 
ATOM     27  O   UNL A   1      40.925  23.079  27.944  1.00  0.00    -0.246 OA
BRANCH  26  28
ATOM     28  C   UNL A   1      40.160  25.323  27.690  1.00  0.00     0.060 A 
ATOM     29  C   UNL A   1      40.475  26.189  26.628  1.00  0.00     0.016 A 
ATOM     30  C   UNL A   1      39.632  25.789  28.891  1.00  0.00     0.016 A 
ATOM     31  C   UNL A   1      40.241  27.546  26.774  1.00  0.00     0.010 A 
ATOM     32  C   UNL A   1      39.169  27.061  28.948  1.00  0.00     0.010 A 
ATOM     33  C   UNL A   1      39.634  27.947  27.964  1.00  0.00    -0.014 A 
BRANCH  33  34
ATOM     34  C   UNL A   1      40.008  29.173  28.643  1.00  0.00     0.031 A 
ATOM     35  C   UNL A   1      38.960  30.178  28.850  1.00  0.00     0.074 A 
ATOM     36  C   UNL A   1      41.100  28.875  29.400  1.00  0.00     0.049 A 
ATOM     37  N   UNL A   1      39.166  31.418  29.102  1.00  0.00    -0.248 NA
ATOM     38  C   UNL A   1      37.525  29.866  28.712  1.00  0.00     0.031 C 
ATOM     39  C   UNL A   1      41.506  29.246  30.743  1.00  0.00     0.029 A 
ATOM     40  N   UNL A   1      42.100  27.969  29.033  1.00  0.00    -0.354 N 
ATOM     41  C   UNL A   1      37.988  31.860  29.669  1.00  0.00     0.074 A 
ATOM     42  C   UNL A   1      36.957  30.989  29.164  1.00  0.00     0.031 C 
ATOM     43  C   UNL A   1      42.781  28.836  30.941  1.00  0.00     0.029 A 
ATOM     44  C   UNL A   1      43.279  28.245  29.701  1.00  0.00     0.049 A 
ATOM     45  H   UNL A   1      41.980  27.235  28.387  1.00  0.00     0.167 HD
ATOM     46  C   UNL A   1      38.038  32.620  30.800  1.00  0.00     0.034 A 
ATOM     47  C   UNL A   1      44.276  28.719  28.897  1.00  0.00     0.034 A 
ATOM     48  C   UNL A   1      39.421  32.688  31.288  1.00  0.00     0.049 A 
ATOM     49  C   UNL A   1      44.292  30.229  28.987  1.00  0.00     0.074 A 
ATOM     50  C   UNL A   1      40.076  32.054  32.332  1.00  0.00     0.029 A 
ATOM     51  N   UNL A   1      40.416  33.181  30.454  1.00  0.00    -0.354 N 
ATOM     52  N   UNL A   1      43.286  30.943  29.423  1.00  0.00    -0.248 NA
ATOM     53  C   UNL A   1      45.472  31.037  28.723  1.00  0.00     0.031 C 
ATOM     54  C   UNL A   1      41.477  32.123  32.078  1.00  0.00     0.029 A 
ATOM     55  C   UNL A   1      41.668  32.766  30.867  1.00  0.00     0.049 A 
ATOM     56  H   UNL A   1      40.252  33.753  29.669  1.00  0.00     0.167 HD
ATOM     57  C   UNL A   1      43.670  32.235  29.596  1.00  0.00     0.074 A 
ATOM     58  C   UNL A   1      45.050  32.248  29.130  1.00  0.00     0.031 C 
ATOM     59  C   UNL A   1      42.841  33.191  30.120  1.00  0.00     0.034 A 
BRANCH  46  60
ATOM     60  C   UNL A   1      36.845  32.971  31.653  1.00  0.00     0.023 A 
ATOM     61  C   UNL A   1      35.938  33.948  31.198  1.00  0.00     0.031 A 
ATOM     62  C   UNL A   1      36.503  32.346  32.870  1.00  0.00     0.131 A 
ATOM     63  C   UNL A   1      34.803  34.309  31.941  1.00  0.00     0.055 A 
ATOM     64  C   UNL A   1      35.388  32.729  33.632  1.00  0.00     0.041 A 
ATOM     65  F   UNL A   1      37.208  31.309  33.347  1.00  0.00    -0.206 F 
ATOM     66  C   UNL A   1      34.530  33.718  33.168  1.00  0.00     0.022 A 
BRANCH  63  67
ATOM     67  S   UNL A   1      33.665  35.532  31.237  1.00  0.00     0.124 S 
ATOM     68  O   UNL A   1      34.124  36.769  31.861  1.00  0.00    -0.237 OA
ATOM     69  O   UNL A   1      33.913  35.401  29.805  1.00  0.00    -0.237 OA
ATOM     70  O   UNL A   1      32.352  35.064  31.680  1.00  0.00    -0.744 OA
ENDBRANCH  63  67
ENDBRANCH  46  60
BRANCH  47  71
ATOM     71  C   UNL A   1      44.447  27.858  27.667  1.00  0.00     0.023 A 
ATOM     72  C   UNL A   1      45.012  26.575  27.878  1.00  0.00     0.031 A 
ATOM     73  C   UNL A   1      43.757  28.053  26.458  1.00  0.00     0.131 A 
ATOM     74  C   UNL A   1      44.773  25.513  26.990  1.00  0.00     0.055 A 
ATOM     75  C   UNL A   1      43.550  26.996  25.549  1.00  0.00     0.041 A 
ATOM     76  F   UNL A   1      43.176  29.230  26.185  1.00  0.00    -0.206 F 
ATOM     77  C   UNL A   1      44.022  25.710  25.832  1.00  0.00     0.022 A 
BRANCH  74  78
ATOM     78  S   UNL A   1      45.262  23.827  27.480  1.00  0.00     0.124 S 
ATOM     79  O   UNL A   1      46.563  23.689  26.835  1.00  0.00    -0.237 OA
ATOM     80  O   UNL A   1      45.280  23.903  28.939  1.00  0.00    -0.237 OA
ATOM     81  O   UNL A   1      44.204  22.996  26.922  1.00  0.00    -0.744 OA
ENDBRANCH  74  78
ENDBRANCH  47  71
BRANCH  59  82
ATOM     82  C   UNL A   1      43.100  34.664  30.008  1.00  0.00     0.023 A 
ATOM     83  C   UNL A   1      42.776  35.374  28.853  1.00  0.00     0.031 A 
ATOM     84  C   UNL A   1      43.577  35.427  31.100  1.00  0.00     0.131 A 
ATOM     85  C   UNL A   1      43.062  36.736  28.749  1.00  0.00     0.055 A 
ATOM     86  C   UNL A   1      43.718  36.813  31.044  1.00  0.00     0.041 A 
ATOM     87  F   UNL A   1      43.918  34.866  32.269  1.00  0.00    -0.206 F 
ATOM     88  C   UNL A   1      43.491  37.474  29.848  1.00  0.00     0.022 A 
BRANCH  85  89
ATOM     89  S   UNL A   1      43.007  37.457  27.097  1.00  0.00     0.124 S 
ATOM     90  O   UNL A   1      41.990  38.493  27.262  1.00  0.00    -0.237 OA
ATOM     91  O   UNL A   1      44.373  37.936  26.916  1.00  0.00    -0.237 OA
ATOM     92  O   UNL A   1      42.618  36.334  26.248  1.00  0.00    -0.744 OA
ENDBRANCH  85  89
ENDBRANCH  59  82
ENDBRANCH  33  34
ENDBRANCH  26  28
ENDBRANCH  25  26
ENDBRANCH  24  25
ENDBRANCH   1  24
TORSDOF 17
ENDMDL
MODEL 3
REMARK VINA RESULT:     -11.9      5.228     10.939
REMARK SMILES COc1ccc(NC(=O)c2nn(C)cc2C(=O)OCCOC(=O)c2ccc(-c3c4nc(c(-c5cc(S(=O)(=O)[O-])ccc5F)c5ccc([nH]5)c(-c5cc(S(=O)(=O)[O-])ccc5F)c5nc(c(-c6cc(S(=O)(=O)[O-])ccc6F)c6ccc3[nH]6)C=C5)C=C4)cc2)c(C)c1
REMARK SMILES IDX 19 1 18 2 16 3 17 4 15 5 10 6 11 7 12 8 14 9 13 10 8 11 7 12
REMARK SMILES IDX 9 14 6 15 3 16 4 17 89 18 5 19 87 20 88 21 2 22 1 23 20 24
REMARK SMILES IDX 21 25 22 26 23 27 24 28 25 29 86 30 26 31 85 32 27 33 28 34
REMARK SMILES IDX 29 35 79 36 30 37 84 38 78 39 80 40 31 41 83 42 77 43 76 44
REMARK SMILES IDX 32 46 64 47 44 48 63 49 45 50 48 51 62 52 81 53 46 54 47 55
REMARK SMILES IDX 61 57 82 58 49 59 33 60 34 61 42 62 35 63 41 64 43 65 40 66
REMARK SMILES IDX 36 67 37 68 38 69 39 70 65 71 66 72 74 73 67 74 73 75 75 76
REMARK SMILES IDX 72 77 68 78 69 79 70 80 71 81 50 82 51 83 59 84 52 85 58 86
REMARK SMILES IDX 60 87 57 88 53 89 54 90 55 91 56 92
REMARK H PARENT 7 13 80 45 48 56
REMARK Flexibility Score: inf
ROOT
ATOM      1  C   UNL A   1      40.308  21.796  26.009  1.00  0.00     0.275 C 
ENDROOT
BRANCH   1   2
ATOM      2  O   UNL A   1      41.671  21.518  25.547  1.00  0.00    -0.458 OA
BRANCH   2   3
ATOM      3  C   UNL A   1      42.482  20.713  26.266  1.00  0.00     0.342 C 
ATOM      4  O   UNL A   1      42.092  20.221  27.330  1.00  0.00    -0.246 OA
BRANCH   3   5
ATOM      5  C   UNL A   1      43.767  20.367  25.698  1.00  0.00     0.111 A 
ATOM      6  C   UNL A   1      44.665  21.111  24.833  1.00  0.00     0.165 A 
ATOM      7  N   UNL A   1      45.833  20.442  24.703  1.00  0.00    -0.167 NA
ATOM      8  N   UNL A   1      45.657  19.293  25.351  1.00  0.00    -0.274 N 
ATOM      9  C   UNL A   1      44.437  19.174  25.937  1.00  0.00     0.125 A 
ATOM     10  C   UNL A   1      46.766  18.374  25.428  1.00  0.00     0.173 C 
BRANCH   6  11
ATOM     11  C   UNL A   1      44.497  22.323  23.992  1.00  0.00     0.277 C 
ATOM     12  N   UNL A   1      44.535  23.624  24.450  1.00  0.00    -0.320 N 
ATOM     13  H   UNL A   1      44.348  24.294  23.753  1.00  0.00     0.170 HD
ATOM     14  O   UNL A   1      44.278  22.202  22.779  1.00  0.00    -0.267 OA
BRANCH  12  15
ATOM     15  C   UNL A   1      44.785  24.177  25.711  1.00  0.00     0.044 A 
ATOM     16  C   UNL A   1      44.767  24.587  28.465  1.00  0.00     0.119 A 
ATOM     17  C   UNL A   1      45.846  23.937  27.872  1.00  0.00     0.048 A 
ATOM     18  C   UNL A   1      43.840  25.247  27.658  1.00  0.00     0.052 A 
ATOM     19  C   UNL A   1      45.858  23.737  26.491  1.00  0.00     0.030 A 
ATOM     20  C   UNL A   1      43.854  25.083  26.257  1.00  0.00    -0.024 A 
ATOM     21  C   UNL A   1      42.794  25.813  25.465  1.00  0.00     0.047 C 
BRANCH  16  22
ATOM     22  O   UNL A   1      44.531  24.590  29.814  1.00  0.00    -0.497 OA
ATOM     23  C   UNL A   1      43.955  23.376  30.303  1.00  0.00     0.278 C 
ENDBRANCH  16  22
ENDBRANCH  12  15
ENDBRANCH   6  11
ENDBRANCH   3   5
ENDBRANCH   2   3
ENDBRANCH   1   2
BRANCH   1  24
ATOM     24  C   UNL A   1      39.950  22.691  27.252  1.00  0.00     0.275 C 
BRANCH  24  25
ATOM     25  O   UNL A   1      40.241  24.104  27.285  1.00  0.00    -0.458 OA
BRANCH  25  26
ATOM     26  C   UNL A   1      39.198  24.962  27.179  1.00  0.00     0.338 C 
ATOM     27  O   UNL A   1      38.118  24.712  26.665  1.00  0.00    -0.246 OA
BRANCH  26  28
ATOM     28  C   UNL A   1      39.519  26.181  27.917  1.00  0.00     0.060 A 
ATOM     29  C   UNL A   1      39.242  26.308  29.289  1.00  0.00     0.016 A 
ATOM     30  C   UNL A   1      40.337  27.083  27.241  1.00  0.00     0.016 A 
ATOM     31  C   UNL A   1      39.809  27.355  29.996  1.00  0.00     0.010 A 
ATOM     32  C   UNL A   1      41.089  27.947  27.966  1.00  0.00     0.010 A 
ATOM     33  C   UNL A   1      40.686  28.178  29.291  1.00  0.00    -0.014 A 
BRANCH  33  34
ATOM     34  C   UNL A   1      40.731  29.613  29.501  1.00  0.00     0.031 A 
ATOM     35  C   UNL A   1      39.510  30.375  29.225  1.00  0.00     0.074 A 
ATOM     36  C   UNL A   1      41.719  29.837  30.411  1.00  0.00     0.049 A 
ATOM     37  N   UNL A   1      39.460  31.640  29.019  1.00  0.00    -0.248 NA
ATOM     38  C   UNL A   1      38.190  29.732  29.080  1.00  0.00     0.031 C 
ATOM     39  C   UNL A   1      41.831  30.724  31.554  1.00  0.00     0.029 A 
ATOM     40  N   UNL A   1      42.904  29.098  30.499  1.00  0.00    -0.354 N 
ATOM     41  C   UNL A   1      38.148  31.984  29.272  1.00  0.00     0.074 A 
ATOM     42  C   UNL A   1      37.375  30.791  29.032  1.00  0.00     0.031 C 
ATOM     43  C   UNL A   1      43.107  30.694  32.006  1.00  0.00     0.029 A 
ATOM     44  C   UNL A   1      43.893  29.835  31.123  1.00  0.00     0.049 A 
ATOM     45  H   UNL A   1      43.017  28.180  30.161  1.00  0.00     0.167 HD
ATOM     46  C   UNL A   1      37.883  33.077  30.043  1.00  0.00     0.034 A 
ATOM     47  C   UNL A   1      44.915  30.208  30.296  1.00  0.00     0.034 A 
ATOM     48  C   UNL A   1      39.135  33.606  30.595  1.00  0.00     0.049 A 
ATOM     49  C   UNL A   1      44.661  31.623  29.824  1.00  0.00     0.074 A 
ATOM     50  C   UNL A   1      39.707  33.527  31.856  1.00  0.00     0.029 A 
ATOM     51  N   UNL A   1      40.156  33.986  29.734  1.00  0.00    -0.354 N 
ATOM     52  N   UNL A   1      43.492  32.207  29.871  1.00  0.00    -0.248 NA
ATOM     53  C   UNL A   1      45.716  32.526  29.390  1.00  0.00     0.031 C 
ATOM     54  C   UNL A   1      41.099  33.806  31.724  1.00  0.00     0.029 A 
ATOM     55  C   UNL A   1      41.375  34.019  30.384  1.00  0.00     0.049 A 
ATOM     56  H   UNL A   1      40.029  34.204  28.782  1.00  0.00     0.167 HD
ATOM     57  C   UNL A   1      43.618  33.531  29.588  1.00  0.00     0.074 A 
ATOM     58  C   UNL A   1      45.035  33.681  29.280  1.00  0.00     0.031 C 
ATOM     59  C   UNL A   1      42.566  34.405  29.644  1.00  0.00     0.034 A 
BRANCH  46  60
ATOM     60  C   UNL A   1      36.524  33.433  30.592  1.00  0.00     0.023 A 
ATOM     61  C   UNL A   1      35.651  34.218  29.813  1.00  0.00     0.031 A 
ATOM     62  C   UNL A   1      36.001  32.984  31.822  1.00  0.00     0.131 A 
ATOM     63  C   UNL A   1      34.370  34.572  30.264  1.00  0.00     0.055 A 
ATOM     64  C   UNL A   1      34.734  33.364  32.291  1.00  0.00     0.041 A 
ATOM     65  F   UNL A   1      36.676  32.121  32.597  1.00  0.00    -0.206 F 
ATOM     66  C   UNL A   1      33.909  34.164  31.510  1.00  0.00     0.022 A 
BRANCH  63  67
ATOM     67  S   UNL A   1      33.300  35.532  29.159  1.00  0.00     0.124 S 
ATOM     68  O   UNL A   1      32.512  34.486  28.516  1.00  0.00    -0.237 OA
ATOM     69  O   UNL A   1      32.586  36.398  30.091  1.00  0.00    -0.237 OA
ATOM     70  O   UNL A   1      34.250  36.219  28.285  1.00  0.00    -0.744 OA
ENDBRANCH  63  67
ENDBRANCH  46  60
BRANCH  47  71
ATOM     71  C   UNL A   1      45.428  29.036  29.492  1.00  0.00     0.023 A 
ATOM     72  C   UNL A   1      45.418  29.195  28.083  1.00  0.00     0.031 A 
ATOM     73  C   UNL A   1      46.245  28.016  30.007  1.00  0.00     0.131 A 
ATOM     74  C   UNL A   1      46.290  28.465  27.257  1.00  0.00     0.055 A 
ATOM     75  C   UNL A   1      47.092  27.258  29.173  1.00  0.00     0.041 A 
ATOM     76  F   UNL A   1      46.328  27.809  31.329  1.00  0.00    -0.206 F 
ATOM     77  C   UNL A   1      47.148  27.510  27.798  1.00  0.00     0.022 A 
BRANCH  74  78
ATOM     78  S   UNL A   1      46.446  28.940  25.504  1.00  0.00     0.124 S 
ATOM     79  O   UNL A   1      47.796  28.488  25.186  1.00  0.00    -0.237 OA
ATOM     80  O   UNL A   1      45.360  28.202  24.867  1.00  0.00    -0.237 OA
ATOM     81  O   UNL A   1      46.271  30.387  25.533  1.00  0.00    -0.744 OA
ENDBRANCH  74  78
ENDBRANCH  47  71
BRANCH  59  82
ATOM     82  C   UNL A   1      42.588  35.769  29.021  1.00  0.00     0.023 A 
ATOM     83  C   UNL A   1      43.237  36.839  29.635  1.00  0.00     0.031 A 
ATOM     84  C   UNL A   1      42.055  36.014  27.734  1.00  0.00     0.131 A 
ATOM     85  C   UNL A   1      43.211  38.112  29.063  1.00  0.00     0.055 A 
ATOM     86  C   UNL A   1      42.166  37.249  27.097  1.00  0.00     0.041 A 
ATOM     87  F   UNL A   1      41.413  35.067  27.034  1.00  0.00    -0.206 F 
ATOM     88  C   UNL A   1      42.719  38.321  27.778  1.00  0.00     0.022 A 
BRANCH  85  89
ATOM     89  S   UNL A   1      43.693  39.491  30.121  1.00  0.00     0.124 S 
ATOM     90  O   UNL A   1      42.557  40.396  29.959  1.00  0.00    -0.237 OA
ATOM     91  O   UNL A   1      43.816  38.859  31.429  1.00  0.00    -0.237 OA
ATOM     92  O   UNL A   1      44.945  39.954  29.528  1.00  0.00    -0.744 OA
ENDBRANCH  85  89
ENDBRANCH  59  82
ENDBRANCH  33  34
ENDBRANCH  26  28
ENDBRANCH  25  26
ENDBRANCH  24  25
ENDBRANCH   1  24
TORSDOF 17
ENDMDL
