MODEL 1
REMARK VINA RESULT:     -12.8      0.000      0.000
REMARK SMILES C[C@H]1CC[C@@](Nc2ccc(C(N)=O)nn2)(C(=O)OCCOC(=O)c2ccc(-c3c4nc(c(-c5cc(S(=O)(=O)[O-])ccc5F)c5ccc([nH]5)c(-c5cc(S(=O)(=O)[O-])ccc5F)c5nc(c(-c6cc(S(=O)(=O)[O-])ccc6F)c6ccc3[nH]6)C=C5)C=C4)cc2)CC1
REMARK SMILES IDX 19 1 18 2 16 3 17 4 5 5 1 6 2 7 88 8 3 9 87 10 4 11 6 12
REMARK SMILES IDX 7 14 8 15 15 16 9 17 14 18 10 19 11 20 12 21 13 22 20 25
REMARK SMILES IDX 21 26 22 27 23 28 24 29 25 30 86 31 26 32 85 33 27 34 28 35
REMARK SMILES IDX 29 36 79 37 30 38 84 39 78 40 80 41 31 42 83 43 77 44 76 45
REMARK SMILES IDX 32 47 64 48 44 49 63 50 45 51 48 52 62 53 81 54 46 55 47 56
REMARK SMILES IDX 61 58 82 59 49 60 33 61 34 62 42 63 35 64 41 65 43 66 40 67
REMARK SMILES IDX 36 68 37 69 38 70 39 71 65 72 66 73 74 74 67 75 73 76 75 77
REMARK SMILES IDX 72 78 68 79 69 80 70 81 71 82 50 83 51 84 59 85 52 86 58 87
REMARK SMILES IDX 60 88 57 89 53 90 54 91 55 92 56 93
REMARK H PARENT 6 13 12 23 12 24 80 46 48 57
REMARK Flexibility Score: inf
ROOT
ATOM      1  C   UNL A   1      35.572  20.348  25.024  1.00  0.00     0.274 C 
ENDROOT
BRANCH   1   2
ATOM      2  O   UNL A   1      34.748  21.518  25.216  1.00  0.00    -0.460 OA
BRANCH   2   3
ATOM      3  C   UNL A   1      34.131  21.976  24.090  1.00  0.00     0.331 C 
ATOM      4  O   UNL A   1      34.721  22.597  23.210  1.00  0.00    -0.249 OA
BRANCH   3   5
ATOM      5  C   UNL A   1      32.581  21.779  24.099  1.00  0.00     0.137 C 
ATOM      6  C   UNL A   1      31.675  25.435  26.415  1.00  0.00     0.007 C 
ATOM      7  C   UNL A   1      31.442  24.134  25.641  1.00  0.00    -0.014 C 
ATOM      8  C   UNL A   1      32.156  22.976  26.332  1.00  0.00     0.006 C 
ATOM      9  C   UNL A   1      31.933  24.278  24.198  1.00  0.00     0.006 C 
ATOM     10  C   UNL A   1      32.082  21.657  25.559  1.00  0.00     0.041 C 
ATOM     11  C   UNL A   1      31.833  22.961  23.427  1.00  0.00     0.041 C 
BRANCH   5  12
ATOM     12  N   UNL A   1      32.177  20.529  23.371  1.00  0.00    -0.353 N 
ATOM     13  H   UNL A   1      31.636  20.604  22.552  1.00  0.00     0.163 HD
BRANCH  12  14
ATOM     14  C   UNL A   1      32.546  19.273  23.823  1.00  0.00     0.149 A 
ATOM     15  C   UNL A   1      33.164  18.328  23.016  1.00  0.00     0.051 A 
ATOM     16  N   UNL A   1      32.206  18.960  25.091  1.00  0.00    -0.132 NA
ATOM     17  C   UNL A   1      33.315  17.019  23.472  1.00  0.00     0.040 A 
ATOM     18  N   UNL A   1      32.364  17.681  25.565  1.00  0.00    -0.143 NA
ATOM     19  C   UNL A   1      32.882  16.733  24.749  1.00  0.00     0.150 A 
BRANCH  19  20
ATOM     20  C   UNL A   1      32.921  15.343  25.289  1.00  0.00     0.269 C 
ATOM     21  N   UNL A   1      31.712  14.821  25.677  1.00  0.00    -0.364 N 
ATOM     22  O   UNL A   1      33.950  14.693  25.372  1.00  0.00    -0.268 OA
ATOM     23  H   UNL A   1      30.895  15.364  25.601  1.00  0.00     0.160 HD
ATOM     24  H   UNL A   1      31.664  13.904  26.033  1.00  0.00     0.160 HD
ENDBRANCH  19  20
ENDBRANCH  12  14
ENDBRANCH   5  12
ENDBRANCH   3   5
ENDBRANCH   2   3
ENDBRANCH   1   2
BRANCH   1  25
ATOM     25  C   UNL A   1      37.016  20.702  24.664  1.00  0.00     0.275 C 
BRANCH  25  26
ATOM     26  O   UNL A   1      37.527  21.701  25.564  1.00  0.00    -0.458 OA
BRANCH  26  27
ATOM     27  C   UNL A   1      38.800  21.526  25.997  1.00  0.00     0.338 C 
ATOM     28  O   UNL A   1      39.486  20.531  25.818  1.00  0.00    -0.246 OA
BRANCH  27  29
ATOM     29  C   UNL A   1      39.304  22.742  26.686  1.00  0.00     0.060 A 
ATOM     30  C   UNL A   1      38.802  24.003  26.382  1.00  0.00     0.016 A 
ATOM     31  C   UNL A   1      40.404  22.649  27.541  1.00  0.00     0.016 A 
ATOM     32  C   UNL A   1      39.491  25.152  26.765  1.00  0.00     0.010 A 
ATOM     33  C   UNL A   1      40.996  23.812  28.060  1.00  0.00     0.010 A 
ATOM     34  C   UNL A   1      40.584  25.088  27.639  1.00  0.00    -0.014 A 
BRANCH  34  35
ATOM     35  C   UNL A   1      41.294  26.337  28.064  1.00  0.00     0.031 A 
ATOM     36  C   UNL A   1      40.586  27.379  28.900  1.00  0.00     0.074 A 
ATOM     37  C   UNL A   1      42.588  26.545  27.735  1.00  0.00     0.049 A 
ATOM     38  N   UNL A   1      40.933  28.617  29.154  1.00  0.00    -0.248 NA
ATOM     39  C   UNL A   1      39.307  26.985  29.511  1.00  0.00     0.031 C 
ATOM     40  C   UNL A   1      43.434  25.619  26.976  1.00  0.00     0.029 A 
ATOM     41  N   UNL A   1      43.434  27.593  28.014  1.00  0.00    -0.354 N 
ATOM     42  C   UNL A   1      39.877  29.175  29.871  1.00  0.00     0.074 A 
ATOM     43  C   UNL A   1      38.883  28.133  30.021  1.00  0.00     0.031 C 
ATOM     44  C   UNL A   1      44.684  26.096  26.926  1.00  0.00     0.029 A 
ATOM     45  C   UNL A   1      44.705  27.428  27.511  1.00  0.00     0.049 A 
ATOM     46  H   UNL A   1      43.156  28.387  28.526  1.00  0.00     0.167 HD
ATOM     47  C   UNL A   1      39.749  30.441  30.345  1.00  0.00     0.034 A 
ATOM     48  C   UNL A   1      45.757  28.269  27.453  1.00  0.00     0.034 A 
ATOM     49  C   UNL A   1      40.787  31.443  30.255  1.00  0.00     0.049 A 
ATOM     50  C   UNL A   1      45.592  29.666  27.979  1.00  0.00     0.074 A 
ATOM     51  C   UNL A   1      40.768  32.751  30.712  1.00  0.00     0.029 A 
ATOM     52  N   UNL A   1      42.042  31.245  29.691  1.00  0.00    -0.354 N 
ATOM     53  N   UNL A   1      44.540  30.220  28.535  1.00  0.00    -0.248 NA
ATOM     54  C   UNL A   1      46.748  30.559  27.841  1.00  0.00     0.031 C 
ATOM     55  C   UNL A   1      41.987  33.356  30.378  1.00  0.00     0.029 A 
ATOM     56  C   UNL A   1      42.796  32.408  29.773  1.00  0.00     0.049 A 
ATOM     57  H   UNL A   1      42.351  30.401  29.289  1.00  0.00     0.167 HD
ATOM     58  C   UNL A   1      44.904  31.536  28.797  1.00  0.00     0.074 A 
ATOM     59  C   UNL A   1      46.287  31.675  28.385  1.00  0.00     0.031 C 
ATOM     60  C   UNL A   1      44.159  32.544  29.318  1.00  0.00     0.034 A 
BRANCH  47  61
ATOM     61  C   UNL A   1      38.414  30.839  30.934  1.00  0.00     0.023 A 
ATOM     62  C   UNL A   1      37.397  31.440  30.174  1.00  0.00     0.031 A 
ATOM     63  C   UNL A   1      38.167  30.623  32.304  1.00  0.00     0.131 A 
ATOM     64  C   UNL A   1      36.209  31.858  30.798  1.00  0.00     0.055 A 
ATOM     65  C   UNL A   1      36.955  30.972  32.902  1.00  0.00     0.041 A 
ATOM     66  F   UNL A   1      39.107  30.072  33.088  1.00  0.00    -0.206 F 
ATOM     67  C   UNL A   1      35.972  31.606  32.152  1.00  0.00     0.022 A 
BRANCH  64  68
ATOM     68  S   UNL A   1      35.030  32.858  29.848  1.00  0.00     0.124 S 
ATOM     69  O   UNL A   1      34.508  31.877  28.898  1.00  0.00    -0.237 OA
ATOM     70  O   UNL A   1      34.099  33.309  30.875  1.00  0.00    -0.237 OA
ATOM     71  O   UNL A   1      35.862  33.904  29.257  1.00  0.00    -0.744 OA
ENDBRANCH  64  68
ENDBRANCH  47  61
BRANCH  48  72
ATOM     72  C   UNL A   1      47.019  27.847  26.778  1.00  0.00     0.023 A 
ATOM     73  C   UNL A   1      47.158  27.922  25.384  1.00  0.00     0.031 A 
ATOM     74  C   UNL A   1      48.103  27.347  27.522  1.00  0.00     0.131 A 
ATOM     75  C   UNL A   1      48.346  27.484  24.776  1.00  0.00     0.055 A 
ATOM     76  C   UNL A   1      49.303  26.970  26.921  1.00  0.00     0.041 A 
ATOM     77  F   UNL A   1      48.021  27.247  28.859  1.00  0.00    -0.206 F 
ATOM     78  C   UNL A   1      49.426  27.029  25.537  1.00  0.00     0.022 A 
BRANCH  75  79
ATOM     79  S   UNL A   1      48.440  27.456  22.965  1.00  0.00     0.124 S 
ATOM     80  O   UNL A   1      47.254  28.217  22.593  1.00  0.00    -0.237 OA
ATOM     81  O   UNL A   1      49.723  28.105  22.718  1.00  0.00    -0.237 OA
ATOM     82  O   UNL A   1      48.394  26.031  22.643  1.00  0.00    -0.744 OA
ENDBRANCH  75  79
ENDBRANCH  48  72
BRANCH  60  83
ATOM     83  C   UNL A   1      44.852  33.876  29.468  1.00  0.00     0.023 A 
ATOM     84  C   UNL A   1      44.916  34.789  28.399  1.00  0.00     0.031 A 
ATOM     85  C   UNL A   1      45.520  34.202  30.659  1.00  0.00     0.131 A 
ATOM     86  C   UNL A   1      45.697  35.947  28.517  1.00  0.00     0.055 A 
ATOM     87  C   UNL A   1      46.245  35.387  30.792  1.00  0.00     0.041 A 
ATOM     88  F   UNL A   1      45.495  33.364  31.708  1.00  0.00    -0.206 F 
ATOM     89  C   UNL A   1      46.353  36.258  29.711  1.00  0.00     0.022 A 
BRANCH  86  90
ATOM     90  S   UNL A   1      45.954  36.975  27.044  1.00  0.00     0.124 S 
ATOM     91  O   UNL A   1      47.154  37.726  27.403  1.00  0.00    -0.237 OA
ATOM     92  O   UNL A   1      46.116  35.977  25.992  1.00  0.00    -0.237 OA
ATOM     93  O   UNL A   1      44.728  37.768  26.962  1.00  0.00    -0.744 OA
ENDBRANCH  86  90
ENDBRANCH  60  83
ENDBRANCH  34  35
ENDBRANCH  27  29
ENDBRANCH  26  27
ENDBRANCH  25  26
ENDBRANCH   1  25
TORSDOF 17
ENDMDL
MODEL 2
REMARK VINA RESULT:     -12.7      1.658      2.064
REMARK SMILES C[C@H]1CC[C@@](Nc2ccc(C(N)=O)nn2)(C(=O)OCCOC(=O)c2ccc(-c3c4nc(c(-c5cc(S(=O)(=O)[O-])ccc5F)c5ccc([nH]5)c(-c5cc(S(=O)(=O)[O-])ccc5F)c5nc(c(-c6cc(S(=O)(=O)[O-])ccc6F)c6ccc3[nH]6)C=C5)C=C4)cc2)CC1
REMARK SMILES IDX 19 1 18 2 16 3 17 4 5 5 1 6 2 7 88 8 3 9 87 10 4 11 6 12
REMARK SMILES IDX 7 14 8 15 15 16 9 17 14 18 10 19 11 20 12 21 13 22 20 25
REMARK SMILES IDX 21 26 22 27 23 28 24 29 25 30 86 31 26 32 85 33 27 34 28 35
REMARK SMILES IDX 29 36 79 37 30 38 84 39 78 40 80 41 31 42 83 43 77 44 76 45
REMARK SMILES IDX 32 47 64 48 44 49 63 50 45 51 48 52 62 53 81 54 46 55 47 56
REMARK SMILES IDX 61 58 82 59 49 60 33 61 34 62 42 63 35 64 41 65 43 66 40 67
REMARK SMILES IDX 36 68 37 69 38 70 39 71 65 72 66 73 74 74 67 75 73 76 75 77
REMARK SMILES IDX 72 78 68 79 69 80 70 81 71 82 50 83 51 84 59 85 52 86 58 87
REMARK SMILES IDX 60 88 57 89 53 90 54 91 55 92 56 93
REMARK H PARENT 6 13 12 23 12 24 80 46 48 57
REMARK Flexibility Score: inf
ROOT
ATOM      1  C   UNL A   1      35.363  21.768  26.593  1.00  0.00     0.274 C 
ENDROOT
BRANCH   1   2
ATOM      2  O   UNL A   1      34.677  22.976  26.195  1.00  0.00    -0.460 OA
BRANCH   2   3
ATOM      3  C   UNL A   1      33.388  23.073  26.629  1.00  0.00     0.331 C 
ATOM      4  O   UNL A   1      33.037  22.749  27.759  1.00  0.00    -0.249 OA
BRANCH   3   5
ATOM      5  C   UNL A   1      32.379  23.481  25.508  1.00  0.00     0.137 C 
ATOM      6  C   UNL A   1      33.707  27.688  25.214  1.00  0.00     0.007 C 
ATOM      7  C   UNL A   1      32.907  26.414  24.926  1.00  0.00    -0.014 C 
ATOM      8  C   UNL A   1      32.184  25.950  26.187  1.00  0.00     0.006 C 
ATOM      9  C   UNL A   1      33.834  25.311  24.407  1.00  0.00     0.006 C 
ATOM     10  C   UNL A   1      31.459  24.613  26.025  1.00  0.00     0.041 C 
ATOM     11  C   UNL A   1      33.095  23.984  24.226  1.00  0.00     0.041 C 
BRANCH   5  12
ATOM     12  N   UNL A   1      31.505  22.328  25.103  1.00  0.00    -0.353 N 
ATOM     13  H   UNL A   1      30.526  22.438  25.122  1.00  0.00     0.163 HD
BRANCH  12  14
ATOM     14  C   UNL A   1      32.040  21.115  24.705  1.00  0.00     0.149 A 
ATOM     15  C   UNL A   1      32.255  20.780  23.375  1.00  0.00     0.051 A 
ATOM     16  N   UNL A   1      32.284  20.210  25.677  1.00  0.00    -0.132 NA
ATOM     17  C   UNL A   1      32.596  19.472  23.036  1.00  0.00     0.040 A 
ATOM     18  N   UNL A   1      32.639  18.922  25.364  1.00  0.00    -0.143 NA
ATOM     19  C   UNL A   1      32.758  18.566  24.062  1.00  0.00     0.150 A 
BRANCH  19  20
ATOM     20  C   UNL A   1      33.036  17.126  23.791  1.00  0.00     0.269 C 
ATOM     21  N   UNL A   1      32.351  16.230  24.574  1.00  0.00    -0.364 N 
ATOM     22  O   UNL A   1      33.807  16.752  22.923  1.00  0.00    -0.268 OA
ATOM     23  H   UNL A   1      31.735  16.556  25.269  1.00  0.00     0.160 HD
ATOM     24  H   UNL A   1      32.478  15.263  24.442  1.00  0.00     0.160 HD
ENDBRANCH  19  20
ENDBRANCH  12  14
ENDBRANCH   5  12
ENDBRANCH   3   5
ENDBRANCH   2   3
ENDBRANCH   1   2
BRANCH   1  25
ATOM     25  C   UNL A   1      35.941  21.005  25.400  1.00  0.00     0.275 C 
BRANCH  25  26
ATOM     26  O   UNL A   1      37.141  21.642  24.929  1.00  0.00    -0.458 OA
BRANCH  26  27
ATOM     27  C   UNL A   1      38.295  21.281  25.543  1.00  0.00     0.338 C 
ATOM     28  O   UNL A   1      38.818  20.178  25.491  1.00  0.00    -0.246 OA
BRANCH  27  29
ATOM     29  C   UNL A   1      38.902  22.430  26.264  1.00  0.00     0.060 A 
ATOM     30  C   UNL A   1      38.437  23.728  26.072  1.00  0.00     0.016 A 
ATOM     31  C   UNL A   1      40.054  22.240  27.029  1.00  0.00     0.016 A 
ATOM     32  C   UNL A   1      39.204  24.821  26.469  1.00  0.00     0.010 A 
ATOM     33  C   UNL A   1      40.734  23.343  27.570  1.00  0.00     0.010 A 
ATOM     34  C   UNL A   1      40.351  24.659  27.255  1.00  0.00    -0.014 A 
BRANCH  34  35
ATOM     35  C   UNL A   1      41.146  25.849  27.700  1.00  0.00     0.031 A 
ATOM     36  C   UNL A   1      40.527  26.898  28.595  1.00  0.00     0.074 A 
ATOM     37  C   UNL A   1      42.439  25.994  27.335  1.00  0.00     0.049 A 
ATOM     38  N   UNL A   1      40.953  28.104  28.879  1.00  0.00    -0.248 NA
ATOM     39  C   UNL A   1      39.246  26.556  29.234  1.00  0.00     0.031 C 
ATOM     40  C   UNL A   1      43.206  25.049  26.517  1.00  0.00     0.029 A 
ATOM     41  N   UNL A   1      43.353  26.981  27.622  1.00  0.00    -0.354 N 
ATOM     42  C   UNL A   1      39.955  28.695  29.650  1.00  0.00     0.074 A 
ATOM     43  C   UNL A   1      38.906  27.707  29.797  1.00  0.00     0.031 C 
ATOM     44  C   UNL A   1      44.480  25.455  26.442  1.00  0.00     0.029 A 
ATOM     45  C   UNL A   1      44.596  26.762  27.072  1.00  0.00     0.049 A 
ATOM     46  H   UNL A   1      43.138  27.770  28.170  1.00  0.00     0.167 HD
ATOM     47  C   UNL A   1      39.916  29.948  30.172  1.00  0.00     0.034 A 
ATOM     48  C   UNL A   1      45.693  27.542  27.008  1.00  0.00     0.034 A 
ATOM     49  C   UNL A   1      41.007  30.892  30.082  1.00  0.00     0.049 A 
ATOM     50  C   UNL A   1      45.627  28.927  27.587  1.00  0.00     0.074 A 
ATOM     51  C   UNL A   1      41.079  32.181  30.584  1.00  0.00     0.029 A 
ATOM     52  N   UNL A   1      42.230  30.643  29.470  1.00  0.00    -0.354 N 
ATOM     53  N   UNL A   1      44.626  29.520  28.196  1.00  0.00    -0.248 NA
ATOM     54  C   UNL A   1      46.828  29.757  27.441  1.00  0.00     0.031 C 
ATOM     55  C   UNL A   1      42.320  32.727  30.231  1.00  0.00     0.029 A 
ATOM     56  C   UNL A   1      43.053  31.757  29.567  1.00  0.00     0.049 A 
ATOM     57  H   UNL A   1      42.477  29.798  29.029  1.00  0.00     0.167 HD
ATOM     58  C   UNL A   1      45.075  30.802  28.492  1.00  0.00     0.074 A 
ATOM     59  C   UNL A   1      46.450  30.877  28.038  1.00  0.00     0.031 C 
ATOM     60  C   UNL A   1      44.406  31.832  29.072  1.00  0.00     0.034 A 
BRANCH  47  61
ATOM     61  C   UNL A   1      38.625  30.400  30.818  1.00  0.00     0.023 A 
ATOM     62  C   UNL A   1      37.601  31.042  30.102  1.00  0.00     0.031 A 
ATOM     63  C   UNL A   1      38.431  30.195  32.198  1.00  0.00     0.131 A 
ATOM     64  C   UNL A   1      36.460  31.508  30.778  1.00  0.00     0.055 A 
ATOM     65  C   UNL A   1      37.262  30.593  32.849  1.00  0.00     0.041 A 
ATOM     66  F   UNL A   1      39.381  29.606  32.941  1.00  0.00    -0.206 F 
ATOM     67  C   UNL A   1      36.272  31.266  32.141  1.00  0.00     0.022 A 
BRANCH  64  68
ATOM     68  S   UNL A   1      35.281  32.555  29.879  1.00  0.00     0.124 S 
ATOM     69  O   UNL A   1      34.762  31.625  28.879  1.00  0.00    -0.237 OA
ATOM     70  O   UNL A   1      34.348  32.951  30.927  1.00  0.00    -0.237 OA
ATOM     71  O   UNL A   1      36.114  33.631  29.345  1.00  0.00    -0.744 OA
ENDBRANCH  64  68
ENDBRANCH  47  61
BRANCH  48  72
ATOM     72  C   UNL A   1      46.907  27.074  26.276  1.00  0.00     0.023 A 
ATOM     73  C   UNL A   1      47.967  26.450  26.950  1.00  0.00     0.031 A 
ATOM     74  C   UNL A   1      47.028  27.262  24.887  1.00  0.00     0.131 A 
ATOM     75  C   UNL A   1      49.109  26.053  26.238  1.00  0.00     0.055 A 
ATOM     76  C   UNL A   1      48.139  26.812  24.173  1.00  0.00     0.041 A 
ATOM     77  F   UNL A   1      46.046  27.861  24.193  1.00  0.00    -0.206 F 
ATOM     78  C   UNL A   1      49.193  26.210  24.852  1.00  0.00     0.022 A 
BRANCH  75  79
ATOM     79  S   UNL A   1      50.522  25.383  27.157  1.00  0.00     0.124 S 
ATOM     80  O   UNL A   1      50.930  26.533  27.956  1.00  0.00    -0.237 OA
ATOM     81  O   UNL A   1      49.911  24.278  27.888  1.00  0.00    -0.237 OA
ATOM     82  O   UNL A   1      51.458  24.989  26.106  1.00  0.00    -0.744 OA
ENDBRANCH  75  79
ENDBRANCH  48  72
BRANCH  60  83
ATOM     83  C   UNL A   1      45.180  33.115  29.244  1.00  0.00     0.023 A 
ATOM     84  C   UNL A   1      45.135  34.131  28.272  1.00  0.00     0.031 A 
ATOM     85  C   UNL A   1      46.030  33.292  30.348  1.00  0.00     0.131 A 
ATOM     86  C   UNL A   1      45.982  35.242  28.382  1.00  0.00     0.055 A 
ATOM     87  C   UNL A   1      46.826  34.430  30.485  1.00  0.00     0.041 A 
ATOM     88  F   UNL A   1      46.116  32.352  31.302  1.00  0.00    -0.206 F 
ATOM     89  C   UNL A   1      46.820  35.404  29.490  1.00  0.00     0.022 A 
BRANCH  86  90
ATOM     90  S   UNL A   1      46.074  36.407  26.994  1.00  0.00     0.124 S 
ATOM     91  O   UNL A   1      46.595  35.562  25.923  1.00  0.00    -0.237 OA
ATOM     92  O   UNL A   1      44.686  36.834  26.854  1.00  0.00    -0.237 OA
ATOM     93  O   UNL A   1      46.995  37.437  27.473  1.00  0.00    -0.744 OA
ENDBRANCH  86  90
ENDBRANCH  60  83
ENDBRANCH  34  35
ENDBRANCH  27  29
ENDBRANCH  26  27
ENDBRANCH  25  26
ENDBRANCH   1  25
TORSDOF 17
ENDMDL
MODEL 3
REMARK VINA RESULT:     -12.3      5.733     10.709
REMARK SMILES C[C@H]1CC[C@@](Nc2ccc(C(N)=O)nn2)(C(=O)OCCOC(=O)c2ccc(-c3c4nc(c(-c5cc(S(=O)(=O)[O-])ccc5F)c5ccc([nH]5)c(-c5cc(S(=O)(=O)[O-])ccc5F)c5nc(c(-c6cc(S(=O)(=O)[O-])ccc6F)c6ccc3[nH]6)C=C5)C=C4)cc2)CC1
REMARK SMILES IDX 19 1 18 2 16 3 17 4 5 5 1 6 2 7 88 8 3 9 87 10 4 11 6 12
REMARK SMILES IDX 7 14 8 15 15 16 9 17 14 18 10 19 11 20 12 21 13 22 20 25
REMARK SMILES IDX 21 26 22 27 23 28 24 29 25 30 86 31 26 32 85 33 27 34 28 35
REMARK SMILES IDX 29 36 79 37 30 38 84 39 78 40 80 41 31 42 83 43 77 44 76 45
REMARK SMILES IDX 32 47 64 48 44 49 63 50 45 51 48 52 62 53 81 54 46 55 47 56
REMARK SMILES IDX 61 58 82 59 49 60 33 61 34 62 42 63 35 64 41 65 43 66 40 67
REMARK SMILES IDX 36 68 37 69 38 70 39 71 65 72 66 73 74 74 67 75 73 76 75 77
REMARK SMILES IDX 72 78 68 79 69 80 70 81 71 82 50 83 51 84 59 85 52 86 58 87
REMARK SMILES IDX 60 88 57 89 53 90 54 91 55 92 56 93
REMARK H PARENT 6 13 12 23 12 24 80 46 48 57
REMARK Flexibility Score: inf
ROOT
ATOM      1  C   UNL A   1      31.687  28.197  26.808  1.00  0.00     0.274 C 
ENDROOT
BRANCH   1   2
ATOM      2  O   UNL A   1      32.083  27.371  25.692  1.00  0.00    -0.460 OA
BRANCH   2   3
ATOM      3  C   UNL A   1      31.159  26.444  25.309  1.00  0.00     0.331 C 
ATOM      4  O   UNL A   1      30.273  26.036  26.053  1.00  0.00    -0.249 OA
BRANCH   3   5
ATOM      5  C   UNL A   1      31.432  25.835  23.895  1.00  0.00     0.137 C 
ATOM      6  C   UNL A   1      33.065  21.998  25.363  1.00  0.00     0.007 C 
ATOM      7  C   UNL A   1      32.612  23.080  24.378  1.00  0.00    -0.014 C 
ATOM      8  C   UNL A   1      33.413  24.360  24.599  1.00  0.00     0.006 C 
ATOM      9  C   UNL A   1      31.115  23.354  24.540  1.00  0.00     0.006 C 
ATOM     10  C   UNL A   1      32.942  25.537  23.741  1.00  0.00     0.041 C 
ATOM     11  C   UNL A   1      30.649  24.516  23.662  1.00  0.00     0.041 C 
BRANCH   5  12
ATOM     12  N   UNL A   1      31.038  26.783  22.798  1.00  0.00    -0.353 N 
ATOM     13  H   UNL A   1      31.408  26.654  21.895  1.00  0.00     0.163 HD
BRANCH  12  14
ATOM     14  C   UNL A   1      30.168  27.836  23.026  1.00  0.00     0.149 A 
ATOM     15  C   UNL A   1      28.793  27.676  23.127  1.00  0.00     0.051 A 
ATOM     16  N   UNL A   1      30.709  29.073  23.071  1.00  0.00    -0.132 NA
ATOM     17  C   UNL A   1      27.963  28.796  23.145  1.00  0.00     0.040 A 
ATOM     18  N   UNL A   1      29.909  30.188  23.107  1.00  0.00    -0.143 NA
ATOM     19  C   UNL A   1      28.563  30.037  23.112  1.00  0.00     0.150 A 
BRANCH  19  20
ATOM     20  C   UNL A   1      27.755  31.289  23.039  1.00  0.00     0.269 C 
ATOM     21  N   UNL A   1      28.016  32.102  21.964  1.00  0.00    -0.364 N 
ATOM     22  O   UNL A   1      26.904  31.578  23.863  1.00  0.00    -0.268 OA
ATOM     23  H   UNL A   1      28.708  31.849  21.311  1.00  0.00     0.160 HD
ATOM     24  H   UNL A   1      27.511  32.940  21.847  1.00  0.00     0.160 HD
ENDBRANCH  19  20
ENDBRANCH  12  14
ENDBRANCH   5  12
ENDBRANCH   3   5
ENDBRANCH   2   3
ENDBRANCH   1   2
BRANCH   1  25
ATOM     25  C   UNL A   1      31.582  29.677  26.432  1.00  0.00     0.275 C 
BRANCH  25  26
ATOM     26  O   UNL A   1      32.887  30.222  26.170  1.00  0.00    -0.458 OA
BRANCH  26  27
ATOM     27  C   UNL A   1      33.324  31.177  27.027  1.00  0.00     0.338 C 
ATOM     28  O   UNL A   1      32.674  32.131  27.427  1.00  0.00    -0.246 OA
BRANCH  27  29
ATOM     29  C   UNL A   1      34.709  30.893  27.486  1.00  0.00     0.060 A 
ATOM     30  C   UNL A   1      35.159  29.588  27.655  1.00  0.00     0.016 A 
ATOM     31  C   UNL A   1      35.530  31.943  27.903  1.00  0.00     0.016 A 
ATOM     32  C   UNL A   1      36.311  29.326  28.394  1.00  0.00     0.010 A 
ATOM     33  C   UNL A   1      36.772  31.674  28.501  1.00  0.00     0.010 A 
ATOM     34  C   UNL A   1      37.162  30.358  28.806  1.00  0.00    -0.014 A 
BRANCH  34  35
ATOM     35  C   UNL A   1      38.413  30.053  29.573  1.00  0.00     0.031 A 
ATOM     36  C   UNL A   1      39.478  29.155  28.985  1.00  0.00     0.074 A 
ATOM     37  C   UNL A   1      38.629  30.599  30.790  1.00  0.00     0.049 A 
ATOM     38  N   UNL A   1      40.495  28.577  29.576  1.00  0.00    -0.248 NA
ATOM     39  C   UNL A   1      39.370  28.845  27.551  1.00  0.00     0.031 C 
ATOM     40  C   UNL A   1      37.730  31.527  31.481  1.00  0.00     0.029 A 
ATOM     41  N   UNL A   1      39.687  30.473  31.661  1.00  0.00    -0.354 N 
ATOM     42  C   UNL A   1      41.090  27.766  28.612  1.00  0.00     0.074 A 
ATOM     43  C   UNL A   1      40.324  27.939  27.395  1.00  0.00     0.031 C 
ATOM     44  C   UNL A   1      38.305  31.948  32.614  1.00  0.00     0.029 A 
ATOM     45  C   UNL A   1      39.544  31.210  32.815  1.00  0.00     0.049 A 
ATOM     46  H   UNL A   1      40.472  29.908  31.476  1.00  0.00     0.167 HD
ATOM     47  C   UNL A   1      42.165  26.946  28.740  1.00  0.00     0.034 A 
ATOM     48  C   UNL A   1      40.276  31.247  33.946  1.00  0.00     0.034 A 
ATOM     49  C   UNL A   1      42.965  26.849  29.940  1.00  0.00     0.049 A 
ATOM     50  C   UNL A   1      41.459  30.329  34.069  1.00  0.00     0.074 A 
ATOM     51  C   UNL A   1      44.081  26.061  30.174  1.00  0.00     0.029 A 
ATOM     52  N   UNL A   1      42.752  27.579  31.103  1.00  0.00    -0.354 N 
ATOM     53  N   UNL A   1      41.930  29.468  33.196  1.00  0.00    -0.248 NA
ATOM     54  C   UNL A   1      42.188  30.365  35.341  1.00  0.00     0.031 C 
ATOM     55  C   UNL A   1      44.508  26.276  31.491  1.00  0.00     0.029 A 
ATOM     56  C   UNL A   1      43.703  27.248  32.060  1.00  0.00     0.049 A 
ATOM     57  H   UNL A   1      42.029  28.235  31.231  1.00  0.00     0.167 HD
ATOM     58  C   UNL A   1      43.004  28.848  33.824  1.00  0.00     0.074 A 
ATOM     59  C   UNL A   1      43.140  29.469  35.127  1.00  0.00     0.031 C 
ATOM     60  C   UNL A   1      43.799  27.845  33.371  1.00  0.00     0.034 A 
BRANCH  47  61
ATOM     61  C   UNL A   1      42.494  26.033  27.580  1.00  0.00     0.023 A 
ATOM     62  C   UNL A   1      41.966  24.736  27.460  1.00  0.00     0.031 A 
ATOM     63  C   UNL A   1      43.378  26.475  26.577  1.00  0.00     0.131 A 
ATOM     64  C   UNL A   1      42.374  23.909  26.400  1.00  0.00     0.055 A 
ATOM     65  C   UNL A   1      43.720  25.675  25.485  1.00  0.00     0.041 A 
ATOM     66  F   UNL A   1      43.932  27.696  26.645  1.00  0.00    -0.206 F 
ATOM     67  C   UNL A   1      43.228  24.378  25.398  1.00  0.00     0.022 A 
BRANCH  64  68
ATOM     68  S   UNL A   1      41.879  22.163  26.417  1.00  0.00     0.124 S 
ATOM     69  O   UNL A   1      42.236  21.766  27.777  1.00  0.00    -0.237 OA
ATOM     70  O   UNL A   1      40.452  22.238  26.128  1.00  0.00    -0.237 OA
ATOM     71  O   UNL A   1      42.698  21.562  25.365  1.00  0.00    -0.744 OA
ENDBRANCH  64  68
ENDBRANCH  47  61
BRANCH  48  72
ATOM     72  C   UNL A   1      39.848  32.103  35.092  1.00  0.00     0.023 A 
ATOM     73  C   UNL A   1      39.017  31.601  36.104  1.00  0.00     0.031 A 
ATOM     74  C   UNL A   1      40.255  33.447  35.179  1.00  0.00     0.131 A 
ATOM     75  C   UNL A   1      38.604  32.442  37.149  1.00  0.00     0.055 A 
ATOM     76  C   UNL A   1      39.892  34.262  36.250  1.00  0.00     0.041 A 
ATOM     77  F   UNL A   1      41.045  33.980  34.233  1.00  0.00    -0.206 F 
ATOM     78  C   UNL A   1      39.053  33.763  37.240  1.00  0.00     0.022 A 
BRANCH  75  79
ATOM     79  S   UNL A   1      37.414  31.808  38.362  1.00  0.00     0.124 S 
ATOM     80  O   UNL A   1      38.149  31.965  39.612  1.00  0.00    -0.237 OA
ATOM     81  O   UNL A   1      36.278  32.702  38.169  1.00  0.00    -0.237 OA
ATOM     82  O   UNL A   1      37.195  30.427  37.936  1.00  0.00    -0.744 OA
ENDBRANCH  75  79
ENDBRANCH  48  72
BRANCH  60  83
ATOM     83  C   UNL A   1      44.884  27.380  34.310  1.00  0.00     0.023 A 
ATOM     84  C   UNL A   1      44.651  26.351  35.241  1.00  0.00     0.031 A 
ATOM     85  C   UNL A   1      46.133  28.021  34.329  1.00  0.00     0.131 A 
ATOM     86  C   UNL A   1      45.625  26.046  36.203  1.00  0.00     0.055 A 
ATOM     87  C   UNL A   1      47.123  27.671  35.248  1.00  0.00     0.041 A 
ATOM     88  F   UNL A   1      46.406  29.012  33.466  1.00  0.00    -0.206 F 
ATOM     89  C   UNL A   1      46.865  26.692  36.205  1.00  0.00     0.022 A 
BRANCH  86  90
ATOM     90  S   UNL A   1      45.199  24.890  37.534  1.00  0.00     0.124 S 
ATOM     91  O   UNL A   1      46.117  25.296  38.594  1.00  0.00    -0.237 OA
ATOM     92  O   UNL A   1      43.789  25.184  37.763  1.00  0.00    -0.237 OA
ATOM     93  O   UNL A   1      45.472  23.578  36.948  1.00  0.00    -0.744 OA
ENDBRANCH  86  90
ENDBRANCH  60  83
ENDBRANCH  34  35
ENDBRANCH  27  29
ENDBRANCH  26  27
ENDBRANCH  25  26
ENDBRANCH   1  25
TORSDOF 17
ENDMDL
