MODEL 1
REMARK VINA RESULT:     -12.8      0.000      0.000
REMARK SMILES O=C1C[C@@H](c2cccc(O)c2)c2c(c(C(=O)OCCOC(=O)c3ccc(-c4c5nc(c(-c6cc(S(=O)(=O)[O-])ccc6F)c6ccc([nH]6)c(-c6cc(S(=O)(=O)[O-])ccc6F)c6nc(c(-c7cc(S(=O)(=O)[O-])ccc7F)c7ccc4[nH]7)C=C6)C=C5)cc3)cn2-c2cccc(C(F)(F)F)c2)N1
REMARK SMILES IDX 19 1 18 2 17 3 15 4 16 5 14 6 1 7 2 8 3 9 98 10 4 11 13 12
REMARK SMILES IDX 12 14 87 15 86 16 5 17 6 18 11 19 7 20 9 21 8 22 10 23 88 25
REMARK SMILES IDX 89 26 97 27 90 28 92 29 91 30 93 31 94 32 95 33 96 34 20 35
REMARK SMILES IDX 21 36 22 37 23 38 24 39 85 40 25 41 84 42 26 43 27 44 28 45
REMARK SMILES IDX 78 46 29 47 83 48 77 49 79 50 30 51 82 52 76 53 75 54 31 56
REMARK SMILES IDX 63 57 43 58 62 59 44 60 47 61 61 62 80 63 45 64 46 65 60 67
REMARK SMILES IDX 81 68 48 69 32 70 33 71 41 72 34 73 40 74 42 75 39 76 35 77
REMARK SMILES IDX 36 78 37 79 38 80 64 81 65 82 73 83 66 84 72 85 74 86 71 87
REMARK SMILES IDX 67 88 68 89 69 90 70 91 49 92 50 93 58 94 51 95 57 96 59 97
REMARK SMILES IDX 56 98 52 99 53 100 54 101 55 102
REMARK H PARENT 98 13 10 24 79 55 47 66
REMARK Flexibility Score: inf
ROOT
ATOM      1  C   UNL A   1      33.451  31.028  27.367  1.00  0.00     0.275 C 
ENDROOT
BRANCH   1   2
ATOM      2  C   UNL A   1      32.420  30.015  26.879  1.00  0.00     0.275 C 
BRANCH   2   3
ATOM      3  O   UNL A   1      33.034  28.793  26.441  1.00  0.00    -0.458 OA
BRANCH   3   4
ATOM      4  C   UNL A   1      32.200  27.895  25.840  1.00  0.00     0.341 C 
ATOM      5  O   UNL A   1      31.118  28.183  25.333  1.00  0.00    -0.246 OA
BRANCH   4   6
ATOM      6  C   UNL A   1      32.754  26.554  25.794  1.00  0.00     0.102 A 
ATOM      7  O   UNL A   1      29.163  23.682  27.102  1.00  0.00    -0.275 OA
ATOM      8  C   UNL A   1      30.353  23.879  26.863  1.00  0.00     0.225 C 
ATOM      9  C   UNL A   1      31.417  22.834  27.169  1.00  0.00     0.115 C 
ATOM     10  N   UNL A   1      30.797  25.114  26.464  1.00  0.00    -0.324 N 
ATOM     11  C   UNL A   1      32.643  22.866  26.235  1.00  0.00     0.078 C 
ATOM     12  C   UNL A   1      32.097  25.336  26.075  1.00  0.00     0.078 A 
ATOM     13  H   UNL A   1      30.164  25.867  26.457  1.00  0.00     0.170 HD
ATOM     14  C   UNL A   1      32.971  24.290  25.884  1.00  0.00     0.055 A 
ATOM     15  N   UNL A   1      34.174  24.824  25.453  1.00  0.00    -0.317 N 
ATOM     16  C   UNL A   1      34.046  26.201  25.443  1.00  0.00     0.109 A 
BRANCH  11  17
ATOM     17  C   UNL A   1      32.429  21.937  25.053  1.00  0.00    -0.035 A 
ATOM     18  C   UNL A   1      32.089  22.406  23.776  1.00  0.00     0.005 A 
ATOM     19  C   UNL A   1      32.585  20.552  25.242  1.00  0.00     0.050 A 
ATOM     20  C   UNL A   1      31.946  21.514  22.709  1.00  0.00     0.004 A 
ATOM     21  C   UNL A   1      32.470  19.678  24.167  1.00  0.00     0.115 A 
ATOM     22  C   UNL A   1      32.149  20.148  22.900  1.00  0.00     0.046 A 
BRANCH  21  23
ATOM     23  O   UNL A   1      32.725  18.358  24.395  1.00  0.00    -0.508 OA
ATOM     24  H   UNL A   1      32.731  17.753  23.680  1.00  0.00     0.293 HD
ENDBRANCH  21  23
ENDBRANCH  11  17
BRANCH  15  25
ATOM     25  C   UNL A   1      35.374  24.155  25.111  1.00  0.00     0.046 A 
ATOM     26  C   UNL A   1      35.436  23.440  23.908  1.00  0.00     0.026 A 
ATOM     27  C   UNL A   1      36.462  24.144  25.987  1.00  0.00     0.039 A 
ATOM     28  C   UNL A   1      36.610  22.780  23.554  1.00  0.00     0.003 A 
ATOM     29  C   UNL A   1      37.645  23.471  25.645  1.00  0.00     0.058 A 
ATOM     30  C   UNL A   1      37.712  22.805  24.410  1.00  0.00     0.013 A 
BRANCH  29  31
ATOM     31  C   UNL A   1      38.835  23.439  26.574  1.00  0.00     0.416 C 
ATOM     32  F   UNL A   1      38.606  24.134  27.725  1.00  0.00    -0.166 F 
ATOM     33  F   UNL A   1      39.143  22.171  26.973  1.00  0.00    -0.166 F 
ATOM     34  F   UNL A   1      39.976  23.961  26.051  1.00  0.00    -0.166 F 
ENDBRANCH  29  31
ENDBRANCH  15  25
ENDBRANCH   4   6
ENDBRANCH   3   4
ENDBRANCH   2   3
ENDBRANCH   1   2
BRANCH   1  35
ATOM     35  O   UNL A   1      34.687  30.416  27.746  1.00  0.00    -0.458 OA
BRANCH  35  36
ATOM     36  C   UNL A   1      35.550  31.237  28.389  1.00  0.00     0.338 C 
ATOM     37  O   UNL A   1      35.339  32.385  28.740  1.00  0.00    -0.246 OA
BRANCH  36  38
ATOM     38  C   UNL A   1      36.878  30.616  28.441  1.00  0.00     0.060 A 
ATOM     39  C   UNL A   1      36.986  29.265  28.099  1.00  0.00     0.016 A 
ATOM     40  C   UNL A   1      37.938  31.306  29.044  1.00  0.00     0.016 A 
ATOM     41  C   UNL A   1      38.127  28.576  28.468  1.00  0.00     0.010 A 
ATOM     42  C   UNL A   1      39.067  30.612  29.427  1.00  0.00     0.010 A 
ATOM     43  C   UNL A   1      39.133  29.242  29.183  1.00  0.00    -0.014 A 
BRANCH  43  44
ATOM     44  C   UNL A   1      40.368  28.528  29.477  1.00  0.00     0.031 A 
ATOM     45  C   UNL A   1      40.670  28.528  30.931  1.00  0.00     0.074 A 
ATOM     46  C   UNL A   1      41.066  27.826  28.559  1.00  0.00     0.049 A 
ATOM     47  N   UNL A   1      41.671  29.085  31.524  1.00  0.00    -0.248 NA
ATOM     48  C   UNL A   1      39.636  28.027  31.857  1.00  0.00     0.031 C 
ATOM     49  C   UNL A   1      40.706  27.577  27.161  1.00  0.00     0.029 A 
ATOM     50  N   UNL A   1      42.207  27.094  28.707  1.00  0.00    -0.354 N 
ATOM     51  C   UNL A   1      41.528  28.771  32.871  1.00  0.00     0.074 A 
ATOM     52  C   UNL A   1      40.170  28.336  33.038  1.00  0.00     0.031 C 
ATOM     53  C   UNL A   1      41.474  26.576  26.671  1.00  0.00     0.029 A 
ATOM     54  C   UNL A   1      42.454  26.187  27.674  1.00  0.00     0.049 A 
ATOM     55  H   UNL A   1      42.808  27.197  29.479  1.00  0.00     0.167 HD
ATOM     56  C   UNL A   1      42.624  28.611  33.660  1.00  0.00     0.034 A 
ATOM     57  C   UNL A   1      43.350  25.155  27.667  1.00  0.00     0.034 A 
ATOM     58  C   UNL A   1      43.771  29.278  33.083  1.00  0.00     0.049 A 
ATOM     59  C   UNL A   1      44.360  25.457  28.713  1.00  0.00     0.074 A 
ATOM     60  C   UNL A   1      44.021  30.577  32.679  1.00  0.00     0.029 A 
ATOM     61  N   UNL A   1      44.732  28.509  32.462  1.00  0.00    -0.354 N 
ATOM     62  N   UNL A   1      45.194  26.457  28.630  1.00  0.00    -0.248 NA
ATOM     63  C   UNL A   1      44.103  24.978  30.064  1.00  0.00     0.031 C 
ATOM     64  C   UNL A   1      44.761  30.449  31.468  1.00  0.00     0.029 A 
ATOM     65  C   UNL A   1      45.017  29.094  31.252  1.00  0.00     0.049 A 
ATOM     66  H   UNL A   1      45.139  27.689  32.822  1.00  0.00     0.167 HD
ATOM     67  C   UNL A   1      45.201  27.021  29.896  1.00  0.00     0.074 A 
ATOM     68  C   UNL A   1      44.581  26.015  30.759  1.00  0.00     0.031 C 
ATOM     69  C   UNL A   1      45.439  28.354  30.077  1.00  0.00     0.034 A 
BRANCH  56  70
ATOM     70  C   UNL A   1      42.752  27.510  34.694  1.00  0.00     0.023 A 
ATOM     71  C   UNL A   1      43.527  26.391  34.335  1.00  0.00     0.031 A 
ATOM     72  C   UNL A   1      41.939  27.347  35.841  1.00  0.00     0.131 A 
ATOM     73  C   UNL A   1      43.377  25.165  35.005  1.00  0.00     0.055 A 
ATOM     74  C   UNL A   1      41.846  26.144  36.546  1.00  0.00     0.041 A 
ATOM     75  F   UNL A   1      41.119  28.298  36.301  1.00  0.00    -0.206 F 
ATOM     76  C   UNL A   1      42.538  25.032  36.107  1.00  0.00     0.022 A 
BRANCH  73  77
ATOM     77  S   UNL A   1      44.153  23.699  34.283  1.00  0.00     0.124 S 
ATOM     78  O   UNL A   1      45.440  24.236  33.856  1.00  0.00    -0.237 OA
ATOM     79  O   UNL A   1      44.180  22.784  35.420  1.00  0.00    -0.237 OA
ATOM     80  O   UNL A   1      43.239  23.328  33.206  1.00  0.00    -0.744 OA
ENDBRANCH  73  77
ENDBRANCH  56  70
BRANCH  57  81
ATOM     81  C   UNL A   1      43.185  23.791  27.069  1.00  0.00     0.023 A 
ATOM     82  C   UNL A   1      43.970  23.304  25.994  1.00  0.00     0.031 A 
ATOM     83  C   UNL A   1      42.392  22.834  27.742  1.00  0.00     0.131 A 
ATOM     84  C   UNL A   1      43.937  21.929  25.642  1.00  0.00     0.055 A 
ATOM     85  C   UNL A   1      42.365  21.481  27.392  1.00  0.00     0.041 A 
ATOM     86  F   UNL A   1      41.677  23.161  28.829  1.00  0.00    -0.206 F 
ATOM     87  C   UNL A   1      43.145  21.020  26.347  1.00  0.00     0.022 A 
BRANCH  84  88
ATOM     88  S   UNL A   1      44.993  21.263  24.305  1.00  0.00     0.124 S 
ATOM     89  O   UNL A   1      44.583  19.865  24.250  1.00  0.00    -0.237 OA
ATOM     90  O   UNL A   1      44.628  22.096  23.166  1.00  0.00    -0.237 OA
ATOM     91  O   UNL A   1      46.353  21.480  24.804  1.00  0.00    -0.744 OA
ENDBRANCH  84  88
ENDBRANCH  57  81
BRANCH  69  92
ATOM     92  C   UNL A   1      46.013  29.155  28.921  1.00  0.00     0.023 A 
ATOM     93  C   UNL A   1      47.385  29.256  28.590  1.00  0.00     0.031 A 
ATOM     94  C   UNL A   1      45.091  29.773  28.058  1.00  0.00     0.131 A 
ATOM     95  C   UNL A   1      47.781  29.976  27.443  1.00  0.00     0.055 A 
ATOM     96  C   UNL A   1      45.485  30.459  26.912  1.00  0.00     0.041 A 
ATOM     97  F   UNL A   1      43.771  29.698  28.303  1.00  0.00    -0.206 F 
ATOM     98  C   UNL A   1      46.834  30.572  26.604  1.00  0.00     0.022 A 
BRANCH  95  99
ATOM     99  S   UNL A   1      49.545  30.192  27.031  1.00  0.00     0.124 S 
ATOM    100  O   UNL A   1      49.780  29.203  25.986  1.00  0.00    -0.237 OA
ATOM    101  O   UNL A   1      49.602  31.590  26.612  1.00  0.00    -0.237 OA
ATOM    102  O   UNL A   1      50.224  29.911  28.298  1.00  0.00    -0.744 OA
ENDBRANCH  95  99
ENDBRANCH  69  92
ENDBRANCH  43  44
ENDBRANCH  36  38
ENDBRANCH  35  36
ENDBRANCH   1  35
TORSDOF 18
ENDMDL
MODEL 2
REMARK VINA RESULT:     -12.8      1.387      1.615
REMARK SMILES O=C1C[C@@H](c2cccc(O)c2)c2c(c(C(=O)OCCOC(=O)c3ccc(-c4c5nc(c(-c6cc(S(=O)(=O)[O-])ccc6F)c6ccc([nH]6)c(-c6cc(S(=O)(=O)[O-])ccc6F)c6nc(c(-c7cc(S(=O)(=O)[O-])ccc7F)c7ccc4[nH]7)C=C6)C=C5)cc3)cn2-c2cccc(C(F)(F)F)c2)N1
REMARK SMILES IDX 19 1 18 2 17 3 15 4 16 5 14 6 1 7 2 8 3 9 98 10 4 11 13 12
REMARK SMILES IDX 12 14 87 15 86 16 5 17 6 18 11 19 7 20 9 21 8 22 10 23 88 25
REMARK SMILES IDX 89 26 97 27 90 28 92 29 91 30 93 31 94 32 95 33 96 34 20 35
REMARK SMILES IDX 21 36 22 37 23 38 24 39 85 40 25 41 84 42 26 43 27 44 28 45
REMARK SMILES IDX 78 46 29 47 83 48 77 49 79 50 30 51 82 52 76 53 75 54 31 56
REMARK SMILES IDX 63 57 43 58 62 59 44 60 47 61 61 62 80 63 45 64 46 65 60 67
REMARK SMILES IDX 81 68 48 69 32 70 33 71 41 72 34 73 40 74 42 75 39 76 35 77
REMARK SMILES IDX 36 78 37 79 38 80 64 81 65 82 73 83 66 84 72 85 74 86 71 87
REMARK SMILES IDX 67 88 68 89 69 90 70 91 49 92 50 93 58 94 51 95 57 96 59 97
REMARK SMILES IDX 56 98 52 99 53 100 54 101 55 102
REMARK H PARENT 98 13 10 24 79 55 47 66
REMARK Flexibility Score: inf
ROOT
ATOM      1  C   UNL A   1      33.111  30.587  27.317  1.00  0.00     0.275 C 
ENDROOT
BRANCH   1   2
ATOM      2  C   UNL A   1      32.694  29.129  27.153  1.00  0.00     0.275 C 
BRANCH   2   3
ATOM      3  O   UNL A   1      32.879  28.667  25.806  1.00  0.00    -0.458 OA
BRANCH   3   4
ATOM      4  C   UNL A   1      32.080  27.628  25.424  1.00  0.00     0.341 C 
ATOM      5  O   UNL A   1      30.953  27.755  24.950  1.00  0.00    -0.246 OA
BRANCH   4   6
ATOM      6  C   UNL A   1      32.726  26.336  25.568  1.00  0.00     0.102 A 
ATOM      7  O   UNL A   1      29.348  23.447  27.331  1.00  0.00    -0.275 OA
ATOM      8  C   UNL A   1      30.521  23.689  27.050  1.00  0.00     0.225 C 
ATOM      9  C   UNL A   1      31.657  22.777  27.493  1.00  0.00     0.115 C 
ATOM     10  N   UNL A   1      30.877  24.879  26.468  1.00  0.00    -0.324 N 
ATOM     11  C   UNL A   1      32.875  22.754  26.548  1.00  0.00     0.078 C 
ATOM     12  C   UNL A   1      32.157  25.131  26.034  1.00  0.00     0.078 A 
ATOM     13  H   UNL A   1      30.193  25.578  26.358  1.00  0.00     0.170 HD
ATOM     14  C   UNL A   1      33.102  24.130  25.988  1.00  0.00     0.055 A 
ATOM     15  N   UNL A   1      34.263  24.676  25.468  1.00  0.00    -0.317 N 
ATOM     16  C   UNL A   1      34.039  26.025  25.257  1.00  0.00     0.109 A 
BRANCH  11  17
ATOM     17  C   UNL A   1      32.724  21.649  25.519  1.00  0.00    -0.035 A 
ATOM     18  C   UNL A   1      32.266  21.889  24.215  1.00  0.00     0.005 A 
ATOM     19  C   UNL A   1      33.063  20.333  25.882  1.00  0.00     0.050 A 
ATOM     20  C   UNL A   1      32.186  20.844  23.289  1.00  0.00     0.004 A 
ATOM     21  C   UNL A   1      33.008  19.309  24.944  1.00  0.00     0.115 A 
ATOM     22  C   UNL A   1      32.569  19.553  23.648  1.00  0.00     0.046 A 
BRANCH  21  23
ATOM     23  O   UNL A   1      33.438  18.074  25.330  1.00  0.00    -0.508 OA
ATOM     24  H   UNL A   1      33.415  17.359  24.724  1.00  0.00     0.293 HD
ENDBRANCH  21  23
ENDBRANCH  11  17
BRANCH  15  25
ATOM     25  C   UNL A   1      35.507  24.049  25.212  1.00  0.00     0.046 A 
ATOM     26  C   UNL A   1      35.629  23.212  24.096  1.00  0.00     0.026 A 
ATOM     27  C   UNL A   1      36.579  24.200  26.095  1.00  0.00     0.039 A 
ATOM     28  C   UNL A   1      36.847  22.590  23.828  1.00  0.00     0.003 A 
ATOM     29  C   UNL A   1      37.805  23.568  25.839  1.00  0.00     0.058 A 
ATOM     30  C   UNL A   1      37.931  22.776  24.686  1.00  0.00     0.013 A 
BRANCH  29  31
ATOM     31  C   UNL A   1      38.980  23.710  26.777  1.00  0.00     0.416 C 
ATOM     32  F   UNL A   1      39.402  22.505  27.258  1.00  0.00    -0.166 F 
ATOM     33  F   UNL A   1      40.069  24.253  26.161  1.00  0.00    -0.166 F 
ATOM     34  F   UNL A   1      38.741  24.478  27.873  1.00  0.00    -0.166 F 
ENDBRANCH  29  31
ENDBRANCH  15  25
ENDBRANCH   4   6
ENDBRANCH   3   4
ENDBRANCH   2   3
ENDBRANCH   1   2
BRANCH   1  35
ATOM     35  O   UNL A   1      34.521  30.776  27.173  1.00  0.00    -0.458 OA
BRANCH  35  36
ATOM     36  C   UNL A   1      35.142  31.259  28.275  1.00  0.00     0.338 C 
ATOM     37  O   UNL A   1      34.725  32.122  29.028  1.00  0.00    -0.246 OA
BRANCH  36  38
ATOM     38  C   UNL A   1      36.510  30.732  28.343  1.00  0.00     0.060 A 
ATOM     39  C   UNL A   1      36.712  29.384  28.032  1.00  0.00     0.016 A 
ATOM     40  C   UNL A   1      37.518  31.507  28.931  1.00  0.00     0.016 A 
ATOM     41  C   UNL A   1      37.896  28.784  28.419  1.00  0.00     0.010 A 
ATOM     42  C   UNL A   1      38.691  30.902  29.332  1.00  0.00     0.010 A 
ATOM     43  C   UNL A   1      38.852  29.534  29.119  1.00  0.00    -0.014 A 
BRANCH  43  44
ATOM     44  C   UNL A   1      40.132  28.914  29.431  1.00  0.00     0.031 A 
ATOM     45  C   UNL A   1      40.409  28.929  30.891  1.00  0.00     0.074 A 
ATOM     46  C   UNL A   1      40.897  28.272  28.522  1.00  0.00     0.049 A 
ATOM     47  N   UNL A   1      41.355  29.557  31.503  1.00  0.00    -0.248 NA
ATOM     48  C   UNL A   1      39.401  28.346  31.797  1.00  0.00     0.031 C 
ATOM     49  C   UNL A   1      40.580  28.004  27.118  1.00  0.00     0.029 A 
ATOM     50  N   UNL A   1      42.087  27.628  28.687  1.00  0.00    -0.354 N 
ATOM     51  C   UNL A   1      41.214  29.225  32.845  1.00  0.00     0.074 A 
ATOM     52  C   UNL A   1      39.890  28.689  32.987  1.00  0.00     0.031 C 
ATOM     53  C   UNL A   1      41.430  27.067  26.637  1.00  0.00     0.029 A 
ATOM     54  C   UNL A   1      42.420  26.747  27.654  1.00  0.00     0.049 A 
ATOM     55  H   UNL A   1      42.666  27.771  29.470  1.00  0.00     0.167 HD
ATOM     56  C   UNL A   1      42.305  29.144  33.653  1.00  0.00     0.034 A 
ATOM     57  C   UNL A   1      43.391  25.787  27.659  1.00  0.00     0.034 A 
ATOM     58  C   UNL A   1      43.409  29.900  33.098  1.00  0.00     0.049 A 
ATOM     59  C   UNL A   1      44.358  26.159  28.723  1.00  0.00     0.074 A 
ATOM     60  C   UNL A   1      43.566  31.217  32.704  1.00  0.00     0.029 A 
ATOM     61  N   UNL A   1      44.435  29.209  32.491  1.00  0.00    -0.354 N 
ATOM     62  N   UNL A   1      45.115  27.219  28.658  1.00  0.00    -0.248 NA
ATOM     63  C   UNL A   1      44.116  25.654  30.067  1.00  0.00     0.031 C 
ATOM     64  C   UNL A   1      44.334  31.152  31.505  1.00  0.00     0.029 A 
ATOM     65  C   UNL A   1      44.695  29.820  31.288  1.00  0.00     0.049 A 
ATOM     66  H   UNL A   1      44.897  28.420  32.854  1.00  0.00     0.167 HD
ATOM     67  C   UNL A   1      45.059  27.775  29.927  1.00  0.00     0.074 A 
ATOM     68  C   UNL A   1      44.501  26.720  30.775  1.00  0.00     0.031 C 
ATOM     69  C   UNL A   1      45.191  29.121  30.117  1.00  0.00     0.034 A 
BRANCH  56  70
ATOM     70  C   UNL A   1      42.500  28.051  34.684  1.00  0.00     0.023 A 
ATOM     71  C   UNL A   1      43.312  26.964  34.310  1.00  0.00     0.031 A 
ATOM     72  C   UNL A   1      41.717  27.856  35.848  1.00  0.00     0.131 A 
ATOM     73  C   UNL A   1      43.225  25.733  34.983  1.00  0.00     0.055 A 
ATOM     74  C   UNL A   1      41.688  26.651  36.555  1.00  0.00     0.041 A 
ATOM     75  F   UNL A   1      40.869  28.774  36.324  1.00  0.00    -0.206 F 
ATOM     76  C   UNL A   1      42.416  25.568  36.102  1.00  0.00     0.022 A 
BRANCH  73  77
ATOM     77  S   UNL A   1      44.046  24.300  34.246  1.00  0.00     0.124 S 
ATOM     78  O   UNL A   1      45.431  24.526  34.642  1.00  0.00    -0.237 OA
ATOM     79  O   UNL A   1      43.359  23.192  34.901  1.00  0.00    -0.237 OA
ATOM     80  O   UNL A   1      43.770  24.448  32.819  1.00  0.00    -0.744 OA
ENDBRANCH  73  77
ENDBRANCH  56  70
BRANCH  57  81
ATOM     81  C   UNL A   1      43.340  24.417  27.052  1.00  0.00     0.023 A 
ATOM     82  C   UNL A   1      44.202  23.985  26.013  1.00  0.00     0.031 A 
ATOM     83  C   UNL A   1      42.579  23.409  27.687  1.00  0.00     0.131 A 
ATOM     84  C   UNL A   1      44.272  22.612  25.659  1.00  0.00     0.055 A 
ATOM     85  C   UNL A   1      42.654  22.059  27.334  1.00  0.00     0.041 A 
ATOM     86  F   UNL A   1      41.796  23.686  28.740  1.00  0.00    -0.206 F 
ATOM     87  C   UNL A   1      43.508  21.652  26.326  1.00  0.00     0.022 A 
BRANCH  84  88
ATOM     88  S   UNL A   1      45.428  22.020  24.371  1.00  0.00     0.124 S 
ATOM     89  O   UNL A   1      44.618  21.045  23.649  1.00  0.00    -0.237 OA
ATOM     90  O   UNL A   1      45.764  23.245  23.657  1.00  0.00    -0.237 OA
ATOM     91  O   UNL A   1      46.532  21.443  25.141  1.00  0.00    -0.744 OA
ENDBRANCH  84  88
ENDBRANCH  57  81
BRANCH  69  92
ATOM     92  C   UNL A   1      45.722  29.969  28.974  1.00  0.00     0.023 A 
ATOM     93  C   UNL A   1      44.979  30.930  28.247  1.00  0.00     0.031 A 
ATOM     94  C   UNL A   1      47.091  29.848  28.677  1.00  0.00     0.131 A 
ATOM     95  C   UNL A   1      45.613  31.705  27.253  1.00  0.00     0.055 A 
ATOM     96  C   UNL A   1      47.719  30.635  27.714  1.00  0.00     0.041 A 
ATOM     97  F   UNL A   1      47.859  28.970  29.345  1.00  0.00    -0.206 F 
ATOM     98  C   UNL A   1      46.979  31.561  26.990  1.00  0.00     0.022 A 
BRANCH  95  99
ATOM     99  S   UNL A   1      44.668  32.896  26.245  1.00  0.00     0.124 S 
ATOM    100  O   UNL A   1      45.688  33.548  25.434  1.00  0.00    -0.237 OA
ATOM    101  O   UNL A   1      43.737  32.030  25.525  1.00  0.00    -0.237 OA
ATOM    102  O   UNL A   1      44.040  33.761  27.245  1.00  0.00    -0.744 OA
ENDBRANCH  95  99
ENDBRANCH  69  92
ENDBRANCH  43  44
ENDBRANCH  36  38
ENDBRANCH  35  36
ENDBRANCH   1  35
TORSDOF 18
ENDMDL
MODEL 3
REMARK VINA RESULT:     -12.8      3.989      9.152
REMARK SMILES O=C1C[C@@H](c2cccc(O)c2)c2c(c(C(=O)OCCOC(=O)c3ccc(-c4c5nc(c(-c6cc(S(=O)(=O)[O-])ccc6F)c6ccc([nH]6)c(-c6cc(S(=O)(=O)[O-])ccc6F)c6nc(c(-c7cc(S(=O)(=O)[O-])ccc7F)c7ccc4[nH]7)C=C6)C=C5)cc3)cn2-c2cccc(C(F)(F)F)c2)N1
REMARK SMILES IDX 19 1 18 2 17 3 15 4 16 5 14 6 1 7 2 8 3 9 98 10 4 11 13 12
REMARK SMILES IDX 12 14 87 15 86 16 5 17 6 18 11 19 7 20 9 21 8 22 10 23 88 25
REMARK SMILES IDX 89 26 97 27 90 28 92 29 91 30 93 31 94 32 95 33 96 34 20 35
REMARK SMILES IDX 21 36 22 37 23 38 24 39 85 40 25 41 84 42 26 43 27 44 28 45
REMARK SMILES IDX 78 46 29 47 83 48 77 49 79 50 30 51 82 52 76 53 75 54 31 56
REMARK SMILES IDX 63 57 43 58 62 59 44 60 47 61 61 62 80 63 45 64 46 65 60 67
REMARK SMILES IDX 81 68 48 69 32 70 33 71 41 72 34 73 40 74 42 75 39 76 35 77
REMARK SMILES IDX 36 78 37 79 38 80 64 81 65 82 73 83 66 84 72 85 74 86 71 87
REMARK SMILES IDX 67 88 68 89 69 90 70 91 49 92 50 93 58 94 51 95 57 96 59 97
REMARK SMILES IDX 56 98 52 99 53 100 54 101 55 102
REMARK H PARENT 98 13 10 24 79 55 47 66
REMARK Flexibility Score: inf
ROOT
ATOM      1  C   UNL A   1      38.051  22.277  25.701  1.00  0.00     0.275 C 
ENDROOT
BRANCH   1   2
ATOM      2  C   UNL A   1      36.569  21.920  25.676  1.00  0.00     0.275 C 
BRANCH   2   3
ATOM      3  O   UNL A   1      35.857  22.655  24.669  1.00  0.00    -0.458 OA
BRANCH   3   4
ATOM      4  C   UNL A   1      34.526  22.848  24.907  1.00  0.00     0.341 C 
ATOM      5  O   UNL A   1      33.744  21.961  25.243  1.00  0.00    -0.246 OA
BRANCH   4   6
ATOM      6  C   UNL A   1      34.128  24.239  24.792  1.00  0.00     0.102 A 
ATOM      7  O   UNL A   1      32.789  24.776  20.234  1.00  0.00    -0.275 OA
ATOM      8  C   UNL A   1      33.086  25.243  21.333  1.00  0.00     0.225 C 
ATOM      9  C   UNL A   1      33.285  26.738  21.542  1.00  0.00     0.115 C 
ATOM     10  N   UNL A   1      33.415  24.423  22.383  1.00  0.00    -0.324 N 
ATOM     11  C   UNL A   1      32.940  27.245  22.958  1.00  0.00     0.078 C 
ATOM     12  C   UNL A   1      33.633  24.907  23.651  1.00  0.00     0.078 A 
ATOM     13  H   UNL A   1      33.498  23.456  22.222  1.00  0.00     0.170 HD
ATOM     14  C   UNL A   1      33.347  26.214  23.973  1.00  0.00     0.055 A 
ATOM     15  N   UNL A   1      33.625  26.383  25.319  1.00  0.00    -0.317 N 
ATOM     16  C   UNL A   1      34.140  25.192  25.798  1.00  0.00     0.109 A 
BRANCH  11  17
ATOM     17  C   UNL A   1      31.488  27.683  23.020  1.00  0.00    -0.035 A 
ATOM     18  C   UNL A   1      31.069  28.964  22.631  1.00  0.00     0.005 A 
ATOM     19  C   UNL A   1      30.522  26.770  23.479  1.00  0.00     0.050 A 
ATOM     20  C   UNL A   1      29.715  29.307  22.665  1.00  0.00     0.004 A 
ATOM     21  C   UNL A   1      29.175  27.112  23.479  1.00  0.00     0.115 A 
ATOM     22  C   UNL A   1      28.762  28.376  23.077  1.00  0.00     0.046 A 
BRANCH  21  23
ATOM     23  O   UNL A   1      28.279  26.152  23.846  1.00  0.00    -0.508 OA
ATOM     24  H   UNL A   1      28.583  25.334  24.188  1.00  0.00     0.293 HD
ENDBRANCH  21  23
ENDBRANCH  11  17
BRANCH  15  25
ATOM     25  C   UNL A   1      33.481  27.541  26.121  1.00  0.00     0.046 A 
ATOM     26  C   UNL A   1      32.194  28.005  26.420  1.00  0.00     0.026 A 
ATOM     27  C   UNL A   1      34.600  28.258  26.550  1.00  0.00     0.039 A 
ATOM     28  C   UNL A   1      32.034  29.142  27.211  1.00  0.00     0.003 A 
ATOM     29  C   UNL A   1      34.449  29.411  27.336  1.00  0.00     0.058 A 
ATOM     30  C   UNL A   1      33.153  29.833  27.675  1.00  0.00     0.013 A 
BRANCH  29  31
ATOM     31  C   UNL A   1      35.641  30.208  27.811  1.00  0.00     0.416 C 
ATOM     32  F   UNL A   1      36.819  29.681  27.368  1.00  0.00    -0.166 F 
ATOM     33  F   UNL A   1      35.622  31.490  27.347  1.00  0.00    -0.166 F 
ATOM     34  F   UNL A   1      35.762  30.294  29.162  1.00  0.00    -0.166 F 
ENDBRANCH  29  31
ENDBRANCH  15  25
ENDBRANCH   4   6
ENDBRANCH   3   4
ENDBRANCH   2   3
ENDBRANCH   1   2
BRANCH   1  35
ATOM     35  O   UNL A   1      38.332  23.401  26.539  1.00  0.00    -0.458 OA
BRANCH  35  36
ATOM     36  C   UNL A   1      39.569  23.400  27.089  1.00  0.00     0.338 C 
ATOM     37  O   UNL A   1      40.232  22.422  27.392  1.00  0.00    -0.246 OA
BRANCH  36  38
ATOM     38  C   UNL A   1      39.944  24.767  27.467  1.00  0.00     0.060 A 
ATOM     39  C   UNL A   1      41.138  24.951  28.170  1.00  0.00     0.016 A 
ATOM     40  C   UNL A   1      39.008  25.801  27.329  1.00  0.00     0.016 A 
ATOM     41  C   UNL A   1      41.340  26.148  28.834  1.00  0.00     0.010 A 
ATOM     42  C   UNL A   1      39.204  26.987  28.006  1.00  0.00     0.010 A 
ATOM     43  C   UNL A   1      40.343  27.134  28.795  1.00  0.00    -0.014 A 
BRANCH  43  44
ATOM     44  C   UNL A   1      40.614  28.423  29.415  1.00  0.00     0.031 A 
ATOM     45  C   UNL A   1      41.689  29.161  28.704  1.00  0.00     0.074 A 
ATOM     46  C   UNL A   1      39.874  28.945  30.417  1.00  0.00     0.049 A 
ATOM     47  N   UNL A   1      42.852  29.482  29.160  1.00  0.00    -0.248 NA
ATOM     48  C   UNL A   1      41.537  29.389  27.254  1.00  0.00     0.031 C 
ATOM     49  C   UNL A   1      38.653  28.391  31.008  1.00  0.00     0.029 A 
ATOM     50  N   UNL A   1      39.998  30.141  31.058  1.00  0.00    -0.354 N 
ATOM     51  C   UNL A   1      43.471  30.190  28.135  1.00  0.00     0.074 A 
ATOM     52  C   UNL A   1      42.727  29.898  26.942  1.00  0.00     0.031 C 
ATOM     53  C   UNL A   1      38.034  29.347  31.739  1.00  0.00     0.029 A 
ATOM     54  C   UNL A   1      38.862  30.544  31.765  1.00  0.00     0.049 A 
ATOM     55  H   UNL A   1      40.822  30.679  31.027  1.00  0.00     0.167 HD
ATOM     56  C   UNL A   1      44.352  31.185  28.421  1.00  0.00     0.034 A 
ATOM     57  C   UNL A   1      38.593  31.783  32.274  1.00  0.00     0.034 A 
ATOM     58  C   UNL A   1      44.885  31.028  29.757  1.00  0.00     0.049 A 
ATOM     59  C   UNL A   1      39.895  32.485  32.404  1.00  0.00     0.074 A 
ATOM     60  C   UNL A   1      45.545  30.003  30.412  1.00  0.00     0.029 A 
ATOM     61  N   UNL A   1      44.409  31.853  30.753  1.00  0.00    -0.354 N 
ATOM     62  N   UNL A   1      40.823  32.114  33.241  1.00  0.00    -0.248 NA
ATOM     63  C   UNL A   1      40.363  33.262  31.266  1.00  0.00     0.031 C 
ATOM     64  C   UNL A   1      44.992  29.990  31.725  1.00  0.00     0.029 A 
ATOM     65  C   UNL A   1      44.110  31.067  31.839  1.00  0.00     0.049 A 
ATOM     66  H   UNL A   1      44.303  32.830  30.695  1.00  0.00     0.167 HD
ATOM     67  C   UNL A   1      42.005  32.196  32.521  1.00  0.00     0.074 A 
ATOM     68  C   UNL A   1      41.671  32.994  31.340  1.00  0.00     0.031 C 
ATOM     69  C   UNL A   1      43.061  31.373  32.794  1.00  0.00     0.034 A 
BRANCH  56  70
ATOM     70  C   UNL A   1      44.389  32.505  27.676  1.00  0.00     0.023 A 
ATOM     71  C   UNL A   1      43.786  33.607  28.308  1.00  0.00     0.031 A 
ATOM     72  C   UNL A   1      44.685  32.675  26.301  1.00  0.00     0.131 A 
ATOM     73  C   UNL A   1      43.388  34.735  27.569  1.00  0.00     0.055 A 
ATOM     74  C   UNL A   1      44.349  33.829  25.587  1.00  0.00     0.041 A 
ATOM     75  F   UNL A   1      45.230  31.718  25.543  1.00  0.00    -0.206 F 
ATOM     76  C   UNL A   1      43.663  34.852  26.211  1.00  0.00     0.022 A 
BRANCH  73  77
ATOM     77  S   UNL A   1      42.332  35.957  28.383  1.00  0.00     0.124 S 
ATOM     78  O   UNL A   1      42.497  37.110  27.504  1.00  0.00    -0.237 OA
ATOM     79  O   UNL A   1      41.031  35.299  28.348  1.00  0.00    -0.237 OA
ATOM     80  O   UNL A   1      42.929  36.090  29.709  1.00  0.00    -0.744 OA
ENDBRANCH  73  77
ENDBRANCH  56  70
BRANCH  57  81
ATOM     81  C   UNL A   1      37.276  32.499  32.319  1.00  0.00     0.023 A 
ATOM     82  C   UNL A   1      36.595  32.961  31.165  1.00  0.00     0.031 A 
ATOM     83  C   UNL A   1      36.538  32.512  33.523  1.00  0.00     0.131 A 
ATOM     84  C   UNL A   1      35.248  33.403  31.253  1.00  0.00     0.055 A 
ATOM     85  C   UNL A   1      35.212  32.946  33.603  1.00  0.00     0.041 A 
ATOM     86  F   UNL A   1      37.050  32.015  34.660  1.00  0.00    -0.206 F 
ATOM     87  C   UNL A   1      34.557  33.384  32.466  1.00  0.00     0.022 A 
BRANCH  84  88
ATOM     88  S   UNL A   1      34.323  33.937  29.768  1.00  0.00     0.124 S 
ATOM     89  O   UNL A   1      33.387  34.911  30.316  1.00  0.00    -0.237 OA
ATOM     90  O   UNL A   1      35.377  34.459  28.907  1.00  0.00    -0.237 OA
ATOM     91  O   UNL A   1      33.704  32.700  29.287  1.00  0.00    -0.744 OA
ENDBRANCH  84  88
ENDBRANCH  57  81
BRANCH  69  92
ATOM     92  C   UNL A   1      43.055  30.591  34.096  1.00  0.00     0.023 A 
ATOM     93  C   UNL A   1      42.476  29.313  34.286  1.00  0.00     0.031 A 
ATOM     94  C   UNL A   1      43.764  31.148  35.175  1.00  0.00     0.131 A 
ATOM     95  C   UNL A   1      42.605  28.661  35.531  1.00  0.00     0.055 A 
ATOM     96  C   UNL A   1      43.912  30.489  36.392  1.00  0.00     0.041 A 
ATOM     97  F   UNL A   1      44.356  32.349  35.053  1.00  0.00    -0.206 F 
ATOM     98  C   UNL A   1      43.323  29.245  36.579  1.00  0.00     0.022 A 
BRANCH  95  99
ATOM     99  S   UNL A   1      41.805  27.050  35.835  1.00  0.00     0.124 S 
ATOM    100  O   UNL A   1      41.006  27.280  37.032  1.00  0.00    -0.237 OA
ATOM    101  O   UNL A   1      41.057  26.832  34.600  1.00  0.00    -0.237 OA
ATOM    102  O   UNL A   1      42.938  26.141  36.025  1.00  0.00    -0.744 OA
ENDBRANCH  95  99
ENDBRANCH  69  92
ENDBRANCH  43  44
ENDBRANCH  36  38
ENDBRANCH  35  36
ENDBRANCH   1  35
TORSDOF 18
ENDMDL
