MODEL 1
REMARK VINA RESULT:     -11.6      0.000      0.000
REMARK SMILES COc1ccc(C(=O)/C=C/c2c(F)cccc2F)cc1CC(=O)OCCOC(=O)c1ccc(-c2c3nc(c(-c4cc(S(=O)(=O)[O-])ccc4F)c4ccc([nH]4)c(-c4cc(S(=O)(=O)[O-])ccc4F)c4nc(c(-c5cc(S(=O)(=O)[O-])ccc5F)c5ccc2[nH]5)C=C4)C=C3)cc1
REMARK SMILES IDX 25 1 24 2 22 3 23 4 21 5 20 6 3 7 4 8 5 9 19 10 6 11 2 12
REMARK SMILES IDX 1 13 7 14 8 15 9 16 10 17 11 18 12 19 17 20 13 21 14 22
REMARK SMILES IDX 16 23 18 24 15 25 26 26 27 27 28 28 29 29 30 30 31 31 92 32
REMARK SMILES IDX 32 33 91 34 33 35 34 36 35 37 85 38 36 39 90 40 84 41 86 42
REMARK SMILES IDX 37 43 89 44 83 45 82 46 38 48 70 49 50 50 69 51 51 52 54 53
REMARK SMILES IDX 68 54 87 55 52 56 53 57 67 59 88 60 55 61 39 62 40 63 48 64
REMARK SMILES IDX 41 65 47 66 49 67 46 68 42 69 43 70 44 71 45 72 71 73 72 74
REMARK SMILES IDX 80 75 73 76 79 77 81 78 78 79 74 80 75 81 76 82 77 83 56 84
REMARK SMILES IDX 57 85 65 86 58 87 64 88 66 89 63 90 59 91 60 92 61 93 62 94
REMARK H PARENT 86 47 54 58
REMARK Flexibility Score: inf
ROOT
ATOM      1  C   UNL A   1      31.099  29.941  24.983  1.00  0.00     0.274 C 
ENDROOT
BRANCH   1   2
ATOM      2  O   UNL A   1      30.726  28.610  24.558  1.00  0.00    -0.462 OA
BRANCH   2   3
ATOM      3  C   UNL A   1      30.118  28.537  23.347  1.00  0.00     0.310 C 
ATOM      4  O   UNL A   1      29.421  29.435  22.879  1.00  0.00    -0.252 OA
BRANCH   3   5
ATOM      5  C   UNL A   1      30.264  27.220  22.625  1.00  0.00     0.162 C 
BRANCH   5   6
ATOM      6  C   UNL A   1      31.244  26.179  23.128  1.00  0.00     0.006 A 
ATOM      7  C   UNL A   1      32.621  26.374  22.980  1.00  0.00     0.122 A 
ATOM      8  C   UNL A   1      33.528  25.435  23.455  1.00  0.00     0.047 A 
ATOM      9  C   UNL A   1      33.065  24.301  24.130  1.00  0.00     0.016 A 
ATOM     10  C   UNL A   1      30.805  25.043  23.859  1.00  0.00     0.020 A 
ATOM     11  C   UNL A   1      31.693  24.075  24.352  1.00  0.00     0.022 A 
BRANCH   7  12
ATOM     12  O   UNL A   1      33.125  27.482  22.350  1.00  0.00    -0.496 OA
ATOM     13  C   UNL A   1      33.904  28.276  23.252  1.00  0.00     0.278 C 
ENDBRANCH   7  12
BRANCH  11  14
ATOM     14  C   UNL A   1      31.358  22.814  25.109  1.00  0.00     0.185 C 
ATOM     15  O   UNL A   1      30.500  22.905  25.997  1.00  0.00    -0.289 OA
BRANCH  14  16
ATOM     16  C   UNL A   1      31.987  21.462  24.975  1.00  0.00     0.053 C 
ATOM     17  C   UNL A   1      32.622  20.855  23.967  1.00  0.00     0.018 C 
BRANCH  17  18
ATOM     18  C   UNL A   1      33.211  19.505  24.029  1.00  0.00     0.046 A 
ATOM     19  C   UNL A   1      34.440  19.289  24.665  1.00  0.00     0.133 A 
ATOM     20  C   UNL A   1      32.645  18.426  23.348  1.00  0.00     0.133 A 
ATOM     21  F   UNL A   1      35.034  20.274  25.356  1.00  0.00    -0.206 F 
ATOM     22  C   UNL A   1      35.106  18.064  24.585  1.00  0.00     0.040 A 
ATOM     23  C   UNL A   1      33.295  17.191  23.266  1.00  0.00     0.040 A 
ATOM     24  F   UNL A   1      31.486  18.581  22.694  1.00  0.00    -0.206 F 
ATOM     25  C   UNL A   1      34.538  17.014  23.871  1.00  0.00     0.006 A 
ENDBRANCH  17  18
ENDBRANCH  14  16
ENDBRANCH  11  14
ENDBRANCH   5   6
ENDBRANCH   3   5
ENDBRANCH   2   3
ENDBRANCH   1   2
BRANCH   1  26
ATOM     26  C   UNL A   1      31.840  29.999  26.331  1.00  0.00     0.275 C 
BRANCH  26  27
ATOM     27  O   UNL A   1      33.231  30.356  26.216  1.00  0.00    -0.458 OA
BRANCH  27  28
ATOM     28  C   UNL A   1      33.607  31.257  27.151  1.00  0.00     0.338 C 
ATOM     29  O   UNL A   1      32.906  32.163  27.570  1.00  0.00    -0.246 OA
BRANCH  28  30
ATOM     30  C   UNL A   1      34.932  30.991  27.736  1.00  0.00     0.060 A 
ATOM     31  C   UNL A   1      35.150  29.731  28.306  1.00  0.00     0.016 A 
ATOM     32  C   UNL A   1      35.866  32.011  27.909  1.00  0.00     0.016 A 
ATOM     33  C   UNL A   1      36.290  29.483  29.063  1.00  0.00     0.010 A 
ATOM     34  C   UNL A   1      37.013  31.762  28.674  1.00  0.00     0.010 A 
ATOM     35  C   UNL A   1      37.226  30.501  29.261  1.00  0.00    -0.014 A 
BRANCH  35  36
ATOM     36  C   UNL A   1      38.465  30.218  30.018  1.00  0.00     0.031 A 
ATOM     37  C   UNL A   1      39.495  29.265  29.494  1.00  0.00     0.074 A 
ATOM     38  C   UNL A   1      38.647  30.845  31.192  1.00  0.00     0.049 A 
ATOM     39  N   UNL A   1      40.535  28.753  30.097  1.00  0.00    -0.248 NA
ATOM     40  C   UNL A   1      39.329  28.832  28.104  1.00  0.00     0.031 C 
ATOM     41  C   UNL A   1      37.750  31.858  31.750  1.00  0.00     0.029 A 
ATOM     42  N   UNL A   1      39.637  30.715  32.129  1.00  0.00    -0.354 N 
ATOM     43  C   UNL A   1      41.131  27.901  29.172  1.00  0.00     0.074 A 
ATOM     44  C   UNL A   1      40.333  27.974  27.965  1.00  0.00     0.031 C 
ATOM     45  C   UNL A   1      38.214  32.234  32.951  1.00  0.00     0.029 A 
ATOM     46  C   UNL A   1      39.408  31.455  33.263  1.00  0.00     0.049 A 
ATOM     47  H   UNL A   1      40.432  30.148  32.004  1.00  0.00     0.167 HD
ATOM     48  C   UNL A   1      42.237  27.131  29.330  1.00  0.00     0.034 A 
ATOM     49  C   UNL A   1      40.060  31.466  34.440  1.00  0.00     0.034 A 
ATOM     50  C   UNL A   1      43.032  27.113  30.537  1.00  0.00     0.049 A 
ATOM     51  C   UNL A   1      41.260  30.578  34.609  1.00  0.00     0.074 A 
ATOM     52  C   UNL A   1      44.181  26.388  30.808  1.00  0.00     0.029 A 
ATOM     53  N   UNL A   1      42.764  27.866  31.675  1.00  0.00    -0.354 N 
ATOM     54  N   UNL A   1      41.777  29.720  33.758  1.00  0.00    -0.248 NA
ATOM     55  C   UNL A   1      41.967  30.662  35.891  1.00  0.00     0.031 C 
ATOM     56  C   UNL A   1      44.577  26.665  32.123  1.00  0.00     0.029 A 
ATOM     57  C   UNL A   1      43.712  27.608  32.654  1.00  0.00     0.049 A 
ATOM     58  H   UNL A   1      42.011  28.491  31.773  1.00  0.00     0.167 HD
ATOM     59  C   UNL A   1      42.883  29.173  34.399  1.00  0.00     0.074 A 
ATOM     60  C   UNL A   1      42.962  29.808  35.702  1.00  0.00     0.031 C 
ATOM     61  C   UNL A   1      43.757  28.236  33.953  1.00  0.00     0.034 A 
BRANCH  48  62
ATOM     62  C   UNL A   1      42.609  26.195  28.204  1.00  0.00     0.023 A 
ATOM     63  C   UNL A   1      42.001  24.940  28.034  1.00  0.00     0.031 A 
ATOM     64  C   UNL A   1      43.605  26.572  27.283  1.00  0.00     0.131 A 
ATOM     65  C   UNL A   1      42.429  24.089  27.002  1.00  0.00     0.055 A 
ATOM     66  C   UNL A   1      43.980  25.750  26.219  1.00  0.00     0.041 A 
ATOM     67  F   UNL A   1      44.237  27.750  27.407  1.00  0.00    -0.206 F 
ATOM     68  C   UNL A   1      43.399  24.494  26.081  1.00  0.00     0.022 A 
BRANCH  65  69
ATOM     69  S   UNL A   1      41.782  22.394  26.941  1.00  0.00     0.124 S 
ATOM     70  O   UNL A   1      42.026  22.038  25.546  1.00  0.00    -0.237 OA
ATOM     71  O   UNL A   1      42.603  21.708  27.931  1.00  0.00    -0.237 OA
ATOM     72  O   UNL A   1      40.373  22.553  27.299  1.00  0.00    -0.744 OA
ENDBRANCH  65  69
ENDBRANCH  48  62
BRANCH  49  73
ATOM     73  C   UNL A   1      39.552  32.304  35.555  1.00  0.00     0.023 A 
ATOM     74  C   UNL A   1      39.967  33.633  35.709  1.00  0.00     0.031 A 
ATOM     75  C   UNL A   1      38.630  31.781  36.480  1.00  0.00     0.131 A 
ATOM     76  C   UNL A   1      39.476  34.394  36.780  1.00  0.00     0.055 A 
ATOM     77  C   UNL A   1      38.115  32.553  37.521  1.00  0.00     0.041 A 
ATOM     78  F   UNL A   1      38.196  30.516  36.364  1.00  0.00    -0.206 F 
ATOM     79  C   UNL A   1      38.545  33.867  37.679  1.00  0.00     0.022 A 
BRANCH  76  80
ATOM     80  S   UNL A   1      40.107  36.078  37.006  1.00  0.00     0.124 S 
ATOM     81  O   UNL A   1      41.518  35.834  37.282  1.00  0.00    -0.237 OA
ATOM     82  O   UNL A   1      39.802  36.691  35.718  1.00  0.00    -0.237 OA
ATOM     83  O   UNL A   1      39.328  36.584  38.134  1.00  0.00    -0.744 OA
ENDBRANCH  76  80
ENDBRANCH  49  73
BRANCH  61  84
ATOM     84  C   UNL A   1      44.888  27.881  34.881  1.00  0.00     0.023 A 
ATOM     85  C   UNL A   1      44.806  26.780  35.751  1.00  0.00     0.031 A 
ATOM     86  C   UNL A   1      46.044  28.678  34.922  1.00  0.00     0.131 A 
ATOM     87  C   UNL A   1      45.841  26.538  36.666  1.00  0.00     0.055 A 
ATOM     88  C   UNL A   1      47.093  28.404  35.800  1.00  0.00     0.041 A 
ATOM     89  F   UNL A   1      46.168  29.743  34.112  1.00  0.00    -0.206 F 
ATOM     90  C   UNL A   1      46.989  27.336  36.688  1.00  0.00     0.022 A 
BRANCH  87  91
ATOM     91  S   UNL A   1      45.630  25.214  37.888  1.00  0.00     0.124 S 
ATOM     92  O   UNL A   1      44.189  25.240  38.116  1.00  0.00    -0.237 OA
ATOM     93  O   UNL A   1      46.142  24.048  37.176  1.00  0.00    -0.237 OA
ATOM     94  O   UNL A   1      46.444  25.657  39.017  1.00  0.00    -0.744 OA
ENDBRANCH  87  91
ENDBRANCH  61  84
ENDBRANCH  35  36
ENDBRANCH  28  30
ENDBRANCH  27  28
ENDBRANCH  26  27
ENDBRANCH   1  26
TORSDOF 19
ENDMDL
MODEL 2
REMARK VINA RESULT:     -11.5      5.603     10.911
REMARK SMILES COc1ccc(C(=O)/C=C/c2c(F)cccc2F)cc1CC(=O)OCCOC(=O)c1ccc(-c2c3nc(c(-c4cc(S(=O)(=O)[O-])ccc4F)c4ccc([nH]4)c(-c4cc(S(=O)(=O)[O-])ccc4F)c4nc(c(-c5cc(S(=O)(=O)[O-])ccc5F)c5ccc2[nH]5)C=C4)C=C3)cc1
REMARK SMILES IDX 25 1 24 2 22 3 23 4 21 5 20 6 3 7 4 8 5 9 19 10 6 11 2 12
REMARK SMILES IDX 1 13 7 14 8 15 9 16 10 17 11 18 12 19 17 20 13 21 14 22
REMARK SMILES IDX 16 23 18 24 15 25 26 26 27 27 28 28 29 29 30 30 31 31 92 32
REMARK SMILES IDX 32 33 91 34 33 35 34 36 35 37 85 38 36 39 90 40 84 41 86 42
REMARK SMILES IDX 37 43 89 44 83 45 82 46 38 48 70 49 50 50 69 51 51 52 54 53
REMARK SMILES IDX 68 54 87 55 52 56 53 57 67 59 88 60 55 61 39 62 40 63 48 64
REMARK SMILES IDX 41 65 47 66 49 67 46 68 42 69 43 70 44 71 45 72 71 73 72 74
REMARK SMILES IDX 80 75 73 76 79 77 81 78 78 79 74 80 75 81 76 82 77 83 56 84
REMARK SMILES IDX 57 85 65 86 58 87 64 88 66 89 63 90 59 91 60 92 61 93 62 94
REMARK H PARENT 86 47 54 58
REMARK Flexibility Score: inf
ROOT
ATOM      1  C   UNL A   1      39.010  21.317  26.065  1.00  0.00     0.274 C 
ENDROOT
BRANCH   1   2
ATOM      2  O   UNL A   1      38.208  21.926  25.028  1.00  0.00    -0.462 OA
BRANCH   2   3
ATOM      3  C   UNL A   1      37.044  22.484  25.447  1.00  0.00     0.310 C 
ATOM      4  O   UNL A   1      36.984  23.524  26.100  1.00  0.00    -0.252 OA
BRANCH   3   5
ATOM      5  C   UNL A   1      35.797  21.689  25.148  1.00  0.00     0.162 C 
BRANCH   5   6
ATOM      6  C   UNL A   1      34.696  22.288  24.297  1.00  0.00     0.006 A 
ATOM      7  C   UNL A   1      33.587  21.517  23.931  1.00  0.00     0.122 A 
ATOM      8  C   UNL A   1      32.563  22.062  23.167  1.00  0.00     0.047 A 
ATOM      9  C   UNL A   1      32.613  23.409  22.795  1.00  0.00     0.016 A 
ATOM     10  C   UNL A   1      34.697  23.664  23.946  1.00  0.00     0.020 A 
ATOM     11  C   UNL A   1      33.680  24.247  23.176  1.00  0.00     0.022 A 
BRANCH   7  12
ATOM     12  O   UNL A   1      33.478  20.200  24.293  1.00  0.00    -0.496 OA
ATOM     13  C   UNL A   1      32.151  19.899  24.742  1.00  0.00     0.278 C 
ENDBRANCH   7  12
BRANCH  11  14
ATOM     14  C   UNL A   1      33.578  25.677  22.709  1.00  0.00     0.185 C 
ATOM     15  O   UNL A   1      33.689  25.879  21.492  1.00  0.00    -0.289 OA
BRANCH  14  16
ATOM     16  C   UNL A   1      33.432  26.912  23.542  1.00  0.00     0.053 C 
ATOM     17  C   UNL A   1      32.677  27.201  24.608  1.00  0.00     0.018 C 
BRANCH  17  18
ATOM     18  C   UNL A   1      32.687  28.486  25.329  1.00  0.00     0.046 A 
ATOM     19  C   UNL A   1      33.625  28.733  26.339  1.00  0.00     0.133 A 
ATOM     20  C   UNL A   1      31.692  29.445  25.132  1.00  0.00     0.133 A 
ATOM     21  F   UNL A   1      34.622  27.866  26.572  1.00  0.00    -0.206 F 
ATOM     22  C   UNL A   1      33.548  29.862  27.156  1.00  0.00     0.040 A 
ATOM     23  C   UNL A   1      31.606  30.585  25.937  1.00  0.00     0.040 A 
ATOM     24  F   UNL A   1      30.749  29.249  24.201  1.00  0.00    -0.206 F 
ATOM     25  C   UNL A   1      32.525  30.787  26.964  1.00  0.00     0.006 A 
ENDBRANCH  17  18
ENDBRANCH  14  16
ENDBRANCH  11  14
ENDBRANCH   5   6
ENDBRANCH   3   5
ENDBRANCH   2   3
ENDBRANCH   1   2
BRANCH   1  26
ATOM     26  C   UNL A   1      39.600  19.944  25.697  1.00  0.00     0.275 C 
BRANCH  26  27
ATOM     27  O   UNL A   1      40.615  19.483  26.610  1.00  0.00    -0.458 OA
BRANCH  27  28
ATOM     28  C   UNL A   1      41.859  19.608  26.097  1.00  0.00     0.338 C 
ATOM     29  O   UNL A   1      42.396  18.799  25.358  1.00  0.00    -0.246 OA
BRANCH  28  30
ATOM     30  C   UNL A   1      42.505  20.893  26.410  1.00  0.00     0.060 A 
ATOM     31  C   UNL A   1      42.582  21.273  27.755  1.00  0.00     0.016 A 
ATOM     32  C   UNL A   1      42.841  21.800  25.406  1.00  0.00     0.016 A 
ATOM     33  C   UNL A   1      42.978  22.558  28.109  1.00  0.00     0.010 A 
ATOM     34  C   UNL A   1      43.237  23.096  25.761  1.00  0.00     0.010 A 
ATOM     35  C   UNL A   1      43.300  23.483  27.113  1.00  0.00    -0.014 A 
BRANCH  35  36
ATOM     36  C   UNL A   1      43.775  24.831  27.492  1.00  0.00     0.031 A 
ATOM     37  C   UNL A   1      42.828  25.873  28.005  1.00  0.00     0.074 A 
ATOM     38  C   UNL A   1      45.086  25.099  27.372  1.00  0.00     0.049 A 
ATOM     39  N   UNL A   1      43.026  27.149  28.202  1.00  0.00    -0.248 NA
ATOM     40  C   UNL A   1      41.478  25.412  28.340  1.00  0.00     0.031 C 
ATOM     41  C   UNL A   1      46.106  24.129  26.968  1.00  0.00     0.029 A 
ATOM     42  N   UNL A   1      45.781  26.263  27.563  1.00  0.00    -0.354 N 
ATOM     43  C   UNL A   1      41.809  27.659  28.648  1.00  0.00     0.074 A 
ATOM     44  C   UNL A   1      40.885  26.545  28.696  1.00  0.00     0.031 C 
ATOM     45  C   UNL A   1      47.294  24.749  26.909  1.00  0.00     0.029 A 
ATOM     46  C   UNL A   1      47.107  26.162  27.223  1.00  0.00     0.049 A 
ATOM     47  H   UNL A   1      45.371  27.089  27.909  1.00  0.00     0.167 HD
ATOM     48  C   UNL A   1      41.505  28.940  28.977  1.00  0.00     0.034 A 
ATOM     49  C   UNL A   1      48.054  27.113  27.128  1.00  0.00     0.034 A 
ATOM     50  C   UNL A   1      42.466  30.019  28.955  1.00  0.00     0.049 A 
ATOM     51  C   UNL A   1      47.689  28.532  27.460  1.00  0.00     0.074 A 
ATOM     52  C   UNL A   1      42.281  31.353  29.283  1.00  0.00     0.029 A 
ATOM     53  N   UNL A   1      43.801  29.886  28.592  1.00  0.00    -0.354 N 
ATOM     54  N   UNL A   1      46.521  29.022  27.810  1.00  0.00    -0.248 NA
ATOM     55  C   UNL A   1      48.766  29.524  27.389  1.00  0.00     0.031 C 
ATOM     56  C   UNL A   1      43.487  32.031  29.071  1.00  0.00     0.029 A 
ATOM     57  C   UNL A   1      44.444  31.113  28.668  1.00  0.00     0.049 A 
ATOM     58  H   UNL A   1      44.230  29.043  28.319  1.00  0.00     0.167 HD
ATOM     59  C   UNL A   1      46.729  30.381  28.018  1.00  0.00     0.074 A 
ATOM     60  C   UNL A   1      48.137  30.627  27.764  1.00  0.00     0.031 C 
ATOM     61  C   UNL A   1      45.842  31.339  28.389  1.00  0.00     0.034 A 
BRANCH  48  62
ATOM     62  C   UNL A   1      40.068  29.256  29.317  1.00  0.00     0.023 A 
ATOM     63  C   UNL A   1      39.607  29.338  30.641  1.00  0.00     0.031 A 
ATOM     64  C   UNL A   1      39.138  29.474  28.283  1.00  0.00     0.131 A 
ATOM     65  C   UNL A   1      38.247  29.580  30.895  1.00  0.00     0.055 A 
ATOM     66  C   UNL A   1      37.800  29.779  28.542  1.00  0.00     0.041 A 
ATOM     67  F   UNL A   1      39.514  29.387  26.997  1.00  0.00    -0.206 F 
ATOM     68  C   UNL A   1      37.345  29.821  29.856  1.00  0.00     0.022 A 
BRANCH  65  69
ATOM     69  S   UNL A   1      37.642  29.464  32.603  1.00  0.00     0.124 S 
ATOM     70  O   UNL A   1      37.724  28.026  32.845  1.00  0.00    -0.237 OA
ATOM     71  O   UNL A   1      38.596  30.291  33.331  1.00  0.00    -0.237 OA
ATOM     72  O   UNL A   1      36.284  29.999  32.522  1.00  0.00    -0.744 OA
ENDBRANCH  65  69
ENDBRANCH  48  62
BRANCH  49  73
ATOM     73  C   UNL A   1      49.412  26.754  26.646  1.00  0.00     0.023 A 
ATOM     74  C   UNL A   1      49.837  27.099  25.356  1.00  0.00     0.031 A 
ATOM     75  C   UNL A   1      50.309  26.067  27.483  1.00  0.00     0.131 A 
ATOM     76  C   UNL A   1      51.123  26.735  24.929  1.00  0.00     0.055 A 
ATOM     77  C   UNL A   1      51.599  25.741  27.067  1.00  0.00     0.041 A 
ATOM     78  F   UNL A   1      49.948  25.726  28.731  1.00  0.00    -0.206 F 
ATOM     79  C   UNL A   1      52.010  26.069  25.779  1.00  0.00     0.022 A 
BRANCH  76  80
ATOM     80  S   UNL A   1      51.606  27.110  23.223  1.00  0.00     0.124 S 
ATOM     81  O   UNL A   1      52.784  26.268  23.053  1.00  0.00    -0.237 OA
ATOM     82  O   UNL A   1      50.417  26.708  22.477  1.00  0.00    -0.237 OA
ATOM     83  O   UNL A   1      51.864  28.547  23.251  1.00  0.00    -0.744 OA
ENDBRANCH  76  80
ENDBRANCH  49  73
BRANCH  61  84
ATOM     84  C   UNL A   1      46.394  32.727  28.573  1.00  0.00     0.023 A 
ATOM     85  C   UNL A   1      46.613  33.581  27.479  1.00  0.00     0.031 A 
ATOM     86  C   UNL A   1      46.742  33.184  29.856  1.00  0.00     0.131 A 
ATOM     87  C   UNL A   1      47.216  34.831  27.681  1.00  0.00     0.055 A 
ATOM     88  C   UNL A   1      47.297  34.448  30.057  1.00  0.00     0.041 A 
ATOM     89  F   UNL A   1      46.555  32.403  30.932  1.00  0.00    -0.206 F 
ATOM     90  C   UNL A   1      47.549  35.274  28.965  1.00  0.00     0.022 A 
BRANCH  87  91
ATOM     91  S   UNL A   1      47.639  35.838  26.233  1.00  0.00     0.124 S 
ATOM     92  O   UNL A   1      48.878  36.479  26.662  1.00  0.00    -0.237 OA
ATOM     93  O   UNL A   1      47.771  34.834  25.183  1.00  0.00    -0.237 OA
ATOM     94  O   UNL A   1      46.494  36.735  26.092  1.00  0.00    -0.744 OA
ENDBRANCH  87  91
ENDBRANCH  61  84
ENDBRANCH  35  36
ENDBRANCH  28  30
ENDBRANCH  27  28
ENDBRANCH  26  27
ENDBRANCH   1  26
TORSDOF 19
ENDMDL
MODEL 3
REMARK VINA RESULT:     -11.4      1.574      2.142
REMARK SMILES COc1ccc(C(=O)/C=C/c2c(F)cccc2F)cc1CC(=O)OCCOC(=O)c1ccc(-c2c3nc(c(-c4cc(S(=O)(=O)[O-])ccc4F)c4ccc([nH]4)c(-c4cc(S(=O)(=O)[O-])ccc4F)c4nc(c(-c5cc(S(=O)(=O)[O-])ccc5F)c5ccc2[nH]5)C=C4)C=C3)cc1
REMARK SMILES IDX 25 1 24 2 22 3 23 4 21 5 20 6 3 7 4 8 5 9 19 10 6 11 2 12
REMARK SMILES IDX 1 13 7 14 8 15 9 16 10 17 11 18 12 19 17 20 13 21 14 22
REMARK SMILES IDX 16 23 18 24 15 25 26 26 27 27 28 28 29 29 30 30 31 31 92 32
REMARK SMILES IDX 32 33 91 34 33 35 34 36 35 37 85 38 36 39 90 40 84 41 86 42
REMARK SMILES IDX 37 43 89 44 83 45 82 46 38 48 70 49 50 50 69 51 51 52 54 53
REMARK SMILES IDX 68 54 87 55 52 56 53 57 67 59 88 60 55 61 39 62 40 63 48 64
REMARK SMILES IDX 41 65 47 66 49 67 46 68 42 69 43 70 44 71 45 72 71 73 72 74
REMARK SMILES IDX 80 75 73 76 79 77 81 78 78 79 74 80 75 81 76 82 77 83 56 84
REMARK SMILES IDX 57 85 65 86 58 87 64 88 66 89 63 90 59 91 60 92 61 93 62 94
REMARK H PARENT 86 47 54 58
REMARK Flexibility Score: inf
ROOT
ATOM      1  C   UNL A   1      32.763  29.710  24.637  1.00  0.00     0.274 C 
ENDROOT
BRANCH   1   2
ATOM      2  O   UNL A   1      33.373  28.405  24.514  1.00  0.00    -0.462 OA
BRANCH   2   3
ATOM      3  C   UNL A   1      33.991  28.163  23.330  1.00  0.00     0.310 C 
ATOM      4  O   UNL A   1      34.776  28.946  22.799  1.00  0.00    -0.252 OA
BRANCH   3   5
ATOM      5  C   UNL A   1      33.580  26.892  22.630  1.00  0.00     0.162 C 
BRANCH   5   6
ATOM      6  C   UNL A   1      32.572  25.959  23.272  1.00  0.00     0.006 A 
ATOM      7  C   UNL A   1      31.213  26.058  22.953  1.00  0.00     0.122 A 
ATOM      8  C   UNL A   1      30.284  25.195  23.520  1.00  0.00     0.047 A 
ATOM      9  C   UNL A   1      30.712  24.184  24.386  1.00  0.00     0.016 A 
ATOM     10  C   UNL A   1      32.983  24.892  24.115  1.00  0.00     0.020 A 
ATOM     11  C   UNL A   1      32.072  24.004  24.705  1.00  0.00     0.022 A 
BRANCH   7  12
ATOM     12  O   UNL A   1      30.747  27.015  22.090  1.00  0.00    -0.496 OA
ATOM     13  C   UNL A   1      30.071  28.061  22.799  1.00  0.00     0.278 C 
ENDBRANCH   7  12
BRANCH  11  14
ATOM     14  C   UNL A   1      32.372  22.859  25.640  1.00  0.00     0.185 C 
ATOM     15  O   UNL A   1      32.377  23.112  26.852  1.00  0.00    -0.289 OA
BRANCH  14  16
ATOM     16  C   UNL A   1      32.742  21.452  25.288  1.00  0.00     0.053 C 
ATOM     17  C   UNL A   1      32.037  20.427  24.796  1.00  0.00     0.018 C 
BRANCH  17  18
ATOM     18  C   UNL A   1      32.588  19.097  24.479  1.00  0.00     0.046 A 
ATOM     19  C   UNL A   1      32.645  18.643  23.155  1.00  0.00     0.133 A 
ATOM     20  C   UNL A   1      32.944  18.193  25.481  1.00  0.00     0.133 A 
ATOM     21  F   UNL A   1      32.337  19.461  22.138  1.00  0.00    -0.206 F 
ATOM     22  C   UNL A   1      32.992  17.327  22.842  1.00  0.00     0.040 A 
ATOM     23  C   UNL A   1      33.301  16.875  25.183  1.00  0.00     0.040 A 
ATOM     24  F   UNL A   1      32.879  18.561  26.767  1.00  0.00    -0.206 F 
ATOM     25  C   UNL A   1      33.309  16.434  23.861  1.00  0.00     0.006 A 
ENDBRANCH  17  18
ENDBRANCH  14  16
ENDBRANCH  11  14
ENDBRANCH   5   6
ENDBRANCH   3   5
ENDBRANCH   2   3
ENDBRANCH   1   2
BRANCH   1  26
ATOM     26  C   UNL A   1      31.807  29.861  25.834  1.00  0.00     0.275 C 
BRANCH  26  27
ATOM     27  O   UNL A   1      32.476  29.930  27.109  1.00  0.00    -0.458 OA
BRANCH  27  28
ATOM     28  C   UNL A   1      33.193  31.066  27.248  1.00  0.00     0.338 C 
ATOM     29  O   UNL A   1      32.756  32.194  27.086  1.00  0.00    -0.246 OA
BRANCH  28  30
ATOM     30  C   UNL A   1      34.564  30.848  27.740  1.00  0.00     0.060 A 
ATOM     31  C   UNL A   1      34.911  29.555  28.149  1.00  0.00     0.016 A 
ATOM     32  C   UNL A   1      35.423  31.917  27.990  1.00  0.00     0.016 A 
ATOM     33  C   UNL A   1      36.105  29.319  28.821  1.00  0.00     0.010 A 
ATOM     34  C   UNL A   1      36.626  31.681  28.671  1.00  0.00     0.010 A 
ATOM     35  C   UNL A   1      36.967  30.383  29.096  1.00  0.00    -0.014 A 
BRANCH  35  36
ATOM     36  C   UNL A   1      38.262  30.122  29.760  1.00  0.00     0.031 A 
ATOM     37  C   UNL A   1      39.267  29.186  29.162  1.00  0.00     0.074 A 
ATOM     38  C   UNL A   1      38.520  30.753  30.918  1.00  0.00     0.049 A 
ATOM     39  N   UNL A   1      40.357  28.692  29.687  1.00  0.00    -0.248 NA
ATOM     40  C   UNL A   1      39.007  28.749  27.788  1.00  0.00     0.031 C 
ATOM     41  C   UNL A   1      37.650  31.752  31.540  1.00  0.00     0.029 A 
ATOM     42  N   UNL A   1      39.578  30.640  31.780  1.00  0.00    -0.354 N 
ATOM     43  C   UNL A   1      40.898  27.849  28.720  1.00  0.00     0.074 A 
ATOM     44  C   UNL A   1      40.013  27.908  27.576  1.00  0.00     0.031 C 
ATOM     45  C   UNL A   1      38.194  32.137  32.704  1.00  0.00     0.029 A 
ATOM     46  C   UNL A   1      39.420  31.378  32.928  1.00  0.00     0.049 A 
ATOM     47  H   UNL A   1      40.371  30.087  31.596  1.00  0.00     0.167 HD
ATOM     48  C   UNL A   1      42.025  27.097  28.797  1.00  0.00     0.034 A 
ATOM     49  C   UNL A   1      40.157  31.400  34.053  1.00  0.00     0.034 A 
ATOM     50  C   UNL A   1      42.906  27.094  29.942  1.00  0.00     0.049 A 
ATOM     51  C   UNL A   1      41.381  30.533  34.134  1.00  0.00     0.074 A 
ATOM     52  C   UNL A   1      44.084  26.388  30.129  1.00  0.00     0.029 A 
ATOM     53  N   UNL A   1      42.710  27.843  31.097  1.00  0.00    -0.354 N 
ATOM     54  N   UNL A   1      41.848  29.683  33.247  1.00  0.00    -0.248 NA
ATOM     55  C   UNL A   1      42.178  30.630  35.360  1.00  0.00     0.031 C 
ATOM     56  C   UNL A   1      44.571  26.672  31.411  1.00  0.00     0.029 A 
ATOM     57  C   UNL A   1      43.731  27.602  32.004  1.00  0.00     0.049 A 
ATOM     58  H   UNL A   1      41.956  28.456  31.250  1.00  0.00     0.167 HD
ATOM     59  C   UNL A   1      43.007  29.155  33.806  1.00  0.00     0.074 A 
ATOM     60  C   UNL A   1      43.170  29.792  35.099  1.00  0.00     0.031 C 
ATOM     61  C   UNL A   1      43.861  28.232  33.297  1.00  0.00     0.034 A 
BRANCH  48  62
ATOM     62  C   UNL A   1      42.329  26.166  27.647  1.00  0.00     0.023 A 
ATOM     63  C   UNL A   1      41.868  24.840  27.607  1.00  0.00     0.031 A 
ATOM     64  C   UNL A   1      43.107  26.623  26.566  1.00  0.00     0.131 A 
ATOM     65  C   UNL A   1      42.231  24.004  26.538  1.00  0.00     0.055 A 
ATOM     66  C   UNL A   1      43.410  25.808  25.474  1.00  0.00     0.041 A 
ATOM     67  F   UNL A   1      43.595  27.874  26.557  1.00  0.00    -0.206 F 
ATOM     68  C   UNL A   1      42.981  24.485  25.462  1.00  0.00     0.022 A 
BRANCH  65  69
ATOM     69  S   UNL A   1      41.805  22.242  26.622  1.00  0.00     0.124 S 
ATOM     70  O   UNL A   1      40.447  22.242  26.085  1.00  0.00    -0.237 OA
ATOM     71  O   UNL A   1      42.826  21.631  25.780  1.00  0.00    -0.237 OA
ATOM     72  O   UNL A   1      41.904  21.933  28.048  1.00  0.00    -0.744 OA
ENDBRANCH  65  69
ENDBRANCH  48  62
BRANCH  49  73
ATOM     73  C   UNL A   1      39.718  32.231  35.203  1.00  0.00     0.023 A 
ATOM     74  C   UNL A   1      38.916  31.695  36.219  1.00  0.00     0.031 A 
ATOM     75  C   UNL A   1      40.110  33.579  35.303  1.00  0.00     0.131 A 
ATOM     76  C   UNL A   1      38.510  32.511  37.286  1.00  0.00     0.055 A 
ATOM     77  C   UNL A   1      39.736  34.375  36.384  1.00  0.00     0.041 A 
ATOM     78  F   UNL A   1      40.888  34.131  34.358  1.00  0.00    -0.206 F 
ATOM     79  C   UNL A   1      38.924  33.842  37.381  1.00  0.00     0.022 A 
BRANCH  76  80
ATOM     80  S   UNL A   1      37.394  31.814  38.531  1.00  0.00     0.124 S 
ATOM     81  O   UNL A   1      38.183  31.947  39.750  1.00  0.00    -0.237 OA
ATOM     82  O   UNL A   1      36.232  32.690  38.421  1.00  0.00    -0.237 OA
ATOM     83  O   UNL A   1      37.183  30.443  38.071  1.00  0.00    -0.744 OA
ENDBRANCH  76  80
ENDBRANCH  49  73
BRANCH  61  84
ATOM     84  C   UNL A   1      45.063  27.896  34.139  1.00  0.00     0.023 A 
ATOM     85  C   UNL A   1      45.012  26.897  35.125  1.00  0.00     0.031 A 
ATOM     86  C   UNL A   1      46.260  28.614  33.977  1.00  0.00     0.131 A 
ATOM     87  C   UNL A   1      46.123  26.678  35.953  1.00  0.00     0.055 A 
ATOM     88  C   UNL A   1      47.379  28.359  34.771  1.00  0.00     0.041 A 
ATOM     89  F   UNL A   1      46.357  29.580  33.050  1.00  0.00    -0.206 F 
ATOM     90  C   UNL A   1      47.310  27.396  35.774  1.00  0.00     0.022 A 
BRANCH  87  91
ATOM     91  S   UNL A   1      45.969  25.502  37.325  1.00  0.00     0.124 S 
ATOM     92  O   UNL A   1      47.182  25.770  38.091  1.00  0.00    -0.237 OA
ATOM     93  O   UNL A   1      44.716  25.913  37.949  1.00  0.00    -0.237 OA
ATOM     94  O   UNL A   1      45.932  24.202  36.659  1.00  0.00    -0.744 OA
ENDBRANCH  87  91
ENDBRANCH  61  84
ENDBRANCH  35  36
ENDBRANCH  28  30
ENDBRANCH  27  28
ENDBRANCH  26  27
ENDBRANCH   1  26
TORSDOF 19
ENDMDL
