MODEL 1
REMARK VINA RESULT:     -10.0      0.000      0.000
REMARK SMILES C[C@H](C[NH3+])S[C@H](C)c1ccc(C(=O)OCCOC(=O)c2ccc(-c3c4nc(c(-c5cc(S(=O)(=O)[O-])ccc5F)c5ccc([nH]5)c(-c5cc(S(=O)(=O)[O-])ccc5F)c5nc(c(-c6cc(S(=O)(=O)[O-])ccc6F)c6ccc3[nH]6)C=C5)C=C4)cc2)o1
REMARK SMILES IDX 15 1 14 2 12 3 13 4 11 5 8 6 9 7 83 8 10 9 6 10 7 11 5 12
REMARK SMILES IDX 2 13 1 14 3 15 4 16 16 20 17 21 18 22 19 23 20 24 21 25
REMARK SMILES IDX 82 26 22 27 81 28 23 29 24 30 25 31 75 32 26 33 80 34 74 35
REMARK SMILES IDX 76 36 27 37 79 38 73 39 72 40 28 42 60 43 40 44 59 45 41 46
REMARK SMILES IDX 44 47 58 48 77 49 42 50 43 51 57 53 78 54 45 55 29 56 30 57
REMARK SMILES IDX 38 58 31 59 37 60 39 61 36 62 32 63 33 64 34 65 35 66 61 67
REMARK SMILES IDX 62 68 70 69 63 70 69 71 71 72 68 73 64 74 65 75 66 76 67 77
REMARK SMILES IDX 46 78 47 79 55 80 48 81 54 82 56 83 53 84 49 85 50 86 51 87
REMARK SMILES IDX 52 88
REMARK H PARENT 4 17 4 18 4 19 76 41 44 52
REMARK Flexibility Score: inf
ROOT
ATOM      1  C   UNL A   1      42.240  19.799  26.604  1.00  0.00     0.275 C 
ENDROOT
BRANCH   1   2
ATOM      2  O   UNL A   1      42.704  19.587  25.258  1.00  0.00    -0.456 OA
BRANCH   2   3
ATOM      3  C   UNL A   1      44.013  19.205  25.146  1.00  0.00     0.374 C 
ATOM      4  O   UNL A   1      44.404  18.053  25.235  1.00  0.00    -0.242 OA
BRANCH   3   5
ATOM      5  C   UNL A   1      44.840  20.349  24.837  1.00  0.00     0.211 A 
ATOM      6  C   UNL A   1      45.160  22.535  24.647  1.00  0.00     0.117 A 
ATOM      7  C   UNL A   1      46.391  21.934  24.466  1.00  0.00     0.048 A 
ATOM      8  O   UNL A   1      44.219  21.566  24.819  1.00  0.00    -0.453 OA
ATOM      9  C   UNL A   1      46.188  20.533  24.599  1.00  0.00     0.058 A 
BRANCH   6  10
ATOM     10  C   UNL A   1      44.713  23.961  24.802  1.00  0.00     0.110 C 
ATOM     11  C   UNL A   1      43.226  24.093  25.110  1.00  0.00     0.028 C 
BRANCH  10  12
ATOM     12  S   UNL A   1      45.752  24.979  25.927  1.00  0.00    -0.142 SA
BRANCH  12  13
ATOM     13  C   UNL A   1      46.896  25.864  24.784  1.00  0.00     0.099 C 
ATOM     14  C   UNL A   1      48.305  25.738  25.373  1.00  0.00     0.025 C 
BRANCH  13  15
ATOM     15  C   UNL A   1      46.515  27.344  24.561  1.00  0.00     0.273 C 
BRANCH  15  16
ATOM     16  N   UNL A   1      45.075  27.604  24.587  1.00  0.00    -0.357 N 
ATOM     17  H   UNL A   1      44.887  28.516  24.170  1.00  0.00     0.344 HD
ATOM     18  H   UNL A   1      44.746  27.598  25.553  1.00  0.00     0.344 HD
ATOM     19  H   UNL A   1      44.589  26.881  24.058  1.00  0.00     0.344 HD
ENDBRANCH  15  16
ENDBRANCH  13  15
ENDBRANCH  12  13
ENDBRANCH  10  12
ENDBRANCH   6  10
ENDBRANCH   3   5
ENDBRANCH   2   3
ENDBRANCH   1   2
BRANCH   1  20
ATOM     20  C   UNL A   1      40.725  20.036  26.651  1.00  0.00     0.275 C 
BRANCH  20  21
ATOM     21  O   UNL A   1      40.375  21.228  27.380  1.00  0.00    -0.458 OA
BRANCH  21  22
ATOM     22  C   UNL A   1      39.791  22.206  26.644  1.00  0.00     0.338 C 
ATOM     23  O   UNL A   1      39.030  22.048  25.703  1.00  0.00    -0.246 OA
BRANCH  22  24
ATOM     24  C   UNL A   1      40.106  23.528  27.217  1.00  0.00     0.060 A 
ATOM     25  C   UNL A   1      39.512  24.647  26.632  1.00  0.00     0.016 A 
ATOM     26  C   UNL A   1      41.024  23.685  28.257  1.00  0.00     0.016 A 
ATOM     27  C   UNL A   1      39.829  25.927  27.076  1.00  0.00     0.010 A 
ATOM     28  C   UNL A   1      41.344  24.976  28.705  1.00  0.00     0.010 A 
ATOM     29  C   UNL A   1      40.753  26.106  28.110  1.00  0.00    -0.014 A 
BRANCH  29  30
ATOM     30  C   UNL A   1      41.129  27.485  28.514  1.00  0.00     0.031 A 
ATOM     31  C   UNL A   1      42.569  27.911  28.470  1.00  0.00     0.074 A 
ATOM     32  C   UNL A   1      40.174  28.368  28.858  1.00  0.00     0.049 A 
ATOM     33  N   UNL A   1      43.110  29.050  28.819  1.00  0.00    -0.248 NA
ATOM     34  C   UNL A   1      43.528  26.918  27.964  1.00  0.00     0.031 C 
ATOM     35  C   UNL A   1      38.736  28.091  28.872  1.00  0.00     0.029 A 
ATOM     36  N   UNL A   1      40.264  29.680  29.252  1.00  0.00    -0.354 N 
ATOM     37  C   UNL A   1      44.474  28.911  28.585  1.00  0.00     0.074 A 
ATOM     38  C   UNL A   1      44.677  27.565  28.092  1.00  0.00     0.031 C 
ATOM     39  C   UNL A   1      38.081  29.201  29.248  1.00  0.00     0.029 A 
ATOM     40  C   UNL A   1      39.048  30.252  29.548  1.00  0.00     0.049 A 
ATOM     41  H   UNL A   1      41.119  30.165  29.317  1.00  0.00     0.167 HD
ATOM     42  C   UNL A   1      45.461  29.826  28.762  1.00  0.00     0.034 A 
ATOM     43  C   UNL A   1      38.752  31.474  30.032  1.00  0.00     0.034 A 
ATOM     44  C   UNL A   1      45.241  31.164  29.257  1.00  0.00     0.049 A 
ATOM     45  C   UNL A   1      39.874  32.444  30.301  1.00  0.00     0.074 A 
ATOM     46  C   UNL A   1      46.169  32.167  29.481  1.00  0.00     0.029 A 
ATOM     47  N   UNL A   1      44.002  31.688  29.608  1.00  0.00    -0.354 N 
ATOM     48  N   UNL A   1      41.165  32.288  30.112  1.00  0.00    -0.248 NA
ATOM     49  C   UNL A   1      39.500  33.754  30.849  1.00  0.00     0.031 C 
ATOM     50  C   UNL A   1      45.502  33.273  30.023  1.00  0.00     0.029 A 
ATOM     51  C   UNL A   1      44.147  32.986  30.075  1.00  0.00     0.049 A 
ATOM     52  H   UNL A   1      43.146  31.207  29.537  1.00  0.00     0.167 HD
ATOM     53  C   UNL A   1      41.753  33.488  30.503  1.00  0.00     0.074 A 
ATOM     54  C   UNL A   1      40.676  34.361  30.923  1.00  0.00     0.031 C 
ATOM     55  C   UNL A   1      43.065  33.838  30.510  1.00  0.00     0.034 A 
BRANCH  42  56
ATOM     56  C   UNL A   1      46.873  29.375  28.476  1.00  0.00     0.023 A 
ATOM     57  C   UNL A   1      47.662  28.740  29.451  1.00  0.00     0.031 A 
ATOM     58  C   UNL A   1      47.452  29.624  27.219  1.00  0.00     0.131 A 
ATOM     59  C   UNL A   1      49.006  28.440  29.177  1.00  0.00     0.055 A 
ATOM     60  C   UNL A   1      48.768  29.257  26.928  1.00  0.00     0.041 A 
ATOM     61  F   UNL A   1      46.755  30.246  26.256  1.00  0.00    -0.206 F 
ATOM     62  C   UNL A   1      49.558  28.675  27.916  1.00  0.00     0.022 A 
BRANCH  59  63
ATOM     63  S   UNL A   1      50.065  27.869  30.535  1.00  0.00     0.124 S 
ATOM     64  O   UNL A   1      49.242  26.823  31.135  1.00  0.00    -0.237 OA
ATOM     65  O   UNL A   1      51.263  27.418  29.835  1.00  0.00    -0.237 OA
ATOM     66  O   UNL A   1      50.240  29.063  31.361  1.00  0.00    -0.744 OA
ENDBRANCH  59  63
ENDBRANCH  42  56
BRANCH  43  67
ATOM     67  C   UNL A   1      37.341  31.836  30.349  1.00  0.00     0.023 A 
ATOM     68  C   UNL A   1      36.458  32.280  29.353  1.00  0.00     0.031 A 
ATOM     69  C   UNL A   1      36.872  31.783  31.675  1.00  0.00     0.131 A 
ATOM     70  C   UNL A   1      35.160  32.687  29.703  1.00  0.00     0.055 A 
ATOM     71  C   UNL A   1      35.566  32.143  32.010  1.00  0.00     0.041 A 
ATOM     72  F   UNL A   1      37.679  31.373  32.666  1.00  0.00    -0.206 F 
ATOM     73  C   UNL A   1      34.705  32.608  31.021  1.00  0.00     0.022 A 
BRANCH  70  74
ATOM     74  S   UNL A   1      34.093  33.398  28.418  1.00  0.00     0.124 S 
ATOM     75  O   UNL A   1      33.188  34.226  29.208  1.00  0.00    -0.237 OA
ATOM     76  O   UNL A   1      35.053  34.112  27.584  1.00  0.00    -0.237 OA
ATOM     77  O   UNL A   1      33.481  32.225  27.797  1.00  0.00    -0.744 OA
ENDBRANCH  70  74
ENDBRANCH  43  67
BRANCH  55  78
ATOM     78  C   UNL A   1      43.389  35.241  30.957  1.00  0.00     0.023 A 
ATOM     79  C   UNL A   1      43.451  35.587  32.317  1.00  0.00     0.031 A 
ATOM     80  C   UNL A   1      43.620  36.249  30.004  1.00  0.00     0.131 A 
ATOM     81  C   UNL A   1      43.686  36.920  32.689  1.00  0.00     0.055 A 
ATOM     82  C   UNL A   1      43.903  37.563  30.380  1.00  0.00     0.041 A 
ATOM     83  F   UNL A   1      43.573  35.972  28.692  1.00  0.00    -0.206 F 
ATOM     84  C   UNL A   1      43.925  37.907  31.729  1.00  0.00     0.022 A 
BRANCH  81  85
ATOM     85  S   UNL A   1      43.600  37.366  34.446  1.00  0.00     0.124 S 
ATOM     86  O   UNL A   1      42.239  36.970  34.793  1.00  0.00    -0.237 OA
ATOM     87  O   UNL A   1      44.667  36.559  35.026  1.00  0.00    -0.237 OA
ATOM     88  O   UNL A   1      43.844  38.808  34.446  1.00  0.00    -0.744 OA
ENDBRANCH  81  85
ENDBRANCH  55  78
ENDBRANCH  29  30
ENDBRANCH  22  24
ENDBRANCH  21  22
ENDBRANCH  20  21
ENDBRANCH   1  20
TORSDOF 19
ENDMDL
MODEL 2
REMARK VINA RESULT:      -9.6      5.051      9.492
REMARK SMILES C[C@H](C[NH3+])S[C@H](C)c1ccc(C(=O)OCCOC(=O)c2ccc(-c3c4nc(c(-c5cc(S(=O)(=O)[O-])ccc5F)c5ccc([nH]5)c(-c5cc(S(=O)(=O)[O-])ccc5F)c5nc(c(-c6cc(S(=O)(=O)[O-])ccc6F)c6ccc3[nH]6)C=C5)C=C4)cc2)o1
REMARK SMILES IDX 15 1 14 2 12 3 13 4 11 5 8 6 9 7 83 8 10 9 6 10 7 11 5 12
REMARK SMILES IDX 2 13 1 14 3 15 4 16 16 20 17 21 18 22 19 23 20 24 21 25
REMARK SMILES IDX 82 26 22 27 81 28 23 29 24 30 25 31 75 32 26 33 80 34 74 35
REMARK SMILES IDX 76 36 27 37 79 38 73 39 72 40 28 42 60 43 40 44 59 45 41 46
REMARK SMILES IDX 44 47 58 48 77 49 42 50 43 51 57 53 78 54 45 55 29 56 30 57
REMARK SMILES IDX 38 58 31 59 37 60 39 61 36 62 32 63 33 64 34 65 35 66 61 67
REMARK SMILES IDX 62 68 70 69 63 70 69 71 71 72 68 73 64 74 65 75 66 76 67 77
REMARK SMILES IDX 46 78 47 79 55 80 48 81 54 82 56 83 53 84 49 85 50 86 51 87
REMARK SMILES IDX 52 88
REMARK H PARENT 4 17 4 18 4 19 76 41 44 52
REMARK Flexibility Score: inf
ROOT
ATOM      1  C   UNL A   1      30.959  29.721  24.402  1.00  0.00     0.275 C 
ENDROOT
BRANCH   1   2
ATOM      2  O   UNL A   1      31.830  28.851  23.654  1.00  0.00    -0.456 OA
BRANCH   2   3
ATOM      3  C   UNL A   1      31.226  28.149  22.646  1.00  0.00     0.374 C 
ATOM      4  O   UNL A   1      30.232  28.522  22.048  1.00  0.00    -0.242 OA
BRANCH   3   5
ATOM      5  C   UNL A   1      31.979  26.950  22.356  1.00  0.00     0.211 A 
ATOM      6  C   UNL A   1      33.343  25.306  22.951  1.00  0.00     0.117 A 
ATOM      7  C   UNL A   1      32.900  25.015  21.674  1.00  0.00     0.048 A 
ATOM      8  O   UNL A   1      32.822  26.504  23.334  1.00  0.00    -0.453 OA
ATOM      9  C   UNL A   1      32.017  26.064  21.298  1.00  0.00     0.058 A 
BRANCH   6  10
ATOM     10  C   UNL A   1      34.137  24.544  23.974  1.00  0.00     0.110 C 
ATOM     11  C   UNL A   1      34.406  25.345  25.243  1.00  0.00     0.028 C 
BRANCH  10  12
ATOM     12  S   UNL A   1      33.512  22.853  24.334  1.00  0.00    -0.142 SA
BRANCH  12  13
ATOM     13  C   UNL A   1      34.763  22.163  25.500  1.00  0.00     0.099 C 
ATOM     14  C   UNL A   1      35.646  21.205  24.694  1.00  0.00     0.025 C 
BRANCH  13  15
ATOM     15  C   UNL A   1      34.137  21.453  26.720  1.00  0.00     0.273 C 
BRANCH  15  16
ATOM     16  N   UNL A   1      34.403  22.110  28.000  1.00  0.00    -0.357 N 
ATOM     17  H   UNL A   1      35.365  22.446  28.017  1.00  0.00     0.344 HD
ATOM     18  H   UNL A   1      34.262  21.444  28.760  1.00  0.00     0.344 HD
ATOM     19  H   UNL A   1      33.766  22.898  28.116  1.00  0.00     0.344 HD
ENDBRANCH  15  16
ENDBRANCH  13  15
ENDBRANCH  12  13
ENDBRANCH  10  12
ENDBRANCH   6  10
ENDBRANCH   3   5
ENDBRANCH   2   3
ENDBRANCH   1   2
BRANCH   1  20
ATOM     20  C   UNL A   1      31.423  29.872  25.856  1.00  0.00     0.275 C 
BRANCH  20  21
ATOM     21  O   UNL A   1      32.808  30.255  25.957  1.00  0.00    -0.458 OA
BRANCH  21  22
ATOM     22  C   UNL A   1      33.077  31.220  26.870  1.00  0.00     0.338 C 
ATOM     23  O   UNL A   1      32.335  32.133  27.198  1.00  0.00    -0.246 OA
BRANCH  22  24
ATOM     24  C   UNL A   1      34.369  30.952  27.527  1.00  0.00     0.060 A 
ATOM     25  C   UNL A   1      34.650  29.635  27.892  1.00  0.00     0.016 A 
ATOM     26  C   UNL A   1      35.260  31.975  27.854  1.00  0.00     0.016 A 
ATOM     27  C   UNL A   1      35.817  29.328  28.585  1.00  0.00     0.010 A 
ATOM     28  C   UNL A   1      36.437  31.666  28.554  1.00  0.00     0.010 A 
ATOM     29  C   UNL A   1      36.719  30.340  28.930  1.00  0.00    -0.014 A 
BRANCH  29  30
ATOM     30  C   UNL A   1      37.919  29.997  29.734  1.00  0.00     0.031 A 
ATOM     31  C   UNL A   1      38.954  29.064  29.173  1.00  0.00     0.074 A 
ATOM     32  C   UNL A   1      38.110  30.572  30.936  1.00  0.00     0.049 A 
ATOM     33  N   UNL A   1      40.048  28.606  29.726  1.00  0.00    -0.248 NA
ATOM     34  C   UNL A   1      38.724  28.582  27.803  1.00  0.00     0.031 C 
ATOM     35  C   UNL A   1      37.209  31.547  31.556  1.00  0.00     0.029 A 
ATOM     36  N   UNL A   1      39.125  30.430  31.848  1.00  0.00    -0.354 N 
ATOM     37  C   UNL A   1      40.635  27.773  28.778  1.00  0.00     0.074 A 
ATOM     38  C   UNL A   1      39.756  27.770  27.627  1.00  0.00     0.031 C 
ATOM     39  C   UNL A   1      37.717  31.918  32.742  1.00  0.00     0.029 A 
ATOM     40  C   UNL A   1      38.950  31.177  32.990  1.00  0.00     0.049 A 
ATOM     41  H   UNL A   1      39.905  29.847  31.700  1.00  0.00     0.167 HD
ATOM     42  C   UNL A   1      41.800  27.083  28.862  1.00  0.00     0.034 A 
ATOM     43  C   UNL A   1      39.685  31.236  34.118  1.00  0.00     0.034 A 
ATOM     44  C   UNL A   1      42.664  27.097  30.019  1.00  0.00     0.049 A 
ATOM     45  C   UNL A   1      40.931  30.394  34.221  1.00  0.00     0.074 A 
ATOM     46  C   UNL A   1      43.861  26.428  30.213  1.00  0.00     0.029 A 
ATOM     47  N   UNL A   1      42.420  27.816  31.184  1.00  0.00    -0.354 N 
ATOM     48  N   UNL A   1      41.455  29.580  33.334  1.00  0.00    -0.248 NA
ATOM     49  C   UNL A   1      41.683  30.477  35.480  1.00  0.00     0.031 C 
ATOM     50  C   UNL A   1      44.309  26.695  31.513  1.00  0.00     0.029 A 
ATOM     51  C   UNL A   1      43.428  27.583  32.109  1.00  0.00     0.049 A 
ATOM     52  H   UNL A   1      41.645  28.404  31.332  1.00  0.00     0.167 HD
ATOM     53  C   UNL A   1      42.609  29.069  33.921  1.00  0.00     0.074 A 
ATOM     54  C   UNL A   1      42.711  29.677  35.232  1.00  0.00     0.031 C 
ATOM     55  C   UNL A   1      43.505  28.181  33.421  1.00  0.00     0.034 A 
BRANCH  42  56
ATOM     56  C   UNL A   1      42.164  26.207  27.688  1.00  0.00     0.023 A 
ATOM     57  C   UNL A   1      41.714  24.879  27.584  1.00  0.00     0.031 A 
ATOM     58  C   UNL A   1      43.011  26.697  26.678  1.00  0.00     0.131 A 
ATOM     59  C   UNL A   1      42.169  24.066  26.534  1.00  0.00     0.055 A 
ATOM     60  C   UNL A   1      43.402  25.905  25.596  1.00  0.00     0.041 A 
ATOM     61  F   UNL A   1      43.490  27.949  26.736  1.00  0.00    -0.206 F 
ATOM     62  C   UNL A   1      42.993  24.576  25.528  1.00  0.00     0.022 A 
BRANCH  59  63
ATOM     63  S   UNL A   1      41.785  22.293  26.577  1.00  0.00     0.124 S 
ATOM     64  O   UNL A   1      42.464  21.813  25.376  1.00  0.00    -0.237 OA
ATOM     65  O   UNL A   1      42.362  21.874  27.849  1.00  0.00    -0.237 OA
ATOM     66  O   UNL A   1      40.325  22.255  26.513  1.00  0.00    -0.744 OA
ENDBRANCH  59  63
ENDBRANCH  42  56
BRANCH  43  67
ATOM     67  C   UNL A   1      39.237  32.077  35.265  1.00  0.00     0.023 A 
ATOM     68  C   UNL A   1      39.680  33.400  35.419  1.00  0.00     0.031 A 
ATOM     69  C   UNL A   1      38.388  31.544  36.252  1.00  0.00     0.131 A 
ATOM     70  C   UNL A   1      39.300  34.135  36.553  1.00  0.00     0.055 A 
ATOM     71  C   UNL A   1      37.975  32.295  37.353  1.00  0.00     0.041 A 
ATOM     72  F   UNL A   1      37.942  30.281  36.156  1.00  0.00    -0.206 F 
ATOM     73  C   UNL A   1      38.440  33.596  37.513  1.00  0.00     0.022 A 
BRANCH  70  74
ATOM     74  S   UNL A   1      40.010  35.787  36.800  1.00  0.00     0.124 S 
ATOM     75  O   UNL A   1      39.653  36.453  35.553  1.00  0.00    -0.237 OA
ATOM     76  O   UNL A   1      39.311  36.245  37.995  1.00  0.00    -0.237 OA
ATOM     77  O   UNL A   1      41.436  35.522  36.978  1.00  0.00    -0.744 OA
ENDBRANCH  70  74
ENDBRANCH  43  67
BRANCH  55  78
ATOM     78  C   UNL A   1      44.689  27.849  34.293  1.00  0.00     0.023 A 
ATOM     79  C   UNL A   1      44.662  26.774  35.199  1.00  0.00     0.031 A 
ATOM     80  C   UNL A   1      45.855  28.633  34.230  1.00  0.00     0.131 A 
ATOM     81  C   UNL A   1      45.759  26.544  36.042  1.00  0.00     0.055 A 
ATOM     82  C   UNL A   1      46.962  28.369  35.037  1.00  0.00     0.041 A 
ATOM     83  F   UNL A   1      45.933  29.672  33.383  1.00  0.00    -0.206 F 
ATOM     84  C   UNL A   1      46.913  27.326  35.958  1.00  0.00     0.022 A 
BRANCH  81  85
ATOM     85  S   UNL A   1      45.630  25.252  37.311  1.00  0.00     0.124 S 
ATOM     86  O   UNL A   1      44.393  24.577  36.933  1.00  0.00    -0.237 OA
ATOM     87  O   UNL A   1      46.859  24.492  37.109  1.00  0.00    -0.237 OA
ATOM     88  O   UNL A   1      45.567  26.005  38.563  1.00  0.00    -0.744 OA
ENDBRANCH  81  85
ENDBRANCH  55  78
ENDBRANCH  29  30
ENDBRANCH  22  24
ENDBRANCH  21  22
ENDBRANCH  20  21
ENDBRANCH   1  20
TORSDOF 19
ENDMDL
MODEL 3
REMARK VINA RESULT:      -9.6      4.376      6.841
REMARK SMILES C[C@H](C[NH3+])S[C@H](C)c1ccc(C(=O)OCCOC(=O)c2ccc(-c3c4nc(c(-c5cc(S(=O)(=O)[O-])ccc5F)c5ccc([nH]5)c(-c5cc(S(=O)(=O)[O-])ccc5F)c5nc(c(-c6cc(S(=O)(=O)[O-])ccc6F)c6ccc3[nH]6)C=C5)C=C4)cc2)o1
REMARK SMILES IDX 15 1 14 2 12 3 13 4 11 5 8 6 9 7 83 8 10 9 6 10 7 11 5 12
REMARK SMILES IDX 2 13 1 14 3 15 4 16 16 20 17 21 18 22 19 23 20 24 21 25
REMARK SMILES IDX 82 26 22 27 81 28 23 29 24 30 25 31 75 32 26 33 80 34 74 35
REMARK SMILES IDX 76 36 27 37 79 38 73 39 72 40 28 42 60 43 40 44 59 45 41 46
REMARK SMILES IDX 44 47 58 48 77 49 42 50 43 51 57 53 78 54 45 55 29 56 30 57
REMARK SMILES IDX 38 58 31 59 37 60 39 61 36 62 32 63 33 64 34 65 35 66 61 67
REMARK SMILES IDX 62 68 70 69 63 70 69 71 71 72 68 73 64 74 65 75 66 76 67 77
REMARK SMILES IDX 46 78 47 79 55 80 48 81 54 82 56 83 53 84 49 85 50 86 51 87
REMARK SMILES IDX 52 88
REMARK H PARENT 4 17 4 18 4 19 76 41 44 52
REMARK Flexibility Score: inf
ROOT
ATOM      1  C   UNL A   1      41.822  19.574  27.234  1.00  0.00     0.275 C 
ENDROOT
BRANCH   1   2
ATOM      2  O   UNL A   1      40.921  20.458  26.541  1.00  0.00    -0.456 OA
BRANCH   2   3
ATOM      3  C   UNL A   1      40.935  21.758  26.969  1.00  0.00     0.374 C 
ATOM      4  O   UNL A   1      41.858  22.271  27.578  1.00  0.00    -0.242 OA
BRANCH   3   5
ATOM      5  C   UNL A   1      39.738  22.438  26.532  1.00  0.00     0.211 A 
ATOM      6  C   UNL A   1      37.749  22.459  25.551  1.00  0.00     0.117 A 
ATOM      7  C   UNL A   1      37.924  23.704  26.125  1.00  0.00     0.048 A 
ATOM      8  O   UNL A   1      38.873  21.719  25.757  1.00  0.00    -0.453 OA
ATOM      9  C   UNL A   1      39.194  23.686  26.764  1.00  0.00     0.058 A 
BRANCH   6  10
ATOM     10  C   UNL A   1      36.586  21.773  24.892  1.00  0.00     0.110 C 
ATOM     11  C   UNL A   1      36.647  20.254  25.001  1.00  0.00     0.028 C 
BRANCH  10  12
ATOM     12  S   UNL A   1      34.935  22.441  25.350  1.00  0.00    -0.142 SA
BRANCH  12  13
ATOM     13  C   UNL A   1      33.755  21.343  24.454  1.00  0.00     0.099 C 
ATOM     14  C   UNL A   1      33.075  22.197  23.380  1.00  0.00     0.025 C 
BRANCH  13  15
ATOM     15  C   UNL A   1      32.715  20.677  25.381  1.00  0.00     0.273 C 
BRANCH  15  16
ATOM     16  N   UNL A   1      33.277  19.700  26.314  1.00  0.00    -0.357 N 
ATOM     17  H   UNL A   1      33.388  20.131  27.231  1.00  0.00     0.344 HD
ATOM     18  H   UNL A   1      34.187  19.389  25.973  1.00  0.00     0.344 HD
ATOM     19  H   UNL A   1      32.650  18.900  26.387  1.00  0.00     0.344 HD
ENDBRANCH  15  16
ENDBRANCH  13  15
ENDBRANCH  12  13
ENDBRANCH  10  12
ENDBRANCH   6  10
ENDBRANCH   3   5
ENDBRANCH   2   3
ENDBRANCH   1   2
BRANCH   1  20
ATOM     20  C   UNL A   1      42.620  18.700  26.259  1.00  0.00     0.275 C 
BRANCH  20  21
ATOM     21  O   UNL A   1      42.838  19.345  24.990  1.00  0.00    -0.458 OA
BRANCH  21  22
ATOM     22  C   UNL A   1      44.135  19.589  24.680  1.00  0.00     0.338 C 
ATOM     23  O   UNL A   1      44.914  18.806  24.160  1.00  0.00    -0.246 OA
BRANCH  22  24
ATOM     24  C   UNL A   1      44.465  21.001  24.948  1.00  0.00     0.060 A 
ATOM     25  C   UNL A   1      45.069  21.306  26.168  1.00  0.00     0.016 A 
ATOM     26  C   UNL A   1      44.121  22.022  24.061  1.00  0.00     0.016 A 
ATOM     27  C   UNL A   1      45.333  22.627  26.514  1.00  0.00     0.010 A 
ATOM     28  C   UNL A   1      44.387  23.355  24.410  1.00  0.00     0.010 A 
ATOM     29  C   UNL A   1      44.988  23.667  25.643  1.00  0.00    -0.014 A 
BRANCH  29  30
ATOM     30  C   UNL A   1      45.213  25.072  26.068  1.00  0.00     0.031 A 
ATOM     31  C   UNL A   1      46.582  25.678  25.952  1.00  0.00     0.074 A 
ATOM     32  C   UNL A   1      44.177  25.818  26.495  1.00  0.00     0.049 A 
ATOM     33  N   UNL A   1      46.996  26.869  26.304  1.00  0.00    -0.248 NA
ATOM     34  C   UNL A   1      47.624  24.829  25.358  1.00  0.00     0.031 C 
ATOM     35  C   UNL A   1      42.789  25.360  26.585  1.00  0.00     0.029 A 
ATOM     36  N   UNL A   1      44.126  27.120  26.924  1.00  0.00    -0.354 N 
ATOM     37  C   UNL A   1      48.350  26.911  25.986  1.00  0.00     0.074 A 
ATOM     38  C   UNL A   1      48.689  25.613  25.439  1.00  0.00     0.031 C 
ATOM     39  C   UNL A   1      42.024  26.368  27.035  1.00  0.00     0.029 A 
ATOM     40  C   UNL A   1      42.869  27.526  27.310  1.00  0.00     0.049 A 
ATOM     41  H   UNL A   1      44.915  27.709  26.955  1.00  0.00     0.167 HD
ATOM     42  C   UNL A   1      49.223  27.939  26.132  1.00  0.00     0.034 A 
ATOM     43  C   UNL A   1      42.453  28.689  27.849  1.00  0.00     0.034 A 
ATOM     44  C   UNL A   1      48.868  29.226  26.682  1.00  0.00     0.049 A 
ATOM     45  C   UNL A   1      43.459  29.786  28.082  1.00  0.00     0.074 A 
ATOM     46  C   UNL A   1      49.675  30.334  26.883  1.00  0.00     0.029 A 
ATOM     47  N   UNL A   1      47.597  29.580  27.123  1.00  0.00    -0.354 N 
ATOM     48  N   UNL A   1      44.744  29.801  27.813  1.00  0.00    -0.248 NA
ATOM     49  C   UNL A   1      42.958  31.025  28.693  1.00  0.00     0.031 C 
ATOM     50  C   UNL A   1      48.909  31.332  27.498  1.00  0.00     0.029 A 
ATOM     51  C   UNL A   1      47.607  30.874  27.621  1.00  0.00     0.049 A 
ATOM     52  H   UNL A   1      46.806  28.995  27.087  1.00  0.00     0.167 HD
ATOM     53  C   UNL A   1      45.200  31.056  28.205  1.00  0.00     0.074 A 
ATOM     54  C   UNL A   1      44.050  31.775  28.715  1.00  0.00     0.031 C 
ATOM     55  C   UNL A   1      46.456  31.570  28.146  1.00  0.00     0.034 A 
BRANCH  42  56
ATOM     56  C   UNL A   1      50.660  27.679  25.749  1.00  0.00     0.023 A 
ATOM     57  C   UNL A   1      51.120  27.846  24.431  1.00  0.00     0.031 A 
ATOM     58  C   UNL A   1      51.573  27.215  26.712  1.00  0.00     0.131 A 
ATOM     59  C   UNL A   1      52.434  27.485  24.098  1.00  0.00     0.055 A 
ATOM     60  C   UNL A   1      52.901  26.926  26.389  1.00  0.00     0.041 A 
ATOM     61  F   UNL A   1      51.186  27.015  27.982  1.00  0.00    -0.206 F 
ATOM     62  C   UNL A   1      53.334  27.046  25.072  1.00  0.00     0.022 A 
BRANCH  59  63
ATOM     63  S   UNL A   1      52.913  27.460  22.347  1.00  0.00     0.124 S 
ATOM     64  O   UNL A   1      53.835  26.328  22.307  1.00  0.00    -0.237 OA
ATOM     65  O   UNL A   1      51.634  27.268  21.672  1.00  0.00    -0.237 OA
ATOM     66  O   UNL A   1      53.535  28.767  22.143  1.00  0.00    -0.744 OA
ENDBRANCH  59  63
ENDBRANCH  42  56
BRANCH  43  67
ATOM     67  C   UNL A   1      41.030  28.860  28.261  1.00  0.00     0.023 A 
ATOM     68  C   UNL A   1      40.636  28.733  29.602  1.00  0.00     0.031 A 
ATOM     69  C   UNL A   1      40.034  29.112  27.300  1.00  0.00     0.131 A 
ATOM     70  C   UNL A   1      39.277  28.823  29.941  1.00  0.00     0.055 A 
ATOM     71  C   UNL A   1      38.690  29.248  27.648  1.00  0.00     0.041 A 
ATOM     72  F   UNL A   1      40.357  29.235  26.002  1.00  0.00    -0.206 F 
ATOM     73  C   UNL A   1      38.304  29.093  28.976  1.00  0.00     0.022 A 
BRANCH  70  74
ATOM     74  S   UNL A   1      38.783  28.504  31.658  1.00  0.00     0.124 S 
ATOM     75  O   UNL A   1      37.610  29.361  31.794  1.00  0.00    -0.237 OA
ATOM     76  O   UNL A   1      38.530  27.068  31.642  1.00  0.00    -0.237 OA
ATOM     77  O   UNL A   1      39.951  28.920  32.431  1.00  0.00    -0.744 OA
ENDBRANCH  70  74
ENDBRANCH  43  67
BRANCH  55  78
ATOM     78  C   UNL A   1      46.629  32.992  28.617  1.00  0.00     0.023 A 
ATOM     79  C   UNL A   1      46.572  34.077  27.725  1.00  0.00     0.031 A 
ATOM     80  C   UNL A   1      46.874  33.262  29.975  1.00  0.00     0.131 A 
ATOM     81  C   UNL A   1      46.809  35.378  28.192  1.00  0.00     0.055 A 
ATOM     82  C   UNL A   1      47.059  34.564  30.442  1.00  0.00     0.041 A 
ATOM     83  F   UNL A   1      46.938  32.263  30.869  1.00  0.00    -0.206 F 
ATOM     84  C   UNL A   1      47.039  35.629  29.547  1.00  0.00     0.022 A 
BRANCH  81  85
ATOM     85  S   UNL A   1      46.890  36.737  26.992  1.00  0.00     0.124 S 
ATOM     86  O   UNL A   1      45.991  37.722  27.586  1.00  0.00    -0.237 OA
ATOM     87  O   UNL A   1      48.308  37.080  27.002  1.00  0.00    -0.237 OA
ATOM     88  O   UNL A   1      46.409  36.129  25.752  1.00  0.00    -0.744 OA
ENDBRANCH  81  85
ENDBRANCH  55  78
ENDBRANCH  29  30
ENDBRANCH  22  24
ENDBRANCH  21  22
ENDBRANCH  20  21
ENDBRANCH   1  20
TORSDOF 19
ENDMDL
