MODEL 1
REMARK VINA RESULT:     -10.4      0.000      0.000
REMARK SMILES C[N@@H+]1CCC[C@@H](C[NH2+]CC(=O)OCCOC(=O)c2ccc(-c3c4nc(c(-c5cc(S(=O)(=O)[O-])ccc5F)c5ccc([nH]5)c(-c5cc(S(=O)(=O)[O-])ccc5F)c5nc(c(-c6cc(S(=O)(=O)[O-])ccc6F)c6ccc3[nH]6)C=C5)C=C4)cc2)C1
REMARK SMILES IDX 13 1 12 2 10 3 11 4 9 5 8 6 7 9 6 10 1 11 2 12 3 13 81 14
REMARK SMILES IDX 4 16 5 17 14 18 15 19 16 20 17 21 18 22 19 23 80 24 20 25
REMARK SMILES IDX 79 26 21 27 22 28 23 29 73 30 24 31 78 32 72 33 74 34 25 35
REMARK SMILES IDX 77 36 71 37 70 38 26 40 58 41 38 42 57 43 39 44 42 45 56 46
REMARK SMILES IDX 75 47 40 48 41 49 55 51 76 52 43 53 27 54 28 55 36 56 29 57
REMARK SMILES IDX 35 58 37 59 34 60 30 61 31 62 32 63 33 64 59 65 60 66 68 67
REMARK SMILES IDX 61 68 67 69 69 70 66 71 62 72 63 73 64 74 65 75 44 76 45 77
REMARK SMILES IDX 53 78 46 79 52 80 54 81 51 82 47 83 48 84 49 85 50 86
REMARK H PARENT 8 7 8 8 2 15 74 39 42 50
REMARK Flexibility Score: inf
ROOT
ATOM      1  C   UNL A   1      42.249  19.293  26.304  1.00  0.00     0.274 C 
ENDROOT
BRANCH   1   2
ATOM      2  O   UNL A   1      42.833  19.155  24.997  1.00  0.00    -0.458 OA
BRANCH   2   3
ATOM      3  C   UNL A   1      44.129  18.753  24.928  1.00  0.00     0.361 C 
ATOM      4  O   UNL A   1      44.647  17.959  25.705  1.00  0.00    -0.245 OA
BRANCH   3   5
ATOM      5  C   UNL A   1      44.895  19.432  23.787  1.00  0.00     0.384 C 
BRANCH   5   6
ATOM      6  N   UNL A   1      44.873  20.912  23.813  1.00  0.00    -0.337 N 
ATOM      7  H   UNL A   1      44.932  21.256  22.854  1.00  0.00     0.346 HD
ATOM      8  H   UNL A   1      44.004  21.200  24.264  1.00  0.00     0.346 HD
BRANCH   6   9
ATOM      9  C   UNL A   1      45.980  21.482  24.582  1.00  0.00     0.270 C 
BRANCH   9  10
ATOM     10  C   UNL A   1      45.523  22.263  25.835  1.00  0.00     0.099 C 
ATOM     11  C   UNL A   1      46.577  25.854  25.203  1.00  0.00     0.332 C 
ATOM     12  N   UNL A   1      45.841  24.604  24.995  1.00  0.00    -0.337 N 
ATOM     13  C   UNL A   1      44.397  24.847  24.977  1.00  0.00     0.262 C 
ATOM     14  C   UNL A   1      46.213  23.626  26.032  1.00  0.00     0.271 C 
ATOM     15  H   UNL A   1      46.093  24.218  24.085  1.00  0.00     0.347 HD
ATOM     16  C   UNL A   1      43.616  23.550  24.757  1.00  0.00     0.062 C 
ATOM     17  C   UNL A   1      43.999  22.483  25.783  1.00  0.00     0.021 C 
ENDBRANCH   9  10
ENDBRANCH   6   9
ENDBRANCH   5   6
ENDBRANCH   3   5
ENDBRANCH   2   3
ENDBRANCH   1   2
BRANCH   1  18
ATOM     18  C   UNL A   1      40.837  19.882  26.216  1.00  0.00     0.275 C 
BRANCH  18  19
ATOM     19  O   UNL A   1      40.707  21.069  27.021  1.00  0.00    -0.458 OA
BRANCH  19  20
ATOM     20  C   UNL A   1      39.864  22.003  26.524  1.00  0.00     0.338 C 
ATOM     21  O   UNL A   1      38.916  21.814  25.781  1.00  0.00    -0.246 OA
BRANCH  20  22
ATOM     22  C   UNL A   1      40.129  23.322  27.112  1.00  0.00     0.060 A 
ATOM     23  C   UNL A   1      39.491  24.421  26.528  1.00  0.00     0.016 A 
ATOM     24  C   UNL A   1      41.047  23.494  28.149  1.00  0.00     0.016 A 
ATOM     25  C   UNL A   1      39.787  25.706  26.965  1.00  0.00     0.010 A 
ATOM     26  C   UNL A   1      41.343  24.786  28.588  1.00  0.00     0.010 A 
ATOM     27  C   UNL A   1      40.727  25.898  27.983  1.00  0.00    -0.014 A 
BRANCH  27  28
ATOM     28  C   UNL A   1      41.119  27.275  28.355  1.00  0.00     0.031 A 
ATOM     29  C   UNL A   1      42.564  27.672  28.288  1.00  0.00     0.074 A 
ATOM     30  C   UNL A   1      40.174  28.164  28.709  1.00  0.00     0.049 A 
ATOM     31  N   UNL A   1      43.128  28.808  28.608  1.00  0.00    -0.248 NA
ATOM     32  C   UNL A   1      43.500  26.650  27.797  1.00  0.00     0.031 C 
ATOM     33  C   UNL A   1      38.737  27.888  28.758  1.00  0.00     0.029 A 
ATOM     34  N   UNL A   1      40.279  29.474  29.092  1.00  0.00    -0.354 N 
ATOM     35  C   UNL A   1      44.487  28.637  28.366  1.00  0.00     0.074 A 
ATOM     36  C   UNL A   1      44.663  27.276  27.904  1.00  0.00     0.031 C 
ATOM     37  C   UNL A   1      38.094  29.000  29.151  1.00  0.00     0.029 A 
ATOM     38  C   UNL A   1      39.074  30.048  29.422  1.00  0.00     0.049 A 
ATOM     39  H   UNL A   1      41.134  29.960  29.128  1.00  0.00     0.167 HD
ATOM     40  C   UNL A   1      45.490  29.538  28.514  1.00  0.00     0.034 A 
ATOM     41  C   UNL A   1      38.800  31.273  29.911  1.00  0.00     0.034 A 
ATOM     42  C   UNL A   1      45.287  30.887  28.986  1.00  0.00     0.049 A 
ATOM     43  C   UNL A   1      39.939  32.236  30.130  1.00  0.00     0.074 A 
ATOM     44  C   UNL A   1      46.226  31.886  29.180  1.00  0.00     0.029 A 
ATOM     45  N   UNL A   1      44.056  31.427  29.344  1.00  0.00    -0.354 N 
ATOM     46  N   UNL A   1      41.223  32.060  29.914  1.00  0.00    -0.248 NA
ATOM     47  C   UNL A   1      39.591  33.563  30.652  1.00  0.00     0.031 C 
ATOM     48  C   UNL A   1      45.573  33.005  29.712  1.00  0.00     0.029 A 
ATOM     49  C   UNL A   1      44.216  32.732  29.783  1.00  0.00     0.049 A 
ATOM     50  H   UNL A   1      43.197  30.950  29.294  1.00  0.00     0.167 HD
ATOM     51  C   UNL A   1      41.832  33.266  30.248  1.00  0.00     0.074 A 
ATOM     52  C   UNL A   1      40.774  34.162  30.668  1.00  0.00     0.031 C 
ATOM     53  C   UNL A   1      43.146  33.605  30.208  1.00  0.00     0.034 A 
BRANCH  40  54
ATOM     54  C   UNL A   1      46.892  29.063  28.219  1.00  0.00     0.023 A 
ATOM     55  C   UNL A   1      47.703  28.480  29.209  1.00  0.00     0.031 A 
ATOM     56  C   UNL A   1      47.442  29.236  26.936  1.00  0.00     0.131 A 
ATOM     57  C   UNL A   1      49.039  28.158  28.920  1.00  0.00     0.055 A 
ATOM     58  C   UNL A   1      48.747  28.844  26.634  1.00  0.00     0.041 A 
ATOM     59  F   UNL A   1      46.724  29.810  25.957  1.00  0.00    -0.206 F 
ATOM     60  C   UNL A   1      49.559  28.315  27.633  1.00  0.00     0.022 A 
BRANCH  57  61
ATOM     61  S   UNL A   1      50.131  27.666  30.283  1.00  0.00     0.124 S 
ATOM     62  O   UNL A   1      51.444  28.028  29.756  1.00  0.00    -0.237 OA
ATOM     63  O   UNL A   1      49.640  28.480  31.389  1.00  0.00    -0.237 OA
ATOM     64  O   UNL A   1      49.894  26.230  30.412  1.00  0.00    -0.744 OA
ENDBRANCH  57  61
ENDBRANCH  40  54
BRANCH  41  65
ATOM     65  C   UNL A   1      37.401  31.646  30.265  1.00  0.00     0.023 A 
ATOM     66  C   UNL A   1      36.507  32.125  29.297  1.00  0.00     0.031 A 
ATOM     67  C   UNL A   1      36.952  31.561  31.596  1.00  0.00     0.131 A 
ATOM     68  C   UNL A   1      35.221  32.540  29.679  1.00  0.00     0.055 A 
ATOM     69  C   UNL A   1      35.657  31.928  31.962  1.00  0.00     0.041 A 
ATOM     70  F   UNL A   1      37.768  31.108  32.561  1.00  0.00    -0.206 F 
ATOM     71  C   UNL A   1      34.786  32.433  31.002  1.00  0.00     0.022 A 
BRANCH  68  72
ATOM     72  S   UNL A   1      34.146  33.299  28.431  1.00  0.00     0.124 S 
ATOM     73  O   UNL A   1      33.525  32.129  27.822  1.00  0.00    -0.237 OA
ATOM     74  O   UNL A   1      33.275  34.136  29.250  1.00  0.00    -0.237 OA
ATOM     75  O   UNL A   1      35.080  34.028  27.574  1.00  0.00    -0.744 OA
ENDBRANCH  68  72
ENDBRANCH  41  65
BRANCH  53  76
ATOM     76  C   UNL A   1      43.492  35.024  30.584  1.00  0.00     0.023 A 
ATOM     77  C   UNL A   1      43.649  35.417  31.925  1.00  0.00     0.031 A 
ATOM     78  C   UNL A   1      43.650  35.999  29.584  1.00  0.00     0.131 A 
ATOM     79  C   UNL A   1      43.900  36.762  32.232  1.00  0.00     0.055 A 
ATOM     80  C   UNL A   1      43.955  37.325  29.893  1.00  0.00     0.041 A 
ATOM     81  F   UNL A   1      43.511  35.676  28.287  1.00  0.00    -0.206 F 
ATOM     82  C   UNL A   1      44.067  37.716  31.223  1.00  0.00     0.022 A 
BRANCH  79  83
ATOM     83  S   UNL A   1      43.917  37.272  33.973  1.00  0.00     0.124 S 
ATOM     84  O   UNL A   1      45.168  38.019  34.058  1.00  0.00    -0.237 OA
ATOM     85  O   UNL A   1      42.694  38.061  34.079  1.00  0.00    -0.237 OA
ATOM     86  O   UNL A   1      43.902  36.006  34.702  1.00  0.00    -0.744 OA
ENDBRANCH  79  83
ENDBRANCH  53  76
ENDBRANCH  27  28
ENDBRANCH  20  22
ENDBRANCH  19  20
ENDBRANCH  18  19
ENDBRANCH   1  18
TORSDOF 17
ENDMDL
MODEL 2
REMARK VINA RESULT:     -10.1      4.361     11.913
REMARK SMILES C[N@@H+]1CCC[C@@H](C[NH2+]CC(=O)OCCOC(=O)c2ccc(-c3c4nc(c(-c5cc(S(=O)(=O)[O-])ccc5F)c5ccc([nH]5)c(-c5cc(S(=O)(=O)[O-])ccc5F)c5nc(c(-c6cc(S(=O)(=O)[O-])ccc6F)c6ccc3[nH]6)C=C5)C=C4)cc2)C1
REMARK SMILES IDX 13 1 12 2 10 3 11 4 9 5 8 6 7 9 6 10 1 11 2 12 3 13 81 14
REMARK SMILES IDX 4 16 5 17 14 18 15 19 16 20 17 21 18 22 19 23 80 24 20 25
REMARK SMILES IDX 79 26 21 27 22 28 23 29 73 30 24 31 78 32 72 33 74 34 25 35
REMARK SMILES IDX 77 36 71 37 70 38 26 40 58 41 38 42 57 43 39 44 42 45 56 46
REMARK SMILES IDX 75 47 40 48 41 49 55 51 76 52 43 53 27 54 28 55 36 56 29 57
REMARK SMILES IDX 35 58 37 59 34 60 30 61 31 62 32 63 33 64 59 65 60 66 68 67
REMARK SMILES IDX 61 68 67 69 69 70 66 71 62 72 63 73 64 74 65 75 44 76 45 77
REMARK SMILES IDX 53 78 46 79 52 80 54 81 51 82 47 83 48 84 49 85 50 86
REMARK H PARENT 8 7 8 8 2 15 74 39 42 50
REMARK Flexibility Score: inf
ROOT
ATOM      1  C   UNL A   1      33.545  34.809  28.859  1.00  0.00     0.274 C 
ENDROOT
BRANCH   1   2
ATOM      2  O   UNL A   1      33.024  34.639  30.189  1.00  0.00    -0.458 OA
BRANCH   2   3
ATOM      3  C   UNL A   1      32.869  35.754  30.950  1.00  0.00     0.361 C 
ATOM      4  O   UNL A   1      32.696  36.879  30.496  1.00  0.00    -0.245 OA
BRANCH   3   5
ATOM      5  C   UNL A   1      32.973  35.461  32.451  1.00  0.00     0.384 C 
BRANCH   5   6
ATOM      6  N   UNL A   1      33.495  34.118  32.792  1.00  0.00    -0.337 N 
ATOM      7  H   UNL A   1      32.751  33.582  33.238  1.00  0.00     0.346 HD
ATOM      8  H   UNL A   1      33.807  33.679  31.925  1.00  0.00     0.346 HD
BRANCH   6   9
ATOM      9  C   UNL A   1      34.642  34.169  33.698  1.00  0.00     0.270 C 
BRANCH   9  10
ATOM     10  C   UNL A   1      35.710  33.091  33.405  1.00  0.00     0.099 C 
ATOM     11  C   UNL A   1      37.566  34.341  30.339  1.00  0.00     0.332 C 
ATOM     12  N   UNL A   1      37.098  34.336  31.728  1.00  0.00    -0.337 N 
ATOM     13  C   UNL A   1      38.224  34.433  32.658  1.00  0.00     0.262 C 
ATOM     14  C   UNL A   1      36.291  33.130  31.978  1.00  0.00     0.271 C 
ATOM     15  H   UNL A   1      36.508  35.154  31.883  1.00  0.00     0.347 HD
ATOM     16  C   UNL A   1      37.750  34.431  34.112  1.00  0.00     0.062 C 
ATOM     17  C   UNL A   1      36.868  33.219  34.414  1.00  0.00     0.021 C 
ENDBRANCH   9  10
ENDBRANCH   6   9
ENDBRANCH   5   6
ENDBRANCH   3   5
ENDBRANCH   2   3
ENDBRANCH   1   2
BRANCH   1  18
ATOM     18  C   UNL A   1      33.314  33.552  28.014  1.00  0.00     0.275 C 
BRANCH  18  19
ATOM     19  O   UNL A   1      34.558  32.922  27.653  1.00  0.00    -0.458 OA
BRANCH  19  20
ATOM     20  C   UNL A   1      34.548  31.570  27.713  1.00  0.00     0.338 C 
ATOM     21  O   UNL A   1      33.760  30.817  27.166  1.00  0.00    -0.246 OA
BRANCH  20  22
ATOM     22  C   UNL A   1      35.728  31.063  28.423  1.00  0.00     0.060 A 
ATOM     23  C   UNL A   1      36.968  31.608  28.072  1.00  0.00     0.016 A 
ATOM     24  C   UNL A   1      35.640  30.019  29.345  1.00  0.00     0.016 A 
ATOM     25  C   UNL A   1      38.133  31.092  28.626  1.00  0.00     0.010 A 
ATOM     26  C   UNL A   1      36.811  29.503  29.902  1.00  0.00     0.010 A 
ATOM     27  C   UNL A   1      38.063  30.026  29.529  1.00  0.00    -0.014 A 
BRANCH  27  28
ATOM     28  C   UNL A   1      39.316  29.410  30.019  1.00  0.00     0.031 A 
ATOM     29  C   UNL A   1      39.975  29.960  31.249  1.00  0.00     0.074 A 
ATOM     30  C   UNL A   1      39.827  28.342  29.380  1.00  0.00     0.049 A 
ATOM     31  N   UNL A   1      41.094  29.600  31.822  1.00  0.00    -0.248 NA
ATOM     32  C   UNL A   1      39.280  31.068  31.921  1.00  0.00     0.031 C 
ATOM     33  C   UNL A   1      39.234  27.702  28.204  1.00  0.00     0.029 A 
ATOM     34  N   UNL A   1      40.955  27.607  29.631  1.00  0.00    -0.354 N 
ATOM     35  C   UNL A   1      41.244  30.442  32.919  1.00  0.00     0.074 A 
ATOM     36  C   UNL A   1      40.117  31.350  32.909  1.00  0.00     0.031 C 
ATOM     37  C   UNL A   1      40.008  26.668  27.835  1.00  0.00     0.029 A 
ATOM     38  C   UNL A   1      41.169  26.600  28.719  1.00  0.00     0.049 A 
ATOM     39  H   UNL A   1      41.555  27.781  30.391  1.00  0.00     0.167 HD
ATOM     40  C   UNL A   1      42.232  30.447  33.849  1.00  0.00     0.034 A 
ATOM     41  C   UNL A   1      42.198  25.740  28.599  1.00  0.00     0.034 A 
ATOM     42  C   UNL A   1      43.350  29.534  33.831  1.00  0.00     0.049 A 
ATOM     43  C   UNL A   1      43.318  25.808  29.606  1.00  0.00     0.074 A 
ATOM     44  C   UNL A   1      44.412  29.449  34.714  1.00  0.00     0.029 A 
ATOM     45  N   UNL A   1      43.554  28.547  32.872  1.00  0.00    -0.354 N 
ATOM     46  N   UNL A   1      43.460  26.619  30.630  1.00  0.00    -0.248 NA
ATOM     47  C   UNL A   1      44.412  24.844  29.443  1.00  0.00     0.031 C 
ATOM     48  C   UNL A   1      45.286  28.455  34.256  1.00  0.00     0.029 A 
ATOM     49  C   UNL A   1      44.736  27.869  33.128  1.00  0.00     0.049 A 
ATOM     50  H   UNL A   1      42.947  28.359  32.120  1.00  0.00     0.167 HD
ATOM     51  C   UNL A   1      44.647  26.241  31.251  1.00  0.00     0.074 A 
ATOM     52  C   UNL A   1      45.173  25.124  30.492  1.00  0.00     0.031 C 
ATOM     53  C   UNL A   1      45.247  26.765  32.350  1.00  0.00     0.034 A 
BRANCH  40  54
ATOM     54  C   UNL A   1      42.168  31.513  34.916  1.00  0.00     0.023 A 
ATOM     55  C   UNL A   1      41.147  31.537  35.883  1.00  0.00     0.031 A 
ATOM     56  C   UNL A   1      43.120  32.548  34.939  1.00  0.00     0.131 A 
ATOM     57  C   UNL A   1      41.061  32.610  36.784  1.00  0.00     0.055 A 
ATOM     58  C   UNL A   1      43.073  33.572  35.887  1.00  0.00     0.041 A 
ATOM     59  F   UNL A   1      44.104  32.592  34.026  1.00  0.00    -0.206 F 
ATOM     60  C   UNL A   1      42.031  33.615  36.808  1.00  0.00     0.022 A 
BRANCH  57  61
ATOM     61  S   UNL A   1      39.586  32.751  37.831  1.00  0.00     0.124 S 
ATOM     62  O   UNL A   1      39.152  34.117  37.548  1.00  0.00    -0.237 OA
ATOM     63  O   UNL A   1      38.731  31.689  37.317  1.00  0.00    -0.237 OA
ATOM     64  O   UNL A   1      40.101  32.539  39.182  1.00  0.00    -0.744 OA
ENDBRANCH  57  61
ENDBRANCH  40  54
BRANCH  41  65
ATOM     65  C   UNL A   1      42.241  24.772  27.467  1.00  0.00     0.023 A 
ATOM     66  C   UNL A   1      41.507  23.578  27.501  1.00  0.00     0.031 A 
ATOM     67  C   UNL A   1      43.055  25.016  26.346  1.00  0.00     0.131 A 
ATOM     68  C   UNL A   1      41.631  22.652  26.453  1.00  0.00     0.055 A 
ATOM     69  C   UNL A   1      43.137  24.116  25.284  1.00  0.00     0.041 A 
ATOM     70  F   UNL A   1      43.779  26.144  26.263  1.00  0.00    -0.206 F 
ATOM     71  C   UNL A   1      42.430  22.918  25.339  1.00  0.00     0.022 A 
BRANCH  68  72
ATOM     72  S   UNL A   1      40.790  21.052  26.602  1.00  0.00     0.124 S 
ATOM     73  O   UNL A   1      41.679  20.177  25.845  1.00  0.00    -0.237 OA
ATOM     74  O   UNL A   1      40.771  20.853  28.048  1.00  0.00    -0.237 OA
ATOM     75  O   UNL A   1      39.484  21.294  25.992  1.00  0.00    -0.744 OA
ENDBRANCH  68  72
ENDBRANCH  41  65
BRANCH  53  76
ATOM     76  C   UNL A   1      46.515  26.092  32.816  1.00  0.00     0.023 A 
ATOM     77  C   UNL A   1      46.488  24.963  33.653  1.00  0.00     0.031 A 
ATOM     78  C   UNL A   1      47.766  26.603  32.429  1.00  0.00     0.131 A 
ATOM     79  C   UNL A   1      47.691  24.414  34.121  1.00  0.00     0.055 A 
ATOM     80  C   UNL A   1      48.960  26.019  32.853  1.00  0.00     0.041 A 
ATOM     81  F   UNL A   1      47.847  27.680  31.630  1.00  0.00    -0.206 F 
ATOM     82  C   UNL A   1      48.928  24.927  33.714  1.00  0.00     0.022 A 
BRANCH  79  83
ATOM     83  S   UNL A   1      47.623  23.073  35.340  1.00  0.00     0.124 S 
ATOM     84  O   UNL A   1      47.086  23.756  36.513  1.00  0.00    -0.237 OA
ATOM     85  O   UNL A   1      46.731  22.112  34.698  1.00  0.00    -0.237 OA
ATOM     86  O   UNL A   1      49.015  22.643  35.457  1.00  0.00    -0.744 OA
ENDBRANCH  79  83
ENDBRANCH  53  76
ENDBRANCH  27  28
ENDBRANCH  20  22
ENDBRANCH  19  20
ENDBRANCH  18  19
ENDBRANCH   1  18
TORSDOF 17
ENDMDL
MODEL 3
REMARK VINA RESULT:     -10.0      5.735     11.970
REMARK SMILES C[N@@H+]1CCC[C@@H](C[NH2+]CC(=O)OCCOC(=O)c2ccc(-c3c4nc(c(-c5cc(S(=O)(=O)[O-])ccc5F)c5ccc([nH]5)c(-c5cc(S(=O)(=O)[O-])ccc5F)c5nc(c(-c6cc(S(=O)(=O)[O-])ccc6F)c6ccc3[nH]6)C=C5)C=C4)cc2)C1
REMARK SMILES IDX 13 1 12 2 10 3 11 4 9 5 8 6 7 9 6 10 1 11 2 12 3 13 81 14
REMARK SMILES IDX 4 16 5 17 14 18 15 19 16 20 17 21 18 22 19 23 80 24 20 25
REMARK SMILES IDX 79 26 21 27 22 28 23 29 73 30 24 31 78 32 72 33 74 34 25 35
REMARK SMILES IDX 77 36 71 37 70 38 26 40 58 41 38 42 57 43 39 44 42 45 56 46
REMARK SMILES IDX 75 47 40 48 41 49 55 51 76 52 43 53 27 54 28 55 36 56 29 57
REMARK SMILES IDX 35 58 37 59 34 60 30 61 31 62 32 63 33 64 59 65 60 66 68 67
REMARK SMILES IDX 61 68 67 69 69 70 66 71 62 72 63 73 64 74 65 75 44 76 45 77
REMARK SMILES IDX 53 78 46 79 52 80 54 81 51 82 47 83 48 84 49 85 50 86
REMARK H PARENT 8 7 8 8 2 15 74 39 42 50
REMARK Flexibility Score: inf
ROOT
ATOM      1  C   UNL A   1      31.458  31.236  26.404  1.00  0.00     0.274 C 
ENDROOT
BRANCH   1   2
ATOM      2  O   UNL A   1      32.436  30.254  26.792  1.00  0.00    -0.458 OA
BRANCH   2   3
ATOM      3  C   UNL A   1      32.588  29.170  25.988  1.00  0.00     0.361 C 
ATOM      4  O   UNL A   1      33.555  28.417  26.021  1.00  0.00    -0.245 OA
BRANCH   3   5
ATOM      5  C   UNL A   1      31.430  29.005  24.998  1.00  0.00     0.384 C 
BRANCH   5   6
ATOM      6  N   UNL A   1      31.647  29.624  23.671  1.00  0.00    -0.337 N 
ATOM      7  H   UNL A   1      31.764  30.629  23.795  1.00  0.00     0.346 HD
ATOM      8  H   UNL A   1      32.478  29.195  23.263  1.00  0.00     0.346 HD
BRANCH   6   9
ATOM      9  C   UNL A   1      30.534  29.393  22.749  1.00  0.00     0.270 C 
BRANCH   9  10
ATOM     10  C   UNL A   1      29.161  29.816  23.319  1.00  0.00     0.099 C 
ATOM     11  C   UNL A   1      29.129  33.606  23.116  1.00  0.00     0.332 C 
ATOM     12  N   UNL A   1      29.156  32.226  22.625  1.00  0.00    -0.337 N 
ATOM     13  C   UNL A   1      28.082  31.996  21.657  1.00  0.00     0.262 C 
ATOM     14  C   UNL A   1      29.073  31.290  23.759  1.00  0.00     0.271 C 
ATOM     15  H   UNL A   1      30.038  32.063  22.139  1.00  0.00     0.347 HD
ATOM     16  C   UNL A   1      28.099  30.558  21.133  1.00  0.00     0.062 C 
ATOM     17  C   UNL A   1      28.060  29.543  22.276  1.00  0.00     0.021 C 
ENDBRANCH   9  10
ENDBRANCH   6   9
ENDBRANCH   5   6
ENDBRANCH   3   5
ENDBRANCH   2   3
ENDBRANCH   1   2
BRANCH   1  18
ATOM     18  C   UNL A   1      31.780  32.604  27.018  1.00  0.00     0.275 C 
BRANCH  18  19
ATOM     19  O   UNL A   1      33.176  32.929  26.883  1.00  0.00    -0.458 OA
BRANCH  19  20
ATOM     20  C   UNL A   1      33.728  33.524  27.965  1.00  0.00     0.338 C 
ATOM     21  O   UNL A   1      33.251  34.430  28.627  1.00  0.00    -0.246 OA
BRANCH  20  22
ATOM     22  C   UNL A   1      34.961  32.841  28.374  1.00  0.00     0.060 A 
ATOM     23  C   UNL A   1      34.833  31.546  28.888  1.00  0.00     0.016 A 
ATOM     24  C   UNL A   1      36.202  33.479  28.340  1.00  0.00     0.016 A 
ATOM     25  C   UNL A   1      35.947  30.890  29.397  1.00  0.00     0.010 A 
ATOM     26  C   UNL A   1      37.321  32.817  28.850  1.00  0.00     0.010 A 
ATOM     27  C   UNL A   1      37.192  31.527  29.398  1.00  0.00    -0.014 A 
BRANCH  27  28
ATOM     28  C   UNL A   1      38.343  30.864  30.049  1.00  0.00     0.031 A 
ATOM     29  C   UNL A   1      38.686  31.209  31.468  1.00  0.00     0.074 A 
ATOM     30  C   UNL A   1      39.042  29.932  29.376  1.00  0.00     0.049 A 
ATOM     31  N   UNL A   1      39.673  30.781  32.211  1.00  0.00    -0.248 NA
ATOM     32  C   UNL A   1      37.798  32.171  32.138  1.00  0.00     0.031 C 
ATOM     33  C   UNL A   1      38.758  29.491  28.010  1.00  0.00     0.029 A 
ATOM     34  N   UNL A   1      40.130  29.190  29.750  1.00  0.00    -0.354 N 
ATOM     35  C   UNL A   1      39.532  31.426  33.435  1.00  0.00     0.074 A 
ATOM     36  C   UNL A   1      38.382  32.298  33.320  1.00  0.00     0.031 C 
ATOM     37  C   UNL A   1      39.653  28.552  27.660  1.00  0.00     0.029 A 
ATOM     38  C   UNL A   1      40.596  28.359  28.758  1.00  0.00     0.049 A 
ATOM     39  H   UNL A   1      40.541  29.245  30.643  1.00  0.00     0.167 HD
ATOM     40  C   UNL A   1      40.293  31.293  34.551  1.00  0.00     0.034 A 
ATOM     41  C   UNL A   1      41.676  27.555  28.734  1.00  0.00     0.034 A 
ATOM     42  C   UNL A   1      41.440  30.421  34.635  1.00  0.00     0.049 A 
ATOM     43  C   UNL A   1      42.545  27.474  29.963  1.00  0.00     0.074 A 
ATOM     44  C   UNL A   1      42.288  30.209  35.708  1.00  0.00     0.029 A 
ATOM     45  N   UNL A   1      41.905  29.618  33.599  1.00  0.00    -0.354 N 
ATOM     46  N   UNL A   1      42.414  28.100  31.111  1.00  0.00    -0.248 NA
ATOM     47  C   UNL A   1      43.704  26.575  29.895  1.00  0.00     0.031 C 
ATOM     48  C   UNL A   1      43.298  29.328  35.302  1.00  0.00     0.029 A 
ATOM     49  C   UNL A   1      43.042  28.932  33.999  1.00  0.00     0.049 A 
ATOM     50  H   UNL A   1      41.488  29.548  32.710  1.00  0.00     0.167 HD
ATOM     51  C   UNL A   1      43.458  27.647  31.912  1.00  0.00     0.074 A 
ATOM     52  C   UNL A   1      44.202  26.688  31.119  1.00  0.00     0.031 C 
ATOM     53  C   UNL A   1      43.774  27.988  33.187  1.00  0.00     0.034 A 
BRANCH  40  54
ATOM     54  C   UNL A   1      39.936  32.159  35.734  1.00  0.00     0.023 A 
ATOM     55  C   UNL A   1      38.990  31.755  36.693  1.00  0.00     0.031 A 
ATOM     56  C   UNL A   1      40.520  33.430  35.882  1.00  0.00     0.131 A 
ATOM     57  C   UNL A   1      38.605  32.639  37.713  1.00  0.00     0.055 A 
ATOM     58  C   UNL A   1      40.189  34.275  36.943  1.00  0.00     0.041 A 
ATOM     59  F   UNL A   1      41.411  33.881  34.984  1.00  0.00    -0.206 F 
ATOM     60  C   UNL A   1      39.215  33.888  37.858  1.00  0.00     0.022 A 
BRANCH  57  61
ATOM     61  S   UNL A   1      37.193  32.195  38.763  1.00  0.00     0.124 S 
ATOM     62  O   UNL A   1      36.112  32.957  38.143  1.00  0.00    -0.237 OA
ATOM     63  O   UNL A   1      37.126  30.747  38.606  1.00  0.00    -0.237 OA
ATOM     64  O   UNL A   1      37.591  32.661  40.090  1.00  0.00    -0.744 OA
ENDBRANCH  57  61
ENDBRANCH  40  54
BRANCH  41  65
ATOM     65  C   UNL A   1      42.021  26.796  27.499  1.00  0.00     0.023 A 
ATOM     66  C   UNL A   1      41.821  25.410  27.416  1.00  0.00     0.031 A 
ATOM     67  C   UNL A   1      42.594  27.449  26.393  1.00  0.00     0.131 A 
ATOM     68  C   UNL A   1      42.229  24.714  26.267  1.00  0.00     0.055 A 
ATOM     69  C   UNL A   1      42.953  26.761  25.234  1.00  0.00     0.041 A 
ATOM     70  F   UNL A   1      42.807  28.775  26.421  1.00  0.00    -0.206 F 
ATOM     71  C   UNL A   1      42.781  25.381  25.171  1.00  0.00     0.022 A 
BRANCH  68  72
ATOM     72  S   UNL A   1      42.100  22.905  26.254  1.00  0.00     0.124 S 
ATOM     73  O   UNL A   1      42.901  22.541  27.418  1.00  0.00    -0.237 OA
ATOM     74  O   UNL A   1      40.660  22.703  26.378  1.00  0.00    -0.237 OA
ATOM     75  O   UNL A   1      42.670  22.531  24.961  1.00  0.00    -0.744 OA
ENDBRANCH  68  72
ENDBRANCH  41  65
BRANCH  53  76
ATOM     76  C   UNL A   1      44.948  27.274  33.810  1.00  0.00     0.023 A 
ATOM     77  C   UNL A   1      44.795  26.050  34.485  1.00  0.00     0.031 A 
ATOM     78  C   UNL A   1      46.233  27.837  33.738  1.00  0.00     0.131 A 
ATOM     79  C   UNL A   1      45.901  25.457  35.112  1.00  0.00     0.055 A 
ATOM     80  C   UNL A   1      47.340  27.215  34.316  1.00  0.00     0.041 A 
ATOM     81  F   UNL A   1      46.433  29.004  33.104  1.00  0.00    -0.206 F 
ATOM     82  C   UNL A   1      47.176  26.025  35.019  1.00  0.00     0.022 A 
BRANCH  79  83
ATOM     83  S   UNL A   1      45.640  23.977  36.127  1.00  0.00     0.124 S 
ATOM     84  O   UNL A   1      44.200  24.019  36.361  1.00  0.00    -0.237 OA
ATOM     85  O   UNL A   1      46.113  22.910  35.250  1.00  0.00    -0.237 OA
ATOM     86  O   UNL A   1      46.466  24.219  37.308  1.00  0.00    -0.744 OA
ENDBRANCH  79  83
ENDBRANCH  53  76
ENDBRANCH  27  28
ENDBRANCH  20  22
ENDBRANCH  19  20
ENDBRANCH  18  19
ENDBRANCH   1  18
TORSDOF 17
ENDMDL
