MODEL 1
REMARK VINA RESULT:     -14.4      0.000      0.000
REMARK SMILES O=C(OCCOC(=O)c1ccc(-c2c3nc(c(-c4cc(S(=O)(=O)[O-])ccc4F)c4ccc([nH]4)c(-c4cc(S(=O)(=O)[O-])ccc4F)c4nc(c(-c5cc(S(=O)(=O)[O-])ccc5F)c5ccc2[nH]5)C=C4)C=C3)cc1)C1=Cc2ccc(Cl)c(Cl)c2O[C@@H]1C(F)(F)F
REMARK SMILES IDX 5 1 4 2 3 3 2 4 1 5 72 6 73 7 83 8 74 9 82 10 75 11 81 12
REMARK SMILES IDX 76 13 79 14 77 15 80 16 78 17 84 18 85 19 86 20 87 21 6 22
REMARK SMILES IDX 7 23 8 24 9 25 10 26 71 27 11 28 70 29 12 30 13 31 14 32
REMARK SMILES IDX 64 33 15 34 69 35 63 36 65 37 16 38 68 39 62 40 61 41 17 43
REMARK SMILES IDX 49 44 29 45 48 46 30 47 33 48 47 49 66 50 31 51 32 52 46 54
REMARK SMILES IDX 67 55 34 56 18 57 19 58 27 59 20 60 26 61 28 62 25 63 21 64
REMARK SMILES IDX 22 65 23 66 24 67 50 68 51 69 59 70 52 71 58 72 60 73 57 74
REMARK SMILES IDX 53 75 54 76 55 77 56 78 35 79 36 80 44 81 37 82 43 83 45 84
REMARK SMILES IDX 42 85 38 86 39 87 40 88 41 89
REMARK H PARENT 65 42 33 53
REMARK Flexibility Score: inf
ROOT
ATOM      1  C   UNL A   1      38.079  19.784  24.688  1.00  0.00     0.275 C 
ENDROOT
BRANCH   1   2
ATOM      2  C   UNL A   1      36.383  20.959  25.359  1.00  0.00     0.275 C 
BRANCH   2   3
ATOM      3  O   UNL A   1      36.008  22.393  24.917  1.00  0.00    -0.459 OA
BRANCH   3   4
ATOM      4  C   UNL A   1      34.701  22.531  24.669  1.00  0.00     0.338 C 
ATOM      5  O   UNL A   1      34.065  22.236  23.692  1.00  0.00    -0.246 OA
BRANCH   4   6
ATOM      6  C   UNL A   1      34.461  23.460  25.748  1.00  0.00     0.087 C 
ATOM      7  C   UNL A   1      34.736  24.836  25.409  1.00  0.00     0.027 C 
ATOM      8  C   UNL A   1      32.757  22.735  26.244  1.00  0.00     0.316 C 
ATOM      9  C   UNL A   1      33.459  26.048  25.151  1.00  0.00     0.019 A 
ATOM     10  O   UNL A   1      31.330  24.001  25.857  1.00  0.00    -0.474 OA
ATOM     11  C   UNL A   1      33.862  27.266  24.688  1.00  0.00     0.013 A 
ATOM     12  C   UNL A   1      31.767  25.670  25.211  1.00  0.00     0.148 A 
ATOM     13  C   UNL A   1      32.820  28.097  24.261  1.00  0.00     0.023 A 
ATOM     14  C   UNL A   1      30.811  26.547  24.762  1.00  0.00     0.102 A 
ATOM     15  C   UNL A   1      31.391  27.758  24.275  1.00  0.00     0.063 A 
ATOM     16  Cl  UNL A   1      29.149  26.191  24.706  1.00  0.00    -0.079 Cl
ATOM     17  Cl  UNL A   1      30.389  29.003  23.570  1.00  0.00    -0.083 Cl
BRANCH   8  18
ATOM     18  C   UNL A   1      33.542  22.192  27.559  1.00  0.00     0.430 C 
ATOM     19  F   UNL A   1      34.517  22.917  28.030  1.00  0.00    -0.167 F 
ATOM     20  F   UNL A   1      32.645  22.152  28.587  1.00  0.00    -0.167 F 
ATOM     21  F   UNL A   1      34.031  20.927  27.474  1.00  0.00    -0.167 F 
ENDBRANCH   8  18
ENDBRANCH   4   6
ENDBRANCH   3   4
ENDBRANCH   2   3
ENDBRANCH   1   2
BRANCH   1  22
ATOM     22  O   UNL A   1      39.437  19.359  25.735  1.00  0.00    -0.458 OA
BRANCH  22  23
ATOM     23  C   UNL A   1      40.714  19.825  26.068  1.00  0.00     0.338 C 
ATOM     24  O   UNL A   1      41.790  19.521  25.585  1.00  0.00    -0.246 OA
BRANCH  23  25
ATOM     25  C   UNL A   1      40.560  21.052  26.930  1.00  0.00     0.060 A 
ATOM     26  C   UNL A   1      41.589  21.392  27.848  1.00  0.00     0.016 A 
ATOM     27  C   UNL A   1      39.680  22.037  26.489  1.00  0.00     0.016 A 
ATOM     28  C   UNL A   1      41.905  22.762  28.060  1.00  0.00     0.010 A 
ATOM     29  C   UNL A   1      39.987  23.382  26.723  1.00  0.00     0.010 A 
ATOM     30  C   UNL A   1      41.162  23.764  27.407  1.00  0.00    -0.014 A 
BRANCH  30  31
ATOM     31  C   UNL A   1      41.436  25.230  27.551  1.00  0.00     0.031 A 
ATOM     32  C   UNL A   1      42.790  25.661  27.073  1.00  0.00     0.074 A 
ATOM     33  C   UNL A   1      40.637  26.120  28.191  1.00  0.00     0.049 A 
ATOM     34  N   UNL A   1      43.431  26.778  27.269  1.00  0.00    -0.248 NA
ATOM     35  C   UNL A   1      43.538  24.648  26.311  1.00  0.00     0.031 C 
ATOM     36  C   UNL A   1      39.292  25.861  28.704  1.00  0.00     0.029 A 
ATOM     37  N   UNL A   1      40.858  27.441  28.551  1.00  0.00    -0.354 N 
ATOM     38  C   UNL A   1      44.675  26.587  26.686  1.00  0.00     0.074 A 
ATOM     39  C   UNL A   1      44.710  25.237  26.172  1.00  0.00     0.031 C 
ATOM     40  C   UNL A   1      38.818  26.968  29.315  1.00  0.00     0.029 A 
ATOM     41  C   UNL A   1      39.836  28.019  29.287  1.00  0.00     0.049 A 
ATOM     42  H   UNL A   1      41.676  27.929  28.303  1.00  0.00     0.167 HD
ATOM     43  C   UNL A   1      45.703  27.458  26.581  1.00  0.00     0.034 A 
ATOM     44  C   UNL A   1      39.748  29.235  29.885  1.00  0.00     0.034 A 
ATOM     45  C   UNL A   1      45.667  28.797  27.093  1.00  0.00     0.049 A 
ATOM     46  C   UNL A   1      40.944  30.177  29.798  1.00  0.00     0.074 A 
ATOM     47  C   UNL A   1      46.638  29.773  26.995  1.00  0.00     0.029 A 
ATOM     48  N   UNL A   1      44.612  29.342  27.812  1.00  0.00    -0.354 N 
ATOM     49  N   UNL A   1      42.090  30.003  29.177  1.00  0.00    -0.248 NA
ATOM     50  C   UNL A   1      40.842  31.471  30.495  1.00  0.00     0.031 C 
ATOM     51  C   UNL A   1      46.207  30.884  27.723  1.00  0.00     0.029 A 
ATOM     52  C   UNL A   1      44.930  30.630  28.202  1.00  0.00     0.049 A 
ATOM     53  H   UNL A   1      43.767  28.881  28.014  1.00  0.00     0.167 HD
ATOM     54  C   UNL A   1      42.818  31.177  29.380  1.00  0.00     0.074 A 
ATOM     55  C   UNL A   1      41.982  32.059  30.161  1.00  0.00     0.031 C 
ATOM     56  C   UNL A   1      44.069  31.500  28.964  1.00  0.00     0.034 A 
BRANCH  43  57
ATOM     57  C   UNL A   1      46.957  26.946  25.934  1.00  0.00     0.023 A 
ATOM     58  C   UNL A   1      47.933  26.255  26.671  1.00  0.00     0.031 A 
ATOM     59  C   UNL A   1      47.210  27.219  24.580  1.00  0.00     0.131 A 
ATOM     60  C   UNL A   1      49.156  25.935  26.070  1.00  0.00     0.055 A 
ATOM     61  C   UNL A   1      48.394  26.816  23.964  1.00  0.00     0.041 A 
ATOM     62  F   UNL A   1      46.325  27.910  23.844  1.00  0.00    -0.206 F 
ATOM     63  C   UNL A   1      49.382  26.184  24.714  1.00  0.00     0.022 A 
BRANCH  60  64
ATOM     64  S   UNL A   1      50.500  25.329  27.123  1.00  0.00     0.124 S 
ATOM     65  O   UNL A   1      50.856  26.533  27.868  1.00  0.00    -0.237 OA
ATOM     66  O   UNL A   1      49.850  24.273  27.893  1.00  0.00    -0.237 OA
ATOM     67  O   UNL A   1      51.506  24.874  26.166  1.00  0.00    -0.744 OA
ENDBRANCH  60  64
ENDBRANCH  43  57
BRANCH  44  68
ATOM     68  C   UNL A   1      38.549  29.666  30.695  1.00  0.00     0.023 A 
ATOM     69  C   UNL A   1      37.523  30.456  30.130  1.00  0.00     0.031 A 
ATOM     70  C   UNL A   1      38.491  29.446  32.083  1.00  0.00     0.131 A 
ATOM     71  C   UNL A   1      36.547  31.054  30.952  1.00  0.00     0.055 A 
ATOM     72  C   UNL A   1      37.477  29.986  32.886  1.00  0.00     0.041 A 
ATOM     73  F   UNL A   1      39.443  28.725  32.697  1.00  0.00    -0.206 F 
ATOM     74  C   UNL A   1      36.510  30.813  32.324  1.00  0.00     0.022 A 
BRANCH  71  75
ATOM     75  S   UNL A   1      35.417  32.287  30.230  1.00  0.00     0.124 S 
ATOM     76  O   UNL A   1      34.505  32.536  31.340  1.00  0.00    -0.237 OA
ATOM     77  O   UNL A   1      36.330  33.373  29.890  1.00  0.00    -0.237 OA
ATOM     78  O   UNL A   1      34.832  31.588  29.087  1.00  0.00    -0.744 OA
ENDBRANCH  71  75
ENDBRANCH  44  68
BRANCH  56  79
ATOM     79  C   UNL A   1      44.591  32.878  29.288  1.00  0.00     0.023 A 
ATOM     80  C   UNL A   1      44.333  33.984  28.461  1.00  0.00     0.031 A 
ATOM     81  C   UNL A   1      45.301  33.096  30.483  1.00  0.00     0.131 A 
ATOM     82  C   UNL A   1      44.806  35.254  28.827  1.00  0.00     0.055 A 
ATOM     83  C   UNL A   1      45.715  34.370  30.871  1.00  0.00     0.041 A 
ATOM     84  F   UNL A   1      45.574  32.074  31.311  1.00  0.00    -0.206 F 
ATOM     85  C   UNL A   1      45.474  35.457  30.037  1.00  0.00     0.022 A 
BRANCH  82  86
ATOM     86  S   UNL A   1      44.582  36.635  27.673  1.00  0.00     0.124 S 
ATOM     87  O   UNL A   1      43.820  36.012  26.597  1.00  0.00    -0.237 OA
ATOM     88  O   UNL A   1      43.858  37.609  28.485  1.00  0.00    -0.237 OA
ATOM     89  O   UNL A   1      45.950  37.016  27.325  1.00  0.00    -0.744 OA
ENDBRANCH  82  86
ENDBRANCH  56  79
ENDBRANCH  30  31
ENDBRANCH  23  25
ENDBRANCH  22  23
ENDBRANCH   1  22
TORSDOF 15
ENDMDL
MODEL 2
REMARK VINA RESULT:     -14.2      1.457      1.678
REMARK SMILES O=C(OCCOC(=O)c1ccc(-c2c3nc(c(-c4cc(S(=O)(=O)[O-])ccc4F)c4ccc([nH]4)c(-c4cc(S(=O)(=O)[O-])ccc4F)c4nc(c(-c5cc(S(=O)(=O)[O-])ccc5F)c5ccc2[nH]5)C=C4)C=C3)cc1)C1=Cc2ccc(Cl)c(Cl)c2O[C@@H]1C(F)(F)F
REMARK SMILES IDX 5 1 4 2 3 3 2 4 1 5 72 6 73 7 83 8 74 9 82 10 75 11 81 12
REMARK SMILES IDX 76 13 79 14 77 15 80 16 78 17 84 18 85 19 86 20 87 21 6 22
REMARK SMILES IDX 7 23 8 24 9 25 10 26 71 27 11 28 70 29 12 30 13 31 14 32
REMARK SMILES IDX 64 33 15 34 69 35 63 36 65 37 16 38 68 39 62 40 61 41 17 43
REMARK SMILES IDX 49 44 29 45 48 46 30 47 33 48 47 49 66 50 31 51 32 52 46 54
REMARK SMILES IDX 67 55 34 56 18 57 19 58 27 59 20 60 26 61 28 62 25 63 21 64
REMARK SMILES IDX 22 65 23 66 24 67 50 68 51 69 59 70 52 71 58 72 60 73 57 74
REMARK SMILES IDX 53 75 54 76 55 77 56 78 35 79 36 80 44 81 37 82 43 83 45 84
REMARK SMILES IDX 42 85 38 86 39 87 40 88 41 89
REMARK H PARENT 65 42 33 53
REMARK Flexibility Score: inf
ROOT
ATOM      1  C   UNL A   1      38.256  19.933  24.786  1.00  0.00     0.275 C 
ENDROOT
BRANCH   1   2
ATOM      2  C   UNL A   1      36.465  20.988  25.407  1.00  0.00     0.275 C 
BRANCH   2   3
ATOM      3  O   UNL A   1      36.188  22.505  25.287  1.00  0.00    -0.459 OA
BRANCH   3   4
ATOM      4  C   UNL A   1      34.965  22.770  24.813  1.00  0.00     0.338 C 
ATOM      5  O   UNL A   1      34.510  22.598  23.712  1.00  0.00    -0.246 OA
BRANCH   4   6
ATOM      6  C   UNL A   1      34.586  23.636  25.904  1.00  0.00     0.087 C 
ATOM      7  C   UNL A   1      34.812  25.037  25.645  1.00  0.00     0.027 C 
ATOM      8  C   UNL A   1      32.889  22.803  26.224  1.00  0.00     0.316 C 
ATOM      9  C   UNL A   1      33.497  26.193  25.328  1.00  0.00     0.019 A 
ATOM     10  O   UNL A   1      31.432  24.011  25.768  1.00  0.00    -0.474 OA
ATOM     11  C   UNL A   1      33.870  27.450  24.951  1.00  0.00     0.013 A 
ATOM     12  C   UNL A   1      31.829  25.726  25.228  1.00  0.00     0.148 A 
ATOM     13  C   UNL A   1      32.823  28.245  24.470  1.00  0.00     0.023 A 
ATOM     14  C   UNL A   1      30.867  26.573  24.736  1.00  0.00     0.102 A 
ATOM     15  C   UNL A   1      31.418  27.833  24.348  1.00  0.00     0.063 A 
ATOM     16  Cl  UNL A   1      29.237  26.136  24.524  1.00  0.00    -0.079 Cl
ATOM     17  Cl  UNL A   1      30.412  29.055  23.612  1.00  0.00    -0.083 Cl
BRANCH   8  18
ATOM     18  C   UNL A   1      33.591  22.243  27.577  1.00  0.00     0.430 C 
ATOM     19  F   UNL A   1      34.582  22.923  28.077  1.00  0.00    -0.167 F 
ATOM     20  F   UNL A   1      32.652  22.267  28.568  1.00  0.00    -0.167 F 
ATOM     21  F   UNL A   1      34.014  20.952  27.532  1.00  0.00    -0.167 F 
ENDBRANCH   8  18
ENDBRANCH   4   6
ENDBRANCH   3   4
ENDBRANCH   2   3
ENDBRANCH   1   2
BRANCH   1  22
ATOM     22  O   UNL A   1      39.621  19.624  25.864  1.00  0.00    -0.458 OA
BRANCH  22  23
ATOM     23  C   UNL A   1      40.872  20.165  26.183  1.00  0.00     0.338 C 
ATOM     24  O   UNL A   1      41.961  19.910  25.701  1.00  0.00    -0.246 OA
BRANCH  23  25
ATOM     25  C   UNL A   1      40.654  21.398  27.022  1.00  0.00     0.060 A 
ATOM     26  C   UNL A   1      41.634  21.771  27.981  1.00  0.00     0.016 A 
ATOM     27  C   UNL A   1      39.775  22.359  26.529  1.00  0.00     0.016 A 
ATOM     28  C   UNL A   1      41.913  23.149  28.189  1.00  0.00     0.010 A 
ATOM     29  C   UNL A   1      40.045  23.713  26.759  1.00  0.00     0.010 A 
ATOM     30  C   UNL A   1      41.179  24.128  27.491  1.00  0.00    -0.014 A 
BRANCH  30  31
ATOM     31  C   UNL A   1      41.417  25.601  27.628  1.00  0.00     0.031 A 
ATOM     32  C   UNL A   1      42.741  26.070  27.106  1.00  0.00     0.074 A 
ATOM     33  C   UNL A   1      40.615  26.467  28.296  1.00  0.00     0.049 A 
ATOM     34  N   UNL A   1      43.357  27.204  27.283  1.00  0.00    -0.248 NA
ATOM     35  C   UNL A   1      43.492  25.079  26.317  1.00  0.00     0.031 C 
ATOM     36  C   UNL A   1      39.296  26.170  28.854  1.00  0.00     0.029 A 
ATOM     37  N   UNL A   1      40.811  27.793  28.651  1.00  0.00    -0.354 N 
ATOM     38  C   UNL A   1      44.587  27.048  26.658  1.00  0.00     0.074 A 
ATOM     39  C   UNL A   1      44.642  25.701  26.140  1.00  0.00     0.031 C 
ATOM     40  C   UNL A   1      38.812  27.263  29.482  1.00  0.00     0.029 A 
ATOM     41  C   UNL A   1      39.799  28.342  29.422  1.00  0.00     0.049 A 
ATOM     42  H   UNL A   1      41.607  28.305  28.377  1.00  0.00     0.167 HD
ATOM     43  C   UNL A   1      45.585  27.948  26.521  1.00  0.00     0.034 A 
ATOM     44  C   UNL A   1      39.697  29.554  30.026  1.00  0.00     0.034 A 
ATOM     45  C   UNL A   1      45.529  29.285  27.036  1.00  0.00     0.049 A 
ATOM     46  C   UNL A   1      40.863  30.529  29.900  1.00  0.00     0.074 A 
ATOM     47  C   UNL A   1      46.469  30.288  26.908  1.00  0.00     0.029 A 
ATOM     48  N   UNL A   1      44.484  29.799  27.791  1.00  0.00    -0.354 N 
ATOM     49  N   UNL A   1      41.991  30.388  29.241  1.00  0.00    -0.248 NA
ATOM     50  C   UNL A   1      40.748  31.819  30.603  1.00  0.00     0.031 C 
ATOM     51  C   UNL A   1      46.032  31.386  27.652  1.00  0.00     0.029 A 
ATOM     52  C   UNL A   1      44.779  31.096  28.173  1.00  0.00     0.049 A 
ATOM     53  H   UNL A   1      43.660  29.315  28.020  1.00  0.00     0.167 HD
ATOM     54  C   UNL A   1      42.693  31.582  29.422  1.00  0.00     0.074 A 
ATOM     55  C   UNL A   1      41.859  32.440  30.233  1.00  0.00     0.031 C 
ATOM     56  C   UNL A   1      43.920  31.940  28.965  1.00  0.00     0.034 A 
BRANCH  43  57
ATOM     57  C   UNL A   1      46.831  27.472  25.831  1.00  0.00     0.023 A 
ATOM     58  C   UNL A   1      47.132  27.858  24.514  1.00  0.00     0.031 A 
ATOM     59  C   UNL A   1      47.686  26.563  26.473  1.00  0.00     0.131 A 
ATOM     60  C   UNL A   1      48.214  27.268  23.850  1.00  0.00     0.055 A 
ATOM     61  C   UNL A   1      48.815  26.050  25.837  1.00  0.00     0.041 A 
ATOM     62  F   UNL A   1      47.420  26.136  27.718  1.00  0.00    -0.206 F 
ATOM     63  C   UNL A   1      49.076  26.390  24.512  1.00  0.00     0.022 A 
BRANCH  60  64
ATOM     64  S   UNL A   1      48.389  27.549  22.069  1.00  0.00     0.124 S 
ATOM     65  O   UNL A   1      49.556  28.426  22.022  1.00  0.00    -0.237 OA
ATOM     66  O   UNL A   1      48.586  26.199  21.552  1.00  0.00    -0.237 OA
ATOM     67  O   UNL A   1      47.126  28.181  21.697  1.00  0.00    -0.744 OA
ENDBRANCH  60  64
ENDBRANCH  43  57
BRANCH  44  68
ATOM     68  C   UNL A   1      38.514  29.951  30.876  1.00  0.00     0.023 A 
ATOM     69  C   UNL A   1      37.443  30.703  30.345  1.00  0.00     0.031 A 
ATOM     70  C   UNL A   1      38.513  29.737  32.266  1.00  0.00     0.131 A 
ATOM     71  C   UNL A   1      36.478  31.274  31.198  1.00  0.00     0.055 A 
ATOM     72  C   UNL A   1      37.512  30.249  33.103  1.00  0.00     0.041 A 
ATOM     73  F   UNL A   1      39.509  29.052  32.849  1.00  0.00    -0.206 F 
ATOM     74  C   UNL A   1      36.499  31.040  32.572  1.00  0.00     0.022 A 
BRANCH  71  75
ATOM     75  S   UNL A   1      35.283  32.464  30.511  1.00  0.00     0.124 S 
ATOM     76  O   UNL A   1      34.784  31.742  29.346  1.00  0.00    -0.237 OA
ATOM     77  O   UNL A   1      34.347  32.628  31.617  1.00  0.00    -0.237 OA
ATOM     78  O   UNL A   1      36.101  33.638  30.212  1.00  0.00    -0.744 OA
ENDBRANCH  71  75
ENDBRANCH  44  68
BRANCH  56  79
ATOM     79  C   UNL A   1      44.414  33.332  29.274  1.00  0.00     0.023 A 
ATOM     80  C   UNL A   1      44.033  34.444  28.504  1.00  0.00     0.031 A 
ATOM     81  C   UNL A   1      45.225  33.554  30.402  1.00  0.00     0.131 A 
ATOM     82  C   UNL A   1      44.486  35.725  28.857  1.00  0.00     0.055 A 
ATOM     83  C   UNL A   1      45.622  34.836  30.783  1.00  0.00     0.041 A 
ATOM     84  F   UNL A   1      45.617  32.527  31.174  1.00  0.00    -0.206 F 
ATOM     85  C   UNL A   1      45.258  35.929  30.004  1.00  0.00     0.022 A 
BRANCH  82  86
ATOM     86  S   UNL A   1      44.098  37.120  27.766  1.00  0.00     0.124 S 
ATOM     87  O   UNL A   1      43.348  36.470  26.696  1.00  0.00    -0.237 OA
ATOM     88  O   UNL A   1      43.327  37.998  28.641  1.00  0.00    -0.237 OA
ATOM     89  O   UNL A   1      45.413  37.631  27.381  1.00  0.00    -0.744 OA
ENDBRANCH  82  86
ENDBRANCH  56  79
ENDBRANCH  30  31
ENDBRANCH  23  25
ENDBRANCH  22  23
ENDBRANCH   1  22
TORSDOF 15
ENDMDL
MODEL 3
REMARK VINA RESULT:     -14.1      4.868     10.469
REMARK SMILES O=C(OCCOC(=O)c1ccc(-c2c3nc(c(-c4cc(S(=O)(=O)[O-])ccc4F)c4ccc([nH]4)c(-c4cc(S(=O)(=O)[O-])ccc4F)c4nc(c(-c5cc(S(=O)(=O)[O-])ccc5F)c5ccc2[nH]5)C=C4)C=C3)cc1)C1=Cc2ccc(Cl)c(Cl)c2O[C@@H]1C(F)(F)F
REMARK SMILES IDX 5 1 4 2 3 3 2 4 1 5 72 6 73 7 83 8 74 9 82 10 75 11 81 12
REMARK SMILES IDX 76 13 79 14 77 15 80 16 78 17 84 18 85 19 86 20 87 21 6 22
REMARK SMILES IDX 7 23 8 24 9 25 10 26 71 27 11 28 70 29 12 30 13 31 14 32
REMARK SMILES IDX 64 33 15 34 69 35 63 36 65 37 16 38 68 39 62 40 61 41 17 43
REMARK SMILES IDX 49 44 29 45 48 46 30 47 33 48 47 49 66 50 31 51 32 52 46 54
REMARK SMILES IDX 67 55 34 56 18 57 19 58 27 59 20 60 26 61 28 62 25 63 21 64
REMARK SMILES IDX 22 65 23 66 24 67 50 68 51 69 59 70 52 71 58 72 60 73 57 74
REMARK SMILES IDX 53 75 54 76 55 77 56 78 35 79 36 80 44 81 37 82 43 83 45 84
REMARK SMILES IDX 42 85 38 86 39 87 40 88 41 89
REMARK H PARENT 65 42 33 53
REMARK Flexibility Score: inf
ROOT
ATOM      1  C   UNL A   1      31.327  31.986  26.861  1.00  0.00     0.275 C 
ENDROOT
BRANCH   1   2
ATOM      2  C   UNL A   1      32.069  30.147  25.981  1.00  0.00     0.275 C 
BRANCH   2   3
ATOM      3  O   UNL A   1      32.531  28.875  26.730  1.00  0.00    -0.459 OA
BRANCH   3   4
ATOM      4  C   UNL A   1      31.738  27.823  26.498  1.00  0.00     0.338 C 
ATOM      5  O   UNL A   1      31.018  27.219  27.249  1.00  0.00    -0.246 OA
BRANCH   4   6
ATOM      6  C   UNL A   1      32.347  27.476  25.235  1.00  0.00     0.087 C 
ATOM      7  C   UNL A   1      33.667  26.906  25.358  1.00  0.00     0.027 C 
ATOM      8  C   UNL A   1      30.799  26.604  24.515  1.00  0.00     0.316 C 
ATOM      9  C   UNL A   1      34.012  25.183  25.084  1.00  0.00     0.019 A 
ATOM     10  O   UNL A   1      31.115  24.693  24.319  1.00  0.00    -0.474 OA
ATOM     11  C   UNL A   1      35.274  24.760  25.385  1.00  0.00     0.013 A 
ATOM     12  C   UNL A   1      32.781  24.016  24.717  1.00  0.00     0.148 A 
ATOM     13  C   UNL A   1      35.431  23.369  25.397  1.00  0.00     0.023 A 
ATOM     14  C   UNL A   1      33.025  22.667  24.761  1.00  0.00     0.102 A 
ATOM     15  C   UNL A   1      34.377  22.383  25.126  1.00  0.00     0.063 A 
ATOM     16  Cl  UNL A   1      31.834  21.479  24.507  1.00  0.00    -0.079 Cl
ATOM     17  Cl  UNL A   1      34.915  20.736  25.334  1.00  0.00    -0.083 Cl
BRANCH   8  18
ATOM     18  C   UNL A   1      30.710  27.900  23.541  1.00  0.00     0.430 C 
ATOM     19  F   UNL A   1      31.825  28.453  23.156  1.00  0.00    -0.167 F 
ATOM     20  F   UNL A   1      30.131  27.498  22.372  1.00  0.00    -0.167 F 
ATOM     21  F   UNL A   1      29.927  28.919  23.984  1.00  0.00    -0.167 F 
ENDBRANCH   8  18
ENDBRANCH   4   6
ENDBRANCH   3   4
ENDBRANCH   2   3
ENDBRANCH   1   2
BRANCH   1  22
ATOM     22  O   UNL A   1      32.356  33.383  27.196  1.00  0.00    -0.458 OA
BRANCH  22  23
ATOM     23  C   UNL A   1      33.252  33.839  28.171  1.00  0.00     0.338 C 
ATOM     24  O   UNL A   1      33.027  34.506  29.164  1.00  0.00    -0.246 OA
BRANCH  23  25
ATOM     25  C   UNL A   1      34.552  33.096  28.002  1.00  0.00     0.060 A 
ATOM     26  C   UNL A   1      35.773  33.745  28.329  1.00  0.00     0.016 A 
ATOM     27  C   UNL A   1      34.497  31.705  27.989  1.00  0.00     0.016 A 
ATOM     28  C   UNL A   1      36.817  32.996  28.935  1.00  0.00     0.010 A 
ATOM     29  C   UNL A   1      35.541  30.974  28.566  1.00  0.00     0.010 A 
ATOM     30  C   UNL A   1      36.657  31.613  29.150  1.00  0.00    -0.014 A 
BRANCH  30  31
ATOM     31  C   UNL A   1      37.692  30.747  29.801  1.00  0.00     0.031 A 
ATOM     32  C   UNL A   1      37.959  31.070  31.240  1.00  0.00     0.074 A 
ATOM     33  C   UNL A   1      38.469  29.836  29.163  1.00  0.00     0.049 A 
ATOM     34  N   UNL A   1      38.937  30.694  32.015  1.00  0.00    -0.248 NA
ATOM     35  C   UNL A   1      37.004  32.000  31.863  1.00  0.00     0.031 C 
ATOM     36  C   UNL A   1      38.329  29.404  27.772  1.00  0.00     0.029 A 
ATOM     37  N   UNL A   1      39.570  29.118  29.603  1.00  0.00    -0.354 N 
ATOM     38  C   UNL A   1      38.734  31.374  33.207  1.00  0.00     0.074 A 
ATOM     39  C   UNL A   1      37.571  32.213  33.035  1.00  0.00     0.031 C 
ATOM     40  C   UNL A   1      39.302  28.517  27.473  1.00  0.00     0.029 A 
ATOM     41  C   UNL A   1      40.177  28.337  28.632  1.00  0.00     0.049 A 
ATOM     42  H   UNL A   1      39.895  29.159  30.531  1.00  0.00     0.167 HD
ATOM     43  C   UNL A   1      39.450  31.305  34.351  1.00  0.00     0.034 A 
ATOM     44  C   UNL A   1      41.312  27.593  28.670  1.00  0.00     0.034 A 
ATOM     45  C   UNL A   1      40.604  30.473  34.520  1.00  0.00     0.049 A 
ATOM     46  C   UNL A   1      42.129  27.578  29.957  1.00  0.00     0.074 A 
ATOM     47  C   UNL A   1      41.370  30.296  35.656  1.00  0.00     0.029 A 
ATOM     48  N   UNL A   1      41.170  29.691  33.523  1.00  0.00    -0.354 N 
ATOM     49  N   UNL A   1      41.880  28.174  31.102  1.00  0.00    -0.248 NA
ATOM     50  C   UNL A   1      43.382  26.802  29.959  1.00  0.00     0.031 C 
ATOM     51  C   UNL A   1      42.446  29.471  35.326  1.00  0.00     0.029 A 
ATOM     52  C   UNL A   1      42.303  29.064  34.008  1.00  0.00     0.049 A 
ATOM     53  H   UNL A   1      40.818  29.598  32.609  1.00  0.00     0.167 HD
ATOM     54  C   UNL A   1      42.920  27.810  31.959  1.00  0.00     0.074 A 
ATOM     55  C   UNL A   1      43.790  26.931  31.212  1.00  0.00     0.031 C 
ATOM     56  C   UNL A   1      43.144  28.172  33.248  1.00  0.00     0.034 A 
BRANCH  43  57
ATOM     57  C   UNL A   1      39.015  32.205  35.472  1.00  0.00     0.023 A 
ATOM     58  C   UNL A   1      39.463  33.533  35.563  1.00  0.00     0.031 A 
ATOM     59  C   UNL A   1      38.201  31.702  36.501  1.00  0.00     0.131 A 
ATOM     60  C   UNL A   1      39.166  34.288  36.704  1.00  0.00     0.055 A 
ATOM     61  C   UNL A   1      37.833  32.490  37.590  1.00  0.00     0.041 A 
ATOM     62  F   UNL A   1      37.779  30.428  36.478  1.00  0.00    -0.206 F 
ATOM     63  C   UNL A   1      38.329  33.786  37.704  1.00  0.00     0.022 A 
BRANCH  60  64
ATOM     64  S   UNL A   1      40.011  35.875  36.931  1.00  0.00     0.124 S 
ATOM     65  O   UNL A   1      39.284  36.435  38.068  1.00  0.00    -0.237 OA
ATOM     66  O   UNL A   1      41.387  35.467  37.193  1.00  0.00    -0.237 OA
ATOM     67  O   UNL A   1      39.795  36.562  35.660  1.00  0.00    -0.744 OA
ENDBRANCH  60  64
ENDBRANCH  43  57
BRANCH  44  68
ATOM     68  C   UNL A   1      41.840  26.839  27.473  1.00  0.00     0.023 A 
ATOM     69  C   UNL A   1      41.591  25.460  27.300  1.00  0.00     0.031 A 
ATOM     70  C   UNL A   1      42.742  27.440  26.575  1.00  0.00     0.131 A 
ATOM     71  C   UNL A   1      42.290  24.723  26.323  1.00  0.00     0.055 A 
ATOM     72  C   UNL A   1      43.382  26.716  25.560  1.00  0.00     0.041 A 
ATOM     73  F   UNL A   1      43.049  28.742  26.689  1.00  0.00    -0.206 F 
ATOM     74  C   UNL A   1      43.174  25.346  25.443  1.00  0.00     0.022 A 
BRANCH  71  75
ATOM     75  S   UNL A   1      42.153  22.908  26.319  1.00  0.00     0.124 S 
ATOM     76  O   UNL A   1      43.008  22.545  27.444  1.00  0.00    -0.237 OA
ATOM     77  O   UNL A   1      40.721  22.710  26.508  1.00  0.00    -0.237 OA
ATOM     78  O   UNL A   1      42.663  22.529  25.002  1.00  0.00    -0.744 OA
ENDBRANCH  71  75
ENDBRANCH  44  68
BRANCH  56  79
ATOM     79  C   UNL A   1      44.337  27.577  33.956  1.00  0.00     0.023 A 
ATOM     80  C   UNL A   1      44.266  26.340  34.618  1.00  0.00     0.031 A 
ATOM     81  C   UNL A   1      45.581  28.231  33.904  1.00  0.00     0.131 A 
ATOM     82  C   UNL A   1      45.415  25.809  35.227  1.00  0.00     0.055 A 
ATOM     83  C   UNL A   1      46.731  27.670  34.457  1.00  0.00     0.041 A 
ATOM     84  F   UNL A   1      45.704  29.416  33.282  1.00  0.00    -0.206 F 
ATOM     85  C   UNL A   1      46.650  26.455  35.130  1.00  0.00     0.022 A 
BRANCH  82  86
ATOM     86  S   UNL A   1      45.264  24.284  36.196  1.00  0.00     0.124 S 
ATOM     87  O   UNL A   1      44.885  24.794  37.509  1.00  0.00    -0.237 OA
ATOM     88  O   UNL A   1      44.228  23.554  35.473  1.00  0.00    -0.237 OA
ATOM     89  O   UNL A   1      46.601  23.696  36.121  1.00  0.00    -0.744 OA
ENDBRANCH  82  86
ENDBRANCH  56  79
ENDBRANCH  30  31
ENDBRANCH  23  25
ENDBRANCH  22  23
ENDBRANCH   1  22
TORSDOF 15
ENDMDL
