MODEL 1
REMARK VINA RESULT:     -10.3      0.000      0.000
REMARK SMILES O=C(C[N@@H+](CC(F)(F)F)[C@H]1CCCC[C@H]1O)OCCOC(=O)c1ccc(-c2c3nc(c(-c4cc(S(=O)(=O)[O-])ccc4F)c4ccc([nH]4)c(-c4cc(S(=O)(=O)[O-])ccc4F)c4nc(c(-c5cc(S(=O)(=O)[O-])ccc5F)c5ccc2[nH]5)C=C4)C=C3)cc1
REMARK SMILES IDX 18 1 17 2 2 3 1 4 3 5 4 6 5 8 6 9 7 10 8 11 9 12 10 13 11 14
REMARK SMILES IDX 15 15 12 16 14 17 13 18 16 19 19 21 20 22 21 23 22 24 23 25
REMARK SMILES IDX 24 26 85 27 25 28 84 29 26 30 27 31 28 32 78 33 29 34 83 35
REMARK SMILES IDX 77 36 79 37 30 38 82 39 76 40 75 41 31 43 63 44 43 45 62 46
REMARK SMILES IDX 44 47 47 48 61 49 80 50 45 51 46 52 60 54 81 55 48 56 32 57
REMARK SMILES IDX 33 58 41 59 34 60 40 61 42 62 39 63 35 64 36 65 37 66 38 67
REMARK SMILES IDX 64 68 65 69 73 70 66 71 72 72 74 73 71 74 67 75 68 76 69 77
REMARK SMILES IDX 70 78 49 79 50 80 58 81 51 82 57 83 59 84 56 85 52 86 53 87
REMARK SMILES IDX 54 88 55 89
REMARK H PARENT 4 7 16 20 79 42 47 53
REMARK Flexibility Score: inf
ROOT
ATOM      1  C   UNL A   1      37.931  20.134  24.965  1.00  0.00     0.274 C 
ENDROOT
BRANCH   1   2
ATOM      2  O   UNL A   1      37.413  21.114  25.889  1.00  0.00    -0.458 OA
BRANCH   2   3
ATOM      3  C   UNL A   1      36.473  22.047  25.601  1.00  0.00     0.361 C 
ATOM      4  O   UNL A   1      36.708  23.238  25.810  1.00  0.00    -0.245 OA
BRANCH   3   5
ATOM      5  C   UNL A   1      35.149  21.599  24.978  1.00  0.00     0.387 C 
BRANCH   5   6
ATOM      6  N   UNL A   1      34.335  20.811  25.918  1.00  0.00    -0.314 N 
ATOM      7  H   UNL A   1      34.937  20.169  26.433  1.00  0.00     0.349 HD
BRANCH   6   8
ATOM      8  C   UNL A   1      33.773  21.647  27.011  1.00  0.00     0.380 C 
BRANCH   8   9
ATOM      9  C   UNL A   1      32.939  22.926  26.753  1.00  0.00     0.438 C 
ATOM     10  F   UNL A   1      32.170  23.296  27.793  1.00  0.00    -0.165 F 
ATOM     11  F   UNL A   1      33.762  23.963  26.466  1.00  0.00    -0.165 F 
ATOM     12  F   UNL A   1      32.127  22.763  25.685  1.00  0.00    -0.165 F 
ENDBRANCH   8   9
ENDBRANCH   6   8
BRANCH   6  13
ATOM     13  C   UNL A   1      33.418  19.884  25.211  1.00  0.00     0.213 C 
ATOM     14  C   UNL A   1      33.240  20.443  23.788  1.00  0.00     0.068 C 
ATOM     15  C   UNL A   1      33.724  18.360  25.174  1.00  0.00     0.172 C 
ATOM     16  C   UNL A   1      32.162  19.676  23.025  1.00  0.00     0.006 C 
ATOM     17  C   UNL A   1      32.644  17.606  24.391  1.00  0.00     0.038 C 
ATOM     18  C   UNL A   1      32.450  18.180  22.988  1.00  0.00     0.003 C 
BRANCH  15  19
ATOM     19  O   UNL A   1      34.982  18.093  24.551  1.00  0.00    -0.387 OA
ATOM     20  H   UNL A   1      34.993  17.181  24.222  1.00  0.00     0.211 HD
ENDBRANCH  15  19
ENDBRANCH   6  13
ENDBRANCH   5   6
ENDBRANCH   3   5
ENDBRANCH   2   3
ENDBRANCH   1   2
BRANCH   1  21
ATOM     21  C   UNL A   1      39.205  19.482  25.508  1.00  0.00     0.275 C 
BRANCH  21  22
ATOM     22  O   UNL A   1      39.574  20.081  26.762  1.00  0.00    -0.458 OA
BRANCH  22  23
ATOM     23  C   UNL A   1      40.904  20.275  26.972  1.00  0.00     0.338 C 
ATOM     24  O   UNL A   1      41.786  19.456  26.810  1.00  0.00    -0.246 OA
BRANCH  23  25
ATOM     25  C   UNL A   1      41.133  21.726  27.193  1.00  0.00     0.060 A 
ATOM     26  C   UNL A   1      40.462  22.639  26.366  1.00  0.00     0.016 A 
ATOM     27  C   UNL A   1      41.917  22.187  28.255  1.00  0.00     0.016 A 
ATOM     28  C   UNL A   1      40.573  24.013  26.601  1.00  0.00     0.010 A 
ATOM     29  C   UNL A   1      42.032  23.559  28.484  1.00  0.00     0.010 A 
ATOM     30  C   UNL A   1      41.372  24.481  27.652  1.00  0.00    -0.014 A 
BRANCH  30  31
ATOM     31  C   UNL A   1      41.704  25.921  27.789  1.00  0.00     0.031 A 
ATOM     32  C   UNL A   1      43.065  26.367  27.342  1.00  0.00     0.074 A 
ATOM     33  C   UNL A   1      40.864  26.796  28.370  1.00  0.00     0.049 A 
ATOM     34  N   UNL A   1      43.662  27.518  27.501  1.00  0.00    -0.248 NA
ATOM     35  C   UNL A   1      43.868  25.355  26.641  1.00  0.00     0.031 C 
ATOM     36  C   UNL A   1      39.510  26.496  28.829  1.00  0.00     0.029 A 
ATOM     37  N   UNL A   1      41.049  28.115  28.708  1.00  0.00    -0.354 N 
ATOM     38  C   UNL A   1      44.916  27.371  26.920  1.00  0.00     0.074 A 
ATOM     39  C   UNL A   1      45.007  26.001  26.458  1.00  0.00     0.031 C 
ATOM     40  C   UNL A   1      39.006  27.584  29.438  1.00  0.00     0.029 A 
ATOM     41  C   UNL A   1      40.010  28.648  29.433  1.00  0.00     0.049 A 
ATOM     42  H   UNL A   1      41.851  28.629  28.456  1.00  0.00     0.167 HD
ATOM     43  C   UNL A   1      45.898  28.293  26.771  1.00  0.00     0.034 A 
ATOM     44  C   UNL A   1      39.899  29.842  30.052  1.00  0.00     0.034 A 
ATOM     45  C   UNL A   1      45.810  29.642  27.270  1.00  0.00     0.049 A 
ATOM     46  C   UNL A   1      41.036  30.831  29.965  1.00  0.00     0.074 A 
ATOM     47  C   UNL A   1      46.736  30.665  27.165  1.00  0.00     0.029 A 
ATOM     48  N   UNL A   1      44.738  30.149  27.995  1.00  0.00    -0.354 N 
ATOM     49  N   UNL A   1      42.205  30.698  29.382  1.00  0.00    -0.248 NA
ATOM     50  C   UNL A   1      40.836  32.136  30.614  1.00  0.00     0.031 C 
ATOM     51  C   UNL A   1      46.253  31.766  27.882  1.00  0.00     0.029 A 
ATOM     52  C   UNL A   1      44.994  31.457  28.371  1.00  0.00     0.049 A 
ATOM     53  H   UNL A   1      43.917  29.651  28.209  1.00  0.00     0.167 HD
ATOM     54  C   UNL A   1      42.862  31.914  29.560  1.00  0.00     0.074 A 
ATOM     55  C   UNL A   1      41.964  32.765  30.313  1.00  0.00     0.031 C 
ATOM     56  C   UNL A   1      44.090  32.297  29.124  1.00  0.00     0.034 A 
BRANCH  43  57
ATOM     57  C   UNL A   1      47.162  27.826  26.092  1.00  0.00     0.023 A 
ATOM     58  C   UNL A   1      47.391  28.074  24.727  1.00  0.00     0.031 A 
ATOM     59  C   UNL A   1      48.091  27.032  26.784  1.00  0.00     0.131 A 
ATOM     60  C   UNL A   1      48.455  27.439  24.072  1.00  0.00     0.055 A 
ATOM     61  C   UNL A   1      49.203  26.481  26.146  1.00  0.00     0.041 A 
ATOM     62  F   UNL A   1      47.911  26.742  28.082  1.00  0.00    -0.206 F 
ATOM     63  C   UNL A   1      49.377  26.662  24.776  1.00  0.00     0.022 A 
BRANCH  60  64
ATOM     64  S   UNL A   1      48.490  27.471  22.258  1.00  0.00     0.124 S 
ATOM     65  O   UNL A   1      49.688  28.268  22.000  1.00  0.00    -0.237 OA
ATOM     66  O   UNL A   1      48.578  26.056  21.920  1.00  0.00    -0.237 OA
ATOM     67  O   UNL A   1      47.231  28.122  21.902  1.00  0.00    -0.744 OA
ENDBRANCH  60  64
ENDBRANCH  43  57
BRANCH  44  68
ATOM     68  C   UNL A   1      38.687  30.154  30.861  1.00  0.00     0.023 A 
ATOM     69  C   UNL A   1      37.648  30.944  30.346  1.00  0.00     0.031 A 
ATOM     70  C   UNL A   1      38.572  29.689  32.183  1.00  0.00     0.131 A 
ATOM     71  C   UNL A   1      36.553  31.274  31.162  1.00  0.00     0.055 A 
ATOM     72  C   UNL A   1      37.463  29.988  32.977  1.00  0.00     0.041 A 
ATOM     73  F   UNL A   1      39.538  28.928  32.721  1.00  0.00    -0.206 F 
ATOM     74  C   UNL A   1      36.449  30.793  32.470  1.00  0.00     0.022 A 
BRANCH  71  75
ATOM     75  S   UNL A   1      35.277  32.384  30.502  1.00  0.00     0.124 S 
ATOM     76  O   UNL A   1      34.307  32.400  31.591  1.00  0.00    -0.237 OA
ATOM     77  O   UNL A   1      36.027  33.617  30.290  1.00  0.00    -0.237 OA
ATOM     78  O   UNL A   1      34.838  31.709  29.283  1.00  0.00    -0.744 OA
ENDBRANCH  71  75
ENDBRANCH  44  68
BRANCH  56  79
ATOM     79  C   UNL A   1      44.510  33.723  29.387  1.00  0.00     0.023 A 
ATOM     80  C   UNL A   1      44.177  34.775  28.518  1.00  0.00     0.031 A 
ATOM     81  C   UNL A   1      45.233  34.029  30.555  1.00  0.00     0.131 A 
ATOM     82  C   UNL A   1      44.591  36.083  28.817  1.00  0.00     0.055 A 
ATOM     83  C   UNL A   1      45.600  35.337  30.870  1.00  0.00     0.041 A 
ATOM     84  F   UNL A   1      45.577  33.061  31.419  1.00  0.00    -0.206 F 
ATOM     85  C   UNL A   1      45.284  36.373  29.996  1.00  0.00     0.022 A 
BRANCH  82  86
ATOM     86  S   UNL A   1      44.252  37.407  27.623  1.00  0.00     0.124 S 
ATOM     87  O   UNL A   1      42.983  36.976  27.044  1.00  0.00    -0.237 OA
ATOM     88  O   UNL A   1      44.197  38.590  28.473  1.00  0.00    -0.237 OA
ATOM     89  O   UNL A   1      45.397  37.351  26.715  1.00  0.00    -0.744 OA
ENDBRANCH  82  86
ENDBRANCH  56  79
ENDBRANCH  30  31
ENDBRANCH  23  25
ENDBRANCH  22  23
ENDBRANCH  21  22
ENDBRANCH   1  21
TORSDOF 19
ENDMDL
MODEL 2
REMARK VINA RESULT:     -10.2      5.859     11.736
REMARK SMILES O=C(C[N@@H+](CC(F)(F)F)[C@H]1CCCC[C@H]1O)OCCOC(=O)c1ccc(-c2c3nc(c(-c4cc(S(=O)(=O)[O-])ccc4F)c4ccc([nH]4)c(-c4cc(S(=O)(=O)[O-])ccc4F)c4nc(c(-c5cc(S(=O)(=O)[O-])ccc5F)c5ccc2[nH]5)C=C4)C=C3)cc1
REMARK SMILES IDX 18 1 17 2 2 3 1 4 3 5 4 6 5 8 6 9 7 10 8 11 9 12 10 13 11 14
REMARK SMILES IDX 15 15 12 16 14 17 13 18 16 19 19 21 20 22 21 23 22 24 23 25
REMARK SMILES IDX 24 26 85 27 25 28 84 29 26 30 27 31 28 32 78 33 29 34 83 35
REMARK SMILES IDX 77 36 79 37 30 38 82 39 76 40 75 41 31 43 63 44 43 45 62 46
REMARK SMILES IDX 44 47 47 48 61 49 80 50 45 51 46 52 60 54 81 55 48 56 32 57
REMARK SMILES IDX 33 58 41 59 34 60 40 61 42 62 39 63 35 64 36 65 37 66 38 67
REMARK SMILES IDX 64 68 65 69 73 70 66 71 72 72 74 73 71 74 67 75 68 76 69 77
REMARK SMILES IDX 70 78 49 79 50 80 58 81 51 82 57 83 59 84 56 85 52 86 53 87
REMARK SMILES IDX 54 88 55 89
REMARK H PARENT 4 7 16 20 79 42 47 53
REMARK Flexibility Score: inf
ROOT
ATOM      1  C   UNL A   1      33.664  34.093  28.131  1.00  0.00     0.274 C 
ENDROOT
BRANCH   1   2
ATOM      2  O   UNL A   1      34.606  34.293  29.206  1.00  0.00    -0.458 OA
BRANCH   2   3
ATOM      3  C   UNL A   1      34.399  33.964  30.505  1.00  0.00     0.361 C 
ATOM      4  O   UNL A   1      33.649  34.652  31.198  1.00  0.00    -0.245 OA
BRANCH   3   5
ATOM      5  C   UNL A   1      35.072  32.711  31.071  1.00  0.00     0.387 C 
BRANCH   5   6
ATOM      6  N   UNL A   1      36.506  32.926  31.332  1.00  0.00    -0.314 N 
ATOM      7  H   UNL A   1      37.030  32.098  31.048  1.00  0.00     0.349 HD
BRANCH   6   8
ATOM      8  C   UNL A   1      37.087  33.973  30.452  1.00  0.00     0.380 C 
BRANCH   8   9
ATOM      9  C   UNL A   1      38.026  33.651  29.263  1.00  0.00     0.438 C 
ATOM     10  F   UNL A   1      38.845  32.607  29.483  1.00  0.00    -0.165 F 
ATOM     11  F   UNL A   1      37.294  33.370  28.159  1.00  0.00    -0.165 F 
ATOM     12  F   UNL A   1      38.799  34.718  28.959  1.00  0.00    -0.165 F 
ENDBRANCH   8   9
ENDBRANCH   6   8
BRANCH   6  13
ATOM     13  C   UNL A   1      36.796  33.000  32.785  1.00  0.00     0.213 C 
ATOM     14  C   UNL A   1      38.245  33.501  32.919  1.00  0.00     0.068 C 
ATOM     15  C   UNL A   1      35.847  33.786  33.732  1.00  0.00     0.172 C 
ATOM     16  C   UNL A   1      38.721  33.432  34.368  1.00  0.00     0.006 C 
ATOM     17  C   UNL A   1      36.345  33.723  35.179  1.00  0.00     0.038 C 
ATOM     18  C   UNL A   1      37.793  34.197  35.306  1.00  0.00     0.003 C 
BRANCH  15  19
ATOM     19  O   UNL A   1      35.758  35.163  33.359  1.00  0.00    -0.387 OA
ATOM     20  H   UNL A   1      36.519  35.645  33.720  1.00  0.00     0.211 HD
ENDBRANCH  15  19
ENDBRANCH   6  13
ENDBRANCH   5   6
ENDBRANCH   3   5
ENDBRANCH   2   3
ENDBRANCH   1   2
BRANCH   1  21
ATOM     21  C   UNL A   1      33.415  32.602  27.885  1.00  0.00     0.275 C 
BRANCH  21  22
ATOM     22  O   UNL A   1      34.662  31.922  27.656  1.00  0.00    -0.458 OA
BRANCH  22  23
ATOM     23  C   UNL A   1      34.611  30.564  27.621  1.00  0.00     0.338 C 
ATOM     24  O   UNL A   1      33.773  29.888  27.059  1.00  0.00    -0.246 OA
BRANCH  23  25
ATOM     25  C   UNL A   1      35.886  30.037  28.172  1.00  0.00     0.060 A 
ATOM     26  C   UNL A   1      37.042  30.136  27.385  1.00  0.00     0.016 A 
ATOM     27  C   UNL A   1      35.966  29.541  29.477  1.00  0.00     0.016 A 
ATOM     28  C   UNL A   1      38.281  29.742  27.903  1.00  0.00     0.010 A 
ATOM     29  C   UNL A   1      37.201  29.141  29.990  1.00  0.00     0.010 A 
ATOM     30  C   UNL A   1      38.364  29.227  29.203  1.00  0.00    -0.014 A 
BRANCH  30  31
ATOM     31  C   UNL A   1      39.604  28.583  29.702  1.00  0.00     0.031 A 
ATOM     32  C   UNL A   1      40.378  29.297  30.770  1.00  0.00     0.074 A 
ATOM     33  C   UNL A   1      40.082  27.444  29.170  1.00  0.00     0.049 A 
ATOM     34  N   UNL A   1      41.563  29.041  31.257  1.00  0.00    -0.248 NA
ATOM     35  C   UNL A   1      39.726  30.482  31.346  1.00  0.00     0.031 C 
ATOM     36  C   UNL A   1      39.419  26.644  28.143  1.00  0.00     0.029 A 
ATOM     37  N   UNL A   1      41.265  26.784  29.398  1.00  0.00    -0.354 N 
ATOM     38  C   UNL A   1      41.802  30.035  32.198  1.00  0.00     0.074 A 
ATOM     39  C   UNL A   1      40.661  30.926  32.168  1.00  0.00     0.031 C 
ATOM     40  C   UNL A   1      40.229  25.630  27.790  1.00  0.00     0.029 A 
ATOM     41  C   UNL A   1      41.477  25.724  28.548  1.00  0.00     0.049 A 
ATOM     42  H   UNL A   1      41.902  27.047  30.101  1.00  0.00     0.167 HD
ATOM     43  C   UNL A   1      42.868  30.188  33.023  1.00  0.00     0.034 A 
ATOM     44  C   UNL A   1      42.565  24.946  28.377  1.00  0.00     0.034 A 
ATOM     45  C   UNL A   1      44.015  29.317  33.016  1.00  0.00     0.049 A 
ATOM     46  C   UNL A   1      43.787  25.182  29.232  1.00  0.00     0.074 A 
ATOM     47  C   UNL A   1      45.143  29.366  33.815  1.00  0.00     0.029 A 
ATOM     48  N   UNL A   1      44.191  28.248  32.145  1.00  0.00    -0.354 N 
ATOM     49  N   UNL A   1      43.992  26.102  30.147  1.00  0.00    -0.248 NA
ATOM     50  C   UNL A   1      44.923  24.268  29.038  1.00  0.00     0.031 C 
ATOM     51  C   UNL A   1      46.029  28.372  33.383  1.00  0.00     0.029 A 
ATOM     52  C   UNL A   1      45.423  27.653  32.365  1.00  0.00     0.049 A 
ATOM     53  H   UNL A   1      43.536  27.956  31.471  1.00  0.00     0.167 HD
ATOM     54  C   UNL A   1      45.262  25.852  30.663  1.00  0.00     0.074 A 
ATOM     55  C   UNL A   1      45.781  24.702  29.952  1.00  0.00     0.031 C 
ATOM     56  C   UNL A   1      45.931  26.506  31.648  1.00  0.00     0.034 A 
BRANCH  43  57
ATOM     57  C   UNL A   1      42.839  31.383  33.944  1.00  0.00     0.023 A 
ATOM     58  C   UNL A   1      42.241  31.310  35.214  1.00  0.00     0.031 A 
ATOM     59  C   UNL A   1      43.312  32.631  33.506  1.00  0.00     0.131 A 
ATOM     60  C   UNL A   1      42.027  32.482  35.953  1.00  0.00     0.055 A 
ATOM     61  C   UNL A   1      43.181  33.780  34.289  1.00  0.00     0.041 A 
ATOM     62  F   UNL A   1      43.869  32.765  32.293  1.00  0.00    -0.206 F 
ATOM     63  C   UNL A   1      42.514  33.714  35.509  1.00  0.00     0.022 A 
BRANCH  60  64
ATOM     64  S   UNL A   1      40.921  32.404  37.389  1.00  0.00     0.124 S 
ATOM     65  O   UNL A   1      40.547  33.807  37.551  1.00  0.00    -0.237 OA
ATOM     66  O   UNL A   1      39.867  31.510  36.926  1.00  0.00    -0.237 OA
ATOM     67  O   UNL A   1      41.774  31.870  38.449  1.00  0.00    -0.744 OA
ENDBRANCH  60  64
ENDBRANCH  43  57
BRANCH  44  68
ATOM     68  C   UNL A   1      42.578  23.902  27.313  1.00  0.00     0.023 A 
ATOM     69  C   UNL A   1      42.029  22.630  27.530  1.00  0.00     0.031 A 
ATOM     70  C   UNL A   1      43.179  24.160  26.068  1.00  0.00     0.131 A 
ATOM     71  C   UNL A   1      42.120  21.650  26.528  1.00  0.00     0.055 A 
ATOM     72  C   UNL A   1      43.233  23.195  25.060  1.00  0.00     0.041 A 
ATOM     73  F   UNL A   1      43.716  25.363  25.810  1.00  0.00    -0.206 F 
ATOM     74  C   UNL A   1      42.710  21.928  25.292  1.00  0.00     0.022 A 
BRANCH  71  75
ATOM     75  S   UNL A   1      41.495  19.983  26.878  1.00  0.00     0.124 S 
ATOM     76  O   UNL A   1      42.729  19.207  26.925  1.00  0.00    -0.237 OA
ATOM     77  O   UNL A   1      40.809  20.177  28.151  1.00  0.00    -0.237 OA
ATOM     78  O   UNL A   1      40.621  19.703  25.741  1.00  0.00    -0.744 OA
ENDBRANCH  71  75
ENDBRANCH  44  68
BRANCH  56  79
ATOM     79  C   UNL A   1      47.270  25.951  32.069  1.00  0.00     0.023 A 
ATOM     80  C   UNL A   1      48.461  26.273  31.397  1.00  0.00     0.031 A 
ATOM     81  C   UNL A   1      47.349  25.106  33.192  1.00  0.00     0.131 A 
ATOM     82  C   UNL A   1      49.678  25.731  31.839  1.00  0.00     0.055 A 
ATOM     83  C   UNL A   1      48.567  24.609  33.654  1.00  0.00     0.041 A 
ATOM     84  F   UNL A   1      46.240  24.766  33.870  1.00  0.00    -0.206 F 
ATOM     85  C   UNL A   1      49.741  24.915  32.973  1.00  0.00     0.022 A 
BRANCH  82  86
ATOM     86  S   UNL A   1      51.186  26.066  30.886  1.00  0.00     0.124 S 
ATOM     87  O   UNL A   1      52.204  25.383  31.678  1.00  0.00    -0.237 OA
ATOM     88  O   UNL A   1      50.878  25.470  29.591  1.00  0.00    -0.237 OA
ATOM     89  O   UNL A   1      51.276  27.526  30.888  1.00  0.00    -0.744 OA
ENDBRANCH  82  86
ENDBRANCH  56  79
ENDBRANCH  30  31
ENDBRANCH  23  25
ENDBRANCH  22  23
ENDBRANCH  21  22
ENDBRANCH   1  21
TORSDOF 19
ENDMDL
MODEL 3
REMARK VINA RESULT:      -9.9      2.193      8.259
REMARK SMILES O=C(C[N@@H+](CC(F)(F)F)[C@H]1CCCC[C@H]1O)OCCOC(=O)c1ccc(-c2c3nc(c(-c4cc(S(=O)(=O)[O-])ccc4F)c4ccc([nH]4)c(-c4cc(S(=O)(=O)[O-])ccc4F)c4nc(c(-c5cc(S(=O)(=O)[O-])ccc5F)c5ccc2[nH]5)C=C4)C=C3)cc1
REMARK SMILES IDX 18 1 17 2 2 3 1 4 3 5 4 6 5 8 6 9 7 10 8 11 9 12 10 13 11 14
REMARK SMILES IDX 15 15 12 16 14 17 13 18 16 19 19 21 20 22 21 23 22 24 23 25
REMARK SMILES IDX 24 26 85 27 25 28 84 29 26 30 27 31 28 32 78 33 29 34 83 35
REMARK SMILES IDX 77 36 79 37 30 38 82 39 76 40 75 41 31 43 63 44 43 45 62 46
REMARK SMILES IDX 44 47 47 48 61 49 80 50 45 51 46 52 60 54 81 55 48 56 32 57
REMARK SMILES IDX 33 58 41 59 34 60 40 61 42 62 39 63 35 64 36 65 37 66 38 67
REMARK SMILES IDX 64 68 65 69 73 70 66 71 72 72 74 73 71 74 67 75 68 76 69 77
REMARK SMILES IDX 70 78 49 79 50 80 58 81 51 82 57 83 59 84 56 85 52 86 53 87
REMARK SMILES IDX 54 88 55 89
REMARK H PARENT 4 7 16 20 79 42 47 53
REMARK Flexibility Score: inf
ROOT
ATOM      1  C   UNL A   1      35.273  21.316  25.576  1.00  0.00     0.274 C 
ENDROOT
BRANCH   1   2
ATOM      2  O   UNL A   1      34.446  21.868  24.530  1.00  0.00    -0.458 OA
BRANCH   2   3
ATOM      3  C   UNL A   1      34.224  23.188  24.318  1.00  0.00     0.361 C 
ATOM      4  O   UNL A   1      35.177  23.948  24.139  1.00  0.00    -0.245 OA
BRANCH   3   5
ATOM      5  C   UNL A   1      32.783  23.699  24.263  1.00  0.00     0.387 C 
BRANCH   5   6
ATOM      6  N   UNL A   1      32.674  24.968  23.522  1.00  0.00    -0.314 N 
ATOM      7  H   UNL A   1      33.607  25.287  23.258  1.00  0.00     0.349 HD
BRANCH   6   8
ATOM      8  C   UNL A   1      32.024  24.791  22.198  1.00  0.00     0.380 C 
BRANCH   8   9
ATOM      9  C   UNL A   1      32.514  25.505  20.914  1.00  0.00     0.438 C 
ATOM     10  F   UNL A   1      33.359  26.526  21.147  1.00  0.00    -0.165 F 
ATOM     11  F   UNL A   1      33.153  24.622  20.110  1.00  0.00    -0.165 F 
ATOM     12  F   UNL A   1      31.470  25.993  20.208  1.00  0.00    -0.165 F 
ENDBRANCH   8   9
ENDBRANCH   6   8
BRANCH   6  13
ATOM     13  C   UNL A   1      32.197  26.073  24.389  1.00  0.00     0.213 C 
ATOM     14  C   UNL A   1      31.364  25.424  25.509  1.00  0.00     0.068 C 
ATOM     15  C   UNL A   1      33.208  27.100  24.973  1.00  0.00     0.172 C 
ATOM     16  C   UNL A   1      30.658  26.482  26.355  1.00  0.00     0.006 C 
ATOM     17  C   UNL A   1      32.489  28.145  25.833  1.00  0.00     0.038 C 
ATOM     18  C   UNL A   1      31.640  27.498  26.928  1.00  0.00     0.003 C 
BRANCH  15  19
ATOM     19  O   UNL A   1      34.189  26.461  25.791  1.00  0.00    -0.387 OA
ATOM     20  H   UNL A   1      34.056  25.500  25.767  1.00  0.00     0.211 HD
ENDBRANCH  15  19
ENDBRANCH   6  13
ENDBRANCH   5   6
ENDBRANCH   3   5
ENDBRANCH   2   3
ENDBRANCH   1   2
BRANCH   1  21
ATOM     21  C   UNL A   1      36.642  20.895  25.034  1.00  0.00     0.275 C 
BRANCH  21  22
ATOM     22  O   UNL A   1      37.622  21.907  25.320  1.00  0.00    -0.458 OA
BRANCH  22  23
ATOM     23  C   UNL A   1      38.748  21.494  25.962  1.00  0.00     0.338 C 
ATOM     24  O   UNL A   1      39.233  20.381  25.922  1.00  0.00    -0.246 OA
BRANCH  23  25
ATOM     25  C   UNL A   1      39.429  22.690  26.523  1.00  0.00     0.060 A 
ATOM     26  C   UNL A   1      38.969  23.958  26.139  1.00  0.00     0.016 A 
ATOM     27  C   UNL A   1      40.437  22.571  27.484  1.00  0.00     0.016 A 
ATOM     28  C   UNL A   1      39.517  25.109  26.716  1.00  0.00     0.010 A 
ATOM     29  C   UNL A   1      40.987  23.720  28.054  1.00  0.00     0.010 A 
ATOM     30  C   UNL A   1      40.540  24.996  27.666  1.00  0.00    -0.014 A 
BRANCH  30  31
ATOM     31  C   UNL A   1      41.305  26.183  28.123  1.00  0.00     0.031 A 
ATOM     32  C   UNL A   1      40.542  27.285  28.797  1.00  0.00     0.074 A 
ATOM     33  C   UNL A   1      42.619  26.325  27.875  1.00  0.00     0.049 A 
ATOM     34  N   UNL A   1      40.932  28.483  29.140  1.00  0.00    -0.248 NA
ATOM     35  C   UNL A   1      39.133  26.991  29.100  1.00  0.00     0.031 C 
ATOM     36  C   UNL A   1      43.477  25.325  27.246  1.00  0.00     0.029 A 
ATOM     37  N   UNL A   1      43.453  27.396  28.091  1.00  0.00    -0.354 N 
ATOM     38  C   UNL A   1      39.814  29.093  29.699  1.00  0.00     0.074 A 
ATOM     39  C   UNL A   1      38.723  28.146  29.596  1.00  0.00     0.031 C 
ATOM     40  C   UNL A   1      44.705  25.848  27.078  1.00  0.00     0.029 A 
ATOM     41  C   UNL A   1      44.711  27.228  27.564  1.00  0.00     0.049 A 
ATOM     42  H   UNL A   1      43.175  28.207  28.575  1.00  0.00     0.167 HD
ATOM     43  C   UNL A   1      39.707  30.322  30.260  1.00  0.00     0.034 A 
ATOM     44  C   UNL A   1      45.735  28.099  27.453  1.00  0.00     0.034 A 
ATOM     45  C   UNL A   1      40.791  31.269  30.321  1.00  0.00     0.049 A 
ATOM     46  C   UNL A   1      45.578  29.500  27.993  1.00  0.00     0.074 A 
ATOM     47  C   UNL A   1      40.802  32.536  30.878  1.00  0.00     0.029 A 
ATOM     48  N   UNL A   1      42.055  31.062  29.782  1.00  0.00    -0.354 N 
ATOM     49  N   UNL A   1      44.530  30.058  28.555  1.00  0.00    -0.248 NA
ATOM     50  C   UNL A   1      46.746  30.388  27.893  1.00  0.00     0.031 C 
ATOM     51  C   UNL A   1      42.048  33.118  30.617  1.00  0.00     0.029 A 
ATOM     52  C   UNL A   1      42.841  32.188  29.964  1.00  0.00     0.049 A 
ATOM     53  H   UNL A   1      42.349  30.235  29.338  1.00  0.00     0.167 HD
ATOM     54  C   UNL A   1      44.926  31.347  28.909  1.00  0.00     0.074 A 
ATOM     55  C   UNL A   1      46.305  31.488  28.489  1.00  0.00     0.031 C 
ATOM     56  C   UNL A   1      44.217  32.318  29.539  1.00  0.00     0.034 A 
BRANCH  43  57
ATOM     57  C   UNL A   1      38.346  30.705  30.785  1.00  0.00     0.023 A 
ATOM     58  C   UNL A   1      37.405  31.356  29.967  1.00  0.00     0.031 A 
ATOM     59  C   UNL A   1      38.027  30.520  32.140  1.00  0.00     0.131 A 
ATOM     60  C   UNL A   1      36.245  31.901  30.535  1.00  0.00     0.055 A 
ATOM     61  C   UNL A   1      36.824  30.981  32.679  1.00  0.00     0.041 A 
ATOM     62  F   UNL A   1      38.896  29.927  32.973  1.00  0.00    -0.206 F 
ATOM     63  C   UNL A   1      35.936  31.697  31.882  1.00  0.00     0.022 A 
BRANCH  60  64
ATOM     64  S   UNL A   1      35.259  33.053  29.539  1.00  0.00     0.124 S 
ATOM     65  O   UNL A   1      34.929  32.232  28.376  1.00  0.00    -0.237 OA
ATOM     66  O   UNL A   1      34.151  33.372  30.432  1.00  0.00    -0.237 OA
ATOM     67  O   UNL A   1      36.184  34.153  29.272  1.00  0.00    -0.744 OA
ENDBRANCH  60  64
ENDBRANCH  43  57
BRANCH  44  68
ATOM     68  C   UNL A   1      46.987  27.696  26.751  1.00  0.00     0.023 A 
ATOM     69  C   UNL A   1      47.127  27.842  25.363  1.00  0.00     0.031 A 
ATOM     70  C   UNL A   1      48.053  27.123  27.468  1.00  0.00     0.131 A 
ATOM     71  C   UNL A   1      48.295  27.388  24.729  1.00  0.00     0.055 A 
ATOM     72  C   UNL A   1      49.228  26.709  26.838  1.00  0.00     0.041 A 
ATOM     73  F   UNL A   1      47.968  26.964  28.798  1.00  0.00    -0.206 F 
ATOM     74  C   UNL A   1      49.349  26.832  25.458  1.00  0.00     0.022 A 
BRANCH  71  75
ATOM     75  S   UNL A   1      48.402  27.494  22.920  1.00  0.00     0.124 S 
ATOM     76  O   UNL A   1      49.678  28.178  22.739  1.00  0.00    -0.237 OA
ATOM     77  O   UNL A   1      48.365  26.089  22.531  1.00  0.00    -0.237 OA
ATOM     78  O   UNL A   1      47.219  28.270  22.555  1.00  0.00    -0.744 OA
ENDBRANCH  71  75
ENDBRANCH  44  68
BRANCH  56  79
ATOM     79  C   UNL A   1      44.939  33.598  29.882  1.00  0.00     0.023 A 
ATOM     80  C   UNL A   1      44.810  34.763  29.107  1.00  0.00     0.031 A 
ATOM     81  C   UNL A   1      45.748  33.652  31.033  1.00  0.00     0.131 A 
ATOM     82  C   UNL A   1      45.502  35.927  29.479  1.00  0.00     0.055 A 
ATOM     83  C   UNL A   1      46.394  34.825  31.423  1.00  0.00     0.041 A 
ATOM     84  F   UNL A   1      45.905  32.567  31.808  1.00  0.00    -0.206 F 
ATOM     85  C   UNL A   1      46.279  35.970  30.640  1.00  0.00     0.022 A 
BRANCH  82  86
ATOM     86  S   UNL A   1      45.415  37.383  28.399  1.00  0.00     0.124 S 
ATOM     87  O   UNL A   1      44.286  37.052  27.534  1.00  0.00    -0.237 OA
ATOM     88  O   UNL A   1      45.193  38.466  29.350  1.00  0.00    -0.237 OA
ATOM     89  O   UNL A   1      46.719  37.399  27.738  1.00  0.00    -0.744 OA
ENDBRANCH  82  86
ENDBRANCH  56  79
ENDBRANCH  30  31
ENDBRANCH  23  25
ENDBRANCH  22  23
ENDBRANCH  21  22
ENDBRANCH   1  21
TORSDOF 19
ENDMDL
