MODEL 1
REMARK VINA RESULT:     -12.1      0.000      0.000
REMARK SMILES CS(=O)(=O)c1ccc(/C=C(/C(=O)OCCOC(=O)c2ccc(-c3c4nc(c(-c5cc(S(=O)(=O)[O-])ccc5F)c5ccc([nH]5)c(-c5cc(S(=O)(=O)[O-])ccc5F)c5nc(c(-c6cc(S(=O)(=O)[O-])ccc6F)c6ccc3[nH]6)C=C5)C=C4)cc2)c2cccc(-c3ccc(S(C)(=O)=O)cc3)c2)cc1
REMARK SMILES IDX 14 1 13 2 11 3 12 4 10 5 9 6 8 7 5 8 6 9 99 10 7 11 98 12
REMARK SMILES IDX 2 13 1 14 3 15 4 16 82 17 83 18 97 19 84 20 86 21 85 22
REMARK SMILES IDX 87 23 88 24 96 25 89 26 95 27 90 28 91 29 92 30 93 31 94 32
REMARK SMILES IDX 15 33 16 34 17 35 18 36 19 37 20 38 81 39 21 40 80 41 22 42
REMARK SMILES IDX 23 43 24 44 74 45 25 46 79 47 73 48 75 49 26 50 78 51 72 52
REMARK SMILES IDX 71 53 27 55 59 56 39 57 58 58 40 59 43 60 57 61 76 62 41 63
REMARK SMILES IDX 42 64 56 66 77 67 44 68 28 69 29 70 37 71 30 72 36 73 38 74
REMARK SMILES IDX 35 75 31 76 32 77 33 78 34 79 60 80 61 81 69 82 62 83 68 84
REMARK SMILES IDX 70 85 67 86 63 87 64 88 65 89 66 90 45 91 46 92 54 93 47 94
REMARK SMILES IDX 53 95 55 96 52 97 48 98 49 99 50 100 51 101
REMARK H PARENT 75 54 43 65
REMARK Flexibility Score: inf
ROOT
ATOM      1  C   UNL A   1      35.246  22.959  23.191  1.00  0.00     0.275 C 
ENDROOT
BRANCH   1   2
ATOM      2  O   UNL A   1      34.693  24.292  23.100  1.00  0.00    -0.458 OA
BRANCH   2   3
ATOM      3  C   UNL A   1      33.542  24.415  22.382  1.00  0.00     0.338 C 
ATOM      4  O   UNL A   1      33.178  23.656  21.496  1.00  0.00    -0.246 OA
BRANCH   3   5
ATOM      5  C   UNL A   1      32.726  25.583  22.841  1.00  0.00     0.067 C 
ATOM      6  C   UNL A   1      32.046  26.329  21.938  1.00  0.00     0.024 C 
BRANCH   6   7
ATOM      7  C   UNL A   1      31.088  27.410  22.254  1.00  0.00    -0.025 A 
ATOM      8  C   UNL A   1      29.209  29.482  22.415  1.00  0.00     0.067 A 
ATOM      9  C   UNL A   1      28.845  28.194  22.798  1.00  0.00     0.021 A 
ATOM     10  C   UNL A   1      30.527  29.761  22.042  1.00  0.00     0.021 A 
ATOM     11  C   UNL A   1      29.799  27.175  22.752  1.00  0.00     0.009 A 
ATOM     12  C   UNL A   1      31.463  28.726  21.963  1.00  0.00     0.009 A 
BRANCH   8  13
ATOM     13  S   UNL A   1      28.019  30.794  22.311  1.00  0.00     0.175 S 
ATOM     14  C   UNL A   1      28.871  32.304  22.680  1.00  0.00     0.163 C 
ATOM     15  O   UNL A   1      27.062  30.567  23.379  1.00  0.00    -0.224 OA
ATOM     16  O   UNL A   1      27.584  30.842  20.928  1.00  0.00    -0.224 OA
ENDBRANCH   8  13
ENDBRANCH   6   7
BRANCH   5  17
ATOM     17  C   UNL A   1      32.685  25.880  24.291  1.00  0.00    -0.010 A 
ATOM     18  C   UNL A   1      32.630  24.789  25.169  1.00  0.00     0.009 A 
ATOM     19  C   UNL A   1      32.870  27.173  24.812  1.00  0.00     0.017 A 
ATOM     20  C   UNL A   1      32.704  24.979  26.543  1.00  0.00     0.001 A 
ATOM     21  C   UNL A   1      33.009  27.373  26.199  1.00  0.00    -0.018 A 
ATOM     22  C   UNL A   1      32.860  26.262  27.050  1.00  0.00     0.009 A 
BRANCH  21  23
ATOM     23  C   UNL A   1      33.444  28.661  26.775  1.00  0.00    -0.018 A 
ATOM     24  C   UNL A   1      32.504  29.706  26.885  1.00  0.00     0.010 A 
ATOM     25  C   UNL A   1      34.752  28.902  27.226  1.00  0.00     0.010 A 
ATOM     26  C   UNL A   1      32.850  30.954  27.393  1.00  0.00     0.021 A 
ATOM     27  C   UNL A   1      35.113  30.158  27.740  1.00  0.00     0.021 A 
ATOM     28  C   UNL A   1      34.161  31.178  27.802  1.00  0.00     0.067 A 
BRANCH  28  29
ATOM     29  S   UNL A   1      34.579  32.787  28.427  1.00  0.00     0.175 S 
ATOM     30  C   UNL A   1      33.216  33.801  27.906  1.00  0.00     0.163 C 
ATOM     31  O   UNL A   1      34.549  32.691  29.877  1.00  0.00    -0.224 OA
ATOM     32  O   UNL A   1      35.784  33.231  27.752  1.00  0.00    -0.224 OA
ENDBRANCH  28  29
ENDBRANCH  21  23
ENDBRANCH   5  17
ENDBRANCH   3   5
ENDBRANCH   2   3
ENDBRANCH   1   2
BRANCH   1  33
ATOM     33  C   UNL A   1      35.798  22.707  24.595  1.00  0.00     0.275 C 
BRANCH  33  34
ATOM     34  O   UNL A   1      37.231  22.775  24.541  1.00  0.00    -0.458 OA
BRANCH  34  35
ATOM     35  C   UNL A   1      37.908  22.218  25.570  1.00  0.00     0.338 C 
ATOM     36  O   UNL A   1      37.894  21.035  25.893  1.00  0.00    -0.246 OA
BRANCH  35  37
ATOM     37  C   UNL A   1      38.737  23.252  26.236  1.00  0.00     0.060 A 
ATOM     38  C   UNL A   1      38.206  24.514  26.473  1.00  0.00     0.016 A 
ATOM     39  C   UNL A   1      40.084  23.021  26.530  1.00  0.00     0.016 A 
ATOM     40  C   UNL A   1      39.038  25.560  26.867  1.00  0.00     0.010 A 
ATOM     41  C   UNL A   1      40.892  24.062  27.030  1.00  0.00     0.010 A 
ATOM     42  C   UNL A   1      40.400  25.374  27.145  1.00  0.00    -0.014 A 
BRANCH  42  43
ATOM     43  C   UNL A   1      41.271  26.565  27.454  1.00  0.00     0.031 A 
ATOM     44  C   UNL A   1      40.827  27.628  28.443  1.00  0.00     0.074 A 
ATOM     45  C   UNL A   1      42.525  26.661  26.952  1.00  0.00     0.049 A 
ATOM     46  N   UNL A   1      41.398  28.770  28.746  1.00  0.00    -0.248 NA
ATOM     47  C   UNL A   1      39.583  27.379  29.184  1.00  0.00     0.031 C 
ATOM     48  C   UNL A   1      43.152  25.701  26.042  1.00  0.00     0.029 A 
ATOM     49  N   UNL A   1      43.520  27.588  27.174  1.00  0.00    -0.354 N 
ATOM     50  C   UNL A   1      40.553  29.402  29.654  1.00  0.00     0.074 A 
ATOM     51  C   UNL A   1      39.426  28.514  29.851  1.00  0.00     0.031 C 
ATOM     52  C   UNL A   1      44.445  26.014  25.887  1.00  0.00     0.029 A 
ATOM     53  C   UNL A   1      44.708  27.287  26.544  1.00  0.00     0.049 A 
ATOM     54  H   UNL A   1      43.394  28.389  27.732  1.00  0.00     0.167 HD
ATOM     55  C   UNL A   1      40.693  30.607  30.267  1.00  0.00     0.034 A 
ATOM     56  C   UNL A   1      45.867  27.971  26.443  1.00  0.00     0.034 A 
ATOM     57  C   UNL A   1      41.840  31.472  30.120  1.00  0.00     0.049 A 
ATOM     58  C   UNL A   1      45.970  29.336  27.066  1.00  0.00     0.074 A 
ATOM     59  C   UNL A   1      42.060  32.717  30.689  1.00  0.00     0.029 A 
ATOM     60  N   UNL A   1      42.970  31.183  29.368  1.00  0.00    -0.354 N 
ATOM     61  N   UNL A   1      45.102  29.969  27.818  1.00  0.00    -0.248 NA
ATOM     62  C   UNL A   1      47.200  30.091  26.792  1.00  0.00     0.031 C 
ATOM     63  C   UNL A   1      43.291  33.204  30.234  1.00  0.00     0.029 A 
ATOM     64  C   UNL A   1      43.875  32.233  29.439  1.00  0.00     0.049 A 
ATOM     65  H   UNL A   1      43.109  30.352  28.858  1.00  0.00     0.167 HD
ATOM     66  C   UNL A   1      45.680  31.205  28.097  1.00  0.00     0.074 A 
ATOM     67  C   UNL A   1      46.988  31.205  27.476  1.00  0.00     0.031 C 
ATOM     68  C   UNL A   1      45.165  32.252  28.791  1.00  0.00     0.034 A 
BRANCH  55  69
ATOM     69  C   UNL A   1      39.534  31.099  31.104  1.00  0.00     0.023 A 
ATOM     70  C   UNL A   1      39.587  31.149  32.506  1.00  0.00     0.031 A 
ATOM     71  C   UNL A   1      38.344  31.512  30.474  1.00  0.00     0.131 A 
ATOM     72  C   UNL A   1      38.451  31.543  33.234  1.00  0.00     0.055 A 
ATOM     73  C   UNL A   1      37.245  31.973  31.201  1.00  0.00     0.041 A 
ATOM     74  F   UNL A   1      38.230  31.470  29.137  1.00  0.00    -0.206 F 
ATOM     75  C   UNL A   1      37.290  31.976  32.591  1.00  0.00     0.022 A 
BRANCH  72  76
ATOM     76  S   UNL A   1      38.467  31.351  35.038  1.00  0.00     0.124 S 
ATOM     77  O   UNL A   1      39.784  31.884  35.381  1.00  0.00    -0.237 OA
ATOM     78  O   UNL A   1      37.325  32.159  35.450  1.00  0.00    -0.237 OA
ATOM     79  O   UNL A   1      38.315  29.910  35.231  1.00  0.00    -0.744 OA
ENDBRANCH  72  76
ENDBRANCH  55  69
BRANCH  56  80
ATOM     80  C   UNL A   1      46.997  27.431  25.630  1.00  0.00     0.023 A 
ATOM     81  C   UNL A   1      47.191  27.838  24.301  1.00  0.00     0.031 A 
ATOM     82  C   UNL A   1      47.863  26.451  26.152  1.00  0.00     0.131 A 
ATOM     83  C   UNL A   1      48.204  27.244  23.530  1.00  0.00     0.055 A 
ATOM     84  C   UNL A   1      48.911  25.916  25.404  1.00  0.00     0.041 A 
ATOM     85  F   UNL A   1      47.710  26.012  27.411  1.00  0.00    -0.206 F 
ATOM     86  C   UNL A   1      49.078  26.302  24.079  1.00  0.00     0.022 A 
BRANCH  83  87
ATOM     87  S   UNL A   1      48.304  27.657  21.767  1.00  0.00     0.124 S 
ATOM     88  O   UNL A   1      48.435  26.337  21.162  1.00  0.00    -0.237 OA
ATOM     89  O   UNL A   1      47.033  28.340  21.539  1.00  0.00    -0.237 OA
ATOM     90  O   UNL A   1      49.490  28.506  21.684  1.00  0.00    -0.744 OA
ENDBRANCH  83  87
ENDBRANCH  56  80
BRANCH  68  91
ATOM     91  C   UNL A   1      46.038  33.475  28.918  1.00  0.00     0.023 A 
ATOM     92  C   UNL A   1      46.059  34.467  27.919  1.00  0.00     0.031 A 
ATOM     93  C   UNL A   1      46.903  33.627  30.015  1.00  0.00     0.131 A 
ATOM     94  C   UNL A   1      46.976  35.526  28.001  1.00  0.00     0.055 A 
ATOM     95  C   UNL A   1      47.770  34.716  30.123  1.00  0.00     0.041 A 
ATOM     96  F   UNL A   1      46.931  32.710  30.995  1.00  0.00    -0.206 F 
ATOM     97  C   UNL A   1      47.823  35.664  29.104  1.00  0.00     0.022 A 
BRANCH  94  98
ATOM     98  S   UNL A   1      47.134  36.653  26.589  1.00  0.00     0.124 S 
ATOM     99  O   UNL A   1      47.272  35.724  25.472  1.00  0.00    -0.237 OA
ATOM    100  O   UNL A   1      45.881  37.399  26.645  1.00  0.00    -0.237 OA
ATOM    101  O   UNL A   1      48.332  37.430  26.901  1.00  0.00    -0.744 OA
ENDBRANCH  94  98
ENDBRANCH  68  91
ENDBRANCH  42  43
ENDBRANCH  35  37
ENDBRANCH  34  35
ENDBRANCH  33  34
ENDBRANCH   1  33
TORSDOF 19
ENDMDL
MODEL 2
REMARK VINA RESULT:     -11.7      1.832      7.394
REMARK SMILES CS(=O)(=O)c1ccc(/C=C(/C(=O)OCCOC(=O)c2ccc(-c3c4nc(c(-c5cc(S(=O)(=O)[O-])ccc5F)c5ccc([nH]5)c(-c5cc(S(=O)(=O)[O-])ccc5F)c5nc(c(-c6cc(S(=O)(=O)[O-])ccc6F)c6ccc3[nH]6)C=C5)C=C4)cc2)c2cccc(-c3ccc(S(C)(=O)=O)cc3)c2)cc1
REMARK SMILES IDX 14 1 13 2 11 3 12 4 10 5 9 6 8 7 5 8 6 9 99 10 7 11 98 12
REMARK SMILES IDX 2 13 1 14 3 15 4 16 82 17 83 18 97 19 84 20 86 21 85 22
REMARK SMILES IDX 87 23 88 24 96 25 89 26 95 27 90 28 91 29 92 30 93 31 94 32
REMARK SMILES IDX 15 33 16 34 17 35 18 36 19 37 20 38 81 39 21 40 80 41 22 42
REMARK SMILES IDX 23 43 24 44 74 45 25 46 79 47 73 48 75 49 26 50 78 51 72 52
REMARK SMILES IDX 71 53 27 55 59 56 39 57 58 58 40 59 43 60 57 61 76 62 41 63
REMARK SMILES IDX 42 64 56 66 77 67 44 68 28 69 29 70 37 71 30 72 36 73 38 74
REMARK SMILES IDX 35 75 31 76 32 77 33 78 34 79 60 80 61 81 69 82 62 83 68 84
REMARK SMILES IDX 70 85 67 86 63 87 64 88 65 89 66 90 45 91 46 92 54 93 47 94
REMARK SMILES IDX 53 95 55 96 52 97 48 98 49 99 50 100 51 101
REMARK H PARENT 75 54 43 65
REMARK Flexibility Score: inf
ROOT
ATOM      1  C   UNL A   1      35.219  23.312  23.393  1.00  0.00     0.275 C 
ENDROOT
BRANCH   1   2
ATOM      2  O   UNL A   1      34.523  24.579  23.427  1.00  0.00    -0.458 OA
BRANCH   2   3
ATOM      3  C   UNL A   1      33.347  24.635  22.744  1.00  0.00     0.338 C 
ATOM      4  O   UNL A   1      32.951  23.796  21.949  1.00  0.00    -0.246 OA
BRANCH   3   5
ATOM      5  C   UNL A   1      32.547  25.844  23.118  1.00  0.00     0.067 C 
ATOM      6  C   UNL A   1      31.916  26.560  22.157  1.00  0.00     0.024 C 
BRANCH   6   7
ATOM      7  C   UNL A   1      30.976  27.678  22.388  1.00  0.00    -0.025 A 
ATOM      8  C   UNL A   1      29.119  29.777  22.390  1.00  0.00     0.067 A 
ATOM      9  C   UNL A   1      28.756  28.539  22.913  1.00  0.00     0.021 A 
ATOM     10  C   UNL A   1      30.428  30.001  21.953  1.00  0.00     0.021 A 
ATOM     11  C   UNL A   1      29.701  27.510  22.945  1.00  0.00     0.009 A 
ATOM     12  C   UNL A   1      31.352  28.954  21.953  1.00  0.00     0.009 A 
BRANCH   8  13
ATOM     13  S   UNL A   1      27.936  31.084  22.186  1.00  0.00     0.175 S 
ATOM     14  C   UNL A   1      28.801  32.613  22.428  1.00  0.00     0.163 C 
ATOM     15  O   UNL A   1      26.984  30.951  23.274  1.00  0.00    -0.224 OA
ATOM     16  O   UNL A   1      27.495  31.023  20.806  1.00  0.00    -0.224 OA
ENDBRANCH   8  13
ENDBRANCH   6   7
BRANCH   5  17
ATOM     17  C   UNL A   1      32.466  26.212  24.550  1.00  0.00    -0.010 A 
ATOM     18  C   UNL A   1      32.187  25.186  25.462  1.00  0.00     0.009 A 
ATOM     19  C   UNL A   1      32.820  27.485  25.033  1.00  0.00     0.017 A 
ATOM     20  C   UNL A   1      32.208  25.428  26.830  1.00  0.00     0.001 A 
ATOM     21  C   UNL A   1      32.907  27.727  26.417  1.00  0.00    -0.018 A 
ATOM     22  C   UNL A   1      32.534  26.695  27.298  1.00  0.00     0.009 A 
BRANCH  21  23
ATOM     23  C   UNL A   1      33.504  28.958  26.972  1.00  0.00    -0.018 A 
ATOM     24  C   UNL A   1      32.742  30.145  26.959  1.00  0.00     0.010 A 
ATOM     25  C   UNL A   1      34.796  29.011  27.518  1.00  0.00     0.010 A 
ATOM     26  C   UNL A   1      33.250  31.347  27.440  1.00  0.00     0.021 A 
ATOM     27  C   UNL A   1      35.320  30.218  28.006  1.00  0.00     0.021 A 
ATOM     28  C   UNL A   1      34.547  31.380  27.946  1.00  0.00     0.067 A 
BRANCH  28  29
ATOM     29  S   UNL A   1      35.176  32.933  28.534  1.00  0.00     0.175 S 
ATOM     30  C   UNL A   1      36.901  32.609  28.801  1.00  0.00     0.163 C 
ATOM     31  O   UNL A   1      35.053  33.875  27.433  1.00  0.00    -0.224 OA
ATOM     32  O   UNL A   1      34.545  33.219  29.809  1.00  0.00    -0.224 OA
ENDBRANCH  28  29
ENDBRANCH  21  23
ENDBRANCH   5  17
ENDBRANCH   3   5
ENDBRANCH   2   3
ENDBRANCH   1   2
BRANCH   1  33
ATOM     33  C   UNL A   1      35.780  22.977  24.777  1.00  0.00     0.275 C 
BRANCH  33  34
ATOM     34  O   UNL A   1      37.180  23.294  24.791  1.00  0.00    -0.458 OA
BRANCH  34  35
ATOM     35  C   UNL A   1      37.962  22.571  25.623  1.00  0.00     0.338 C 
ATOM     36  O   UNL A   1      38.072  21.350  25.637  1.00  0.00    -0.246 OA
BRANCH  35  37
ATOM     37  C   UNL A   1      38.732  23.486  26.499  1.00  0.00     0.060 A 
ATOM     38  C   UNL A   1      38.355  24.819  26.606  1.00  0.00     0.016 A 
ATOM     39  C   UNL A   1      39.902  23.064  27.137  1.00  0.00     0.016 A 
ATOM     40  C   UNL A   1      39.202  25.739  27.221  1.00  0.00     0.010 A 
ATOM     41  C   UNL A   1      40.697  23.984  27.849  1.00  0.00     0.010 A 
ATOM     42  C   UNL A   1      40.397  25.358  27.848  1.00  0.00    -0.014 A 
BRANCH  42  43
ATOM     43  C   UNL A   1      41.326  26.412  28.394  1.00  0.00     0.031 A 
ATOM     44  C   UNL A   1      42.728  26.589  27.838  1.00  0.00     0.074 A 
ATOM     45  C   UNL A   1      40.899  27.311  29.312  1.00  0.00     0.049 A 
ATOM     46  N   UNL A   1      43.696  27.368  28.260  1.00  0.00    -0.248 NA
ATOM     47  C   UNL A   1      43.092  25.787  26.661  1.00  0.00     0.031 C 
ATOM     48  C   UNL A   1      39.563  27.344  29.911  1.00  0.00     0.029 A 
ATOM     49  N   UNL A   1      41.526  28.404  29.869  1.00  0.00    -0.354 N 
ATOM     50  C   UNL A   1      44.796  27.101  27.449  1.00  0.00     0.074 A 
ATOM     51  C   UNL A   1      44.375  26.083  26.509  1.00  0.00     0.031 C 
ATOM     52  C   UNL A   1      39.431  28.459  30.641  1.00  0.00     0.029 A 
ATOM     53  C   UNL A   1      40.717  29.139  30.707  1.00  0.00     0.049 A 
ATOM     54  H   UNL A   1      42.464  28.638  29.683  1.00  0.00     0.167 HD
ATOM     55  C   UNL A   1      46.041  27.644  27.480  1.00  0.00     0.034 A 
ATOM     56  C   UNL A   1      40.975  30.204  31.495  1.00  0.00     0.034 A 
ATOM     57  C   UNL A   1      46.453  28.700  28.376  1.00  0.00     0.049 A 
ATOM     58  C   UNL A   1      42.380  30.739  31.569  1.00  0.00     0.074 A 
ATOM     59  C   UNL A   1      47.698  29.299  28.489  1.00  0.00     0.029 A 
ATOM     60  N   UNL A   1      45.632  29.331  29.300  1.00  0.00    -0.354 N 
ATOM     61  N   UNL A   1      43.437  30.382  30.881  1.00  0.00    -0.248 NA
ATOM     62  C   UNL A   1      42.627  31.798  32.557  1.00  0.00     0.031 C 
ATOM     63  C   UNL A   1      47.645  30.247  29.518  1.00  0.00     0.029 A 
ATOM     64  C   UNL A   1      46.348  30.292  30.001  1.00  0.00     0.049 A 
ATOM     65  H   UNL A   1      44.679  29.126  29.438  1.00  0.00     0.167 HD
ATOM     66  C   UNL A   1      44.481  31.168  31.364  1.00  0.00     0.074 A 
ATOM     67  C   UNL A   1      43.912  32.050  32.362  1.00  0.00     0.031 C 
ATOM     68  C   UNL A   1      45.794  31.148  31.022  1.00  0.00     0.034 A 
BRANCH  55  69
ATOM     69  C   UNL A   1      47.081  27.050  26.557  1.00  0.00     0.023 A 
ATOM     70  C   UNL A   1      47.363  27.593  25.293  1.00  0.00     0.031 A 
ATOM     71  C   UNL A   1      47.793  25.902  26.955  1.00  0.00     0.131 A 
ATOM     72  C   UNL A   1      48.285  26.953  24.448  1.00  0.00     0.055 A 
ATOM     73  C   UNL A   1      48.761  25.314  26.139  1.00  0.00     0.041 A 
ATOM     74  F   UNL A   1      47.554  25.330  28.145  1.00  0.00    -0.206 F 
ATOM     75  C   UNL A   1      49.001  25.831  24.870  1.00  0.00     0.022 A 
BRANCH  72  76
ATOM     76  S   UNL A   1      48.434  27.527  22.733  1.00  0.00     0.124 S 
ATOM     77  O   UNL A   1      48.586  26.265  22.011  1.00  0.00    -0.237 OA
ATOM     78  O   UNL A   1      47.174  28.231  22.527  1.00  0.00    -0.237 OA
ATOM     79  O   UNL A   1      49.626  28.372  22.756  1.00  0.00    -0.744 OA
ENDBRANCH  72  76
ENDBRANCH  55  69
BRANCH  56  80
ATOM     80  C   UNL A   1      39.908  30.777  32.368  1.00  0.00     0.023 A 
ATOM     81  C   UNL A   1      39.298  32.003  32.056  1.00  0.00     0.031 A 
ATOM     82  C   UNL A   1      39.526  30.137  33.562  1.00  0.00     0.131 A 
ATOM     83  C   UNL A   1      38.365  32.563  32.944  1.00  0.00     0.055 A 
ATOM     84  C   UNL A   1      38.548  30.664  34.405  1.00  0.00     0.041 A 
ATOM     85  F   UNL A   1      40.091  28.972  33.918  1.00  0.00    -0.206 F 
ATOM     86  C   UNL A   1      37.971  31.892  34.104  1.00  0.00     0.022 A 
BRANCH  83  87
ATOM     87  S   UNL A   1      37.740  34.231  32.602  1.00  0.00     0.124 S 
ATOM     88  O   UNL A   1      37.713  34.816  33.937  1.00  0.00    -0.237 OA
ATOM     89  O   UNL A   1      38.756  34.760  31.695  1.00  0.00    -0.237 OA
ATOM     90  O   UNL A   1      36.433  33.987  31.998  1.00  0.00    -0.744 OA
ENDBRANCH  83  87
ENDBRANCH  56  80
BRANCH  68  91
ATOM     91  C   UNL A   1      46.694  32.126  31.735  1.00  0.00     0.023 A 
ATOM     92  C   UNL A   1      46.932  33.413  31.218  1.00  0.00     0.031 A 
ATOM     93  C   UNL A   1      47.369  31.753  32.910  1.00  0.00     0.131 A 
ATOM     94  C   UNL A   1      47.874  34.253  31.831  1.00  0.00     0.055 A 
ATOM     95  C   UNL A   1      48.259  32.617  33.552  1.00  0.00     0.041 A 
ATOM     96  F   UNL A   1      47.186  30.537  33.446  1.00  0.00    -0.206 F 
ATOM     97  C   UNL A   1      48.530  33.868  33.003  1.00  0.00     0.022 A 
BRANCH  94  98
ATOM     98  S   UNL A   1      48.322  35.806  31.009  1.00  0.00     0.124 S 
ATOM     99  O   UNL A   1      47.077  36.165  30.336  1.00  0.00    -0.237 OA
ATOM    100  O   UNL A   1      48.705  36.654  32.133  1.00  0.00    -0.237 OA
ATOM    101  O   UNL A   1      49.418  35.422  30.121  1.00  0.00    -0.744 OA
ENDBRANCH  94  98
ENDBRANCH  68  91
ENDBRANCH  42  43
ENDBRANCH  35  37
ENDBRANCH  34  35
ENDBRANCH  33  34
ENDBRANCH   1  33
TORSDOF 19
ENDMDL
MODEL 3
REMARK VINA RESULT:     -11.6      8.350     13.989
REMARK SMILES CS(=O)(=O)c1ccc(/C=C(/C(=O)OCCOC(=O)c2ccc(-c3c4nc(c(-c5cc(S(=O)(=O)[O-])ccc5F)c5ccc([nH]5)c(-c5cc(S(=O)(=O)[O-])ccc5F)c5nc(c(-c6cc(S(=O)(=O)[O-])ccc6F)c6ccc3[nH]6)C=C5)C=C4)cc2)c2cccc(-c3ccc(S(C)(=O)=O)cc3)c2)cc1
REMARK SMILES IDX 14 1 13 2 11 3 12 4 10 5 9 6 8 7 5 8 6 9 99 10 7 11 98 12
REMARK SMILES IDX 2 13 1 14 3 15 4 16 82 17 83 18 97 19 84 20 86 21 85 22
REMARK SMILES IDX 87 23 88 24 96 25 89 26 95 27 90 28 91 29 92 30 93 31 94 32
REMARK SMILES IDX 15 33 16 34 17 35 18 36 19 37 20 38 81 39 21 40 80 41 22 42
REMARK SMILES IDX 23 43 24 44 74 45 25 46 79 47 73 48 75 49 26 50 78 51 72 52
REMARK SMILES IDX 71 53 27 55 59 56 39 57 58 58 40 59 43 60 57 61 76 62 41 63
REMARK SMILES IDX 42 64 56 66 77 67 44 68 28 69 29 70 37 71 30 72 36 73 38 74
REMARK SMILES IDX 35 75 31 76 32 77 33 78 34 79 60 80 61 81 69 82 62 83 68 84
REMARK SMILES IDX 70 85 67 86 63 87 64 88 65 89 66 90 45 91 46 92 54 93 47 94
REMARK SMILES IDX 53 95 55 96 52 97 48 98 49 99 50 100 51 101
REMARK H PARENT 75 54 43 65
REMARK Flexibility Score: inf
ROOT
ATOM      1  C   UNL A   1      50.741  20.138  33.993  1.00  0.00     0.275 C 
ENDROOT
BRANCH   1   2
ATOM      2  O   UNL A   1      49.529  20.155  34.782  1.00  0.00    -0.458 OA
BRANCH   2   3
ATOM      3  C   UNL A   1      48.363  20.018  34.092  1.00  0.00     0.338 C 
ATOM      4  O   UNL A   1      48.233  19.415  33.038  1.00  0.00    -0.246 OA
BRANCH   3   5
ATOM      5  C   UNL A   1      47.217  20.663  34.809  1.00  0.00     0.067 C 
ATOM      6  C   UNL A   1      46.811  21.905  34.454  1.00  0.00     0.024 C 
BRANCH   6   7
ATOM      7  C   UNL A   1      45.611  22.601  34.965  1.00  0.00    -0.025 A 
ATOM      8  C   UNL A   1      43.493  24.275  35.716  1.00  0.00     0.067 A 
ATOM      9  C   UNL A   1      43.281  23.288  34.758  1.00  0.00     0.021 A 
ATOM     10  C   UNL A   1      44.726  24.373  36.367  1.00  0.00     0.021 A 
ATOM     11  C   UNL A   1      44.331  22.431  34.419  1.00  0.00     0.009 A 
ATOM     12  C   UNL A   1      45.780  23.537  35.992  1.00  0.00     0.009 A 
BRANCH   8  13
ATOM     13  S   UNL A   1      42.253  25.487  36.095  1.00  0.00     0.175 S 
ATOM     14  C   UNL A   1      42.603  26.920  35.110  1.00  0.00     0.163 C 
ATOM     15  O   UNL A   1      42.454  25.860  37.484  1.00  0.00    -0.224 OA
ATOM     16  O   UNL A   1      40.989  24.929  35.655  1.00  0.00    -0.224 OA
ENDBRANCH   8  13
ENDBRANCH   6   7
BRANCH   5  17
ATOM     17  C   UNL A   1      46.553  19.900  35.891  1.00  0.00    -0.010 A 
ATOM     18  C   UNL A   1      45.592  18.953  35.513  1.00  0.00     0.009 A 
ATOM     19  C   UNL A   1      46.964  19.965  37.234  1.00  0.00     0.017 A 
ATOM     20  C   UNL A   1      45.007  18.120  36.459  1.00  0.00     0.001 A 
ATOM     21  C   UNL A   1      46.426  19.084  38.191  1.00  0.00    -0.018 A 
ATOM     22  C   UNL A   1      45.400  18.208  37.788  1.00  0.00     0.009 A 
BRANCH  21  23
ATOM     23  C   UNL A   1      46.991  18.944  39.548  1.00  0.00    -0.018 A 
ATOM     24  C   UNL A   1      46.112  18.957  40.652  1.00  0.00     0.010 A 
ATOM     25  C   UNL A   1      48.363  18.794  39.801  1.00  0.00     0.010 A 
ATOM     26  C   UNL A   1      46.577  18.858  41.959  1.00  0.00     0.021 A 
ATOM     27  C   UNL A   1      48.843  18.693  41.117  1.00  0.00     0.021 A 
ATOM     28  C   UNL A   1      47.945  18.743  42.185  1.00  0.00     0.067 A 
BRANCH  28  29
ATOM     29  S   UNL A   1      48.509  18.639  43.865  1.00  0.00     0.175 S 
ATOM     30  C   UNL A   1      47.895  17.065  44.413  1.00  0.00     0.163 C 
ATOM     31  O   UNL A   1      49.961  18.570  43.814  1.00  0.00    -0.224 OA
ATOM     32  O   UNL A   1      47.858  19.691  44.623  1.00  0.00    -0.224 OA
ENDBRANCH  28  29
ENDBRANCH  21  23
ENDBRANCH   5  17
ENDBRANCH   3   5
ENDBRANCH   2   3
ENDBRANCH   1   2
BRANCH   1  33
ATOM     33  C   UNL A   1      51.405  21.516  34.012  1.00  0.00     0.275 C 
BRANCH  33  34
ATOM     34  O   UNL A   1      50.856  22.302  32.943  1.00  0.00    -0.458 OA
BRANCH  34  35
ATOM     35  C   UNL A   1      51.329  23.560  32.803  1.00  0.00     0.338 C 
ATOM     36  O   UNL A   1      52.509  23.889  32.750  1.00  0.00    -0.246 OA
BRANCH  35  37
ATOM     37  C   UNL A   1      50.194  24.504  32.661  1.00  0.00     0.060 A 
ATOM     38  C   UNL A   1      49.170  24.497  33.600  1.00  0.00     0.016 A 
ATOM     39  C   UNL A   1      50.075  25.328  31.539  1.00  0.00     0.016 A 
ATOM     40  C   UNL A   1      47.989  25.195  33.352  1.00  0.00     0.010 A 
ATOM     41  C   UNL A   1      48.919  26.113  31.352  1.00  0.00     0.010 A 
ATOM     42  C   UNL A   1      47.821  26.010  32.223  1.00  0.00    -0.014 A 
BRANCH  42  43
ATOM     43  C   UNL A   1      46.481  26.646  31.952  1.00  0.00     0.031 A 
ATOM     44  C   UNL A   1      46.039  27.894  32.696  1.00  0.00     0.074 A 
ATOM     45  C   UNL A   1      45.684  26.196  30.955  1.00  0.00     0.049 A 
ATOM     46  N   UNL A   1      44.880  28.509  32.668  1.00  0.00    -0.248 NA
ATOM     47  C   UNL A   1      47.020  28.530  33.586  1.00  0.00     0.031 C 
ATOM     48  C   UNL A   1      45.973  25.054  30.085  1.00  0.00     0.029 A 
ATOM     49  N   UNL A   1      44.488  26.674  30.466  1.00  0.00    -0.354 N 
ATOM     50  C   UNL A   1      44.971  29.556  33.582  1.00  0.00     0.074 A 
ATOM     51  C   UNL A   1      46.301  29.490  34.150  1.00  0.00     0.031 C 
ATOM     52  C   UNL A   1      45.061  24.998  29.106  1.00  0.00     0.029 A 
ATOM     53  C   UNL A   1      44.026  25.990  29.364  1.00  0.00     0.049 A 
ATOM     54  H   UNL A   1      44.009  27.436  30.867  1.00  0.00     0.167 HD
ATOM     55  C   UNL A   1      44.039  30.485  33.923  1.00  0.00     0.034 A 
ATOM     56  C   UNL A   1      42.877  26.090  28.662  1.00  0.00     0.034 A 
ATOM     57  C   UNL A   1      42.731  30.593  33.320  1.00  0.00     0.049 A 
ATOM     58  C   UNL A   1      41.830  27.074  29.107  1.00  0.00     0.074 A 
ATOM     59  C   UNL A   1      41.717  31.491  33.615  1.00  0.00     0.029 A 
ATOM     60  N   UNL A   1      42.256  29.794  32.290  1.00  0.00    -0.354 N 
ATOM     61  N   UNL A   1      41.891  27.971  30.061  1.00  0.00    -0.248 NA
ATOM     62  C   UNL A   1      40.544  27.029  28.399  1.00  0.00     0.031 C 
ATOM     63  C   UNL A   1      40.612  31.197  32.807  1.00  0.00     0.029 A 
ATOM     64  C   UNL A   1      40.959  30.162  31.957  1.00  0.00     0.049 A 
ATOM     65  H   UNL A   1      42.765  29.070  31.858  1.00  0.00     0.167 HD
ATOM     66  C   UNL A   1      40.643  28.590  30.074  1.00  0.00     0.074 A 
ATOM     67  C   UNL A   1      39.873  27.999  29.000  1.00  0.00     0.031 C 
ATOM     68  C   UNL A   1      40.174  29.550  30.911  1.00  0.00     0.034 A 
BRANCH  55  69
ATOM     69  C   UNL A   1      44.378  31.423  35.059  1.00  0.00     0.023 A 
ATOM     70  C   UNL A   1      43.889  31.235  36.362  1.00  0.00     0.031 A 
ATOM     71  C   UNL A   1      45.200  32.541  34.819  1.00  0.00     0.131 A 
ATOM     72  C   UNL A   1      44.175  32.182  37.359  1.00  0.00     0.055 A 
ATOM     73  C   UNL A   1      45.541  33.439  35.833  1.00  0.00     0.041 A 
ATOM     74  F   UNL A   1      45.682  32.781  33.590  1.00  0.00    -0.206 F 
ATOM     75  C   UNL A   1      45.015  33.270  37.109  1.00  0.00     0.022 A 
BRANCH  72  76
ATOM     76  S   UNL A   1      43.321  32.048  38.955  1.00  0.00     0.124 S 
ATOM     77  O   UNL A   1      44.143  31.058  39.648  1.00  0.00    -0.237 OA
ATOM     78  O   UNL A   1      43.398  33.412  39.467  1.00  0.00    -0.237 OA
ATOM     79  O   UNL A   1      41.982  31.592  38.590  1.00  0.00    -0.744 OA
ENDBRANCH  72  76
ENDBRANCH  55  69
BRANCH  56  80
ATOM     80  C   UNL A   1      42.599  25.161  27.527  1.00  0.00     0.023 A 
ATOM     81  C   UNL A   1      41.750  24.055  27.688  1.00  0.00     0.031 A 
ATOM     82  C   UNL A   1      43.227  25.333  26.279  1.00  0.00     0.131 A 
ATOM     83  C   UNL A   1      41.581  23.146  26.631  1.00  0.00     0.055 A 
ATOM     84  C   UNL A   1      43.000  24.465  25.211  1.00  0.00     0.041 A 
ATOM     85  F   UNL A   1      44.063  26.363  26.075  1.00  0.00    -0.206 F 
ATOM     86  C   UNL A   1      42.182  23.355  25.388  1.00  0.00     0.022 A 
BRANCH  83  87
ATOM     87  S   UNL A   1      40.630  21.631  26.937  1.00  0.00     0.124 S 
ATOM     88  O   UNL A   1      40.803  21.460  28.375  1.00  0.00    -0.237 OA
ATOM     89  O   UNL A   1      39.291  22.015  26.498  1.00  0.00    -0.237 OA
ATOM     90  O   UNL A   1      41.299  20.637  26.102  1.00  0.00    -0.744 OA
ENDBRANCH  83  87
ENDBRANCH  56  80
BRANCH  68  91
ATOM     91  C   UNL A   1      38.760  30.021  30.676  1.00  0.00     0.023 A 
ATOM     92  C   UNL A   1      38.493  31.259  30.063  1.00  0.00     0.031 A 
ATOM     93  C   UNL A   1      37.668  29.257  31.123  1.00  0.00     0.131 A 
ATOM     94  C   UNL A   1      37.174  31.729  29.977  1.00  0.00     0.055 A 
ATOM     95  C   UNL A   1      36.352  29.701  30.978  1.00  0.00     0.041 A 
ATOM     96  F   UNL A   1      37.862  28.071  31.721  1.00  0.00    -0.206 F 
ATOM     97  C   UNL A   1      36.100  30.952  30.419  1.00  0.00     0.022 A 
BRANCH  94  98
ATOM     98  S   UNL A   1      36.888  33.422  29.391  1.00  0.00     0.124 S 
ATOM     99  O   UNL A   1      36.773  33.229  27.949  1.00  0.00    -0.237 OA
ATOM    100  O   UNL A   1      35.658  33.787  30.085  1.00  0.00    -0.237 OA
ATOM    101  O   UNL A   1      38.083  34.142  29.826  1.00  0.00    -0.744 OA
ENDBRANCH  94  98
ENDBRANCH  68  91
ENDBRANCH  42  43
ENDBRANCH  35  37
ENDBRANCH  34  35
ENDBRANCH  33  34
ENDBRANCH   1  33
TORSDOF 19
ENDMDL
