MODEL 1
REMARK VINA RESULT:     -12.1      0.000      0.000
REMARK SMILES CC1(C)CCC[C@@H]1NC(=O)CC1(C(=O)OCCOC(=O)c2ccc(-c3c4nc(c(-c5cc(S(=O)(=O)[O-])ccc5F)c5ccc([nH]5)c(-c5cc(S(=O)(=O)[O-])ccc5F)c5nc(c(-c6cc(S(=O)(=O)[O-])ccc6F)c6ccc3[nH]6)C=C5)C=C4)cc2)CCCCC1
REMARK SMILES IDX 16 1 15 2 13 3 14 4 12 5 84 6 88 7 85 8 87 9 86 10 11 11
REMARK SMILES IDX 9 12 8 13 10 15 7 16 1 17 2 18 3 19 4 20 5 21 6 22 17 23
REMARK SMILES IDX 18 24 19 25 20 26 21 27 22 28 83 29 23 30 82 31 24 32 25 33
REMARK SMILES IDX 26 34 76 35 27 36 81 37 75 38 77 39 28 40 80 41 74 42 73 43
REMARK SMILES IDX 29 45 61 46 41 47 60 48 42 49 45 50 59 51 78 52 43 53 44 54
REMARK SMILES IDX 58 56 79 57 46 58 30 59 31 60 39 61 32 62 38 63 40 64 37 65
REMARK SMILES IDX 33 66 34 67 35 68 36 69 62 70 63 71 71 72 64 73 70 74 72 75
REMARK SMILES IDX 69 76 65 77 66 78 67 79 68 80 47 81 48 82 56 83 49 84 55 85
REMARK SMILES IDX 57 86 54 87 50 88 51 89 52 90 53 91
REMARK H PARENT 8 14 77 44 45 55
REMARK Flexibility Score: inf
ROOT
ATOM      1  C   UNL A   1      35.421  20.216  25.030  1.00  0.00     0.274 C 
ENDROOT
BRANCH   1   2
ATOM      2  O   UNL A   1      34.897  21.416  25.632  1.00  0.00    -0.462 OA
BRANCH   2   3
ATOM      3  C   UNL A   1      33.566  21.613  25.450  1.00  0.00     0.312 C 
ATOM      4  O   UNL A   1      32.720  20.736  25.596  1.00  0.00    -0.252 OA
BRANCH   3   5
ATOM      5  C   UNL A   1      33.199  23.057  25.069  1.00  0.00     0.077 C 
ATOM      6  C   UNL A   1      31.884  22.966  24.252  1.00  0.00     0.019 C 
ATOM      7  C   UNL A   1      34.236  23.786  24.190  1.00  0.00     0.019 C 
ATOM      8  C   UNL A   1      32.104  22.271  22.899  1.00  0.00     0.001 C 
ATOM      9  C   UNL A   1      34.459  23.174  22.812  1.00  0.00     0.001 C 
ATOM     10  C   UNL A   1      33.154  22.985  22.056  1.00  0.00     0.000 C 
BRANCH   5  11
ATOM     11  C   UNL A   1      32.993  23.750  26.443  1.00  0.00     0.118 C 
BRANCH  11  12
ATOM     12  C   UNL A   1      31.584  24.157  26.817  1.00  0.00     0.221 C 
ATOM     13  N   UNL A   1      31.058  25.331  26.361  1.00  0.00    -0.353 N 
ATOM     14  H   UNL A   1      30.175  25.551  26.735  1.00  0.00     0.163 HD
ATOM     15  O   UNL A   1      30.893  23.429  27.532  1.00  0.00    -0.275 OA
BRANCH  13  16
ATOM     16  C   UNL A   1      31.575  26.322  25.415  1.00  0.00     0.087 C 
ATOM     17  C   UNL A   1      33.743  27.232  26.396  1.00  0.00     0.013 C 
ATOM     18  C   UNL A   1      32.288  27.541  26.056  1.00  0.00    -0.015 C 
ATOM     19  C   UNL A   1      31.580  28.087  27.306  1.00  0.00     0.013 C 
ATOM     20  C   UNL A   1      32.231  28.574  24.912  1.00  0.00     0.008 C 
ATOM     21  C   UNL A   1      30.850  28.407  24.306  1.00  0.00     0.003 C 
ATOM     22  C   UNL A   1      30.462  26.956  24.569  1.00  0.00     0.025 C 
ENDBRANCH  13  16
ENDBRANCH  11  12
ENDBRANCH   5  11
ENDBRANCH   3   5
ENDBRANCH   2   3
ENDBRANCH   1   2
BRANCH   1  23
ATOM     23  C   UNL A   1      36.926  20.324  24.809  1.00  0.00     0.275 C 
BRANCH  23  24
ATOM     24  O   UNL A   1      37.475  21.358  25.644  1.00  0.00    -0.458 OA
BRANCH  24  25
ATOM     25  C   UNL A   1      38.774  21.193  25.988  1.00  0.00     0.338 C 
ATOM     26  O   UNL A   1      39.431  20.174  25.852  1.00  0.00    -0.246 OA
BRANCH  25  27
ATOM     27  C   UNL A   1      39.340  22.445  26.548  1.00  0.00     0.060 A 
ATOM     28  C   UNL A   1      38.856  23.700  26.180  1.00  0.00     0.016 A 
ATOM     29  C   UNL A   1      40.458  22.359  27.381  1.00  0.00     0.016 A 
ATOM     30  C   UNL A   1      39.560  24.854  26.536  1.00  0.00     0.010 A 
ATOM     31  C   UNL A   1      41.085  23.524  27.839  1.00  0.00     0.010 A 
ATOM     32  C   UNL A   1      40.671  24.789  27.392  1.00  0.00    -0.014 A 
BRANCH  32  33
ATOM     33  C   UNL A   1      41.391  26.027  27.829  1.00  0.00     0.031 A 
ATOM     34  C   UNL A   1      40.682  27.101  28.624  1.00  0.00     0.074 A 
ATOM     35  C   UNL A   1      42.684  26.210  27.495  1.00  0.00     0.049 A 
ATOM     36  N   UNL A   1      41.081  28.303  28.956  1.00  0.00    -0.248 NA
ATOM     37  C   UNL A   1      39.333  26.779  29.098  1.00  0.00     0.031 C 
ATOM     38  C   UNL A   1      43.510  25.260  26.746  1.00  0.00     0.029 A 
ATOM     39  N   UNL A   1      43.533  27.263  27.735  1.00  0.00    -0.354 N 
ATOM     40  C   UNL A   1      40.020  28.886  29.647  1.00  0.00     0.074 A 
ATOM     41  C   UNL A   1      38.954  27.909  29.675  1.00  0.00     0.031 C 
ATOM     42  C   UNL A   1      44.747  25.757  26.614  1.00  0.00     0.029 A 
ATOM     43  C   UNL A   1      44.780  27.101  27.178  1.00  0.00     0.049 A 
ATOM     44  H   UNL A   1      43.273  28.058  28.254  1.00  0.00     0.167 HD
ATOM     45  C   UNL A   1      39.934  30.124  30.198  1.00  0.00     0.034 A 
ATOM     46  C   UNL A   1      45.819  27.951  27.075  1.00  0.00     0.034 A 
ATOM     47  C   UNL A   1      41.002  31.094  30.166  1.00  0.00     0.049 A 
ATOM     48  C   UNL A   1      45.688  29.337  27.640  1.00  0.00     0.074 A 
ATOM     49  C   UNL A   1      41.028  32.371  30.700  1.00  0.00     0.029 A 
ATOM     50  N   UNL A   1      42.234  30.896  29.558  1.00  0.00    -0.354 N 
ATOM     51  N   UNL A   1      44.665  29.886  28.252  1.00  0.00    -0.248 NA
ATOM     52  C   UNL A   1      46.848  30.222  27.487  1.00  0.00     0.031 C 
ATOM     53  C   UNL A   1      42.249  32.967  30.358  1.00  0.00     0.029 A 
ATOM     54  C   UNL A   1      43.014  32.037  29.673  1.00  0.00     0.049 A 
ATOM     55  H   UNL A   1      42.515  30.065  29.109  1.00  0.00     0.167 HD
ATOM     56  C   UNL A   1      45.060  31.184  28.557  1.00  0.00     0.074 A 
ATOM     57  C   UNL A   1      46.425  31.323  28.089  1.00  0.00     0.031 C 
ATOM     58  C   UNL A   1      44.358  32.174  29.166  1.00  0.00     0.034 A 
BRANCH  45  59
ATOM     59  C   UNL A   1      38.612  30.523  30.815  1.00  0.00     0.023 A 
ATOM     60  C   UNL A   1      37.593  31.143  30.070  1.00  0.00     0.031 A 
ATOM     61  C   UNL A   1      38.382  30.302  32.186  1.00  0.00     0.131 A 
ATOM     62  C   UNL A   1      36.420  31.576  30.712  1.00  0.00     0.055 A 
ATOM     63  C   UNL A   1      37.184  30.668  32.803  1.00  0.00     0.041 A 
ATOM     64  F   UNL A   1      39.326  29.737  32.954  1.00  0.00    -0.206 F 
ATOM     65  C   UNL A   1      36.198  31.322  32.068  1.00  0.00     0.022 A 
BRANCH  62  66
ATOM     66  S   UNL A   1      35.241  32.594  29.782  1.00  0.00     0.124 S 
ATOM     67  O   UNL A   1      36.097  33.677  29.301  1.00  0.00    -0.237 OA
ATOM     68  O   UNL A   1      34.754  31.666  28.768  1.00  0.00    -0.237 OA
ATOM     69  O   UNL A   1      34.258  32.990  30.789  1.00  0.00    -0.744 OA
ENDBRANCH  62  66
ENDBRANCH  45  59
BRANCH  46  70
ATOM     70  C   UNL A   1      47.043  27.538  26.331  1.00  0.00     0.023 A 
ATOM     71  C   UNL A   1      47.187  27.803  24.961  1.00  0.00     0.031 A 
ATOM     72  C   UNL A   1      48.088  26.864  26.990  1.00  0.00     0.131 A 
ATOM     73  C   UNL A   1      48.343  27.377  24.288  1.00  0.00     0.055 A 
ATOM     74  C   UNL A   1      49.257  26.489  26.328  1.00  0.00     0.041 A 
ATOM     75  F   UNL A   1      47.999  26.588  28.300  1.00  0.00    -0.206 F 
ATOM     76  C   UNL A   1      49.385  26.739  24.966  1.00  0.00     0.022 A 
BRANCH  73  77
ATOM     77  S   UNL A   1      48.443  27.620  22.494  1.00  0.00     0.124 S 
ATOM     78  O   UNL A   1      48.548  26.246  22.014  1.00  0.00    -0.237 OA
ATOM     79  O   UNL A   1      47.188  28.306  22.210  1.00  0.00    -0.237 OA
ATOM     80  O   UNL A   1      49.646  28.433  22.327  1.00  0.00    -0.744 OA
ENDBRANCH  73  77
ENDBRANCH  46  70
BRANCH  58  81
ATOM     81  C   UNL A   1      45.077  33.484  29.364  1.00  0.00     0.023 A 
ATOM     82  C   UNL A   1      44.976  34.524  28.424  1.00  0.00     0.031 A 
ATOM     83  C   UNL A   1      45.911  33.674  30.480  1.00  0.00     0.131 A 
ATOM     84  C   UNL A   1      45.746  35.685  28.583  1.00  0.00     0.055 A 
ATOM     85  C   UNL A   1      46.631  34.855  30.661  1.00  0.00     0.041 A 
ATOM     86  F   UNL A   1      46.046  32.712  31.405  1.00  0.00    -0.206 F 
ATOM     87  C   UNL A   1      46.563  35.863  29.702  1.00  0.00     0.022 A 
BRANCH  84  88
ATOM     88  S   UNL A   1      45.744  36.918  27.253  1.00  0.00     0.124 S 
ATOM     89  O   UNL A   1      44.327  36.997  26.914  1.00  0.00    -0.237 OA
ATOM     90  O   UNL A   1      46.309  38.090  27.912  1.00  0.00    -0.237 OA
ATOM     91  O   UNL A   1      46.594  36.316  26.226  1.00  0.00    -0.744 OA
ENDBRANCH  84  88
ENDBRANCH  58  81
ENDBRANCH  32  33
ENDBRANCH  25  27
ENDBRANCH  24  25
ENDBRANCH  23  24
ENDBRANCH   1  23
TORSDOF 17
ENDMDL
MODEL 2
REMARK VINA RESULT:     -11.9      5.097     10.045
REMARK SMILES CC1(C)CCC[C@@H]1NC(=O)CC1(C(=O)OCCOC(=O)c2ccc(-c3c4nc(c(-c5cc(S(=O)(=O)[O-])ccc5F)c5ccc([nH]5)c(-c5cc(S(=O)(=O)[O-])ccc5F)c5nc(c(-c6cc(S(=O)(=O)[O-])ccc6F)c6ccc3[nH]6)C=C5)C=C4)cc2)CCCCC1
REMARK SMILES IDX 16 1 15 2 13 3 14 4 12 5 84 6 88 7 85 8 87 9 86 10 11 11
REMARK SMILES IDX 9 12 8 13 10 15 7 16 1 17 2 18 3 19 4 20 5 21 6 22 17 23
REMARK SMILES IDX 18 24 19 25 20 26 21 27 22 28 83 29 23 30 82 31 24 32 25 33
REMARK SMILES IDX 26 34 76 35 27 36 81 37 75 38 77 39 28 40 80 41 74 42 73 43
REMARK SMILES IDX 29 45 61 46 41 47 60 48 42 49 45 50 59 51 78 52 43 53 44 54
REMARK SMILES IDX 58 56 79 57 46 58 30 59 31 60 39 61 32 62 38 63 40 64 37 65
REMARK SMILES IDX 33 66 34 67 35 68 36 69 62 70 63 71 71 72 64 73 70 74 72 75
REMARK SMILES IDX 69 76 65 77 66 78 67 79 68 80 47 81 48 82 56 83 49 84 55 85
REMARK SMILES IDX 57 86 54 87 50 88 51 89 52 90 53 91
REMARK H PARENT 8 14 77 44 45 55
REMARK Flexibility Score: inf
ROOT
ATOM      1  C   UNL A   1      31.775  28.898  27.257  1.00  0.00     0.274 C 
ENDROOT
BRANCH   1   2
ATOM      2  O   UNL A   1      32.464  28.082  26.289  1.00  0.00    -0.462 OA
BRANCH   2   3
ATOM      3  C   UNL A   1      31.731  27.059  25.778  1.00  0.00     0.312 C 
ATOM      4  O   UNL A   1      30.981  26.355  26.449  1.00  0.00    -0.252 OA
BRANCH   3   5
ATOM      5  C   UNL A   1      31.897  26.873  24.261  1.00  0.00     0.077 C 
ATOM      6  C   UNL A   1      31.678  28.273  23.630  1.00  0.00     0.019 C 
ATOM      7  C   UNL A   1      30.885  25.910  23.605  1.00  0.00     0.019 C 
ATOM      8  C   UNL A   1      30.225  28.746  23.789  1.00  0.00     0.001 C 
ATOM      9  C   UNL A   1      29.428  26.354  23.682  1.00  0.00     0.001 C 
ATOM     10  C   UNL A   1      29.236  27.769  23.163  1.00  0.00     0.000 C 
BRANCH   5  11
ATOM     11  C   UNL A   1      33.362  26.382  24.116  1.00  0.00     0.118 C 
BRANCH  11  12
ATOM     12  C   UNL A   1      33.710  25.570  22.887  1.00  0.00     0.221 C 
ATOM     13  N   UNL A   1      34.046  24.252  23.000  1.00  0.00    -0.353 N 
ATOM     14  H   UNL A   1      34.347  23.837  22.160  1.00  0.00     0.163 HD
ATOM     15  O   UNL A   1      33.686  26.088  21.769  1.00  0.00    -0.275 OA
BRANCH  13  16
ATOM     16  C   UNL A   1      34.040  23.346  24.151  1.00  0.00     0.087 C 
ATOM     17  C   UNL A   1      36.032  23.975  25.609  1.00  0.00     0.013 C 
ATOM     18  C   UNL A   1      35.439  22.927  24.673  1.00  0.00    -0.015 C 
ATOM     19  C   UNL A   1      36.450  22.616  23.556  1.00  0.00     0.013 C 
ATOM     20  C   UNL A   1      35.107  21.649  25.468  1.00  0.00     0.008 C 
ATOM     21  C   UNL A   1      34.077  20.922  24.624  1.00  0.00     0.003 C 
ATOM     22  C   UNL A   1      33.356  22.009  23.836  1.00  0.00     0.025 C 
ENDBRANCH  13  16
ENDBRANCH  11  12
ENDBRANCH   5  11
ENDBRANCH   3   5
ENDBRANCH   2   3
ENDBRANCH   1   2
BRANCH   1  23
ATOM     23  C   UNL A   1      31.694  30.348  26.794  1.00  0.00     0.275 C 
BRANCH  23  24
ATOM     24  O   UNL A   1      32.999  30.821  26.420  1.00  0.00    -0.458 OA
BRANCH  24  25
ATOM     25  C   UNL A   1      33.538  31.746  27.249  1.00  0.00     0.338 C 
ATOM     26  O   UNL A   1      33.032  32.809  27.567  1.00  0.00    -0.246 OA
BRANCH  25  27
ATOM     27  C   UNL A   1      34.853  31.296  27.768  1.00  0.00     0.060 A 
ATOM     28  C   UNL A   1      35.072  29.979  28.173  1.00  0.00     0.016 A 
ATOM     29  C   UNL A   1      35.859  32.247  27.954  1.00  0.00     0.016 A 
ATOM     30  C   UNL A   1      36.235  29.647  28.874  1.00  0.00     0.010 A 
ATOM     31  C   UNL A   1      37.075  31.878  28.543  1.00  0.00     0.010 A 
ATOM     32  C   UNL A   1      37.268  30.583  29.049  1.00  0.00    -0.014 A 
BRANCH  32  33
ATOM     33  C   UNL A   1      38.542  30.215  29.742  1.00  0.00     0.031 A 
ATOM     34  C   UNL A   1      39.501  29.215  29.133  1.00  0.00     0.074 A 
ATOM     35  C   UNL A   1      38.841  30.758  30.940  1.00  0.00     0.049 A 
ATOM     36  N   UNL A   1      40.566  28.652  29.646  1.00  0.00    -0.248 NA
ATOM     37  C   UNL A   1      39.208  28.783  27.764  1.00  0.00     0.031 C 
ATOM     38  C   UNL A   1      38.028  31.748  31.650  1.00  0.00     0.029 A 
ATOM     39  N   UNL A   1      39.908  30.549  31.779  1.00  0.00    -0.354 N 
ATOM     40  C   UNL A   1      41.047  27.778  28.672  1.00  0.00     0.074 A 
ATOM     41  C   UNL A   1      40.149  27.877  27.543  1.00  0.00     0.031 C 
ATOM     42  C   UNL A   1      38.636  32.080  32.796  1.00  0.00     0.029 A 
ATOM     43  C   UNL A   1      39.829  31.258  32.955  1.00  0.00     0.049 A 
ATOM     44  H   UNL A   1      40.657  29.948  31.561  1.00  0.00     0.167 HD
ATOM     45  C   UNL A   1      42.130  26.960  28.715  1.00  0.00     0.034 A 
ATOM     46  C   UNL A   1      40.590  31.217  34.065  1.00  0.00     0.034 A 
ATOM     47  C   UNL A   1      43.022  26.867  29.846  1.00  0.00     0.049 A 
ATOM     48  C   UNL A   1      41.751  30.265  34.120  1.00  0.00     0.074 A 
ATOM     49  C   UNL A   1      44.152  26.082  29.994  1.00  0.00     0.029 A 
ATOM     50  N   UNL A   1      42.878  27.579  31.029  1.00  0.00    -0.354 N 
ATOM     51  N   UNL A   1      42.167  29.417  33.208  1.00  0.00    -0.248 NA
ATOM     52  C   UNL A   1      42.536  30.255  35.360  1.00  0.00     0.031 C 
ATOM     53  C   UNL A   1      44.653  26.271  31.289  1.00  0.00     0.029 A 
ATOM     54  C   UNL A   1      43.878  27.227  31.923  1.00  0.00     0.049 A 
ATOM     55  H   UNL A   1      42.169  28.239  31.208  1.00  0.00     0.167 HD
ATOM     56  C   UNL A   1      43.265  28.771  33.767  1.00  0.00     0.074 A 
ATOM     57  C   UNL A   1      43.464  29.352  35.081  1.00  0.00     0.031 C 
ATOM     58  C   UNL A   1      44.039  27.786  33.245  1.00  0.00     0.034 A 
BRANCH  45  59
ATOM     59  C   UNL A   1      42.362  26.046  27.532  1.00  0.00     0.023 A 
ATOM     60  C   UNL A   1      41.861  24.732  27.490  1.00  0.00     0.031 A 
ATOM     61  C   UNL A   1      43.127  26.494  26.439  1.00  0.00     0.131 A 
ATOM     62  C   UNL A   1      42.183  23.895  26.408  1.00  0.00     0.055 A 
ATOM     63  C   UNL A   1      43.381  25.680  25.333  1.00  0.00     0.041 A 
ATOM     64  F   UNL A   1      43.652  27.729  26.433  1.00  0.00    -0.206 F 
ATOM     65  C   UNL A   1      42.919  24.367  25.318  1.00  0.00     0.022 A 
BRANCH  62  66
ATOM     66  S   UNL A   1      41.739  22.138  26.502  1.00  0.00     0.124 S 
ATOM     67  O   UNL A   1      40.297  22.183  26.269  1.00  0.00    -0.237 OA
ATOM     68  O   UNL A   1      42.541  21.553  25.435  1.00  0.00    -0.237 OA
ATOM     69  O   UNL A   1      42.130  21.756  27.857  1.00  0.00    -0.744 OA
ENDBRANCH  62  66
ENDBRANCH  45  59
BRANCH  46  70
ATOM     70  C   UNL A   1      40.221  32.046  35.248  1.00  0.00     0.023 A 
ATOM     71  C   UNL A   1      39.266  31.605  36.176  1.00  0.00     0.031 A 
ATOM     72  C   UNL A   1      40.823  33.300  35.459  1.00  0.00     0.131 A 
ATOM     73  C   UNL A   1      38.926  32.424  37.265  1.00  0.00     0.055 A 
ATOM     74  C   UNL A   1      40.519  34.087  36.570  1.00  0.00     0.041 A 
ATOM     75  F   UNL A   1      41.743  33.765  34.599  1.00  0.00    -0.206 F 
ATOM     76  C   UNL A   1      39.559  33.652  37.476  1.00  0.00     0.022 A 
BRANCH  73  77
ATOM     77  S   UNL A   1      37.598  31.886  38.376  1.00  0.00     0.124 S 
ATOM     78  O   UNL A   1      38.260  31.933  39.675  1.00  0.00    -0.237 OA
ATOM     79  O   UNL A   1      36.575  32.898  38.139  1.00  0.00    -0.237 OA
ATOM     80  O   UNL A   1      37.270  30.547  37.891  1.00  0.00    -0.744 OA
ENDBRANCH  73  77
ENDBRANCH  46  70
BRANCH  58  81
ATOM     81  C   UNL A   1      45.175  27.295  34.105  1.00  0.00     0.023 A 
ATOM     82  C   UNL A   1      44.999  26.242  35.019  1.00  0.00     0.031 A 
ATOM     83  C   UNL A   1      46.432  27.920  34.045  1.00  0.00     0.131 A 
ATOM     84  C   UNL A   1      46.045  25.885  35.883  1.00  0.00     0.055 A 
ATOM     85  C   UNL A   1      47.487  27.524  34.869  1.00  0.00     0.041 A 
ATOM     86  F   UNL A   1      46.653  28.933  33.193  1.00  0.00    -0.206 F 
ATOM     87  C   UNL A   1      47.292  26.511  35.805  1.00  0.00     0.022 A 
BRANCH  84  88
ATOM     88  S   UNL A   1      45.721  24.663  37.183  1.00  0.00     0.124 S 
ATOM     89  O   UNL A   1      46.540  23.535  36.750  1.00  0.00    -0.237 OA
ATOM     90  O   UNL A   1      46.173  25.356  38.384  1.00  0.00    -0.237 OA
ATOM     91  O   UNL A   1      44.277  24.447  37.099  1.00  0.00    -0.744 OA
ENDBRANCH  84  88
ENDBRANCH  58  81
ENDBRANCH  32  33
ENDBRANCH  25  27
ENDBRANCH  24  25
ENDBRANCH  23  24
ENDBRANCH   1  23
TORSDOF 17
ENDMDL
MODEL 3
REMARK VINA RESULT:     -11.6      1.658      2.320
REMARK SMILES CC1(C)CCC[C@@H]1NC(=O)CC1(C(=O)OCCOC(=O)c2ccc(-c3c4nc(c(-c5cc(S(=O)(=O)[O-])ccc5F)c5ccc([nH]5)c(-c5cc(S(=O)(=O)[O-])ccc5F)c5nc(c(-c6cc(S(=O)(=O)[O-])ccc6F)c6ccc3[nH]6)C=C5)C=C4)cc2)CCCCC1
REMARK SMILES IDX 16 1 15 2 13 3 14 4 12 5 84 6 88 7 85 8 87 9 86 10 11 11
REMARK SMILES IDX 9 12 8 13 10 15 7 16 1 17 2 18 3 19 4 20 5 21 6 22 17 23
REMARK SMILES IDX 18 24 19 25 20 26 21 27 22 28 83 29 23 30 82 31 24 32 25 33
REMARK SMILES IDX 26 34 76 35 27 36 81 37 75 38 77 39 28 40 80 41 74 42 73 43
REMARK SMILES IDX 29 45 61 46 41 47 60 48 42 49 45 50 59 51 78 52 43 53 44 54
REMARK SMILES IDX 58 56 79 57 46 58 30 59 31 60 39 61 32 62 38 63 40 64 37 65
REMARK SMILES IDX 33 66 34 67 35 68 36 69 62 70 63 71 71 72 64 73 70 74 72 75
REMARK SMILES IDX 69 76 65 77 66 78 67 79 68 80 47 81 48 82 56 83 49 84 55 85
REMARK SMILES IDX 57 86 54 87 50 88 51 89 52 90 53 91
REMARK H PARENT 8 14 77 44 45 55
REMARK Flexibility Score: inf
ROOT
ATOM      1  C   UNL A   1      35.012  20.364  25.239  1.00  0.00     0.274 C 
ENDROOT
BRANCH   1   2
ATOM      2  O   UNL A   1      34.514  21.671  25.587  1.00  0.00    -0.462 OA
BRANCH   2   3
ATOM      3  C   UNL A   1      33.758  22.268  24.630  1.00  0.00     0.312 C 
ATOM      4  O   UNL A   1      33.467  21.739  23.561  1.00  0.00    -0.252 OA
BRANCH   3   5
ATOM      5  C   UNL A   1      33.262  23.671  25.016  1.00  0.00     0.077 C 
ATOM      6  C   UNL A   1      33.262  23.715  26.566  1.00  0.00     0.019 C 
ATOM      7  C   UNL A   1      31.832  24.012  24.547  1.00  0.00     0.019 C 
ATOM      8  C   UNL A   1      32.205  22.772  27.160  1.00  0.00     0.001 C 
ATOM      9  C   UNL A   1      30.731  23.144  25.146  1.00  0.00     0.001 C 
ATOM     10  C   UNL A   1      30.802  23.102  26.663  1.00  0.00     0.000 C 
BRANCH   5  11
ATOM     11  C   UNL A   1      34.330  24.614  24.399  1.00  0.00     0.118 C 
BRANCH  11  12
ATOM     12  C   UNL A   1      33.840  25.754  23.533  1.00  0.00     0.221 C 
ATOM     13  N   UNL A   1      33.342  26.890  24.101  1.00  0.00    -0.353 N 
ATOM     14  H   UNL A   1      32.962  27.532  23.459  1.00  0.00     0.163 HD
ATOM     15  O   UNL A   1      33.892  25.672  22.305  1.00  0.00    -0.275 OA
BRANCH  13  16
ATOM     16  C   UNL A   1      33.271  27.324  25.498  1.00  0.00     0.087 C 
ATOM     17  C   UNL A   1      30.932  26.764  26.338  1.00  0.00     0.013 C 
ATOM     18  C   UNL A   1      31.896  27.881  25.951  1.00  0.00    -0.015 C 
ATOM     19  C   UNL A   1      31.223  28.793  24.912  1.00  0.00     0.013 C 
ATOM     20  C   UNL A   1      32.283  28.690  27.205  1.00  0.00     0.008 C 
ATOM     21  C   UNL A   1      33.587  29.375  26.839  1.00  0.00     0.003 C 
ATOM     22  C   UNL A   1      34.244  28.472  25.802  1.00  0.00     0.025 C 
ENDBRANCH  13  16
ENDBRANCH  11  12
ENDBRANCH   5  11
ENDBRANCH   3   5
ENDBRANCH   2   3
ENDBRANCH   1   2
BRANCH   1  23
ATOM     23  C   UNL A   1      36.499  20.414  24.905  1.00  0.00     0.275 C 
BRANCH  23  24
ATOM     24  O   UNL A   1      37.154  21.407  25.712  1.00  0.00    -0.458 OA
BRANCH  24  25
ATOM     25  C   UNL A   1      38.491  21.246  25.853  1.00  0.00     0.338 C 
ATOM     26  O   UNL A   1      39.137  20.265  25.523  1.00  0.00    -0.246 OA
BRANCH  25  27
ATOM     27  C   UNL A   1      39.113  22.451  26.454  1.00  0.00     0.060 A 
ATOM     28  C   UNL A   1      38.663  23.737  26.156  1.00  0.00     0.016 A 
ATOM     29  C   UNL A   1      40.247  22.290  27.254  1.00  0.00     0.016 A 
ATOM     30  C   UNL A   1      39.414  24.850  26.546  1.00  0.00     0.010 A 
ATOM     31  C   UNL A   1      40.924  23.412  27.749  1.00  0.00     0.010 A 
ATOM     32  C   UNL A   1      40.543  24.709  27.370  1.00  0.00    -0.014 A 
BRANCH  32  33
ATOM     33  C   UNL A   1      41.314  25.902  27.843  1.00  0.00     0.031 A 
ATOM     34  C   UNL A   1      40.648  26.985  28.663  1.00  0.00     0.074 A 
ATOM     35  C   UNL A   1      42.617  26.034  27.522  1.00  0.00     0.049 A 
ATOM     36  N   UNL A   1      41.099  28.159  29.029  1.00  0.00    -0.248 NA
ATOM     37  C   UNL A   1      39.283  26.712  29.119  1.00  0.00     0.031 C 
ATOM     38  C   UNL A   1      43.404  25.068  26.753  1.00  0.00     0.029 A 
ATOM     39  N   UNL A   1      43.510  27.042  27.794  1.00  0.00    -0.354 N 
ATOM     40  C   UNL A   1      40.060  28.771  29.729  1.00  0.00     0.074 A 
ATOM     41  C   UNL A   1      38.951  27.842  29.724  1.00  0.00     0.031 C 
ATOM     42  C   UNL A   1      44.663  25.513  26.642  1.00  0.00     0.029 A 
ATOM     43  C   UNL A   1      44.753  26.838  27.241  1.00  0.00     0.049 A 
ATOM     44  H   UNL A   1      43.283  27.834  28.334  1.00  0.00     0.167 HD
ATOM     45  C   UNL A   1      40.026  29.996  30.312  1.00  0.00     0.034 A 
ATOM     46  C   UNL A   1      45.830  27.642  27.167  1.00  0.00     0.034 A 
ATOM     47  C   UNL A   1      41.137  30.918  30.311  1.00  0.00     0.049 A 
ATOM     48  C   UNL A   1      45.757  29.018  27.768  1.00  0.00     0.074 A 
ATOM     49  C   UNL A   1      41.217  32.177  30.880  1.00  0.00     0.029 A 
ATOM     50  N   UNL A   1      42.363  30.680  29.706  1.00  0.00    -0.354 N 
ATOM     51  N   UNL A   1      44.755  29.596  28.388  1.00  0.00    -0.248 NA
ATOM     52  C   UNL A   1      46.957  29.854  27.645  1.00  0.00     0.031 C 
ATOM     53  C   UNL A   1      42.466  32.726  30.561  1.00  0.00     0.029 A 
ATOM     54  C   UNL A   1      43.192  31.782  29.856  1.00  0.00     0.049 A 
ATOM     55  H   UNL A   1      42.609  29.849  29.236  1.00  0.00     0.167 HD
ATOM     56  C   UNL A   1      45.206  30.867  28.730  1.00  0.00     0.074 A 
ATOM     57  C   UNL A   1      46.579  30.956  28.274  1.00  0.00     0.031 C 
ATOM     58  C   UNL A   1      44.546  31.871  29.361  1.00  0.00     0.034 A 
BRANCH  45  59
ATOM     59  C   UNL A   1      38.719  30.438  30.932  1.00  0.00     0.023 A 
ATOM     60  C   UNL A   1      37.712  31.075  30.184  1.00  0.00     0.031 A 
ATOM     61  C   UNL A   1      38.492  30.242  32.306  1.00  0.00     0.131 A 
ATOM     62  C   UNL A   1      36.555  31.547  30.827  1.00  0.00     0.055 A 
ATOM     63  C   UNL A   1      37.308  30.648  32.926  1.00  0.00     0.041 A 
ATOM     64  F   UNL A   1      39.426  29.662  33.076  1.00  0.00    -0.206 F 
ATOM     65  C   UNL A   1      36.335  31.317  32.188  1.00  0.00     0.022 A 
BRANCH  62  66
ATOM     66  S   UNL A   1      35.397  32.584  29.891  1.00  0.00     0.124 S 
ATOM     67  O   UNL A   1      34.365  32.855  30.890  1.00  0.00    -0.237 OA
ATOM     68  O   UNL A   1      36.229  33.718  29.507  1.00  0.00    -0.237 OA
ATOM     69  O   UNL A   1      34.974  31.721  28.790  1.00  0.00    -0.744 OA
ENDBRANCH  62  66
ENDBRANCH  45  59
BRANCH  46  70
ATOM     70  C   UNL A   1      47.039  27.194  26.419  1.00  0.00     0.023 A 
ATOM     71  C   UNL A   1      48.078  26.504  27.060  1.00  0.00     0.031 A 
ATOM     72  C   UNL A   1      47.167  27.459  25.042  1.00  0.00     0.131 A 
ATOM     73  C   UNL A   1      49.212  26.119  26.328  1.00  0.00     0.055 A 
ATOM     74  C   UNL A   1      48.273  27.029  24.309  1.00  0.00     0.041 A 
ATOM     75  F   UNL A   1      46.200  28.115  24.384  1.00  0.00    -0.206 F 
ATOM     76  C   UNL A   1      49.308  26.361  24.955  1.00  0.00     0.022 A 
BRANCH  73  77
ATOM     77  S   UNL A   1      50.594  25.343  27.210  1.00  0.00     0.124 S 
ATOM     78  O   UNL A   1      51.043  26.430  28.073  1.00  0.00    -0.237 OA
ATOM     79  O   UNL A   1      49.938  24.223  27.875  1.00  0.00    -0.237 OA
ATOM     80  O   UNL A   1      51.517  24.975  26.139  1.00  0.00    -0.744 OA
ENDBRANCH  73  77
ENDBRANCH  46  70
BRANCH  58  81
ATOM     81  C   UNL A   1      45.321  33.141  29.598  1.00  0.00     0.023 A 
ATOM     82  C   UNL A   1      45.260  34.216  28.694  1.00  0.00     0.031 A 
ATOM     83  C   UNL A   1      46.167  33.259  30.714  1.00  0.00     0.131 A 
ATOM     84  C   UNL A   1      46.080  35.337  28.886  1.00  0.00     0.055 A 
ATOM     85  C   UNL A   1      46.939  34.401  30.930  1.00  0.00     0.041 A 
ATOM     86  F   UNL A   1      46.265  32.261  31.606  1.00  0.00    -0.206 F 
ATOM     87  C   UNL A   1      46.910  35.442  30.006  1.00  0.00     0.022 A 
BRANCH  84  88
ATOM     88  S   UNL A   1      46.125  36.613  27.598  1.00  0.00     0.124 S 
ATOM     89  O   UNL A   1      47.093  36.059  26.656  1.00  0.00    -0.237 OA
ATOM     90  O   UNL A   1      44.740  36.648  27.143  1.00  0.00    -0.237 OA
ATOM     91  O   UNL A   1      46.572  37.808  28.314  1.00  0.00    -0.744 OA
ENDBRANCH  84  88
ENDBRANCH  58  81
ENDBRANCH  32  33
ENDBRANCH  25  27
ENDBRANCH  24  25
ENDBRANCH  23  24
ENDBRANCH   1  23
TORSDOF 17
ENDMDL
