MODEL 1
REMARK VINA RESULT:     -12.2      0.000      0.000
REMARK SMILES C[C@@H](C(=O)OCCOC(=O)c1ccc(-c2c3nc(c(-c4cc(S(=O)(=O)[O-])ccc4F)c4ccc([nH]4)c(-c4cc(S(=O)(=O)[O-])ccc4F)c4nc(c(-c5cc(S(=O)(=O)[O-])ccc5F)c5ccc2[nH]5)C=C4)C=C3)cc1)c1ccc(C[C@H]2CCC[C@@H]2O)cc1F
REMARK SMILES IDX 6 1 5 2 3 3 4 4 2 5 1 6 74 7 75 8 86 9 76 10 85 11 87 12
REMARK SMILES IDX 77 13 78 14 79 15 80 16 83 17 81 18 82 19 84 20 7 22 8 23
REMARK SMILES IDX 9 24 10 25 11 26 12 27 73 28 13 29 72 30 14 31 15 32 16 33
REMARK SMILES IDX 66 34 17 35 71 36 65 37 67 38 18 39 70 40 64 41 63 42 19 44
REMARK SMILES IDX 51 45 31 46 50 47 32 48 35 49 49 50 68 51 33 52 34 53 48 55
REMARK SMILES IDX 69 56 36 57 20 58 21 59 29 60 22 61 28 62 30 63 27 64 23 65
REMARK SMILES IDX 24 66 25 67 26 68 52 69 53 70 61 71 54 72 60 73 62 74 59 75
REMARK SMILES IDX 55 76 56 77 57 78 58 79 37 80 38 81 46 82 39 83 45 84 47 85
REMARK SMILES IDX 44 86 40 87 41 88 42 89 43 90
REMARK H PARENT 84 21 67 43 35 54
REMARK Flexibility Score: inf
ROOT
ATOM      1  C   UNL A   1      34.972  21.317  25.710  1.00  0.00     0.274 C 
ENDROOT
BRANCH   1   2
ATOM      2  O   UNL A   1      33.913  21.606  24.773  1.00  0.00    -0.462 OA
BRANCH   2   3
ATOM      3  C   UNL A   1      32.716  21.986  25.306  1.00  0.00     0.313 C 
ATOM      4  O   UNL A   1      31.654  21.444  25.019  1.00  0.00    -0.252 OA
BRANCH   3   5
ATOM      5  C   UNL A   1      32.832  23.221  26.228  1.00  0.00     0.129 C 
ATOM      6  C   UNL A   1      32.308  22.924  27.639  1.00  0.00     0.025 C 
BRANCH   5   7
ATOM      7  C   UNL A   1      32.271  24.487  25.571  1.00  0.00     0.002 A 
ATOM      8  C   UNL A   1      30.888  24.738  25.635  1.00  0.00     0.008 A 
ATOM      9  C   UNL A   1      33.046  25.454  24.922  1.00  0.00     0.127 A 
ATOM     10  C   UNL A   1      30.330  25.934  25.159  1.00  0.00     0.004 A 
ATOM     11  C   UNL A   1      32.489  26.636  24.418  1.00  0.00     0.043 A 
ATOM     12  F   UNL A   1      34.370  25.297  24.785  1.00  0.00    -0.207 F 
ATOM     13  C   UNL A   1      31.120  26.910  24.549  1.00  0.00    -0.045 A 
BRANCH  13  14
ATOM     14  C   UNL A   1      30.595  28.284  24.167  1.00  0.00     0.041 C 
BRANCH  14  15
ATOM     15  C   UNL A   1      29.683  28.458  22.939  1.00  0.00     0.022 C 
ATOM     16  C   UNL A   1      28.226  28.030  23.160  1.00  0.00     0.007 C 
ATOM     17  C   UNL A   1      29.633  29.885  22.360  1.00  0.00     0.117 C 
ATOM     18  C   UNL A   1      27.398  29.291  22.970  1.00  0.00     0.003 C 
ATOM     19  C   UNL A   1      28.182  30.084  21.939  1.00  0.00     0.032 C 
BRANCH  17  20
ATOM     20  O   UNL A   1      30.505  30.001  21.250  1.00  0.00    -0.393 OA
ATOM     21  H   UNL A   1      30.696  29.119  20.895  1.00  0.00     0.210 HD
ENDBRANCH  17  20
ENDBRANCH  14  15
ENDBRANCH  13  14
ENDBRANCH   5   7
ENDBRANCH   3   5
ENDBRANCH   2   3
ENDBRANCH   1   2
BRANCH   1  22
ATOM     22  C   UNL A   1      36.135  20.640  24.994  1.00  0.00     0.275 C 
BRANCH  22  23
ATOM     23  O   UNL A   1      37.238  21.558  24.927  1.00  0.00    -0.458 OA
BRANCH  23  24
ATOM     24  C   UNL A   1      38.385  21.157  25.518  1.00  0.00     0.338 C 
ATOM     25  O   UNL A   1      38.818  20.014  25.590  1.00  0.00    -0.246 OA
BRANCH  24  26
ATOM     26  C   UNL A   1      39.056  22.325  26.110  1.00  0.00     0.060 A 
ATOM     27  C   UNL A   1      38.453  23.577  26.044  1.00  0.00     0.016 A 
ATOM     28  C   UNL A   1      40.328  22.192  26.671  1.00  0.00     0.016 A 
ATOM     29  C   UNL A   1      39.151  24.704  26.474  1.00  0.00     0.010 A 
ATOM     30  C   UNL A   1      40.994  23.321  27.165  1.00  0.00     0.010 A 
ATOM     31  C   UNL A   1      40.430  24.602  27.035  1.00  0.00    -0.014 A 
BRANCH  31  32
ATOM     32  C   UNL A   1      41.196  25.836  27.394  1.00  0.00     0.031 A 
ATOM     33  C   UNL A   1      40.599  26.841  28.350  1.00  0.00     0.074 A 
ATOM     34  C   UNL A   1      42.449  26.039  26.939  1.00  0.00     0.049 A 
ATOM     35  N   UNL A   1      41.023  28.037  28.673  1.00  0.00    -0.248 NA
ATOM     36  C   UNL A   1      39.353  26.448  29.024  1.00  0.00     0.031 C 
ATOM     37  C   UNL A   1      43.202  25.115  26.087  1.00  0.00     0.029 A 
ATOM     38  N   UNL A   1      43.330  27.072  27.158  1.00  0.00    -0.354 N 
ATOM     39  C   UNL A   1      40.063  28.567  29.530  1.00  0.00     0.074 A 
ATOM     40  C   UNL A   1      39.037  27.555  29.682  1.00  0.00     0.031 C 
ATOM     41  C   UNL A   1      44.448  25.585  25.922  1.00  0.00     0.029 A 
ATOM     42  C   UNL A   1      44.557  26.892  26.561  1.00  0.00     0.049 A 
ATOM     43  H   UNL A   1      43.103  27.866  27.694  1.00  0.00     0.167 HD
ATOM     44  C   UNL A   1      40.032  29.786  30.123  1.00  0.00     0.034 A 
ATOM     45  C   UNL A   1      45.636  27.701  26.501  1.00  0.00     0.034 A 
ATOM     46  C   UNL A   1      41.085  30.768  30.013  1.00  0.00     0.049 A 
ATOM     47  C   UNL A   1      45.563  29.068  27.133  1.00  0.00     0.074 A 
ATOM     48  C   UNL A   1      41.137  32.043  30.552  1.00  0.00     0.029 A 
ATOM     49  N   UNL A   1      42.279  30.581  29.329  1.00  0.00    -0.354 N 
ATOM     50  N   UNL A   1      44.591  29.608  27.830  1.00  0.00    -0.248 NA
ATOM     51  C   UNL A   1      46.724  29.950  26.939  1.00  0.00     0.031 C 
ATOM     52  C   UNL A   1      42.335  32.645  30.149  1.00  0.00     0.029 A 
ATOM     53  C   UNL A   1      43.061  31.724  29.414  1.00  0.00     0.049 A 
ATOM     54  H   UNL A   1      42.533  29.758  28.854  1.00  0.00     0.167 HD
ATOM     55  C   UNL A   1      45.026  30.890  28.158  1.00  0.00     0.074 A 
ATOM     56  C   UNL A   1      46.359  31.032  27.610  1.00  0.00     0.031 C 
ATOM     57  C   UNL A   1      44.379  31.866  28.841  1.00  0.00     0.034 A 
BRANCH  44  58
ATOM     58  C   UNL A   1      38.775  30.158  30.871  1.00  0.00     0.023 A 
ATOM     59  C   UNL A   1      37.707  30.839  30.263  1.00  0.00     0.031 A 
ATOM     60  C   UNL A   1      38.666  29.849  32.241  1.00  0.00     0.131 A 
ATOM     61  C   UNL A   1      36.609  31.248  31.038  1.00  0.00     0.055 A 
ATOM     62  C   UNL A   1      37.539  30.192  32.988  1.00  0.00     0.041 A 
ATOM     63  F   UNL A   1      39.663  29.218  32.879  1.00  0.00    -0.206 F 
ATOM     64  C   UNL A   1      36.508  30.910  32.390  1.00  0.00     0.022 A 
BRANCH  61  65
ATOM     65  S   UNL A   1      35.377  32.350  30.289  1.00  0.00     0.124 S 
ATOM     66  O   UNL A   1      36.204  33.484  29.882  1.00  0.00    -0.237 OA
ATOM     67  O   UNL A   1      34.836  31.532  29.211  1.00  0.00    -0.237 OA
ATOM     68  O   UNL A   1      34.452  32.626  31.387  1.00  0.00    -0.744 OA
ENDBRANCH  61  65
ENDBRANCH  44  58
BRANCH  45  69
ATOM     69  C   UNL A   1      46.859  27.285  25.752  1.00  0.00     0.023 A 
ATOM     70  C   UNL A   1      47.069  27.698  24.427  1.00  0.00     0.031 A 
ATOM     71  C   UNL A   1      47.806  26.420  26.329  1.00  0.00     0.131 A 
ATOM     72  C   UNL A   1      48.177  27.217  23.712  1.00  0.00     0.055 A 
ATOM     73  C   UNL A   1      48.936  25.988  25.632  1.00  0.00     0.041 A 
ATOM     74  F   UNL A   1      47.652  25.984  27.590  1.00  0.00    -0.206 F 
ATOM     75  C   UNL A   1      49.120  26.377  24.309  1.00  0.00     0.022 A 
BRANCH  72  76
ATOM     76  S   UNL A   1      48.337  27.656  21.960  1.00  0.00     0.124 S 
ATOM     77  O   UNL A   1      48.538  26.351  21.341  1.00  0.00    -0.237 OA
ATOM     78  O   UNL A   1      47.055  28.303  21.701  1.00  0.00    -0.237 OA
ATOM     79  O   UNL A   1      49.497  28.545  21.936  1.00  0.00    -0.744 OA
ENDBRANCH  72  76
ENDBRANCH  45  69
BRANCH  57  80
ATOM     80  C   UNL A   1      45.115  33.167  29.041  1.00  0.00     0.023 A 
ATOM     81  C   UNL A   1      44.962  34.243  28.148  1.00  0.00     0.031 A 
ATOM     82  C   UNL A   1      45.991  33.328  30.128  1.00  0.00     0.131 A 
ATOM     83  C   UNL A   1      45.709  35.417  28.332  1.00  0.00     0.055 A 
ATOM     84  C   UNL A   1      46.695  34.515  30.334  1.00  0.00     0.041 A 
ATOM     85  F   UNL A   1      46.176  32.333  31.010  1.00  0.00    -0.206 F 
ATOM     86  C   UNL A   1      46.565  35.565  29.427  1.00  0.00     0.022 A 
BRANCH  83  87
ATOM     87  S   UNL A   1      45.608  36.724  27.077  1.00  0.00     0.124 S 
ATOM     88  O   UNL A   1      46.303  36.117  25.947  1.00  0.00    -0.237 OA
ATOM     89  O   UNL A   1      44.167  36.897  26.922  1.00  0.00    -0.237 OA
ATOM     90  O   UNL A   1      46.302  37.850  27.698  1.00  0.00    -0.744 OA
ENDBRANCH  83  87
ENDBRANCH  57  80
ENDBRANCH  31  32
ENDBRANCH  24  26
ENDBRANCH  23  24
ENDBRANCH  22  23
ENDBRANCH   1  22
TORSDOF 18
ENDMDL
MODEL 2
REMARK VINA RESULT:     -12.1      5.072     10.464
REMARK SMILES C[C@@H](C(=O)OCCOC(=O)c1ccc(-c2c3nc(c(-c4cc(S(=O)(=O)[O-])ccc4F)c4ccc([nH]4)c(-c4cc(S(=O)(=O)[O-])ccc4F)c4nc(c(-c5cc(S(=O)(=O)[O-])ccc5F)c5ccc2[nH]5)C=C4)C=C3)cc1)c1ccc(C[C@H]2CCC[C@@H]2O)cc1F
REMARK SMILES IDX 6 1 5 2 3 3 4 4 2 5 1 6 74 7 75 8 86 9 76 10 85 11 87 12
REMARK SMILES IDX 77 13 78 14 79 15 80 16 83 17 81 18 82 19 84 20 7 22 8 23
REMARK SMILES IDX 9 24 10 25 11 26 12 27 73 28 13 29 72 30 14 31 15 32 16 33
REMARK SMILES IDX 66 34 17 35 71 36 65 37 67 38 18 39 70 40 64 41 63 42 19 44
REMARK SMILES IDX 51 45 31 46 50 47 32 48 35 49 49 50 68 51 33 52 34 53 48 55
REMARK SMILES IDX 69 56 36 57 20 58 21 59 29 60 22 61 28 62 30 63 27 64 23 65
REMARK SMILES IDX 24 66 25 67 26 68 52 69 53 70 61 71 54 72 60 73 62 74 59 75
REMARK SMILES IDX 55 76 56 77 57 78 58 79 37 80 38 81 46 82 39 83 45 84 47 85
REMARK SMILES IDX 44 86 40 87 41 88 42 89 43 90
REMARK H PARENT 84 21 67 43 35 54
REMARK Flexibility Score: inf
ROOT
ATOM      1  C   UNL A   1      31.481  28.818  25.556  1.00  0.00     0.274 C 
ENDROOT
BRANCH   1   2
ATOM      2  O   UNL A   1      31.130  28.849  24.157  1.00  0.00    -0.462 OA
BRANCH   2   3
ATOM      3  C   UNL A   1      31.690  27.886  23.368  1.00  0.00     0.313 C 
ATOM      4  O   UNL A   1      31.028  27.141  22.652  1.00  0.00    -0.252 OA
BRANCH   3   5
ATOM      5  C   UNL A   1      33.220  27.775  23.546  1.00  0.00     0.129 C 
ATOM      6  C   UNL A   1      33.972  28.332  22.330  1.00  0.00     0.025 C 
BRANCH   5   7
ATOM      7  C   UNL A   1      33.649  26.375  24.000  1.00  0.00     0.002 A 
ATOM      8  C   UNL A   1      33.703  25.334  23.055  1.00  0.00     0.008 A 
ATOM      9  C   UNL A   1      34.031  26.047  25.306  1.00  0.00     0.127 A 
ATOM     10  C   UNL A   1      34.200  24.063  23.382  1.00  0.00     0.004 A 
ATOM     11  C   UNL A   1      34.499  24.771  25.643  1.00  0.00     0.043 A 
ATOM     12  F   UNL A   1      33.990  26.961  26.285  1.00  0.00    -0.207 F 
ATOM     13  C   UNL A   1      34.616  23.759  24.679  1.00  0.00    -0.045 A 
BRANCH  13  14
ATOM     14  C   UNL A   1      35.312  22.459  25.046  1.00  0.00     0.041 C 
BRANCH  14  15
ATOM     15  C   UNL A   1      34.502  21.264  25.581  1.00  0.00     0.022 C 
ATOM     16  C   UNL A   1      33.059  21.598  25.982  1.00  0.00     0.007 C 
ATOM     17  C   UNL A   1      34.419  20.053  24.632  1.00  0.00     0.117 C 
ATOM     18  C   UNL A   1      32.178  20.770  25.058  1.00  0.00     0.003 C 
ATOM     19  C   UNL A   1      33.002  19.521  24.800  1.00  0.00     0.032 C 
BRANCH  17  20
ATOM     20  O   UNL A   1      35.377  19.073  24.992  1.00  0.00    -0.393 OA
ATOM     21  H   UNL A   1      35.385  18.968  25.956  1.00  0.00     0.210 HD
ENDBRANCH  17  20
ENDBRANCH  14  15
ENDBRANCH  13  14
ENDBRANCH   5   7
ENDBRANCH   3   5
ENDBRANCH   2   3
ENDBRANCH   1   2
BRANCH   1  22
ATOM     22  C   UNL A   1      31.520  30.235  26.118  1.00  0.00     0.275 C 
BRANCH  22  23
ATOM     23  O   UNL A   1      32.872  30.717  26.073  1.00  0.00    -0.458 OA
BRANCH  23  24
ATOM     24  C   UNL A   1      33.215  31.622  27.015  1.00  0.00     0.338 C 
ATOM     25  O   UNL A   1      32.579  32.614  27.352  1.00  0.00    -0.246 OA
BRANCH  24  26
ATOM     26  C   UNL A   1      34.520  31.255  27.585  1.00  0.00     0.060 A 
ATOM     27  C   UNL A   1      34.788  29.927  27.904  1.00  0.00     0.016 A 
ATOM     28  C   UNL A   1      35.461  32.245  27.876  1.00  0.00     0.016 A 
ATOM     29  C   UNL A   1      35.965  29.601  28.575  1.00  0.00     0.010 A 
ATOM     30  C   UNL A   1      36.673  31.898  28.488  1.00  0.00     0.010 A 
ATOM     31  C   UNL A   1      36.924  30.572  28.884  1.00  0.00    -0.014 A 
BRANCH  31  32
ATOM     32  C   UNL A   1      38.129  30.211  29.694  1.00  0.00     0.031 A 
ATOM     33  C   UNL A   1      39.224  29.372  29.081  1.00  0.00     0.074 A 
ATOM     34  C   UNL A   1      38.298  30.683  30.946  1.00  0.00     0.049 A 
ATOM     35  N   UNL A   1      40.269  28.824  29.647  1.00  0.00    -0.248 NA
ATOM     36  C   UNL A   1      39.120  29.108  27.638  1.00  0.00     0.031 C 
ATOM     37  C   UNL A   1      37.378  31.585  31.644  1.00  0.00     0.029 A 
ATOM     38  N   UNL A   1      39.322  30.501  31.845  1.00  0.00    -0.354 N 
ATOM     39  C   UNL A   1      40.908  28.093  28.649  1.00  0.00     0.074 A 
ATOM     40  C   UNL A   1      40.133  28.277  27.438  1.00  0.00     0.031 C 
ATOM     41  C   UNL A   1      37.915  31.935  32.823  1.00  0.00     0.029 A 
ATOM     42  C   UNL A   1      39.163  31.204  33.018  1.00  0.00     0.049 A 
ATOM     43  H   UNL A   1      40.098  29.923  31.665  1.00  0.00     0.167 HD
ATOM     44  C   UNL A   1      42.027  27.330  28.737  1.00  0.00     0.034 A 
ATOM     45  C   UNL A   1      39.912  31.230  34.140  1.00  0.00     0.034 A 
ATOM     46  C   UNL A   1      42.825  27.197  29.932  1.00  0.00     0.049 A 
ATOM     47  C   UNL A   1      41.129  30.342  34.230  1.00  0.00     0.074 A 
ATOM     48  C   UNL A   1      43.959  26.427  30.131  1.00  0.00     0.029 A 
ATOM     49  N   UNL A   1      42.584  27.860  31.128  1.00  0.00    -0.354 N 
ATOM     50  N   UNL A   1      41.647  29.551  33.318  1.00  0.00    -0.248 NA
ATOM     51  C   UNL A   1      41.843  30.325  35.515  1.00  0.00     0.031 C 
ATOM     52  C   UNL A   1      44.371  26.582  31.461  1.00  0.00     0.029 A 
ATOM     53  C   UNL A   1      43.534  27.499  32.073  1.00  0.00     0.049 A 
ATOM     54  H   UNL A   1      41.848  28.494  31.282  1.00  0.00     0.167 HD
ATOM     55  C   UNL A   1      42.746  28.948  33.922  1.00  0.00     0.074 A 
ATOM     56  C   UNL A   1      42.837  29.487  35.263  1.00  0.00     0.031 C 
ATOM     57  C   UNL A   1      43.600  28.022  33.418  1.00  0.00     0.034 A 
BRANCH  44  58
ATOM     58  C   UNL A   1      42.398  26.509  27.526  1.00  0.00     0.023 A 
ATOM     59  C   UNL A   1      42.008  25.168  27.373  1.00  0.00     0.031 A 
ATOM     60  C   UNL A   1      43.195  27.083  26.517  1.00  0.00     0.131 A 
ATOM     61  C   UNL A   1      42.473  24.427  26.274  1.00  0.00     0.055 A 
ATOM     62  C   UNL A   1      43.591  26.363  25.389  1.00  0.00     0.041 A 
ATOM     63  F   UNL A   1      43.614  28.353  26.619  1.00  0.00    -0.206 F 
ATOM     64  C   UNL A   1      43.242  25.022  25.271  1.00  0.00     0.022 A 
BRANCH  61  65
ATOM     65  S   UNL A   1      42.175  22.638  26.242  1.00  0.00     0.124 S 
ATOM     66  O   UNL A   1      40.729  22.575  26.442  1.00  0.00    -0.237 OA
ATOM     67  O   UNL A   1      42.653  22.262  24.917  1.00  0.00    -0.237 OA
ATOM     68  O   UNL A   1      42.974  22.136  27.359  1.00  0.00    -0.744 OA
ENDBRANCH  61  65
ENDBRANCH  44  58
BRANCH  45  69
ATOM     69  C   UNL A   1      39.506  32.063  35.311  1.00  0.00     0.023 A 
ATOM     70  C   UNL A   1      38.743  31.517  36.355  1.00  0.00     0.031 A 
ATOM     71  C   UNL A   1      39.819  33.433  35.372  1.00  0.00     0.131 A 
ATOM     72  C   UNL A   1      38.291  32.342  37.396  1.00  0.00     0.055 A 
ATOM     73  C   UNL A   1      39.414  34.237  36.439  1.00  0.00     0.041 A 
ATOM     74  F   UNL A   1      40.537  34.012  34.396  1.00  0.00    -0.206 F 
ATOM     75  C   UNL A   1      38.633  33.695  37.453  1.00  0.00     0.022 A 
BRANCH  72  76
ATOM     76  S   UNL A   1      37.189  31.633  38.650  1.00  0.00     0.124 S 
ATOM     77  O   UNL A   1      36.977  30.285  38.135  1.00  0.00    -0.237 OA
ATOM     78  O   UNL A   1      38.006  31.742  39.855  1.00  0.00    -0.237 OA
ATOM     79  O   UNL A   1      36.020  32.509  38.611  1.00  0.00    -0.744 OA
ENDBRANCH  72  76
ENDBRANCH  45  69
BRANCH  57  80
ATOM     80  C   UNL A   1      44.710  27.547  34.321  1.00  0.00     0.023 A 
ATOM     81  C   UNL A   1      44.589  26.367  35.077  1.00  0.00     0.031 A 
ATOM     82  C   UNL A   1      45.896  28.291  34.440  1.00  0.00     0.131 A 
ATOM     83  C   UNL A   1      45.618  25.989  35.953  1.00  0.00     0.055 A 
ATOM     84  C   UNL A   1      46.937  27.885  35.277  1.00  0.00     0.041 A 
ATOM     85  F   UNL A   1      46.063  29.426  33.743  1.00  0.00    -0.206 F 
ATOM     86  C   UNL A   1      46.797  26.733  36.048  1.00  0.00     0.022 A 
BRANCH  83  87
ATOM     87  S   UNL A   1      45.365  24.549  37.029  1.00  0.00     0.124 S 
ATOM     88  O   UNL A   1      46.675  23.910  36.997  1.00  0.00    -0.237 OA
ATOM     89  O   UNL A   1      44.987  25.168  38.296  1.00  0.00    -0.237 OA
ATOM     90  O   UNL A   1      44.297  23.806  36.362  1.00  0.00    -0.744 OA
ENDBRANCH  83  87
ENDBRANCH  57  80
ENDBRANCH  31  32
ENDBRANCH  24  26
ENDBRANCH  23  24
ENDBRANCH  22  23
ENDBRANCH   1  22
TORSDOF 18
ENDMDL
MODEL 3
REMARK VINA RESULT:     -12.0      1.305      7.780
REMARK SMILES C[C@@H](C(=O)OCCOC(=O)c1ccc(-c2c3nc(c(-c4cc(S(=O)(=O)[O-])ccc4F)c4ccc([nH]4)c(-c4cc(S(=O)(=O)[O-])ccc4F)c4nc(c(-c5cc(S(=O)(=O)[O-])ccc5F)c5ccc2[nH]5)C=C4)C=C3)cc1)c1ccc(C[C@H]2CCC[C@@H]2O)cc1F
REMARK SMILES IDX 6 1 5 2 3 3 4 4 2 5 1 6 74 7 75 8 86 9 76 10 85 11 87 12
REMARK SMILES IDX 77 13 78 14 79 15 80 16 83 17 81 18 82 19 84 20 7 22 8 23
REMARK SMILES IDX 9 24 10 25 11 26 12 27 73 28 13 29 72 30 14 31 15 32 16 33
REMARK SMILES IDX 66 34 17 35 71 36 65 37 67 38 18 39 70 40 64 41 63 42 19 44
REMARK SMILES IDX 51 45 31 46 50 47 32 48 35 49 49 50 68 51 33 52 34 53 48 55
REMARK SMILES IDX 69 56 36 57 20 58 21 59 29 60 22 61 28 62 30 63 27 64 23 65
REMARK SMILES IDX 24 66 25 67 26 68 52 69 53 70 61 71 54 72 60 73 62 74 59 75
REMARK SMILES IDX 55 76 56 77 57 78 58 79 37 80 38 81 46 82 39 83 45 84 47 85
REMARK SMILES IDX 44 86 40 87 41 88 42 89 43 90
REMARK H PARENT 84 21 67 43 35 54
REMARK Flexibility Score: inf
ROOT
ATOM      1  C   UNL A   1      36.214  19.836  24.994  1.00  0.00     0.274 C 
ENDROOT
BRANCH   1   2
ATOM      2  O   UNL A   1      35.889  21.233  25.161  1.00  0.00    -0.462 OA
BRANCH   2   3
ATOM      3  C   UNL A   1      34.865  21.714  24.398  1.00  0.00     0.313 C 
ATOM      4  O   UNL A   1      33.738  21.229  24.409  1.00  0.00    -0.252 OA
BRANCH   3   5
ATOM      5  C   UNL A   1      35.301  22.864  23.462  1.00  0.00     0.129 C 
ATOM      6  C   UNL A   1      36.815  22.850  23.217  1.00  0.00     0.025 C 
BRANCH   5   7
ATOM      7  C   UNL A   1      34.716  24.213  23.894  1.00  0.00     0.002 A 
ATOM      8  C   UNL A   1      33.987  24.976  22.962  1.00  0.00     0.008 A 
ATOM      9  C   UNL A   1      34.826  24.749  25.181  1.00  0.00     0.127 A 
ATOM     10  C   UNL A   1      33.329  26.159  23.328  1.00  0.00     0.004 A 
ATOM     11  C   UNL A   1      34.195  25.946  25.543  1.00  0.00     0.043 A 
ATOM     12  F   UNL A   1      35.522  24.114  26.134  1.00  0.00    -0.207 F 
ATOM     13  C   UNL A   1      33.412  26.663  24.627  1.00  0.00    -0.045 A 
BRANCH  13  14
ATOM     14  C   UNL A   1      32.589  27.844  25.115  1.00  0.00     0.041 C 
BRANCH  14  15
ATOM     15  C   UNL A   1      31.051  27.771  25.128  1.00  0.00     0.022 C 
ATOM     16  C   UNL A   1      30.368  28.478  23.950  1.00  0.00     0.007 C 
ATOM     17  C   UNL A   1      30.466  26.346  25.177  1.00  0.00     0.117 C 
ATOM     18  C   UNL A   1      29.627  27.385  23.193  1.00  0.00     0.003 C 
ATOM     19  C   UNL A   1      29.236  26.398  24.278  1.00  0.00     0.032 C 
BRANCH  17  20
ATOM     20  O   UNL A   1      30.111  26.001  26.505  1.00  0.00    -0.393 OA
ATOM     21  H   UNL A   1      29.148  25.910  26.569  1.00  0.00     0.210 HD
ENDBRANCH  17  20
ENDBRANCH  14  15
ENDBRANCH  13  14
ENDBRANCH   5   7
ENDBRANCH   3   5
ENDBRANCH   2   3
ENDBRANCH   1   2
BRANCH   1  22
ATOM     22  C   UNL A   1      37.726  19.653  24.943  1.00  0.00     0.275 C 
BRANCH  22  23
ATOM     23  O   UNL A   1      38.308  20.257  26.109  1.00  0.00    -0.458 OA
BRANCH  23  24
ATOM     24  C   UNL A   1      39.655  20.363  26.118  1.00  0.00     0.338 C 
ATOM     25  O   UNL A   1      40.466  19.502  25.800  1.00  0.00    -0.246 OA
BRANCH  24  26
ATOM     26  C   UNL A   1      40.030  21.700  26.604  1.00  0.00     0.060 A 
ATOM     27  C   UNL A   1      39.326  22.818  26.168  1.00  0.00     0.016 A 
ATOM     28  C   UNL A   1      41.136  21.855  27.441  1.00  0.00     0.016 A 
ATOM     29  C   UNL A   1      39.770  24.093  26.513  1.00  0.00     0.010 A 
ATOM     30  C   UNL A   1      41.535  23.138  27.841  1.00  0.00     0.010 A 
ATOM     31  C   UNL A   1      40.879  24.280  27.347  1.00  0.00    -0.014 A 
BRANCH  31  32
ATOM     32  C   UNL A   1      41.394  25.658  27.619  1.00  0.00     0.031 A 
ATOM     33  C   UNL A   1      42.697  26.109  27.004  1.00  0.00     0.074 A 
ATOM     34  C   UNL A   1      40.680  26.541  28.346  1.00  0.00     0.049 A 
ATOM     35  N   UNL A   1      43.393  27.195  27.229  1.00  0.00    -0.248 NA
ATOM     36  C   UNL A   1      43.301  25.210  26.010  1.00  0.00     0.031 C 
ATOM     37  C   UNL A   1      39.359  26.291  28.926  1.00  0.00     0.029 A 
ATOM     38  N   UNL A   1      40.947  27.845  28.693  1.00  0.00    -0.354 N 
ATOM     39  C   UNL A   1      44.548  27.079  26.461  1.00  0.00     0.074 A 
ATOM     40  C   UNL A   1      44.452  25.816  25.757  1.00  0.00     0.031 C 
ATOM     41  C   UNL A   1      38.902  27.422  29.486  1.00  0.00     0.029 A 
ATOM     42  C   UNL A   1      39.935  28.449  29.404  1.00  0.00     0.049 A 
ATOM     43  H   UNL A   1      41.785  28.303  28.454  1.00  0.00     0.167 HD
ATOM     44  C   UNL A   1      45.594  27.936  26.362  1.00  0.00     0.034 A 
ATOM     45  C   UNL A   1      39.858  29.676  29.961  1.00  0.00     0.034 A 
ATOM     46  C   UNL A   1      45.657  29.218  27.024  1.00  0.00     0.049 A 
ATOM     47  C   UNL A   1      41.050  30.597  29.873  1.00  0.00     0.074 A 
ATOM     48  C   UNL A   1      46.684  30.147  27.010  1.00  0.00     0.029 A 
ATOM     49  N   UNL A   1      44.645  29.761  27.805  1.00  0.00    -0.354 N 
ATOM     50  N   UNL A   1      42.193  30.416  29.252  1.00  0.00    -0.248 NA
ATOM     51  C   UNL A   1      40.954  31.875  30.593  1.00  0.00     0.031 C 
ATOM     52  C   UNL A   1      46.316  31.224  27.826  1.00  0.00     0.029 A 
ATOM     53  C   UNL A   1      45.033  30.999  28.295  1.00  0.00     0.049 A 
ATOM     54  H   UNL A   1      43.779  29.330  27.983  1.00  0.00     0.167 HD
ATOM     55  C   UNL A   1      42.946  31.559  29.506  1.00  0.00     0.074 A 
ATOM     56  C   UNL A   1      42.120  32.435  30.311  1.00  0.00     0.031 C 
ATOM     57  C   UNL A   1      44.212  31.854  29.120  1.00  0.00     0.034 A 
BRANCH  44  58
ATOM     58  C   UNL A   1      46.797  27.469  25.579  1.00  0.00     0.023 A 
ATOM     59  C   UNL A   1      47.059  27.900  24.267  1.00  0.00     0.031 A 
ATOM     60  C   UNL A   1      47.683  26.540  26.157  1.00  0.00     0.131 A 
ATOM     61  C   UNL A   1      48.137  27.350  23.555  1.00  0.00     0.055 A 
ATOM     62  C   UNL A   1      48.795  26.054  25.470  1.00  0.00     0.041 A 
ATOM     63  F   UNL A   1      47.471  26.078  27.399  1.00  0.00    -0.206 F 
ATOM     64  C   UNL A   1      49.019  26.448  24.155  1.00  0.00     0.022 A 
BRANCH  61  65
ATOM     65  S   UNL A   1      48.293  27.723  21.786  1.00  0.00     0.124 S 
ATOM     66  O   UNL A   1      46.983  28.299  21.489  1.00  0.00    -0.237 OA
ATOM     67  O   UNL A   1      49.420  28.647  21.757  1.00  0.00    -0.237 OA
ATOM     68  O   UNL A   1      48.542  26.416  21.180  1.00  0.00    -0.744 OA
ENDBRANCH  61  65
ENDBRANCH  44  58
BRANCH  45  69
ATOM     69  C   UNL A   1      38.644  30.094  30.722  1.00  0.00     0.023 A 
ATOM     70  C   UNL A   1      37.627  30.839  30.106  1.00  0.00     0.031 A 
ATOM     71  C   UNL A   1      38.510  29.808  32.093  1.00  0.00     0.131 A 
ATOM     72  C   UNL A   1      36.541  31.303  30.865  1.00  0.00     0.055 A 
ATOM     73  C   UNL A   1      37.401  30.224  32.831  1.00  0.00     0.041 A 
ATOM     74  F   UNL A   1      39.457  29.107  32.738  1.00  0.00    -0.206 F 
ATOM     75  C   UNL A   1      36.414  30.988  32.220  1.00  0.00     0.022 A 
BRANCH  72  76
ATOM     76  S   UNL A   1      35.322  32.383  30.067  1.00  0.00     0.124 S 
ATOM     77  O   UNL A   1      34.388  32.637  31.158  1.00  0.00    -0.237 OA
ATOM     78  O   UNL A   1      36.153  33.508  29.653  1.00  0.00    -0.237 OA
ATOM     79  O   UNL A   1      34.801  31.561  28.977  1.00  0.00    -0.744 OA
ENDBRANCH  72  76
ENDBRANCH  45  69
BRANCH  57  80
ATOM     80  C   UNL A   1      44.770  33.186  29.555  1.00  0.00     0.023 A 
ATOM     81  C   UNL A   1      44.651  34.332  28.748  1.00  0.00     0.031 A 
ATOM     82  C   UNL A   1      45.442  33.308  30.784  1.00  0.00     0.131 A 
ATOM     83  C   UNL A   1      45.235  35.540  29.158  1.00  0.00     0.055 A 
ATOM     84  C   UNL A   1      45.979  34.524  31.208  1.00  0.00     0.041 A 
ATOM     85  F   UNL A   1      45.586  32.246  31.592  1.00  0.00    -0.206 F 
ATOM     86  C   UNL A   1      45.887  35.647  30.389  1.00  0.00     0.022 A 
BRANCH  83  87
ATOM     87  S   UNL A   1      45.201  36.957  28.025  1.00  0.00     0.124 S 
ATOM     88  O   UNL A   1      44.146  37.784  28.600  1.00  0.00    -0.237 OA
ATOM     89  O   UNL A   1      46.558  37.482  28.139  1.00  0.00    -0.237 OA
ATOM     90  O   UNL A   1      44.880  36.355  26.732  1.00  0.00    -0.744 OA
ENDBRANCH  83  87
ENDBRANCH  57  80
ENDBRANCH  31  32
ENDBRANCH  24  26
ENDBRANCH  23  24
ENDBRANCH  22  23
ENDBRANCH   1  22
TORSDOF 18
ENDMDL
