MODEL 1
REMARK VINA RESULT:     -12.6      0.000      0.000
REMARK SMILES CCc1sc(NC(=O)[C@H]2CC(C)=C(C)C[C@H]2C(=O)OCCOC(=O)c2ccc(-c3c4nc(c(-c5cc(S(=O)(=O)[O-])ccc5F)c5ccc([nH]5)c(-c5cc(S(=O)(=O)[O-])ccc5F)c5nc(c(-c6cc(S(=O)(=O)[O-])ccc6F)c6ccc3[nH]6)C=C5)C=C4)cc2)nc1-c1ccccc1
REMARK SMILES IDX 20 1 19 2 17 3 18 4 16 5 9 6 10 7 11 8 15 9 12 10 13 11
REMARK SMILES IDX 14 12 7 13 6 14 8 16 5 17 3 18 4 19 89 20 88 21 2 22 1 23
REMARK SMILES IDX 90 24 91 25 95 26 92 27 94 28 93 29 21 30 22 31 23 32 24 33
REMARK SMILES IDX 25 34 26 35 87 36 27 37 86 38 28 39 29 40 30 41 80 42 31 43
REMARK SMILES IDX 85 44 79 45 81 46 32 47 84 48 78 49 77 50 33 52 65 53 45 54
REMARK SMILES IDX 64 55 46 56 49 57 63 58 82 59 47 60 48 61 62 63 83 64 50 65
REMARK SMILES IDX 34 66 35 67 43 68 36 69 42 70 44 71 41 72 37 73 38 74 39 75
REMARK SMILES IDX 40 76 66 77 67 78 75 79 68 80 74 81 76 82 73 83 69 84 70 85
REMARK SMILES IDX 71 86 72 87 51 88 52 89 60 90 53 91 59 92 61 93 58 94 54 95
REMARK SMILES IDX 55 96 56 97 57 98
REMARK H PARENT 6 15 81 51 49 62
REMARK Flexibility Score: inf
ROOT
ATOM      1  C   UNL A   1      31.862  29.573  26.205  1.00  0.00     0.274 C 
ENDROOT
BRANCH   1   2
ATOM      2  O   UNL A   1      32.674  29.375  25.028  1.00  0.00    -0.462 OA
BRANCH   2   3
ATOM      3  C   UNL A   1      32.978  28.106  24.708  1.00  0.00     0.310 C 
ATOM      4  O   UNL A   1      34.066  27.589  24.952  1.00  0.00    -0.252 OA
BRANCH   3   5
ATOM      5  C   UNL A   1      31.914  27.355  23.917  1.00  0.00     0.116 C 
ATOM      6  C   UNL A   1      30.886  26.385  24.542  1.00  0.00     0.097 C 
ATOM      7  C   UNL A   1      29.406  26.529  24.144  1.00  0.00     0.045 C 
ATOM      8  C   UNL A   1      29.007  27.774  23.386  1.00  0.00    -0.074 C 
ATOM      9  C   UNL A   1      31.385  28.303  22.833  1.00  0.00     0.046 C 
ATOM     10  C   UNL A   1      27.517  28.009  23.346  1.00  0.00     0.039 C 
ATOM     11  C   UNL A   1      29.910  28.585  22.803  1.00  0.00    -0.073 C 
ATOM     12  C   UNL A   1      29.537  29.818  22.019  1.00  0.00     0.039 C 
BRANCH   6  13
ATOM     13  C   UNL A   1      31.090  25.870  25.974  1.00  0.00     0.230 C 
ATOM     14  N   UNL A   1      31.849  24.840  26.407  1.00  0.00    -0.302 N 
ATOM     15  H   UNL A   1      31.781  24.706  27.380  1.00  0.00     0.172 HD
ATOM     16  O   UNL A   1      30.471  26.477  26.866  1.00  0.00    -0.274 OA
BRANCH  14  17
ATOM     17  C   UNL A   1      32.687  23.939  25.815  1.00  0.00     0.190 A 
ATOM     18  C   UNL A   1      34.408  22.897  24.477  1.00  0.00     0.034 A 
ATOM     19  S   UNL A   1      34.305  24.279  25.469  1.00  0.00    -0.101 S 
ATOM     20  C   UNL A   1      33.282  22.123  24.703  1.00  0.00     0.087 A 
ATOM     21  N   UNL A   1      32.290  22.737  25.458  1.00  0.00    -0.220 NA
BRANCH  18  22
ATOM     22  C   UNL A   1      35.591  22.711  23.582  1.00  0.00     0.046 C 
ATOM     23  C   UNL A   1      36.715  21.948  24.280  1.00  0.00     0.010 C 
ENDBRANCH  18  22
BRANCH  20  24
ATOM     24  C   UNL A   1      33.099  20.800  24.135  1.00  0.00     0.001 A 
ATOM     25  C   UNL A   1      32.413  20.648  22.922  1.00  0.00     0.010 A 
ATOM     26  C   UNL A   1      33.574  19.670  24.805  1.00  0.00     0.010 A 
ATOM     27  C   UNL A   1      32.168  19.377  22.406  1.00  0.00     0.001 A 
ATOM     28  C   UNL A   1      33.325  18.396  24.288  1.00  0.00     0.001 A 
ATOM     29  C   UNL A   1      32.615  18.250  23.095  1.00  0.00     0.000 A 
ENDBRANCH  20  24
ENDBRANCH  14  17
ENDBRANCH   6  13
ENDBRANCH   3   5
ENDBRANCH   2   3
ENDBRANCH   1   2
BRANCH   1  30
ATOM     30  C   UNL A   1      32.012  30.991  26.744  1.00  0.00     0.275 C 
BRANCH  30  31
ATOM     31  O   UNL A   1      33.381  31.408  26.625  1.00  0.00    -0.458 OA
BRANCH  31  32
ATOM     32  C   UNL A   1      33.792  32.320  27.537  1.00  0.00     0.338 C 
ATOM     33  O   UNL A   1      33.229  33.353  27.850  1.00  0.00    -0.246 OA
BRANCH  32  34
ATOM     34  C   UNL A   1      35.073  31.866  28.098  1.00  0.00     0.060 A 
ATOM     35  C   UNL A   1      35.205  30.558  28.570  1.00  0.00     0.016 A 
ATOM     36  C   UNL A   1      36.131  32.765  28.201  1.00  0.00     0.016 A 
ATOM     37  C   UNL A   1      36.391  30.143  29.170  1.00  0.00     0.010 A 
ATOM     38  C   UNL A   1      37.334  32.338  28.766  1.00  0.00     0.010 A 
ATOM     39  C   UNL A   1      37.466  31.029  29.268  1.00  0.00    -0.014 A 
BRANCH  39  40
ATOM     40  C   UNL A   1      38.727  30.628  29.935  1.00  0.00     0.031 A 
ATOM     41  C   UNL A   1      39.605  29.603  29.281  1.00  0.00     0.074 A 
ATOM     42  C   UNL A   1      39.048  31.138  31.138  1.00  0.00     0.049 A 
ATOM     43  N   UNL A   1      40.603  28.922  29.780  1.00  0.00    -0.248 NA
ATOM     44  C   UNL A   1      39.299  29.295  27.877  1.00  0.00     0.031 C 
ATOM     45  C   UNL A   1      38.296  32.180  31.840  1.00  0.00     0.029 A 
ATOM     46  N   UNL A   1      40.070  30.825  31.996  1.00  0.00    -0.354 N 
ATOM     47  C   UNL A   1      41.023  28.071  28.763  1.00  0.00     0.074 A 
ATOM     48  C   UNL A   1      40.154  28.314  27.628  1.00  0.00     0.031 C 
ATOM     49  C   UNL A   1      38.866  32.399  33.035  1.00  0.00     0.029 A 
ATOM     50  C   UNL A   1      39.975  31.466  33.209  1.00  0.00     0.049 A 
ATOM     51  H   UNL A   1      40.799  30.204  31.767  1.00  0.00     0.167 HD
ATOM     52  C   UNL A   1      42.036  27.169  28.784  1.00  0.00     0.034 A 
ATOM     53  C   UNL A   1      40.660  31.276  34.353  1.00  0.00     0.034 A 
ATOM     54  C   UNL A   1      42.879  26.951  29.936  1.00  0.00     0.049 A 
ATOM     55  C   UNL A   1      41.737  30.226  34.386  1.00  0.00     0.074 A 
ATOM     56  C   UNL A   1      43.937  26.070  30.083  1.00  0.00     0.029 A 
ATOM     57  N   UNL A   1      42.753  27.621  31.148  1.00  0.00    -0.354 N 
ATOM     58  N   UNL A   1      42.105  29.393  33.439  1.00  0.00    -0.248 NA
ATOM     59  C   UNL A   1      42.489  30.088  35.639  1.00  0.00     0.031 C 
ATOM     60  C   UNL A   1      44.409  26.166  31.398  1.00  0.00     0.029 A 
ATOM     61  C   UNL A   1      43.694  27.157  32.054  1.00  0.00     0.049 A 
ATOM     62  H   UNL A   1      42.091  28.325  31.336  1.00  0.00     0.167 HD
ATOM     63  C   UNL A   1      43.145  28.641  33.976  1.00  0.00     0.074 A 
ATOM     64  C   UNL A   1      43.350  29.128  35.328  1.00  0.00     0.031 C 
ATOM     65  C   UNL A   1      43.868  27.646  33.404  1.00  0.00     0.034 A 
BRANCH  52  66
ATOM     66  C   UNL A   1      42.221  26.314  27.551  1.00  0.00     0.023 A 
ATOM     67  C   UNL A   1      41.697  25.012  27.462  1.00  0.00     0.031 A 
ATOM     68  C   UNL A   1      42.998  26.781  26.476  1.00  0.00     0.131 A 
ATOM     69  C   UNL A   1      42.033  24.193  26.372  1.00  0.00     0.055 A 
ATOM     70  C   UNL A   1      43.258  25.991  25.354  1.00  0.00     0.041 A 
ATOM     71  F   UNL A   1      43.545  28.007  26.508  1.00  0.00    -0.206 F 
ATOM     72  C   UNL A   1      42.791  24.681  25.306  1.00  0.00     0.022 A 
BRANCH  69  73
ATOM     73  S   UNL A   1      41.610  22.429  26.450  1.00  0.00     0.124 S 
ATOM     74  O   UNL A   1      42.394  21.887  25.342  1.00  0.00    -0.237 OA
ATOM     75  O   UNL A   1      42.055  22.059  27.788  1.00  0.00    -0.237 OA
ATOM     76  O   UNL A   1      40.163  22.414  26.246  1.00  0.00    -0.744 OA
ENDBRANCH  69  73
ENDBRANCH  52  66
BRANCH  53  77
ATOM     77  C   UNL A   1      40.288  32.047  35.572  1.00  0.00     0.023 A 
ATOM     78  C   UNL A   1      39.209  31.659  36.379  1.00  0.00     0.031 A 
ATOM     79  C   UNL A   1      41.030  33.178  35.955  1.00  0.00     0.131 A 
ATOM     80  C   UNL A   1      38.892  32.407  37.525  1.00  0.00     0.055 A 
ATOM     81  C   UNL A   1      40.738  33.895  37.116  1.00  0.00     0.041 A 
ATOM     82  F   UNL A   1      42.077  33.586  35.218  1.00  0.00    -0.206 F 
ATOM     83  C   UNL A   1      39.659  33.514  37.906  1.00  0.00     0.022 A 
BRANCH  80  84
ATOM     84  S   UNL A   1      37.439  31.934  38.501  1.00  0.00     0.124 S 
ATOM     85  O   UNL A   1      36.460  32.929  38.079  1.00  0.00    -0.237 OA
ATOM     86  O   UNL A   1      37.201  30.567  38.049  1.00  0.00    -0.237 OA
ATOM     87  O   UNL A   1      37.901  32.059  39.882  1.00  0.00    -0.744 OA
ENDBRANCH  80  84
ENDBRANCH  53  77
BRANCH  65  88
ATOM     88  C   UNL A   1      44.980  27.054  34.232  1.00  0.00     0.023 A 
ATOM     89  C   UNL A   1      44.790  25.897  35.008  1.00  0.00     0.031 A 
ATOM     90  C   UNL A   1      46.247  27.664  34.246  1.00  0.00     0.131 A 
ATOM     91  C   UNL A   1      45.841  25.411  35.801  1.00  0.00     0.055 A 
ATOM     92  C   UNL A   1      47.302  27.147  34.998  1.00  0.00     0.041 A 
ATOM     93  F   UNL A   1      46.478  28.772  33.524  1.00  0.00    -0.206 F 
ATOM     94  C   UNL A   1      47.099  26.019  35.789  1.00  0.00     0.022 A 
BRANCH  91  95
ATOM     95  S   UNL A   1      45.525  24.008  36.908  1.00  0.00     0.124 S 
ATOM     96  O   UNL A   1      44.784  24.642  37.995  1.00  0.00    -0.237 OA
ATOM     97  O   UNL A   1      44.760  23.103  36.058  1.00  0.00    -0.237 OA
ATOM     98  O   UNL A   1      46.865  23.542  37.261  1.00  0.00    -0.744 OA
ENDBRANCH  91  95
ENDBRANCH  65  88
ENDBRANCH  39  40
ENDBRANCH  32  34
ENDBRANCH  31  32
ENDBRANCH  30  31
ENDBRANCH   1  30
TORSDOF 18
ENDMDL
MODEL 2
REMARK VINA RESULT:     -11.6      2.939      7.780
REMARK SMILES CCc1sc(NC(=O)[C@H]2CC(C)=C(C)C[C@H]2C(=O)OCCOC(=O)c2ccc(-c3c4nc(c(-c5cc(S(=O)(=O)[O-])ccc5F)c5ccc([nH]5)c(-c5cc(S(=O)(=O)[O-])ccc5F)c5nc(c(-c6cc(S(=O)(=O)[O-])ccc6F)c6ccc3[nH]6)C=C5)C=C4)cc2)nc1-c1ccccc1
REMARK SMILES IDX 20 1 19 2 17 3 18 4 16 5 9 6 10 7 11 8 15 9 12 10 13 11
REMARK SMILES IDX 14 12 7 13 6 14 8 16 5 17 3 18 4 19 89 20 88 21 2 22 1 23
REMARK SMILES IDX 90 24 91 25 95 26 92 27 94 28 93 29 21 30 22 31 23 32 24 33
REMARK SMILES IDX 25 34 26 35 87 36 27 37 86 38 28 39 29 40 30 41 80 42 31 43
REMARK SMILES IDX 85 44 79 45 81 46 32 47 84 48 78 49 77 50 33 52 65 53 45 54
REMARK SMILES IDX 64 55 46 56 49 57 63 58 82 59 47 60 48 61 62 63 83 64 50 65
REMARK SMILES IDX 34 66 35 67 43 68 36 69 42 70 44 71 41 72 37 73 38 74 39 75
REMARK SMILES IDX 40 76 66 77 67 78 75 79 68 80 74 81 76 82 73 83 69 84 70 85
REMARK SMILES IDX 71 86 72 87 51 88 52 89 60 90 53 91 59 92 61 93 58 94 54 95
REMARK SMILES IDX 55 96 56 97 57 98
REMARK H PARENT 6 15 81 51 49 62
REMARK Flexibility Score: inf
ROOT
ATOM      1  C   UNL A   1      32.620  28.045  26.380  1.00  0.00     0.274 C 
ENDROOT
BRANCH   1   2
ATOM      2  O   UNL A   1      33.578  27.648  25.376  1.00  0.00    -0.462 OA
BRANCH   2   3
ATOM      3  C   UNL A   1      33.725  26.329  25.166  1.00  0.00     0.310 C 
ATOM      4  O   UNL A   1      34.728  25.700  25.493  1.00  0.00    -0.252 OA
BRANCH   3   5
ATOM      5  C   UNL A   1      32.598  25.658  24.390  1.00  0.00     0.116 C 
ATOM      6  C   UNL A   1      31.475  24.816  25.038  1.00  0.00     0.097 C 
ATOM      7  C   UNL A   1      30.020  25.090  24.620  1.00  0.00     0.045 C 
ATOM      8  C   UNL A   1      29.750  26.340  23.816  1.00  0.00    -0.074 C 
ATOM      9  C   UNL A   1      32.171  26.614  23.268  1.00  0.00     0.046 C 
ATOM     10  C   UNL A   1      28.290  26.718  23.752  1.00  0.00     0.039 C 
ATOM     11  C   UNL A   1      30.731  27.038  23.214  1.00  0.00    -0.073 C 
ATOM     12  C   UNL A   1      30.487  28.272  22.383  1.00  0.00     0.039 C 
BRANCH   6  13
ATOM     13  C   UNL A   1      31.618  24.336  26.490  1.00  0.00     0.230 C 
ATOM     14  N   UNL A   1      32.354  23.313  26.979  1.00  0.00    -0.302 N 
ATOM     15  H   UNL A   1      32.245  23.204  27.950  1.00  0.00     0.172 HD
ATOM     16  O   UNL A   1      30.966  24.966  27.340  1.00  0.00    -0.274 OA
BRANCH  14  17
ATOM     17  C   UNL A   1      33.212  22.396  26.443  1.00  0.00     0.190 A 
ATOM     18  C   UNL A   1      35.084  21.320  25.359  1.00  0.00     0.034 A 
ATOM     19  S   UNL A   1      34.891  22.555  26.519  1.00  0.00    -0.101 S 
ATOM     20  C   UNL A   1      33.863  20.685  25.204  1.00  0.00     0.087 A 
ATOM     21  N   UNL A   1      32.789  21.320  25.816  1.00  0.00    -0.220 NA
BRANCH  18  22
ATOM     22  C   UNL A   1      36.420  21.097  24.725  1.00  0.00     0.046 C 
ATOM     23  C   UNL A   1      36.807  22.250  23.800  1.00  0.00     0.010 C 
ENDBRANCH  18  22
BRANCH  20  24
ATOM     24  C   UNL A   1      33.685  19.490  24.400  1.00  0.00     0.001 A 
ATOM     25  C   UNL A   1      32.625  19.412  23.487  1.00  0.00     0.010 A 
ATOM     26  C   UNL A   1      34.545  18.399  24.552  1.00  0.00     0.010 A 
ATOM     27  C   UNL A   1      32.401  18.241  22.764  1.00  0.00     0.001 A 
ATOM     28  C   UNL A   1      34.318  17.225  23.829  1.00  0.00     0.001 A 
ATOM     29  C   UNL A   1      33.242  17.144  22.944  1.00  0.00     0.000 A 
ENDBRANCH  20  24
ENDBRANCH  14  17
ENDBRANCH   6  13
ENDBRANCH   3   5
ENDBRANCH   2   3
ENDBRANCH   1   2
BRANCH   1  30
ATOM     30  C   UNL A   1      33.293  28.833  27.499  1.00  0.00     0.275 C 
BRANCH  30  31
ATOM     31  O   UNL A   1      34.405  29.569  26.967  1.00  0.00    -0.458 OA
BRANCH  31  32
ATOM     32  C   UNL A   1      34.903  30.535  27.775  1.00  0.00     0.338 C 
ATOM     33  O   UNL A   1      34.391  31.607  28.041  1.00  0.00    -0.246 OA
BRANCH  32  34
ATOM     34  C   UNL A   1      36.205  30.083  28.286  1.00  0.00     0.060 A 
ATOM     35  C   UNL A   1      37.350  30.217  27.497  1.00  0.00     0.016 A 
ATOM     36  C   UNL A   1      36.275  29.476  29.538  1.00  0.00     0.016 A 
ATOM     37  C   UNL A   1      38.574  29.724  27.945  1.00  0.00     0.010 A 
ATOM     38  C   UNL A   1      37.508  29.019  30.004  1.00  0.00     0.010 A 
ATOM     39  C   UNL A   1      38.662  29.126  29.204  1.00  0.00    -0.014 A 
BRANCH  39  40
ATOM     40  C   UNL A   1      39.942  28.558  29.690  1.00  0.00     0.031 A 
ATOM     41  C   UNL A   1      40.684  29.264  30.786  1.00  0.00     0.074 A 
ATOM     42  C   UNL A   1      40.454  27.455  29.116  1.00  0.00     0.049 A 
ATOM     43  N   UNL A   1      41.916  29.106  31.193  1.00  0.00    -0.248 NA
ATOM     44  C   UNL A   1      39.934  30.304  31.505  1.00  0.00     0.031 C 
ATOM     45  C   UNL A   1      39.792  26.658  28.082  1.00  0.00     0.029 A 
ATOM     46  N   UNL A   1      41.663  26.834  29.297  1.00  0.00    -0.354 N 
ATOM     47  C   UNL A   1      42.107  30.055  32.192  1.00  0.00     0.074 A 
ATOM     48  C   UNL A   1      40.865  30.793  32.310  1.00  0.00     0.031 C 
ATOM     49  C   UNL A   1      40.616  25.670  27.699  1.00  0.00     0.029 A 
ATOM     50  C   UNL A   1      41.884  25.809  28.408  1.00  0.00     0.049 A 
ATOM     51  H   UNL A   1      42.307  27.095  29.994  1.00  0.00     0.167 HD
ATOM     52  C   UNL A   1      43.220  30.285  32.932  1.00  0.00     0.034 A 
ATOM     53  C   UNL A   1      43.003  25.106  28.146  1.00  0.00     0.034 A 
ATOM     54  C   UNL A   1      44.442  29.531  32.783  1.00  0.00     0.049 A 
ATOM     55  C   UNL A   1      44.251  25.416  28.927  1.00  0.00     0.074 A 
ATOM     56  C   UNL A   1      45.635  29.665  33.472  1.00  0.00     0.029 A 
ATOM     57  N   UNL A   1      44.628  28.497  31.870  1.00  0.00    -0.354 N 
ATOM     58  N   UNL A   1      44.444  26.340  29.841  1.00  0.00    -0.248 NA
ATOM     59  C   UNL A   1      45.432  24.592  28.642  1.00  0.00     0.031 C 
ATOM     60  C   UNL A   1      46.557  28.757  32.936  1.00  0.00     0.029 A 
ATOM     61  C   UNL A   1      45.921  28.004  31.961  1.00  0.00     0.049 A 
ATOM     62  H   UNL A   1      43.940  28.163  31.250  1.00  0.00     0.167 HD
ATOM     63  C   UNL A   1      45.764  26.198  30.253  1.00  0.00     0.074 A 
ATOM     64  C   UNL A   1      46.317  25.093  29.493  1.00  0.00     0.031 C 
ATOM     65  C   UNL A   1      46.455  26.911  31.178  1.00  0.00     0.034 A 
BRANCH  52  66
ATOM     66  C   UNL A   1      43.172  31.443  33.903  1.00  0.00     0.023 A 
ATOM     67  C   UNL A   1      43.521  32.750  33.521  1.00  0.00     0.031 A 
ATOM     68  C   UNL A   1      42.843  31.222  35.253  1.00  0.00     0.131 A 
ATOM     69  C   UNL A   1      43.624  33.762  34.490  1.00  0.00     0.055 A 
ATOM     70  C   UNL A   1      42.865  32.252  36.197  1.00  0.00     0.041 A 
ATOM     71  F   UNL A   1      42.521  29.993  35.686  1.00  0.00    -0.206 F 
ATOM     72  C   UNL A   1      43.277  33.526  35.821  1.00  0.00     0.022 A 
BRANCH  69  73
ATOM     73  S   UNL A   1      44.385  35.341  34.018  1.00  0.00     0.124 S 
ATOM     74  O   UNL A   1      43.323  35.957  33.227  1.00  0.00    -0.237 OA
ATOM     75  O   UNL A   1      44.658  35.956  35.311  1.00  0.00    -0.237 OA
ATOM     76  O   UNL A   1      45.566  34.939  33.257  1.00  0.00    -0.744 OA
ENDBRANCH  69  73
ENDBRANCH  52  66
BRANCH  53  77
ATOM     77  C   UNL A   1      43.002  24.101  27.047  1.00  0.00     0.023 A 
ATOM     78  C   UNL A   1      42.376  22.855  27.197  1.00  0.00     0.031 A 
ATOM     79  C   UNL A   1      43.616  24.391  25.815  1.00  0.00     0.131 A 
ATOM     80  C   UNL A   1      42.391  21.936  26.135  1.00  0.00     0.055 A 
ATOM     81  C   UNL A   1      43.594  23.491  24.749  1.00  0.00     0.041 A 
ATOM     82  F   UNL A   1      44.223  25.573  25.620  1.00  0.00    -0.206 F 
ATOM     83  C   UNL A   1      42.982  22.252  24.908  1.00  0.00     0.022 A 
BRANCH  80  84
ATOM     84  S   UNL A   1      41.650  20.300  26.388  1.00  0.00     0.124 S 
ATOM     85  O   UNL A   1      40.232  20.584  26.205  1.00  0.00    -0.237 OA
ATOM     86  O   UNL A   1      42.288  19.512  25.339  1.00  0.00    -0.237 OA
ATOM     87  O   UNL A   1      42.047  19.954  27.752  1.00  0.00    -0.744 OA
ENDBRANCH  80  84
ENDBRANCH  53  77
BRANCH  65  88
ATOM     88  C   UNL A   1      47.874  26.477  31.448  1.00  0.00     0.023 A 
ATOM     89  C   UNL A   1      48.178  25.491  32.402  1.00  0.00     0.031 A 
ATOM     90  C   UNL A   1      48.935  27.067  30.739  1.00  0.00     0.131 A 
ATOM     91  C   UNL A   1      49.517  25.155  32.653  1.00  0.00     0.055 A 
ATOM     92  C   UNL A   1      50.261  26.693  30.958  1.00  0.00     0.041 A 
ATOM     93  F   UNL A   1      48.697  28.016  29.819  1.00  0.00    -0.206 F 
ATOM     94  C   UNL A   1      50.558  25.738  31.926  1.00  0.00     0.022 A 
BRANCH  91  95
ATOM     95  S   UNL A   1      49.890  23.991  33.994  1.00  0.00     0.124 S 
ATOM     96  O   UNL A   1      50.682  22.978  33.303  1.00  0.00    -0.237 OA
ATOM     97  O   UNL A   1      50.614  24.828  34.944  1.00  0.00    -0.237 OA
ATOM     98  O   UNL A   1      48.570  23.548  34.441  1.00  0.00    -0.744 OA
ENDBRANCH  91  95
ENDBRANCH  65  88
ENDBRANCH  39  40
ENDBRANCH  32  34
ENDBRANCH  31  32
ENDBRANCH  30  31
ENDBRANCH   1  30
TORSDOF 18
ENDMDL
MODEL 3
REMARK VINA RESULT:     -11.5      2.829      7.815
REMARK SMILES CCc1sc(NC(=O)[C@H]2CC(C)=C(C)C[C@H]2C(=O)OCCOC(=O)c2ccc(-c3c4nc(c(-c5cc(S(=O)(=O)[O-])ccc5F)c5ccc([nH]5)c(-c5cc(S(=O)(=O)[O-])ccc5F)c5nc(c(-c6cc(S(=O)(=O)[O-])ccc6F)c6ccc3[nH]6)C=C5)C=C4)cc2)nc1-c1ccccc1
REMARK SMILES IDX 20 1 19 2 17 3 18 4 16 5 9 6 10 7 11 8 15 9 12 10 13 11
REMARK SMILES IDX 14 12 7 13 6 14 8 16 5 17 3 18 4 19 89 20 88 21 2 22 1 23
REMARK SMILES IDX 90 24 91 25 95 26 92 27 94 28 93 29 21 30 22 31 23 32 24 33
REMARK SMILES IDX 25 34 26 35 87 36 27 37 86 38 28 39 29 40 30 41 80 42 31 43
REMARK SMILES IDX 85 44 79 45 81 46 32 47 84 48 78 49 77 50 33 52 65 53 45 54
REMARK SMILES IDX 64 55 46 56 49 57 63 58 82 59 47 60 48 61 62 63 83 64 50 65
REMARK SMILES IDX 34 66 35 67 43 68 36 69 42 70 44 71 41 72 37 73 38 74 39 75
REMARK SMILES IDX 40 76 66 77 67 78 75 79 68 80 74 81 76 82 73 83 69 84 70 85
REMARK SMILES IDX 71 86 72 87 51 88 52 89 60 90 53 91 59 92 61 93 58 94 54 95
REMARK SMILES IDX 55 96 56 97 57 98
REMARK H PARENT 6 15 81 51 49 62
REMARK Flexibility Score: inf
ROOT
ATOM      1  C   UNL A   1      32.631  27.930  26.543  1.00  0.00     0.274 C 
ENDROOT
BRANCH   1   2
ATOM      2  O   UNL A   1      33.723  27.350  25.798  1.00  0.00    -0.462 OA
BRANCH   2   3
ATOM      3  C   UNL A   1      33.569  26.080  25.386  1.00  0.00     0.310 C 
ATOM      4  O   UNL A   1      34.312  25.164  25.726  1.00  0.00    -0.252 OA
BRANCH   3   5
ATOM      5  C   UNL A   1      32.457  25.851  24.369  1.00  0.00     0.116 C 
ATOM      6  C   UNL A   1      31.005  25.468  24.736  1.00  0.00     0.097 C 
ATOM      7  C   UNL A   1      29.853  26.241  24.069  1.00  0.00     0.045 C 
ATOM      8  C   UNL A   1      30.206  27.500  23.312  1.00  0.00    -0.074 C 
ATOM      9  C   UNL A   1      32.626  26.889  23.252  1.00  0.00     0.046 C 
ATOM     10  C   UNL A   1      29.015  28.373  22.999  1.00  0.00     0.039 C 
ATOM     11  C   UNL A   1      31.469  27.799  22.954  1.00  0.00    -0.073 C 
ATOM     12  C   UNL A   1      31.844  29.033  22.175  1.00  0.00     0.039 C 
BRANCH   6  13
ATOM     13  C   UNL A   1      30.677  24.978  26.153  1.00  0.00     0.230 C 
ATOM     14  N   UNL A   1      31.085  23.851  26.779  1.00  0.00    -0.302 N 
ATOM     15  H   UNL A   1      30.705  23.765  27.682  1.00  0.00     0.172 HD
ATOM     16  O   UNL A   1      29.930  25.709  26.826  1.00  0.00    -0.274 OA
BRANCH  14  17
ATOM     17  C   UNL A   1      31.899  22.804  26.454  1.00  0.00     0.190 A 
ATOM     18  C   UNL A   1      33.810  21.419  25.937  1.00  0.00     0.034 A 
ATOM     19  S   UNL A   1      33.444  22.604  27.107  1.00  0.00    -0.101 S 
ATOM     20  C   UNL A   1      32.631  21.063  25.305  1.00  0.00     0.087 A 
ATOM     21  N   UNL A   1      31.541  21.875  25.594  1.00  0.00    -0.220 NA
BRANCH  18  22
ATOM     22  C   UNL A   1      35.222  20.956  25.764  1.00  0.00     0.046 C 
ATOM     23  C   UNL A   1      35.886  21.605  24.552  1.00  0.00     0.010 C 
ENDBRANCH  18  22
BRANCH  20  24
ATOM     24  C   UNL A   1      32.538  19.976  24.348  1.00  0.00     0.001 A 
ATOM     25  C   UNL A   1      32.722  18.653  24.772  1.00  0.00     0.010 A 
ATOM     26  C   UNL A   1      32.298  20.240  22.997  1.00  0.00     0.010 A 
ATOM     27  C   UNL A   1      32.710  17.608  23.849  1.00  0.00     0.001 A 
ATOM     28  C   UNL A   1      32.289  19.192  22.072  1.00  0.00     0.001 A 
ATOM     29  C   UNL A   1      32.503  17.880  22.497  1.00  0.00     0.000 A 
ENDBRANCH  20  24
ENDBRANCH  14  17
ENDBRANCH   6  13
ENDBRANCH   3   5
ENDBRANCH   2   3
ENDBRANCH   1   2
BRANCH   1  30
ATOM     30  C   UNL A   1      33.133  28.990  27.517  1.00  0.00     0.275 C 
BRANCH  30  31
ATOM     31  O   UNL A   1      34.244  29.690  26.934  1.00  0.00    -0.458 OA
BRANCH  31  32
ATOM     32  C   UNL A   1      34.773  30.676  27.697  1.00  0.00     0.338 C 
ATOM     33  O   UNL A   1      34.305  31.782  27.899  1.00  0.00    -0.246 OA
BRANCH  32  34
ATOM     34  C   UNL A   1      36.049  30.198  28.248  1.00  0.00     0.060 A 
ATOM     35  C   UNL A   1      37.215  30.276  27.481  1.00  0.00     0.016 A 
ATOM     36  C   UNL A   1      36.074  29.623  29.515  1.00  0.00     0.016 A 
ATOM     37  C   UNL A   1      38.413  29.758  27.968  1.00  0.00     0.010 A 
ATOM     38  C   UNL A   1      37.282  29.140  30.020  1.00  0.00     0.010 A 
ATOM     39  C   UNL A   1      38.455  29.191  29.244  1.00  0.00    -0.014 A 
BRANCH  39  40
ATOM     40  C   UNL A   1      39.707  28.598  29.773  1.00  0.00     0.031 A 
ATOM     41  C   UNL A   1      40.455  29.317  30.855  1.00  0.00     0.074 A 
ATOM     42  C   UNL A   1      40.188  27.456  29.248  1.00  0.00     0.049 A 
ATOM     43  N   UNL A   1      41.674  29.131  31.288  1.00  0.00    -0.248 NA
ATOM     44  C   UNL A   1      39.731  30.408  31.522  1.00  0.00     0.031 C 
ATOM     45  C   UNL A   1      39.515  26.646  28.232  1.00  0.00     0.029 A 
ATOM     46  N   UNL A   1      41.371  26.801  29.472  1.00  0.00    -0.354 N 
ATOM     47  C   UNL A   1      41.882  30.109  32.256  1.00  0.00     0.074 A 
ATOM     48  C   UNL A   1      40.666  30.894  32.326  1.00  0.00     0.031 C 
ATOM     49  C   UNL A   1      40.310  25.616  27.900  1.00  0.00     0.029 A 
ATOM     50  C   UNL A   1      41.570  25.737  28.625  1.00  0.00     0.049 A 
ATOM     51  H   UNL A   1      42.013  27.065  30.170  1.00  0.00     0.167 HD
ATOM     52  C   UNL A   1      42.990  30.327  33.007  1.00  0.00     0.034 A 
ATOM     53  C   UNL A   1      42.668  24.986  28.409  1.00  0.00     0.034 A 
ATOM     54  C   UNL A   1      44.188  29.526  32.906  1.00  0.00     0.049 A 
ATOM     55  C   UNL A   1      43.913  25.281  29.199  1.00  0.00     0.074 A 
ATOM     56  C   UNL A   1      45.373  29.644  33.610  1.00  0.00     0.029 A 
ATOM     57  N   UNL A   1      44.351  28.454  32.035  1.00  0.00    -0.354 N 
ATOM     58  N   UNL A   1      44.124  26.231  30.082  1.00  0.00    -0.248 NA
ATOM     59  C   UNL A   1      45.069  24.407  28.965  1.00  0.00     0.031 C 
ATOM     60  C   UNL A   1      46.271  28.685  33.124  1.00  0.00     0.029 A 
ATOM     61  C   UNL A   1      45.625  27.920  32.165  1.00  0.00     0.049 A 
ATOM     62  H   UNL A   1      43.662  28.121  31.415  1.00  0.00     0.167 HD
ATOM     63  C   UNL A   1      45.432  26.059  30.522  1.00  0.00     0.074 A 
ATOM     64  C   UNL A   1      45.957  24.907  29.813  1.00  0.00     0.031 C 
ATOM     65  C   UNL A   1      46.133  26.780  31.433  1.00  0.00     0.034 A 
BRANCH  52  66
ATOM     66  C   UNL A   1      42.968  31.522  33.934  1.00  0.00     0.023 A 
ATOM     67  C   UNL A   1      42.518  31.424  35.262  1.00  0.00     0.031 A 
ATOM     68  C   UNL A   1      43.332  32.794  33.457  1.00  0.00     0.131 A 
ATOM     69  C   UNL A   1      42.356  32.586  36.035  1.00  0.00     0.055 A 
ATOM     70  C   UNL A   1      43.249  33.935  34.260  1.00  0.00     0.041 A 
ATOM     71  F   UNL A   1      43.749  32.958  32.192  1.00  0.00    -0.206 F 
ATOM     72  C   UNL A   1      42.739  33.837  35.550  1.00  0.00     0.022 A 
BRANCH  69  73
ATOM     73  S   UNL A   1      41.474  32.459  37.617  1.00  0.00     0.124 S 
ATOM     74  O   UNL A   1      40.164  31.975  37.189  1.00  0.00    -0.237 OA
ATOM     75  O   UNL A   1      42.295  31.509  38.358  1.00  0.00    -0.237 OA
ATOM     76  O   UNL A   1      41.488  33.828  38.129  1.00  0.00    -0.744 OA
ENDBRANCH  69  73
ENDBRANCH  52  66
BRANCH  53  77
ATOM     77  C   UNL A   1      42.649  23.942  27.347  1.00  0.00     0.023 A 
ATOM     78  C   UNL A   1      42.076  22.682  27.571  1.00  0.00     0.031 A 
ATOM     79  C   UNL A   1      43.192  24.207  26.076  1.00  0.00     0.131 A 
ATOM     80  C   UNL A   1      42.071  21.725  26.543  1.00  0.00     0.055 A 
ATOM     81  C   UNL A   1      43.149  23.268  25.045  1.00  0.00     0.041 A 
ATOM     82  F   UNL A   1      43.746  25.401  25.810  1.00  0.00    -0.206 F 
ATOM     83  C   UNL A   1      42.591  22.016  25.277  1.00  0.00     0.022 A 
BRANCH  80  84
ATOM     84  S   UNL A   1      41.402  20.076  26.890  1.00  0.00     0.124 S 
ATOM     85  O   UNL A   1      40.357  19.960  25.880  1.00  0.00    -0.237 OA
ATOM     86  O   UNL A   1      42.574  19.227  26.702  1.00  0.00    -0.237 OA
ATOM     87  O   UNL A   1      40.929  20.183  28.269  1.00  0.00    -0.744 OA
ENDBRANCH  80  84
ENDBRANCH  53  77
BRANCH  65  88
ATOM     88  C   UNL A   1      47.531  26.308  31.743  1.00  0.00     0.023 A 
ATOM     89  C   UNL A   1      48.633  26.698  30.963  1.00  0.00     0.031 A 
ATOM     90  C   UNL A   1      47.756  25.449  32.833  1.00  0.00     0.131 A 
ATOM     91  C   UNL A   1      49.908  26.192  31.260  1.00  0.00     0.055 A 
ATOM     92  C   UNL A   1      49.033  24.991  33.153  1.00  0.00     0.041 A 
ATOM     93  F   UNL A   1      46.735  25.046  33.606  1.00  0.00    -0.206 F 
ATOM     94  C   UNL A   1      50.117  25.354  32.359  1.00  0.00     0.022 A 
BRANCH  91  95
ATOM     95  S   UNL A   1      51.287  26.589  30.149  1.00  0.00     0.124 S 
ATOM     96  O   UNL A   1      52.427  26.037  30.874  1.00  0.00    -0.237 OA
ATOM     97  O   UNL A   1      50.913  25.894  28.923  1.00  0.00    -0.237 OA
ATOM     98  O   UNL A   1      51.252  28.049  30.068  1.00  0.00    -0.744 OA
ENDBRANCH  91  95
ENDBRANCH  65  88
ENDBRANCH  39  40
ENDBRANCH  32  34
ENDBRANCH  31  32
ENDBRANCH  30  31
ENDBRANCH   1  30
TORSDOF 18
ENDMDL
