MODEL 1
REMARK VINA RESULT:     -12.6      0.000      0.000
REMARK SMILES Cc1cc(C)c2c(c1)C=C(C(=O)OCCOC(=O)c1ccc(-c3c4nc(c(-c5cc(S(=O)(=O)[O-])ccc5F)c5ccc([nH]5)c(-c5cc(S(=O)(=O)[O-])ccc5F)c5nc(c(-c6cc(S(=O)(=O)[O-])ccc6F)c6ccc3[nH]6)C=C5)C=C4)cc1)[C@@H](C(F)(F)F)O2
REMARK SMILES IDX 15 1 14 2 13 3 11 4 12 5 10 6 1 7 2 8 3 9 8 10 4 11 7 12
REMARK SMILES IDX 5 13 6 14 9 15 87 16 82 17 83 18 84 19 85 20 86 21 16 22
REMARK SMILES IDX 17 23 18 24 19 25 20 26 81 27 21 28 80 29 22 30 23 31 24 32
REMARK SMILES IDX 74 33 25 34 79 35 73 36 75 37 26 38 78 39 72 40 71 41 27 43
REMARK SMILES IDX 59 44 39 45 58 46 40 47 43 48 57 49 76 50 41 51 42 52 56 54
REMARK SMILES IDX 77 55 44 56 28 57 29 58 37 59 30 60 36 61 38 62 35 63 31 64
REMARK SMILES IDX 32 65 33 66 34 67 60 68 61 69 69 70 62 71 68 72 70 73 67 74
REMARK SMILES IDX 63 75 64 76 65 77 66 78 45 79 46 80 54 81 47 82 53 83 55 84
REMARK SMILES IDX 52 85 48 86 49 87 50 88 51 89
REMARK H PARENT 75 42 43 53
REMARK Flexibility Score: inf
ROOT
ATOM      1  C   UNL A   1      32.074  29.958  25.392  1.00  0.00     0.275 C 
ENDROOT
BRANCH   1   2
ATOM      2  C   UNL A   1      31.826  28.517  24.944  1.00  0.00     0.275 C 
BRANCH   2   3
ATOM      3  O   UNL A   1      32.551  27.570  25.757  1.00  0.00    -0.459 OA
BRANCH   3   4
ATOM      4  C   UNL A   1      31.792  26.623  26.356  1.00  0.00     0.338 C 
ATOM      5  O   UNL A   1      30.851  26.822  27.111  1.00  0.00    -0.246 OA
BRANCH   4   6
ATOM      6  C   UNL A   1      32.243  25.271  25.981  1.00  0.00     0.087 C 
ATOM      7  C   UNL A   1      37.412  22.026  25.132  1.00  0.00     0.044 C 
ATOM      8  C   UNL A   1      35.938  22.306  25.084  1.00  0.00    -0.050 A 
ATOM      9  C   UNL A   1      35.053  21.384  24.513  1.00  0.00     0.010 A 
ATOM     10  C   UNL A   1      35.422  23.479  25.635  1.00  0.00     0.015 A 
ATOM     11  C   UNL A   1      33.667  21.632  24.476  1.00  0.00    -0.008 A 
ATOM     12  C   UNL A   1      34.048  23.742  25.588  1.00  0.00     0.018 A 
ATOM     13  C   UNL A   1      32.745  20.626  23.852  1.00  0.00     0.048 C 
ATOM     14  C   UNL A   1      33.167  22.823  25.020  1.00  0.00     0.130 A 
ATOM     15  C   UNL A   1      33.546  25.002  26.095  1.00  0.00     0.027 C 
ATOM     16  O   UNL A   1      31.812  23.023  24.978  1.00  0.00    -0.475 OA
ATOM     17  C   UNL A   1      31.269  24.321  25.352  1.00  0.00     0.316 C 
BRANCH  17  18
ATOM     18  C   UNL A   1      30.599  24.947  24.119  1.00  0.00     0.430 C 
ATOM     19  F   UNL A   1      31.484  25.670  23.388  1.00  0.00    -0.167 F 
ATOM     20  F   UNL A   1      30.108  23.998  23.283  1.00  0.00    -0.167 F 
ATOM     21  F   UNL A   1      29.575  25.768  24.442  1.00  0.00    -0.167 F 
ENDBRANCH  17  18
ENDBRANCH   4   6
ENDBRANCH   3   4
ENDBRANCH   2   3
ENDBRANCH   1   2
BRANCH   1  22
ATOM     22  O   UNL A   1      32.423  30.004  26.787  1.00  0.00    -0.458 OA
BRANCH  22  23
ATOM     23  C   UNL A   1      33.026  31.151  27.175  1.00  0.00     0.338 C 
ATOM     24  O   UNL A   1      32.495  32.232  27.364  1.00  0.00    -0.246 OA
BRANCH  23  25
ATOM     25  C   UNL A   1      34.455  30.931  27.440  1.00  0.00     0.060 A 
ATOM     26  C   UNL A   1      34.889  29.635  27.688  1.00  0.00     0.016 A 
ATOM     27  C   UNL A   1      35.292  32.010  27.710  1.00  0.00     0.016 A 
ATOM     28  C   UNL A   1      36.064  29.426  28.404  1.00  0.00     0.010 A 
ATOM     29  C   UNL A   1      36.552  31.779  28.275  1.00  0.00     0.010 A 
ATOM     30  C   UNL A   1      36.927  30.490  28.698  1.00  0.00    -0.014 A 
BRANCH  30  31
ATOM     31  C   UNL A   1      38.184  30.278  29.476  1.00  0.00     0.031 A 
ATOM     32  C   UNL A   1      39.283  29.406  28.912  1.00  0.00     0.074 A 
ATOM     33  C   UNL A   1      38.367  30.862  30.679  1.00  0.00     0.049 A 
ATOM     34  N   UNL A   1      40.296  28.848  29.523  1.00  0.00    -0.248 NA
ATOM     35  C   UNL A   1      39.221  29.110  27.471  1.00  0.00     0.031 C 
ATOM     36  C   UNL A   1      37.452  31.811  31.318  1.00  0.00     0.029 A 
ATOM     37  N   UNL A   1      39.394  30.744  31.585  1.00  0.00    -0.354 N 
ATOM     38  C   UNL A   1      40.954  28.087  28.561  1.00  0.00     0.074 A 
ATOM     39  C   UNL A   1      40.221  28.250  27.324  1.00  0.00     0.031 C 
ATOM     40  C   UNL A   1      37.977  32.224  32.479  1.00  0.00     0.029 A 
ATOM     41  C   UNL A   1      39.193  31.466  32.739  1.00  0.00     0.049 A 
ATOM     42  H   UNL A   1      40.196  30.197  31.423  1.00  0.00     0.167 HD
ATOM     43  C   UNL A   1      42.064  27.320  28.703  1.00  0.00     0.034 A 
ATOM     44  C   UNL A   1      39.857  31.468  33.910  1.00  0.00     0.034 A 
ATOM     45  C   UNL A   1      42.811  27.212  29.934  1.00  0.00     0.049 A 
ATOM     46  C   UNL A   1      41.022  30.537  34.081  1.00  0.00     0.074 A 
ATOM     47  C   UNL A   1      43.939  26.453  30.195  1.00  0.00     0.029 A 
ATOM     48  N   UNL A   1      42.520  27.902  31.103  1.00  0.00    -0.354 N 
ATOM     49  N   UNL A   1      41.552  29.710  33.211  1.00  0.00    -0.248 NA
ATOM     50  C   UNL A   1      41.661  30.520  35.402  1.00  0.00     0.031 C 
ATOM     51  C   UNL A   1      44.293  26.639  31.536  1.00  0.00     0.029 A 
ATOM     52  C   UNL A   1      43.432  27.570  32.093  1.00  0.00     0.049 A 
ATOM     53  H   UNL A   1      41.772  28.535  31.214  1.00  0.00     0.167 HD
ATOM     54  C   UNL A   1      42.596  29.079  33.878  1.00  0.00     0.074 A 
ATOM     55  C   UNL A   1      42.635  29.641  35.214  1.00  0.00     0.031 C 
ATOM     56  C   UNL A   1      43.443  28.120  33.428  1.00  0.00     0.034 A 
BRANCH  43  57
ATOM     57  C   UNL A   1      42.512  26.494  27.522  1.00  0.00     0.023 A 
ATOM     58  C   UNL A   1      42.135  25.149  27.362  1.00  0.00     0.031 A 
ATOM     59  C   UNL A   1      43.312  27.077  26.521  1.00  0.00     0.131 A 
ATOM     60  C   UNL A   1      42.591  24.424  26.249  1.00  0.00     0.055 A 
ATOM     61  C   UNL A   1      43.709  26.369  25.385  1.00  0.00     0.041 A 
ATOM     62  F   UNL A   1      43.717  28.353  26.629  1.00  0.00    -0.206 F 
ATOM     63  C   UNL A   1      43.354  25.031  25.248  1.00  0.00     0.022 A 
BRANCH  60  64
ATOM     64  S   UNL A   1      42.239  22.646  26.162  1.00  0.00     0.124 S 
ATOM     65  O   UNL A   1      40.780  22.635  26.148  1.00  0.00    -0.237 OA
ATOM     66  O   UNL A   1      42.894  22.254  24.919  1.00  0.00    -0.237 OA
ATOM     67  O   UNL A   1      42.849  22.116  27.380  1.00  0.00    -0.744 OA
ENDBRANCH  60  64
ENDBRANCH  43  57
BRANCH  44  68
ATOM     68  C   UNL A   1      39.382  32.321  35.035  1.00  0.00     0.023 A 
ATOM     69  C   UNL A   1      38.704  31.757  36.126  1.00  0.00     0.031 A 
ATOM     70  C   UNL A   1      39.605  33.711  35.041  1.00  0.00     0.131 A 
ATOM     71  C   UNL A   1      38.261  32.581  37.173  1.00  0.00     0.055 A 
ATOM     72  C   UNL A   1      39.207  34.518  36.107  1.00  0.00     0.041 A 
ATOM     73  F   UNL A   1      40.249  34.299  34.020  1.00  0.00    -0.206 F 
ATOM     74  C   UNL A   1      38.525  33.954  37.179  1.00  0.00     0.022 A 
BRANCH  71  75
ATOM     75  S   UNL A   1      37.305  31.834  38.519  1.00  0.00     0.124 S 
ATOM     76  O   UNL A   1      38.195  32.027  39.657  1.00  0.00    -0.237 OA
ATOM     77  O   UNL A   1      36.087  32.638  38.511  1.00  0.00    -0.237 OA
ATOM     78  O   UNL A   1      37.134  30.449  38.086  1.00  0.00    -0.744 OA
ENDBRANCH  71  75
ENDBRANCH  44  68
BRANCH  56  79
ATOM     79  C   UNL A   1      44.498  27.641  34.391  1.00  0.00     0.023 A 
ATOM     80  C   UNL A   1      44.252  26.575  35.273  1.00  0.00     0.031 A 
ATOM     81  C   UNL A   1      45.754  28.270  34.443  1.00  0.00     0.131 A 
ATOM     82  C   UNL A   1      45.225  26.211  36.214  1.00  0.00     0.055 A 
ATOM     83  C   UNL A   1      46.742  27.862  35.338  1.00  0.00     0.041 A 
ATOM     84  F   UNL A   1      46.039  29.295  33.623  1.00  0.00    -0.206 F 
ATOM     85  C   UNL A   1      46.475  26.835  36.240  1.00  0.00     0.022 A 
BRANCH  82  86
ATOM     86  S   UNL A   1      44.798  24.971  37.466  1.00  0.00     0.124 S 
ATOM     87  O   UNL A   1      43.344  25.091  37.525  1.00  0.00    -0.237 OA
ATOM     88  O   UNL A   1      45.312  23.740  36.877  1.00  0.00    -0.237 OA
ATOM     89  O   UNL A   1      45.506  25.431  38.659  1.00  0.00    -0.744 OA
ENDBRANCH  82  86
ENDBRANCH  56  79
ENDBRANCH  30  31
ENDBRANCH  23  25
ENDBRANCH  22  23
ENDBRANCH   1  22
TORSDOF 15
ENDMDL
MODEL 2
REMARK VINA RESULT:     -12.5      4.208     10.091
REMARK SMILES Cc1cc(C)c2c(c1)C=C(C(=O)OCCOC(=O)c1ccc(-c3c4nc(c(-c5cc(S(=O)(=O)[O-])ccc5F)c5ccc([nH]5)c(-c5cc(S(=O)(=O)[O-])ccc5F)c5nc(c(-c6cc(S(=O)(=O)[O-])ccc6F)c6ccc3[nH]6)C=C5)C=C4)cc1)[C@@H](C(F)(F)F)O2
REMARK SMILES IDX 15 1 14 2 13 3 11 4 12 5 10 6 1 7 2 8 3 9 8 10 4 11 7 12
REMARK SMILES IDX 5 13 6 14 9 15 87 16 82 17 83 18 84 19 85 20 86 21 16 22
REMARK SMILES IDX 17 23 18 24 19 25 20 26 81 27 21 28 80 29 22 30 23 31 24 32
REMARK SMILES IDX 74 33 25 34 79 35 73 36 75 37 26 38 78 39 72 40 71 41 27 43
REMARK SMILES IDX 59 44 39 45 58 46 40 47 43 48 57 49 76 50 41 51 42 52 56 54
REMARK SMILES IDX 77 55 44 56 28 57 29 58 37 59 30 60 36 61 38 62 35 63 31 64
REMARK SMILES IDX 32 65 33 66 34 67 60 68 61 69 69 70 62 71 68 72 70 73 67 74
REMARK SMILES IDX 63 75 64 76 65 77 66 78 45 79 46 80 54 81 47 82 53 83 55 84
REMARK SMILES IDX 52 85 48 86 49 87 50 88 51 89
REMARK H PARENT 75 42 43 53
REMARK Flexibility Score: inf
ROOT
ATOM      1  C   UNL A   1      33.525  34.226  28.203  1.00  0.00     0.275 C 
ENDROOT
BRANCH   1   2
ATOM      2  C   UNL A   1      34.087  35.130  29.301  1.00  0.00     0.275 C 
BRANCH   2   3
ATOM      3  O   UNL A   1      33.791  34.620  30.619  1.00  0.00    -0.459 OA
BRANCH   3   4
ATOM      4  C   UNL A   1      34.550  33.572  31.017  1.00  0.00     0.338 C 
ATOM      5  O   UNL A   1      34.256  32.389  30.920  1.00  0.00    -0.246 OA
BRANCH   4   6
ATOM      6  C   UNL A   1      35.821  34.034  31.602  1.00  0.00     0.087 C 
ATOM      7  C   UNL A   1      41.906  33.653  30.706  1.00  0.00     0.044 C 
ATOM      8  C   UNL A   1      40.640  33.990  31.440  1.00  0.00    -0.050 A 
ATOM      9  C   UNL A   1      40.682  34.542  32.726  1.00  0.00     0.010 A 
ATOM     10  C   UNL A   1      39.398  33.784  30.838  1.00  0.00     0.015 A 
ATOM     11  C   UNL A   1      39.501  34.873  33.416  1.00  0.00    -0.008 A 
ATOM     12  C   UNL A   1      38.217  34.095  31.524  1.00  0.00     0.018 A 
ATOM     13  C   UNL A   1      39.581  35.458  34.795  1.00  0.00     0.048 C 
ATOM     14  C   UNL A   1      38.260  34.645  32.804  1.00  0.00     0.130 A 
ATOM     15  C   UNL A   1      36.939  33.799  30.911  1.00  0.00     0.027 C 
ATOM     16  O   UNL A   1      37.133  34.993  33.501  1.00  0.00    -0.475 OA
ATOM     17  C   UNL A   1      35.828  34.599  32.989  1.00  0.00     0.316 C 
BRANCH  17  18
ATOM     18  C   UNL A   1      35.183  33.626  33.989  1.00  0.00     0.430 C 
ATOM     19  F   UNL A   1      35.252  34.102  35.257  1.00  0.00    -0.167 F 
ATOM     20  F   UNL A   1      33.865  33.442  33.728  1.00  0.00    -0.167 F 
ATOM     21  F   UNL A   1      35.768  32.408  33.982  1.00  0.00    -0.167 F 
ENDBRANCH  17  18
ENDBRANCH   4   6
ENDBRANCH   3   4
ENDBRANCH   2   3
ENDBRANCH   1   2
BRANCH   1  22
ATOM     22  O   UNL A   1      34.566  33.418  27.626  1.00  0.00    -0.458 OA
BRANCH  22  23
ATOM     23  C   UNL A   1      34.322  32.088  27.653  1.00  0.00     0.338 C 
ATOM     24  O   UNL A   1      33.249  31.536  27.478  1.00  0.00    -0.246 OA
BRANCH  23  25
ATOM     25  C   UNL A   1      35.566  31.329  27.846  1.00  0.00     0.060 A 
ATOM     26  C   UNL A   1      35.474  29.975  28.142  1.00  0.00     0.016 A 
ATOM     27  C   UNL A   1      36.776  31.997  28.006  1.00  0.00     0.016 A 
ATOM     28  C   UNL A   1      36.523  29.340  28.800  1.00  0.00     0.010 A 
ATOM     29  C   UNL A   1      37.883  31.303  28.508  1.00  0.00     0.010 A 
ATOM     30  C   UNL A   1      37.753  29.984  28.982  1.00  0.00    -0.014 A 
BRANCH  30  31
ATOM     31  C   UNL A   1      38.882  29.316  29.697  1.00  0.00     0.031 A 
ATOM     32  C   UNL A   1      39.255  29.754  31.095  1.00  0.00     0.074 A 
ATOM     33  C   UNL A   1      39.576  28.312  29.121  1.00  0.00     0.049 A 
ATOM     34  N   UNL A   1      40.357  29.539  31.766  1.00  0.00    -0.248 NA
ATOM     35  C   UNL A   1      38.260  30.557  31.826  1.00  0.00     0.031 C 
ATOM     36  C   UNL A   1      39.281  27.702  27.822  1.00  0.00     0.029 A 
ATOM     37  N   UNL A   1      40.682  27.622  29.558  1.00  0.00    -0.354 N 
ATOM     38  C   UNL A   1      40.216  30.228  32.968  1.00  0.00     0.074 A 
ATOM     39  C   UNL A   1      38.922  30.875  32.931  1.00  0.00     0.031 C 
ATOM     40  C   UNL A   1      40.144  26.704  27.591  1.00  0.00     0.029 A 
ATOM     41  C   UNL A   1      41.141  26.692  28.652  1.00  0.00     0.049 A 
ATOM     42  H   UNL A   1      41.104  27.776  30.434  1.00  0.00     0.167 HD
ATOM     43  C   UNL A   1      41.091  30.315  34.001  1.00  0.00     0.034 A 
ATOM     44  C   UNL A   1      42.274  25.966  28.626  1.00  0.00     0.034 A 
ATOM     45  C   UNL A   1      42.356  29.618  34.039  1.00  0.00     0.049 A 
ATOM     46  C   UNL A   1      43.277  26.151  29.728  1.00  0.00     0.074 A 
ATOM     47  C   UNL A   1      43.327  29.647  35.026  1.00  0.00     0.029 A 
ATOM     48  N   UNL A   1      42.815  28.749  33.058  1.00  0.00    -0.354 N 
ATOM     49  N   UNL A   1      43.201  26.916  30.792  1.00  0.00    -0.248 NA
ATOM     50  C   UNL A   1      44.529  25.395  29.611  1.00  0.00     0.031 C 
ATOM     51  C   UNL A   1      44.395  28.842  34.615  1.00  0.00     0.029 A 
ATOM     52  C   UNL A   1      44.062  28.253  33.406  1.00  0.00     0.049 A 
ATOM     53  H   UNL A   1      42.326  28.520  32.234  1.00  0.00     0.167 HD
ATOM     54  C   UNL A   1      44.396  26.726  31.478  1.00  0.00     0.074 A 
ATOM     55  C   UNL A   1      45.161  25.755  30.720  1.00  0.00     0.031 C 
ATOM     56  C   UNL A   1      44.823  27.305  32.628  1.00  0.00     0.034 A 
BRANCH  43  57
ATOM     57  C   UNL A   1      40.745  31.230  35.149  1.00  0.00     0.023 A 
ATOM     58  C   UNL A   1      39.627  31.011  35.972  1.00  0.00     0.031 A 
ATOM     59  C   UNL A   1      41.571  32.333  35.440  1.00  0.00     0.131 A 
ATOM     60  C   UNL A   1      39.345  31.903  37.019  1.00  0.00     0.055 A 
ATOM     61  C   UNL A   1      41.321  33.179  36.522  1.00  0.00     0.041 A 
ATOM     62  F   UNL A   1      42.642  32.603  34.677  1.00  0.00    -0.206 F 
ATOM     63  C   UNL A   1      40.197  32.971  37.315  1.00  0.00     0.022 A 
BRANCH  60  64
ATOM     64  S   UNL A   1      37.800  31.698  37.948  1.00  0.00     0.124 S 
ATOM     65  O   UNL A   1      37.451  30.315  37.637  1.00  0.00    -0.237 OA
ATOM     66  O   UNL A   1      38.219  31.958  39.321  1.00  0.00    -0.237 OA
ATOM     67  O   UNL A   1      36.914  32.705  37.367  1.00  0.00    -0.744 OA
ENDBRANCH  60  64
ENDBRANCH  43  57
BRANCH  44  68
ATOM     68  C   UNL A   1      42.553  25.060  27.477  1.00  0.00     0.023 A 
ATOM     69  C   UNL A   1      42.067  23.745  27.466  1.00  0.00     0.031 A 
ATOM     70  C   UNL A   1      43.302  25.498  26.368  1.00  0.00     0.131 A 
ATOM     71  C   UNL A   1      42.345  22.907  26.374  1.00  0.00     0.055 A 
ATOM     72  C   UNL A   1      43.534  24.678  25.263  1.00  0.00     0.041 A 
ATOM     73  F   UNL A   1      43.790  26.749  26.330  1.00  0.00    -0.206 F 
ATOM     74  C   UNL A   1      43.059  23.372  25.266  1.00  0.00     0.022 A 
BRANCH  71  75
ATOM     75  S   UNL A   1      41.785  21.185  26.437  1.00  0.00     0.124 S 
ATOM     76  O   UNL A   1      40.389  21.313  26.036  1.00  0.00    -0.237 OA
ATOM     77  O   UNL A   1      42.673  20.540  25.477  1.00  0.00    -0.237 OA
ATOM     78  O   UNL A   1      42.002  20.808  27.832  1.00  0.00    -0.744 OA
ENDBRANCH  71  75
ENDBRANCH  44  68
BRANCH  56  79
ATOM     79  C   UNL A   1      46.173  26.876  33.142  1.00  0.00     0.023 A 
ATOM     80  C   UNL A   1      46.318  25.742  33.958  1.00  0.00     0.031 A 
ATOM     81  C   UNL A   1      47.323  27.622  32.831  1.00  0.00     0.131 A 
ATOM     82  C   UNL A   1      47.575  25.420  34.488  1.00  0.00     0.055 A 
ATOM     83  C   UNL A   1      48.583  27.261  33.308  1.00  0.00     0.041 A 
ATOM     84  F   UNL A   1      47.239  28.716  32.055  1.00  0.00    -0.206 F 
ATOM     85  C   UNL A   1      48.711  26.162  34.153  1.00  0.00     0.022 A 
BRANCH  82  86
ATOM     86  S   UNL A   1      47.687  24.074  35.697  1.00  0.00     0.124 S 
ATOM     87  O   UNL A   1      48.914  23.399  35.283  1.00  0.00    -0.237 OA
ATOM     88  O   UNL A   1      47.752  24.794  36.964  1.00  0.00    -0.237 OA
ATOM     89  O   UNL A   1      46.458  23.314  35.477  1.00  0.00    -0.744 OA
ENDBRANCH  82  86
ENDBRANCH  56  79
ENDBRANCH  30  31
ENDBRANCH  23  25
ENDBRANCH  22  23
ENDBRANCH   1  22
TORSDOF 15
ENDMDL
MODEL 3
REMARK VINA RESULT:     -12.5      4.965      9.917
REMARK SMILES Cc1cc(C)c2c(c1)C=C(C(=O)OCCOC(=O)c1ccc(-c3c4nc(c(-c5cc(S(=O)(=O)[O-])ccc5F)c5ccc([nH]5)c(-c5cc(S(=O)(=O)[O-])ccc5F)c5nc(c(-c6cc(S(=O)(=O)[O-])ccc6F)c6ccc3[nH]6)C=C5)C=C4)cc1)[C@@H](C(F)(F)F)O2
REMARK SMILES IDX 15 1 14 2 13 3 11 4 12 5 10 6 1 7 2 8 3 9 8 10 4 11 7 12
REMARK SMILES IDX 5 13 6 14 9 15 87 16 82 17 83 18 84 19 85 20 86 21 16 22
REMARK SMILES IDX 17 23 18 24 19 25 20 26 81 27 21 28 80 29 22 30 23 31 24 32
REMARK SMILES IDX 74 33 25 34 79 35 73 36 75 37 26 38 78 39 72 40 71 41 27 43
REMARK SMILES IDX 59 44 39 45 58 46 40 47 43 48 57 49 76 50 41 51 42 52 56 54
REMARK SMILES IDX 77 55 44 56 28 57 29 58 37 59 30 60 36 61 38 62 35 63 31 64
REMARK SMILES IDX 32 65 33 66 34 67 60 68 61 69 69 70 62 71 68 72 70 73 67 74
REMARK SMILES IDX 63 75 64 76 65 77 66 78 45 79 46 80 54 81 47 82 53 83 55 84
REMARK SMILES IDX 52 85 48 86 49 87 50 88 51 89
REMARK H PARENT 75 42 43 53
REMARK Flexibility Score: inf
ROOT
ATOM      1  C   UNL A   1      36.230  20.873  25.093  1.00  0.00     0.275 C 
ENDROOT
BRANCH   1   2
ATOM      2  C   UNL A   1      34.928  21.676  25.084  1.00  0.00     0.275 C 
BRANCH   2   3
ATOM      3  O   UNL A   1      35.172  23.089  24.919  1.00  0.00    -0.459 OA
BRANCH   3   4
ATOM      4  C   UNL A   1      34.888  23.585  23.691  1.00  0.00     0.338 C 
ATOM      5  O   UNL A   1      35.328  23.175  22.627  1.00  0.00    -0.246 OA
BRANCH   4   6
ATOM      6  C   UNL A   1      33.949  24.717  23.784  1.00  0.00     0.087 C 
ATOM      7  C   UNL A   1      32.786  29.684  27.241  1.00  0.00     0.044 C 
ATOM      8  C   UNL A   1      32.527  28.651  26.182  1.00  0.00    -0.050 A 
ATOM      9  C   UNL A   1      31.333  28.658  25.451  1.00  0.00     0.010 A 
ATOM     10  C   UNL A   1      33.487  27.681  25.890  1.00  0.00     0.015 A 
ATOM     11  C   UNL A   1      31.088  27.702  24.447  1.00  0.00    -0.008 A 
ATOM     12  C   UNL A   1      33.245  26.716  24.905  1.00  0.00     0.018 A 
ATOM     13  C   UNL A   1      29.796  27.733  23.686  1.00  0.00     0.048 C 
ATOM     14  C   UNL A   1      32.056  26.724  24.177  1.00  0.00     0.130 A 
ATOM     15  C   UNL A   1      34.222  25.673  24.675  1.00  0.00     0.027 C 
ATOM     16  O   UNL A   1      31.787  25.819  23.184  1.00  0.00    -0.475 OA
ATOM     17  C   UNL A   1      32.672  24.677  23.001  1.00  0.00     0.316 C 
BRANCH  17  18
ATOM     18  C   UNL A   1      31.880  23.392  23.294  1.00  0.00     0.430 C 
ATOM     19  F   UNL A   1      32.322  22.356  22.540  1.00  0.00    -0.167 F 
ATOM     20  F   UNL A   1      32.020  23.004  24.587  1.00  0.00    -0.167 F 
ATOM     21  F   UNL A   1      30.557  23.530  23.057  1.00  0.00    -0.167 F 
ENDBRANCH  17  18
ENDBRANCH   4   6
ENDBRANCH   3   4
ENDBRANCH   2   3
ENDBRANCH   1   2
BRANCH   1  22
ATOM     22  O   UNL A   1      37.361  21.734  24.873  1.00  0.00    -0.458 OA
BRANCH  22  23
ATOM     23  C   UNL A   1      38.484  21.362  25.528  1.00  0.00     0.338 C 
ATOM     24  O   UNL A   1      39.091  20.311  25.405  1.00  0.00    -0.246 OA
BRANCH  23  25
ATOM     25  C   UNL A   1      38.972  22.445  26.394  1.00  0.00     0.060 A 
ATOM     26  C   UNL A   1      38.518  23.736  26.157  1.00  0.00     0.016 A 
ATOM     27  C   UNL A   1      40.060  22.232  27.235  1.00  0.00     0.016 A 
ATOM     28  C   UNL A   1      39.277  24.822  26.580  1.00  0.00     0.010 A 
ATOM     29  C   UNL A   1      40.717  23.331  27.801  1.00  0.00     0.010 A 
ATOM     30  C   UNL A   1      40.381  24.645  27.423  1.00  0.00    -0.014 A 
BRANCH  30  31
ATOM     31  C   UNL A   1      41.209  25.804  27.874  1.00  0.00     0.031 A 
ATOM     32  C   UNL A   1      40.597  26.873  28.750  1.00  0.00     0.074 A 
ATOM     33  C   UNL A   1      42.507  25.912  27.521  1.00  0.00     0.049 A 
ATOM     34  N   UNL A   1      41.021  28.085  28.999  1.00  0.00    -0.248 NA
ATOM     35  C   UNL A   1      39.331  26.536  29.422  1.00  0.00     0.031 C 
ATOM     36  C   UNL A   1      43.276  24.920  26.767  1.00  0.00     0.029 A 
ATOM     37  N   UNL A   1      43.417  26.916  27.754  1.00  0.00    -0.354 N 
ATOM     38  C   UNL A   1      40.048  28.676  29.800  1.00  0.00     0.074 A 
ATOM     39  C   UNL A   1      39.007  27.689  29.992  1.00  0.00     0.031 C 
ATOM     40  C   UNL A   1      44.543  25.337  26.642  1.00  0.00     0.029 A 
ATOM     41  C   UNL A   1      44.647  26.686  27.179  1.00  0.00     0.049 A 
ATOM     42  H   UNL A   1      43.210  27.722  28.281  1.00  0.00     0.167 HD
ATOM     43  C   UNL A   1      40.026  29.929  30.320  1.00  0.00     0.034 A 
ATOM     44  C   UNL A   1      45.717  27.488  27.024  1.00  0.00     0.034 A 
ATOM     45  C   UNL A   1      41.100  30.881  30.159  1.00  0.00     0.049 A 
ATOM     46  C   UNL A   1      45.636  28.903  27.518  1.00  0.00     0.074 A 
ATOM     47  C   UNL A   1      41.178  32.181  30.628  1.00  0.00     0.029 A 
ATOM     48  N   UNL A   1      42.295  30.628  29.498  1.00  0.00    -0.354 N 
ATOM     49  N   UNL A   1      44.653  29.502  28.149  1.00  0.00    -0.248 NA
ATOM     50  C   UNL A   1      46.798  29.759  27.254  1.00  0.00     0.031 C 
ATOM     51  C   UNL A   1      42.391  32.731  30.201  1.00  0.00     0.029 A 
ATOM     52  C   UNL A   1      43.105  31.752  29.527  1.00  0.00     0.049 A 
ATOM     53  H   UNL A   1      42.532  29.773  29.069  1.00  0.00     0.167 HD
ATOM     54  C   UNL A   1      45.084  30.806  28.366  1.00  0.00     0.074 A 
ATOM     55  C   UNL A   1      46.424  30.897  27.820  1.00  0.00     0.031 C 
ATOM     56  C   UNL A   1      44.429  31.836  28.959  1.00  0.00     0.034 A 
BRANCH  43  57
ATOM     57  C   UNL A   1      38.789  30.368  31.063  1.00  0.00     0.023 A 
ATOM     58  C   UNL A   1      37.743  31.064  30.433  1.00  0.00     0.031 A 
ATOM     59  C   UNL A   1      38.644  30.057  32.428  1.00  0.00     0.131 A 
ATOM     60  C   UNL A   1      36.619  31.459  31.176  1.00  0.00     0.055 A 
ATOM     61  C   UNL A   1      37.496  30.397  33.147  1.00  0.00     0.041 A 
ATOM     62  F   UNL A   1      39.618  29.410  33.088  1.00  0.00    -0.206 F 
ATOM     63  C   UNL A   1      36.477  31.109  32.522  1.00  0.00     0.022 A 
BRANCH  60  64
ATOM     64  S   UNL A   1      35.372  32.510  30.382  1.00  0.00     0.124 S 
ATOM     65  O   UNL A   1      36.111  33.755  30.196  1.00  0.00    -0.237 OA
ATOM     66  O   UNL A   1      35.058  31.766  29.167  1.00  0.00    -0.237 OA
ATOM     67  O   UNL A   1      34.296  32.572  31.369  1.00  0.00    -0.744 OA
ENDBRANCH  60  64
ENDBRANCH  43  57
BRANCH  44  68
ATOM     68  C   UNL A   1      46.921  26.993  26.300  1.00  0.00     0.023 A 
ATOM     69  C   UNL A   1      48.000  26.436  27.002  1.00  0.00     0.031 A 
ATOM     70  C   UNL A   1      47.008  27.062  24.897  1.00  0.00     0.131 A 
ATOM     71  C   UNL A   1      49.127  25.980  26.299  1.00  0.00     0.055 A 
ATOM     72  C   UNL A   1      48.108  26.562  24.200  1.00  0.00     0.041 A 
ATOM     73  F   UNL A   1      46.001  27.586  24.179  1.00  0.00    -0.206 F 
ATOM     74  C   UNL A   1      49.179  26.022  24.903  1.00  0.00     0.022 A 
BRANCH  71  75
ATOM     75  S   UNL A   1      50.543  25.356  27.243  1.00  0.00     0.124 S 
ATOM     76  O   UNL A   1      51.464  24.978  26.178  1.00  0.00    -0.237 OA
ATOM     77  O   UNL A   1      50.920  26.522  28.035  1.00  0.00    -0.237 OA
ATOM     78  O   UNL A   1      49.978  24.245  28.006  1.00  0.00    -0.744 OA
ENDBRANCH  71  75
ENDBRANCH  44  68
BRANCH  56  79
ATOM     79  C   UNL A   1      45.173  33.141  29.065  1.00  0.00     0.023 A 
ATOM     80  C   UNL A   1      45.027  34.147  28.095  1.00  0.00     0.031 A 
ATOM     81  C   UNL A   1      46.055  33.373  30.135  1.00  0.00     0.131 A 
ATOM     82  C   UNL A   1      45.799  35.314  28.179  1.00  0.00     0.055 A 
ATOM     83  C   UNL A   1      46.773  34.563  30.249  1.00  0.00     0.041 A 
ATOM     84  F   UNL A   1      46.232  32.443  31.088  1.00  0.00    -0.206 F 
ATOM     85  C   UNL A   1      46.657  35.537  29.260  1.00  0.00     0.022 A 
BRANCH  82  86
ATOM     86  S   UNL A   1      45.735  36.496  26.807  1.00  0.00     0.124 S 
ATOM     87  O   UNL A   1      46.726  37.487  27.215  1.00  0.00    -0.237 OA
ATOM     88  O   UNL A   1      46.096  35.668  25.662  1.00  0.00    -0.237 OA
ATOM     89  O   UNL A   1      44.350  36.964  26.822  1.00  0.00    -0.744 OA
ENDBRANCH  82  86
ENDBRANCH  56  79
ENDBRANCH  30  31
ENDBRANCH  23  25
ENDBRANCH  22  23
ENDBRANCH   1  22
TORSDOF 15
ENDMDL
