MODEL 1
REMARK VINA RESULT:     -12.2      0.000      0.000
REMARK SMILES CC1(C)C(NC(=O)c2cc(F)c(F)cc2C(=O)OCCOC(=O)c2ccc(-c3c4nc(c(-c5cc(S(=O)(=O)[O-])ccc5F)c5ccc([nH]5)c(-c5cc(S(=O)(=O)[O-])ccc5F)c5nc(c(-c6cc(S(=O)(=O)[O-])ccc6F)c6ccc3[nH]6)C=C5)C=C4)cc2)C1(C)C
REMARK SMILES IDX 20 1 19 2 18 3 16 4 17 5 15 6 8 7 9 8 10 9 14 10 11 11 12 12
REMARK SMILES IDX 13 13 6 14 5 15 7 17 4 18 1 19 2 20 3 21 87 22 88 23 89 24
REMARK SMILES IDX 21 25 22 26 23 27 24 28 25 29 86 30 26 31 85 32 27 33 28 34
REMARK SMILES IDX 29 35 79 36 30 37 84 38 78 39 80 40 31 41 83 42 77 43 76 44
REMARK SMILES IDX 32 46 64 47 44 48 63 49 45 50 48 51 62 52 81 53 46 54 47 55
REMARK SMILES IDX 61 57 82 58 49 59 33 60 34 61 42 62 35 63 41 64 43 65 40 66
REMARK SMILES IDX 36 67 37 68 38 69 39 70 65 71 66 72 74 73 67 74 73 75 75 76
REMARK SMILES IDX 72 77 68 78 69 79 70 80 71 81 50 82 51 83 59 84 52 85 58 86
REMARK SMILES IDX 60 87 57 88 53 89 54 90 55 91 56 92
REMARK H PARENT 5 16 80 45 48 56
REMARK Flexibility Score: inf
ROOT
ATOM      1  C   UNL A   1      35.945  20.960  25.308  1.00  0.00     0.275 C 
ENDROOT
BRANCH   1   2
ATOM      2  C   UNL A   1      35.188  21.498  26.520  1.00  0.00     0.275 C 
BRANCH   2   3
ATOM      3  O   UNL A   1      33.771  21.245  26.418  1.00  0.00    -0.458 OA
BRANCH   3   4
ATOM      4  C   UNL A   1      33.004  22.331  26.156  1.00  0.00     0.339 C 
ATOM      5  O   UNL A   1      32.419  23.017  26.973  1.00  0.00    -0.246 OA
BRANCH   4   6
ATOM      6  C   UNL A   1      33.003  22.695  24.719  1.00  0.00     0.075 A 
ATOM      7  C   UNL A   1      33.641  23.828  24.199  1.00  0.00     0.057 A 
ATOM      8  C   UNL A   1      33.764  23.987  22.806  1.00  0.00     0.057 A 
ATOM      9  C   UNL A   1      33.121  23.103  21.950  1.00  0.00     0.159 A 
ATOM     10  C   UNL A   1      32.403  21.787  23.830  1.00  0.00     0.059 A 
ATOM     11  F   UNL A   1      33.164  23.322  20.630  1.00  0.00    -0.204 F 
ATOM     12  C   UNL A   1      32.422  22.022  22.460  1.00  0.00     0.159 A 
ATOM     13  F   UNL A   1      31.772  21.188  21.641  1.00  0.00    -0.204 F 
BRANCH   7  14
ATOM     14  C   UNL A   1      34.133  24.911  25.075  1.00  0.00     0.252 C 
ATOM     15  N   UNL A   1      33.345  26.042  25.207  1.00  0.00    -0.348 N 
ATOM     16  H   UNL A   1      33.623  26.695  25.890  1.00  0.00     0.164 HD
ATOM     17  O   UNL A   1      35.198  24.788  25.668  1.00  0.00    -0.269 OA
BRANCH  15  18
ATOM     18  C   UNL A   1      32.166  26.364  24.455  1.00  0.00     0.094 C 
ATOM     19  C   UNL A   1      29.755  25.825  23.728  1.00  0.00     0.014 C 
ATOM     20  C   UNL A   1      30.727  26.149  24.851  1.00  0.00    -0.007 C 
ATOM     21  C   UNL A   1      30.420  25.360  26.099  1.00  0.00     0.014 C 
ATOM     22  C   UNL A   1      31.336  27.562  24.905  1.00  0.00    -0.007 C 
ATOM     23  C   UNL A   1      31.027  28.598  23.844  1.00  0.00     0.014 C 
ATOM     24  C   UNL A   1      31.599  28.206  26.250  1.00  0.00     0.014 C 
ENDBRANCH  15  18
ENDBRANCH   7  14
ENDBRANCH   4   6
ENDBRANCH   3   4
ENDBRANCH   2   3
ENDBRANCH   1   2
BRANCH   1  25
ATOM     25  O   UNL A   1      37.111  21.757  25.044  1.00  0.00    -0.458 OA
BRANCH  25  26
ATOM     26  C   UNL A   1      38.249  21.305  25.617  1.00  0.00     0.338 C 
ATOM     27  O   UNL A   1      38.731  20.187  25.532  1.00  0.00    -0.246 OA
BRANCH  26  28
ATOM     28  C   UNL A   1      38.921  22.407  26.313  1.00  0.00     0.060 A 
ATOM     29  C   UNL A   1      38.444  23.697  26.099  1.00  0.00     0.016 A 
ATOM     30  C   UNL A   1      40.093  22.203  27.034  1.00  0.00     0.016 A 
ATOM     31  C   UNL A   1      39.191  24.797  26.505  1.00  0.00     0.010 A 
ATOM     32  C   UNL A   1      40.785  23.310  27.541  1.00  0.00     0.010 A 
ATOM     33  C   UNL A   1      40.364  24.623  27.253  1.00  0.00    -0.014 A 
BRANCH  33  34
ATOM     34  C   UNL A   1      41.155  25.804  27.709  1.00  0.00     0.031 A 
ATOM     35  C   UNL A   1      40.506  26.868  28.560  1.00  0.00     0.074 A 
ATOM     36  C   UNL A   1      42.454  25.931  27.366  1.00  0.00     0.049 A 
ATOM     37  N   UNL A   1      40.944  28.059  28.879  1.00  0.00    -0.248 NA
ATOM     38  C   UNL A   1      39.179  26.552  29.109  1.00  0.00     0.031 C 
ATOM     39  C   UNL A   1      43.227  24.952  26.597  1.00  0.00     0.029 A 
ATOM     40  N   UNL A   1      43.359  26.934  27.618  1.00  0.00    -0.354 N 
ATOM     41  C   UNL A   1      39.925  28.658  29.616  1.00  0.00     0.074 A 
ATOM     42  C   UNL A   1      38.842  27.698  29.683  1.00  0.00     0.031 C 
ATOM     43  C   UNL A   1      44.490  25.383  26.472  1.00  0.00     0.029 A 
ATOM     44  C   UNL A   1      44.593  26.719  27.048  1.00  0.00     0.049 A 
ATOM     45  H   UNL A   1      43.145  27.731  28.156  1.00  0.00     0.167 HD
ATOM     46  C   UNL A   1      39.900  29.892  30.178  1.00  0.00     0.034 A 
ATOM     47  C   UNL A   1      45.671  27.522  26.939  1.00  0.00     0.034 A 
ATOM     48  C   UNL A   1      41.010  30.816  30.135  1.00  0.00     0.049 A 
ATOM     49  C   UNL A   1      45.595  28.913  27.510  1.00  0.00     0.074 A 
ATOM     50  C   UNL A   1      41.101  32.082  30.690  1.00  0.00     0.029 A 
ATOM     51  N   UNL A   1      42.224  30.574  29.504  1.00  0.00    -0.354 N 
ATOM     52  N   UNL A   1      44.604  29.490  28.150  1.00  0.00    -0.248 NA
ATOM     53  C   UNL A   1      46.777  29.767  27.331  1.00  0.00     0.031 C 
ATOM     54  C   UNL A   1      42.340  32.629  30.336  1.00  0.00     0.029 A 
ATOM     55  C   UNL A   1      43.056  31.678  29.628  1.00  0.00     0.049 A 
ATOM     56  H   UNL A   1      42.459  29.742  29.036  1.00  0.00     0.167 HD
ATOM     57  C   UNL A   1      45.050  30.770  28.463  1.00  0.00     0.074 A 
ATOM     58  C   UNL A   1      46.406  30.873  27.960  1.00  0.00     0.031 C 
ATOM     59  C   UNL A   1      44.398  31.771  29.107  1.00  0.00     0.034 A 
BRANCH  46  60
ATOM     60  C   UNL A   1      38.611  30.340  30.831  1.00  0.00     0.023 A 
ATOM     61  C   UNL A   1      37.586  30.978  30.111  1.00  0.00     0.031 A 
ATOM     62  C   UNL A   1      38.416  30.139  32.210  1.00  0.00     0.131 A 
ATOM     63  C   UNL A   1      36.449  31.455  30.784  1.00  0.00     0.055 A 
ATOM     64  C   UNL A   1      37.247  30.543  32.858  1.00  0.00     0.041 A 
ATOM     65  F   UNL A   1      39.366  29.554  32.956  1.00  0.00    -0.206 F 
ATOM     66  C   UNL A   1      36.261  31.219  32.148  1.00  0.00     0.022 A 
BRANCH  63  67
ATOM     67  S   UNL A   1      35.285  32.516  29.882  1.00  0.00     0.124 S 
ATOM     68  O   UNL A   1      36.148  33.623  29.476  1.00  0.00    -0.237 OA
ATOM     69  O   UNL A   1      34.824  31.640  28.811  1.00  0.00    -0.237 OA
ATOM     70  O   UNL A   1      34.280  32.856  30.887  1.00  0.00    -0.744 OA
ENDBRANCH  63  67
ENDBRANCH  46  60
BRANCH  47  71
ATOM     71  C   UNL A   1      46.877  27.066  26.188  1.00  0.00     0.023 A 
ATOM     72  C   UNL A   1      47.951  26.446  26.845  1.00  0.00     0.031 A 
ATOM     73  C   UNL A   1      46.987  27.275  24.800  1.00  0.00     0.131 A 
ATOM     74  C   UNL A   1      49.099  26.087  26.120  1.00  0.00     0.055 A 
ATOM     75  C   UNL A   1      48.104  26.859  24.075  1.00  0.00     0.041 A 
ATOM     76  F   UNL A   1      45.993  27.870  24.121  1.00  0.00    -0.206 F 
ATOM     77  C   UNL A   1      49.175  26.272  24.738  1.00  0.00     0.022 A 
BRANCH  74  78
ATOM     78  S   UNL A   1      50.535  25.450  27.028  1.00  0.00     0.124 S 
ATOM     79  O   UNL A   1      51.481  25.193  25.948  1.00  0.00    -0.237 OA
ATOM     80  O   UNL A   1      50.856  26.566  27.910  1.00  0.00    -0.237 OA
ATOM     81  O   UNL A   1      50.013  24.259  27.697  1.00  0.00    -0.744 OA
ENDBRANCH  74  78
ENDBRANCH  47  71
BRANCH  59  82
ATOM     82  C   UNL A   1      45.170  33.046  29.339  1.00  0.00     0.023 A 
ATOM     83  C   UNL A   1      45.126  34.114  28.425  1.00  0.00     0.031 A 
ATOM     84  C   UNL A   1      45.970  33.189  30.486  1.00  0.00     0.131 A 
ATOM     85  C   UNL A   1      45.908  35.257  28.649  1.00  0.00     0.055 A 
ATOM     86  C   UNL A   1      46.700  34.351  30.732  1.00  0.00     0.041 A 
ATOM     87  F   UNL A   1      46.052  32.199  31.389  1.00  0.00    -0.206 F 
ATOM     88  C   UNL A   1      46.681  35.389  29.805  1.00  0.00     0.022 A 
BRANCH  85  89
ATOM     89  S   UNL A   1      45.966  36.538  27.366  1.00  0.00     0.124 S 
ATOM     90  O   UNL A   1      46.703  37.605  28.036  1.00  0.00    -0.237 OA
ATOM     91  O   UNL A   1      46.668  35.863  26.281  1.00  0.00    -0.237 OA
ATOM     92  O   UNL A   1      44.557  36.828  27.107  1.00  0.00    -0.744 OA
ENDBRANCH  85  89
ENDBRANCH  59  82
ENDBRANCH  33  34
ENDBRANCH  26  28
ENDBRANCH  25  26
ENDBRANCH   1  25
TORSDOF 16
ENDMDL
MODEL 2
REMARK VINA RESULT:     -12.1      1.972      2.605
REMARK SMILES CC1(C)C(NC(=O)c2cc(F)c(F)cc2C(=O)OCCOC(=O)c2ccc(-c3c4nc(c(-c5cc(S(=O)(=O)[O-])ccc5F)c5ccc([nH]5)c(-c5cc(S(=O)(=O)[O-])ccc5F)c5nc(c(-c6cc(S(=O)(=O)[O-])ccc6F)c6ccc3[nH]6)C=C5)C=C4)cc2)C1(C)C
REMARK SMILES IDX 20 1 19 2 18 3 16 4 17 5 15 6 8 7 9 8 10 9 14 10 11 11 12 12
REMARK SMILES IDX 13 13 6 14 5 15 7 17 4 18 1 19 2 20 3 21 87 22 88 23 89 24
REMARK SMILES IDX 21 25 22 26 23 27 24 28 25 29 86 30 26 31 85 32 27 33 28 34
REMARK SMILES IDX 29 35 79 36 30 37 84 38 78 39 80 40 31 41 83 42 77 43 76 44
REMARK SMILES IDX 32 46 64 47 44 48 63 49 45 50 48 51 62 52 81 53 46 54 47 55
REMARK SMILES IDX 61 57 82 58 49 59 33 60 34 61 42 62 35 63 41 64 43 65 40 66
REMARK SMILES IDX 36 67 37 68 38 69 39 70 65 71 66 72 74 73 67 74 73 75 75 76
REMARK SMILES IDX 72 77 68 78 69 79 70 80 71 81 50 82 51 83 59 84 52 85 58 86
REMARK SMILES IDX 60 87 57 88 53 89 54 90 55 91 56 92
REMARK H PARENT 5 16 80 45 48 56
REMARK Flexibility Score: inf
ROOT
ATOM      1  C   UNL A   1      37.282  20.569  24.874  1.00  0.00     0.275 C 
ENDROOT
BRANCH   1   2
ATOM      2  C   UNL A   1      35.808  20.949  25.000  1.00  0.00     0.275 C 
BRANCH   2   3
ATOM      3  O   UNL A   1      35.486  22.103  24.195  1.00  0.00    -0.458 OA
BRANCH   3   4
ATOM      4  C   UNL A   1      35.270  23.250  24.884  1.00  0.00     0.339 C 
ATOM      5  O   UNL A   1      36.023  24.203  24.955  1.00  0.00    -0.246 OA
BRANCH   4   6
ATOM      6  C   UNL A   1      33.927  23.295  25.510  1.00  0.00     0.075 A 
ATOM      7  C   UNL A   1      32.775  23.751  24.858  1.00  0.00     0.057 A 
ATOM      8  C   UNL A   1      31.513  23.569  25.452  1.00  0.00     0.057 A 
ATOM      9  C   UNL A   1      31.423  23.079  26.749  1.00  0.00     0.159 A 
ATOM     10  C   UNL A   1      33.805  22.756  26.802  1.00  0.00     0.059 A 
ATOM     11  F   UNL A   1      30.224  23.003  27.338  1.00  0.00    -0.204 F 
ATOM     12  C   UNL A   1      32.567  22.698  27.430  1.00  0.00     0.159 A 
ATOM     13  F   UNL A   1      32.489  22.258  28.691  1.00  0.00    -0.204 F 
BRANCH   7  14
ATOM     14  C   UNL A   1      32.849  24.491  23.581  1.00  0.00     0.252 C 
ATOM     15  N   UNL A   1      33.153  25.841  23.634  1.00  0.00    -0.348 N 
ATOM     16  H   UNL A   1      33.324  26.288  22.774  1.00  0.00     0.164 HD
ATOM     17  O   UNL A   1      32.659  23.908  22.520  1.00  0.00    -0.269 OA
BRANCH  15  18
ATOM     18  C   UNL A   1      33.244  26.659  24.810  1.00  0.00     0.094 C 
ATOM     19  C   UNL A   1      34.089  28.778  26.006  1.00  0.00     0.014 C 
ATOM     20  C   UNL A   1      33.254  28.165  24.892  1.00  0.00    -0.007 C 
ATOM     21  C   UNL A   1      33.347  28.968  23.620  1.00  0.00     0.014 C 
ATOM     22  C   UNL A   1      31.985  27.382  25.277  1.00  0.00    -0.007 C 
ATOM     23  C   UNL A   1      31.592  27.174  26.724  1.00  0.00     0.014 C 
ATOM     24  C   UNL A   1      30.770  27.451  24.375  1.00  0.00     0.014 C 
ENDBRANCH  15  18
ENDBRANCH   7  14
ENDBRANCH   4   6
ENDBRANCH   3   4
ENDBRANCH   2   3
ENDBRANCH   1   2
BRANCH   1  25
ATOM     25  O   UNL A   1      38.123  21.676  25.240  1.00  0.00    -0.458 OA
BRANCH  25  26
ATOM     26  C   UNL A   1      39.166  21.355  26.037  1.00  0.00     0.338 C 
ATOM     27  O   UNL A   1      39.699  20.264  26.163  1.00  0.00    -0.246 OA
BRANCH  26  28
ATOM     28  C   UNL A   1      39.670  22.564  26.697  1.00  0.00     0.060 A 
ATOM     29  C   UNL A   1      39.186  23.793  26.259  1.00  0.00     0.016 A 
ATOM     30  C   UNL A   1      40.714  22.508  27.615  1.00  0.00     0.016 A 
ATOM     31  C   UNL A   1      39.812  24.972  26.647  1.00  0.00     0.010 A 
ATOM     32  C   UNL A   1      41.269  23.702  28.092  1.00  0.00     0.010 A 
ATOM     33  C   UNL A   1      40.850  24.950  27.588  1.00  0.00    -0.014 A 
BRANCH  33  34
ATOM     34  C   UNL A   1      41.508  26.217  28.022  1.00  0.00     0.031 A 
ATOM     35  C   UNL A   1      40.729  27.245  28.805  1.00  0.00     0.074 A 
ATOM     36  C   UNL A   1      42.802  26.454  27.721  1.00  0.00     0.049 A 
ATOM     37  N   UNL A   1      41.040  28.484  29.090  1.00  0.00    -0.248 NA
ATOM     38  C   UNL A   1      39.417  26.825  29.320  1.00  0.00     0.031 C 
ATOM     39  C   UNL A   1      43.694  25.525  27.021  1.00  0.00     0.029 A 
ATOM     40  N   UNL A   1      43.598  27.548  27.963  1.00  0.00    -0.354 N 
ATOM     41  C   UNL A   1      39.942  29.010  29.765  1.00  0.00     0.074 A 
ATOM     42  C   UNL A   1      38.952  27.955  29.833  1.00  0.00     0.031 C 
ATOM     43  C   UNL A   1      44.914  26.071  26.923  1.00  0.00     0.029 A 
ATOM     44  C   UNL A   1      44.868  27.430  27.447  1.00  0.00     0.049 A 
ATOM     45  H   UNL A   1      43.289  28.340  28.460  1.00  0.00     0.167 HD
ATOM     46  C   UNL A   1      39.778  30.257  30.275  1.00  0.00     0.034 A 
ATOM     47  C   UNL A   1      45.869  28.328  27.343  1.00  0.00     0.034 A 
ATOM     48  C   UNL A   1      40.797  31.280  30.233  1.00  0.00     0.049 A 
ATOM     49  C   UNL A   1      45.640  29.727  27.853  1.00  0.00     0.074 A 
ATOM     50  C   UNL A   1      40.747  32.569  30.738  1.00  0.00     0.029 A 
ATOM     51  N   UNL A   1      42.053  31.132  29.655  1.00  0.00    -0.354 N 
ATOM     52  N   UNL A   1      44.576  30.230  28.433  1.00  0.00    -0.248 NA
ATOM     53  C   UNL A   1      46.743  30.682  27.680  1.00  0.00     0.031 C 
ATOM     54  C   UNL A   1      41.941  33.219  30.406  1.00  0.00     0.029 A 
ATOM     55  C   UNL A   1      42.771  32.314  29.763  1.00  0.00     0.049 A 
ATOM     56  H   UNL A   1      42.383  30.308  29.231  1.00  0.00     0.167 HD
ATOM     57  C   UNL A   1      44.886  31.557  28.708  1.00  0.00     0.074 A 
ATOM     58  C   UNL A   1      46.245  31.770  28.250  1.00  0.00     0.031 C 
ATOM     59  C   UNL A   1      44.119  32.515  29.287  1.00  0.00     0.034 A 
BRANCH  46  60
ATOM     60  C   UNL A   1      38.428  30.604  30.862  1.00  0.00     0.023 A 
ATOM     61  C   UNL A   1      37.425  31.244  30.114  1.00  0.00     0.031 A 
ATOM     62  C   UNL A   1      38.150  30.302  32.208  1.00  0.00     0.131 A 
ATOM     63  C   UNL A   1      36.224  31.626  30.734  1.00  0.00     0.055 A 
ATOM     64  C   UNL A   1      36.922  30.610  32.797  1.00  0.00     0.041 A 
ATOM     65  F   UNL A   1      39.074  29.710  32.980  1.00  0.00    -0.206 F 
ATOM     66  C   UNL A   1      35.956  31.290  32.063  1.00  0.00     0.022 A 
BRANCH  63  67
ATOM     67  S   UNL A   1      35.074  32.693  29.823  1.00  0.00     0.124 S 
ATOM     68  O   UNL A   1      34.553  31.773  28.814  1.00  0.00    -0.237 OA
ATOM     69  O   UNL A   1      34.133  33.102  30.860  1.00  0.00    -0.237 OA
ATOM     70  O   UNL A   1      35.931  33.757  29.302  1.00  0.00    -0.744 OA
ENDBRANCH  63  67
ENDBRANCH  46  60
BRANCH  47  71
ATOM     71  C   UNL A   1      47.142  27.962  26.655  1.00  0.00     0.023 A 
ATOM     72  C   UNL A   1      47.250  28.004  25.256  1.00  0.00     0.031 A 
ATOM     73  C   UNL A   1      48.264  27.532  27.389  1.00  0.00     0.131 A 
ATOM     74  C   UNL A   1      48.441  27.592  24.636  1.00  0.00     0.055 A 
ATOM     75  C   UNL A   1      49.465  27.184  26.771  1.00  0.00     0.041 A 
ATOM     76  F   UNL A   1      48.214  27.466  28.730  1.00  0.00    -0.206 F 
ATOM     77  C   UNL A   1      49.553  27.201  25.383  1.00  0.00     0.022 A 
BRANCH  74  78
ATOM     78  S   UNL A   1      48.486  27.491  22.825  1.00  0.00     0.124 S 
ATOM     79  O   UNL A   1      48.419  26.051  22.605  1.00  0.00    -0.237 OA
ATOM     80  O   UNL A   1      47.301  28.253  22.449  1.00  0.00    -0.237 OA
ATOM     81  O   UNL A   1      49.762  28.117  22.482  1.00  0.00    -0.744 OA
ENDBRANCH  74  78
ENDBRANCH  47  71
BRANCH  59  82
ATOM     82  C   UNL A   1      44.757  33.866  29.493  1.00  0.00     0.023 A 
ATOM     83  C   UNL A   1      44.529  34.935  28.608  1.00  0.00     0.031 A 
ATOM     84  C   UNL A   1      45.615  34.082  30.585  1.00  0.00     0.131 A 
ATOM     85  C   UNL A   1      45.191  36.155  28.803  1.00  0.00     0.055 A 
ATOM     86  C   UNL A   1      46.227  35.316  30.805  1.00  0.00     0.041 A 
ATOM     87  F   UNL A   1      45.872  33.095  31.458  1.00  0.00    -0.206 F 
ATOM     88  C   UNL A   1      46.026  36.358  29.904  1.00  0.00     0.022 A 
BRANCH  85  89
ATOM     89  S   UNL A   1      45.014  37.454  27.548  1.00  0.00     0.124 S 
ATOM     90  O   UNL A   1      43.778  37.062  26.879  1.00  0.00    -0.237 OA
ATOM     91  O   UNL A   1      44.945  38.665  28.357  1.00  0.00    -0.237 OA
ATOM     92  O   UNL A   1      46.226  37.317  26.740  1.00  0.00    -0.744 OA
ENDBRANCH  85  89
ENDBRANCH  59  82
ENDBRANCH  33  34
ENDBRANCH  26  28
ENDBRANCH  25  26
ENDBRANCH   1  25
TORSDOF 16
ENDMDL
MODEL 3
REMARK VINA RESULT:     -12.1      4.949      9.745
REMARK SMILES CC1(C)C(NC(=O)c2cc(F)c(F)cc2C(=O)OCCOC(=O)c2ccc(-c3c4nc(c(-c5cc(S(=O)(=O)[O-])ccc5F)c5ccc([nH]5)c(-c5cc(S(=O)(=O)[O-])ccc5F)c5nc(c(-c6cc(S(=O)(=O)[O-])ccc6F)c6ccc3[nH]6)C=C5)C=C4)cc2)C1(C)C
REMARK SMILES IDX 20 1 19 2 18 3 16 4 17 5 15 6 8 7 9 8 10 9 14 10 11 11 12 12
REMARK SMILES IDX 13 13 6 14 5 15 7 17 4 18 1 19 2 20 3 21 87 22 88 23 89 24
REMARK SMILES IDX 21 25 22 26 23 27 24 28 25 29 86 30 26 31 85 32 27 33 28 34
REMARK SMILES IDX 29 35 79 36 30 37 84 38 78 39 80 40 31 41 83 42 77 43 76 44
REMARK SMILES IDX 32 46 64 47 44 48 63 49 45 50 48 51 62 52 81 53 46 54 47 55
REMARK SMILES IDX 61 57 82 58 49 59 33 60 34 61 42 62 35 63 41 64 43 65 40 66
REMARK SMILES IDX 36 67 37 68 38 69 39 70 65 71 66 72 74 73 67 74 73 75 75 76
REMARK SMILES IDX 72 77 68 78 69 79 70 80 71 81 50 82 51 83 59 84 52 85 58 86
REMARK SMILES IDX 60 87 57 88 53 89 54 90 55 91 56 92
REMARK H PARENT 5 16 80 45 48 56
REMARK Flexibility Score: inf
ROOT
ATOM      1  C   UNL A   1      31.820  30.227  26.381  1.00  0.00     0.275 C 
ENDROOT
BRANCH   1   2
ATOM      2  C   UNL A   1      31.732  28.951  27.215  1.00  0.00     0.275 C 
BRANCH   2   3
ATOM      3  O   UNL A   1      31.693  27.772  26.383  1.00  0.00    -0.458 OA
BRANCH   3   4
ATOM      4  C   UNL A   1      32.899  27.310  25.973  1.00  0.00     0.339 C 
ATOM      5  O   UNL A   1      33.901  27.202  26.654  1.00  0.00    -0.246 OA
BRANCH   4   6
ATOM      6  C   UNL A   1      32.880  26.834  24.569  1.00  0.00     0.075 A 
ATOM      7  C   UNL A   1      32.221  25.674  24.146  1.00  0.00     0.057 A 
ATOM      8  C   UNL A   1      32.081  25.407  22.771  1.00  0.00     0.057 A 
ATOM      9  C   UNL A   1      32.729  26.210  21.842  1.00  0.00     0.159 A 
ATOM     10  C   UNL A   1      33.485  27.659  23.605  1.00  0.00     0.059 A 
ATOM     11  F   UNL A   1      32.669  25.889  20.544  1.00  0.00    -0.204 F 
ATOM     12  C   UNL A   1      33.449  27.317  22.259  1.00  0.00     0.159 A 
ATOM     13  F   UNL A   1      34.103  28.074  21.371  1.00  0.00    -0.204 F 
BRANCH   7  14
ATOM     14  C   UNL A   1      31.721  24.671  25.109  1.00  0.00     0.252 C 
ATOM     15  N   UNL A   1      32.652  23.858  25.736  1.00  0.00    -0.348 N 
ATOM     16  H   UNL A   1      32.317  23.288  26.464  1.00  0.00     0.164 HD
ATOM     17  O   UNL A   1      30.521  24.586  25.344  1.00  0.00    -0.269 OA
BRANCH  15  18
ATOM     18  C   UNL A   1      34.051  23.760  25.434  1.00  0.00     0.094 C 
ATOM     19  C   UNL A   1      36.442  23.069  26.097  1.00  0.00     0.014 C 
ATOM     20  C   UNL A   1      35.005  22.657  25.819  1.00  0.00    -0.007 C 
ATOM     21  C   UNL A   1      34.541  21.583  26.769  1.00  0.00     0.014 C 
ATOM     22  C   UNL A   1      34.484  22.753  24.373  1.00  0.00    -0.007 C 
ATOM     23  C   UNL A   1      35.351  23.292  23.254  1.00  0.00     0.014 C 
ATOM     24  C   UNL A   1      33.506  21.715  23.867  1.00  0.00     0.014 C 
ENDBRANCH  15  18
ENDBRANCH   7  14
ENDBRANCH   4   6
ENDBRANCH   3   4
ENDBRANCH   2   3
ENDBRANCH   1   2
BRANCH   1  25
ATOM     25  O   UNL A   1      33.183  30.672  26.281  1.00  0.00    -0.458 OA
BRANCH  25  26
ATOM     26  C   UNL A   1      33.560  31.563  27.226  1.00  0.00     0.338 C 
ATOM     27  O   UNL A   1      32.890  32.461  27.710  1.00  0.00    -0.246 OA
BRANCH  26  28
ATOM     28  C   UNL A   1      34.912  31.240  27.694  1.00  0.00     0.060 A 
ATOM     29  C   UNL A   1      35.182  29.920  28.037  1.00  0.00     0.016 A 
ATOM     30  C   UNL A   1      35.849  32.237  27.947  1.00  0.00     0.016 A 
ATOM     31  C   UNL A   1      36.341  29.599  28.735  1.00  0.00     0.010 A 
ATOM     32  C   UNL A   1      37.066  31.894  28.548  1.00  0.00     0.010 A 
ATOM     33  C   UNL A   1      37.315  30.577  28.983  1.00  0.00    -0.014 A 
BRANCH  33  34
ATOM     34  C   UNL A   1      38.570  30.230  29.713  1.00  0.00     0.031 A 
ATOM     35  C   UNL A   1      39.563  29.274  29.099  1.00  0.00     0.074 A 
ATOM     36  C   UNL A   1      38.828  30.767  30.923  1.00  0.00     0.049 A 
ATOM     37  N   UNL A   1      40.594  28.682  29.646  1.00  0.00    -0.248 NA
ATOM     38  C   UNL A   1      39.354  28.926  27.685  1.00  0.00     0.031 C 
ATOM     39  C   UNL A   1      37.986  31.749  31.612  1.00  0.00     0.029 A 
ATOM     40  N   UNL A   1      39.871  30.565  31.795  1.00  0.00    -0.354 N 
ATOM     41  C   UNL A   1      41.123  27.848  28.663  1.00  0.00     0.074 A 
ATOM     42  C   UNL A   1      40.286  28.004  27.491  1.00  0.00     0.031 C 
ATOM     43  C   UNL A   1      38.562  32.089  32.774  1.00  0.00     0.029 A 
ATOM     44  C   UNL A   1      39.750  31.268  32.972  1.00  0.00     0.049 A 
ATOM     45  H   UNL A   1      40.634  29.974  31.596  1.00  0.00     0.167 HD
ATOM     46  C   UNL A   1      42.203  27.030  28.739  1.00  0.00     0.034 A 
ATOM     47  C   UNL A   1      40.470  31.219  34.111  1.00  0.00     0.034 A 
ATOM     48  C   UNL A   1      43.048  26.923  29.906  1.00  0.00     0.049 A 
ATOM     49  C   UNL A   1      41.621  30.252  34.197  1.00  0.00     0.074 A 
ATOM     50  C   UNL A   1      44.180  26.144  30.083  1.00  0.00     0.029 A 
ATOM     51  N   UNL A   1      42.858  27.618  31.094  1.00  0.00    -0.354 N 
ATOM     52  N   UNL A   1      42.073  29.424  33.284  1.00  0.00    -0.248 NA
ATOM     53  C   UNL A   1      42.350  30.202  35.472  1.00  0.00     0.031 C 
ATOM     54  C   UNL A   1      44.631  26.316  31.397  1.00  0.00     0.029 A 
ATOM     55  C   UNL A   1      43.831  27.261  32.017  1.00  0.00     0.049 A 
ATOM     56  H   UNL A   1      42.138  28.268  31.257  1.00  0.00     0.167 HD
ATOM     57  C   UNL A   1      43.149  28.766  33.870  1.00  0.00     0.074 A 
ATOM     58  C   UNL A   1      43.291  29.309  35.206  1.00  0.00     0.031 C 
ATOM     59  C   UNL A   1      43.949  27.800  33.351  1.00  0.00     0.034 A 
BRANCH  46  60
ATOM     60  C   UNL A   1      42.491  26.138  27.552  1.00  0.00     0.023 A 
ATOM     61  C   UNL A   1      41.962  24.840  27.440  1.00  0.00     0.031 A 
ATOM     62  C   UNL A   1      43.333  26.594  26.520  1.00  0.00     0.131 A 
ATOM     63  C   UNL A   1      42.336  24.021  26.362  1.00  0.00     0.055 A 
ATOM     64  C   UNL A   1      43.636  25.803  25.409  1.00  0.00     0.041 A 
ATOM     65  F   UNL A   1      43.886  27.815  26.579  1.00  0.00    -0.206 F 
ATOM     66  C   UNL A   1      43.149  24.503  25.333  1.00  0.00     0.022 A 
BRANCH  63  67
ATOM     67  S   UNL A   1      41.863  22.269  26.394  1.00  0.00     0.124 S 
ATOM     68  O   UNL A   1      40.405  22.356  26.348  1.00  0.00    -0.237 OA
ATOM     69  O   UNL A   1      42.510  21.746  25.196  1.00  0.00    -0.237 OA
ATOM     70  O   UNL A   1      42.411  21.788  27.661  1.00  0.00    -0.744 OA
ENDBRANCH  63  67
ENDBRANCH  46  60
BRANCH  47  71
ATOM     71  C   UNL A   1      40.072  32.043  35.290  1.00  0.00     0.023 A 
ATOM     72  C   UNL A   1      39.164  31.558  36.244  1.00  0.00     0.031 A 
ATOM     73  C   UNL A   1      40.572  33.348  35.463  1.00  0.00     0.131 A 
ATOM     74  C   UNL A   1      38.761  32.382  37.307  1.00  0.00     0.055 A 
ATOM     75  C   UNL A   1      40.217  34.139  36.556  1.00  0.00     0.041 A 
ATOM     76  F   UNL A   1      41.439  33.866  34.577  1.00  0.00    -0.206 F 
ATOM     77  C   UNL A   1      39.295  33.660  37.479  1.00  0.00     0.022 A 
BRANCH  74  78
ATOM     78  S   UNL A   1      37.456  31.788  38.418  1.00  0.00     0.124 S 
ATOM     79  O   UNL A   1      36.398  32.765  38.185  1.00  0.00    -0.237 OA
ATOM     80  O   UNL A   1      37.211  30.444  37.909  1.00  0.00    -0.237 OA
ATOM     81  O   UNL A   1      38.081  31.848  39.738  1.00  0.00    -0.744 OA
ENDBRANCH  74  78
ENDBRANCH  47  71
BRANCH  59  82
ATOM     82  C   UNL A   1      45.074  27.305  34.225  1.00  0.00     0.023 A 
ATOM     83  C   UNL A   1      44.917  26.199  35.078  1.00  0.00     0.031 A 
ATOM     84  C   UNL A   1      46.318  27.961  34.213  1.00  0.00     0.131 A 
ATOM     85  C   UNL A   1      45.970  25.811  35.920  1.00  0.00     0.055 A 
ATOM     86  C   UNL A   1      47.380  27.535  35.010  1.00  0.00     0.041 A 
ATOM     87  F   UNL A   1      46.521  29.026  33.421  1.00  0.00    -0.206 F 
ATOM     88  C   UNL A   1      47.205  26.462  35.880  1.00  0.00     0.022 A 
BRANCH  85  89
ATOM     89  S   UNL A   1      45.678  24.494  37.133  1.00  0.00     0.124 S 
ATOM     90  O   UNL A   1      46.842  24.619  38.003  1.00  0.00    -0.237 OA
ATOM     91  O   UNL A   1      44.400  24.886  37.718  1.00  0.00    -0.237 OA
ATOM     92  O   UNL A   1      45.639  23.281  36.318  1.00  0.00    -0.744 OA
ENDBRANCH  85  89
ENDBRANCH  59  82
ENDBRANCH  33  34
ENDBRANCH  26  28
ENDBRANCH  25  26
ENDBRANCH   1  25
TORSDOF 16
ENDMDL
