MODEL 1
REMARK VINA RESULT:     -10.9      0.000      0.000
REMARK SMILES O=C(OCCOC(=O)[C@H](CCOCC(F)(F)F)c1ccccc1Br)c1ccc(-c2c3nc(c(-c4cc(S(=O)(=O)[O-])ccc4F)c4ccc([nH]4)c(-c4cc(S(=O)(=O)[O-])ccc4F)c4nc(c(-c5cc(S(=O)(=O)[O-])ccc5F)c5ccc2[nH]5)C=C4)C=C3)cc1
REMARK SMILES IDX 5 1 4 2 3 3 2 4 1 5 25 6 26 7 87 8 27 9 86 10 28 11 29 12
REMARK SMILES IDX 30 13 80 14 31 15 85 16 79 17 81 18 32 19 84 20 78 21 77 22
REMARK SMILES IDX 33 24 65 25 45 26 64 27 46 28 49 29 63 30 82 31 47 32 48 33
REMARK SMILES IDX 62 35 83 36 50 37 34 38 35 39 43 40 36 41 42 42 44 43 41 44
REMARK SMILES IDX 37 45 38 46 39 47 40 48 66 49 67 50 75 51 68 52 74 53 76 54
REMARK SMILES IDX 73 55 69 56 70 57 71 58 72 59 51 60 52 61 60 62 53 63 59 64
REMARK SMILES IDX 61 65 58 66 54 67 55 68 56 69 57 70 6 71 7 72 8 73 9 74
REMARK SMILES IDX 18 75 19 76 23 77 20 78 22 79 24 80 21 81 10 82 11 83 12 84
REMARK SMILES IDX 13 85 14 86 15 87 16 88 17 89
REMARK H PARENT 81 23 49 34
REMARK Flexibility Score: inf
ROOT
ATOM      1  C   UNL A   1      32.158  29.540  27.146  1.00  0.00     0.274 C 
ENDROOT
BRANCH   1   2
ATOM      2  C   UNL A   1      32.953  30.753  26.648  1.00  0.00     0.275 C 
BRANCH   2   3
ATOM      3  O   UNL A   1      33.334  31.675  27.676  1.00  0.00    -0.458 OA
BRANCH   3   4
ATOM      4  C   UNL A   1      34.564  32.175  27.945  1.00  0.00     0.338 C 
ATOM      5  O   UNL A   1      34.798  33.343  27.643  1.00  0.00    -0.246 OA
BRANCH   4   6
ATOM      6  C   UNL A   1      35.712  31.320  28.397  1.00  0.00     0.060 A 
ATOM      7  C   UNL A   1      35.703  29.937  28.607  1.00  0.00     0.016 A 
ATOM      8  C   UNL A   1      36.935  31.993  28.569  1.00  0.00     0.016 A 
ATOM      9  C   UNL A   1      36.870  29.242  28.937  1.00  0.00     0.010 A 
ATOM     10  C   UNL A   1      38.117  31.293  28.825  1.00  0.00     0.010 A 
ATOM     11  C   UNL A   1      38.087  29.910  29.049  1.00  0.00    -0.014 A 
BRANCH  11  12
ATOM     12  C   UNL A   1      39.265  29.224  29.641  1.00  0.00     0.031 A 
ATOM     13  C   UNL A   1      39.675  29.641  31.027  1.00  0.00     0.074 A 
ATOM     14  C   UNL A   1      39.935  28.257  28.988  1.00  0.00     0.049 A 
ATOM     15  N   UNL A   1      40.756  29.360  31.701  1.00  0.00    -0.248 NA
ATOM     16  C   UNL A   1      38.764  30.573  31.708  1.00  0.00     0.031 C 
ATOM     17  C   UNL A   1      39.625  27.761  27.647  1.00  0.00     0.029 A 
ATOM     18  N   UNL A   1      41.024  27.514  29.373  1.00  0.00    -0.354 N 
ATOM     19  C   UNL A   1      40.688  30.152  32.843  1.00  0.00     0.074 A 
ATOM     20  C   UNL A   1      39.521  30.991  32.704  1.00  0.00     0.031 C 
ATOM     21  C   UNL A   1      40.488  26.777  27.333  1.00  0.00     0.029 A 
ATOM     22  C   UNL A   1      41.442  26.607  28.425  1.00  0.00     0.049 A 
ATOM     23  H   UNL A   1      41.464  27.619  30.247  1.00  0.00     0.167 HD
ATOM     24  C   UNL A   1      41.496  30.146  33.932  1.00  0.00     0.034 A 
ATOM     25  C   UNL A   1      42.489  25.756  28.441  1.00  0.00     0.034 A 
ATOM     26  C   UNL A   1      42.599  29.235  34.068  1.00  0.00     0.049 A 
ATOM     27  C   UNL A   1      43.377  25.738  29.666  1.00  0.00     0.074 A 
ATOM     28  C   UNL A   1      43.474  29.083  35.125  1.00  0.00     0.029 A 
ATOM     29  N   UNL A   1      42.967  28.302  33.102  1.00  0.00    -0.354 N 
ATOM     30  N   UNL A   1      43.307  26.484  30.747  1.00  0.00    -0.248 NA
ATOM     31  C   UNL A   1      44.478  24.765  29.681  1.00  0.00     0.031 C 
ATOM     32  C   UNL A   1      44.401  28.093  34.779  1.00  0.00     0.029 A 
ATOM     33  C   UNL A   1      44.061  27.577  33.536  1.00  0.00     0.049 A 
ATOM     34  H   UNL A   1      42.516  28.178  32.237  1.00  0.00     0.167 HD
ATOM     35  C   UNL A   1      44.335  26.051  31.580  1.00  0.00     0.074 A 
ATOM     36  C   UNL A   1      45.007  24.976  30.879  1.00  0.00     0.031 C 
ATOM     37  C   UNL A   1      44.691  26.494  32.814  1.00  0.00     0.034 A 
BRANCH  24  38
ATOM     38  C   UNL A   1      41.205  31.175  35.000  1.00  0.00     0.023 A 
ATOM     39  C   UNL A   1      40.156  31.003  35.924  1.00  0.00     0.031 A 
ATOM     40  C   UNL A   1      41.873  32.412  34.996  1.00  0.00     0.131 A 
ATOM     41  C   UNL A   1      39.691  32.097  36.665  1.00  0.00     0.055 A 
ATOM     42  C   UNL A   1      41.486  33.459  35.835  1.00  0.00     0.041 A 
ATOM     43  F   UNL A   1      42.876  32.645  34.136  1.00  0.00    -0.206 F 
ATOM     44  C   UNL A   1      40.365  33.319  36.650  1.00  0.00     0.022 A 
BRANCH  41  45
ATOM     45  S   UNL A   1      38.046  31.975  37.428  1.00  0.00     0.124 S 
ATOM     46  O   UNL A   1      37.317  33.028  36.725  1.00  0.00    -0.237 OA
ATOM     47  O   UNL A   1      37.652  30.607  37.111  1.00  0.00    -0.237 OA
ATOM     48  O   UNL A   1      38.303  32.242  38.842  1.00  0.00    -0.744 OA
ENDBRANCH  41  45
ENDBRANCH  24  38
BRANCH  25  49
ATOM     49  C   UNL A   1      42.773  24.878  27.266  1.00  0.00     0.023 A 
ATOM     50  C   UNL A   1      42.332  23.544  27.219  1.00  0.00     0.031 A 
ATOM     51  C   UNL A   1      43.512  25.361  26.170  1.00  0.00     0.131 A 
ATOM     52  C   UNL A   1      42.662  22.734  26.117  1.00  0.00     0.055 A 
ATOM     53  C   UNL A   1      43.798  24.566  25.058  1.00  0.00     0.041 A 
ATOM     54  F   UNL A   1      43.955  26.629  26.158  1.00  0.00    -0.206 F 
ATOM     55  C   UNL A   1      43.380  23.240  25.032  1.00  0.00     0.022 A 
BRANCH  52  56
ATOM     56  S   UNL A   1      42.186  20.981  26.144  1.00  0.00     0.124 S 
ATOM     57  O   UNL A   1      40.860  21.024  25.537  1.00  0.00    -0.237 OA
ATOM     58  O   UNL A   1      43.239  20.368  25.342  1.00  0.00    -0.237 OA
ATOM     59  O   UNL A   1      42.212  20.643  27.566  1.00  0.00    -0.744 OA
ENDBRANCH  52  56
ENDBRANCH  25  49
BRANCH  37  60
ATOM     60  C   UNL A   1      45.810  25.774  33.520  1.00  0.00     0.023 A 
ATOM     61  C   UNL A   1      45.587  24.614  34.277  1.00  0.00     0.031 A 
ATOM     62  C   UNL A   1      47.134  26.218  33.351  1.00  0.00     0.131 A 
ATOM     63  C   UNL A   1      46.676  23.942  34.853  1.00  0.00     0.055 A 
ATOM     64  C   UNL A   1      48.216  25.518  33.881  1.00  0.00     0.041 A 
ATOM     65  F   UNL A   1      47.398  27.323  32.634  1.00  0.00    -0.206 F 
ATOM     66  C   UNL A   1      47.989  24.373  34.640  1.00  0.00     0.022 A 
BRANCH  63  67
ATOM     67  S   UNL A   1      46.356  22.507  35.915  1.00  0.00     0.124 S 
ATOM     68  O   UNL A   1      45.493  23.082  36.944  1.00  0.00    -0.237 OA
ATOM     69  O   UNL A   1      45.717  21.572  34.996  1.00  0.00    -0.237 OA
ATOM     70  O   UNL A   1      47.688  22.114  36.371  1.00  0.00    -0.744 OA
ENDBRANCH  63  67
ENDBRANCH  37  60
ENDBRANCH  11  12
ENDBRANCH   4   6
ENDBRANCH   3   4
ENDBRANCH   2   3
ENDBRANCH   1   2
BRANCH   1  71
ATOM     71  O   UNL A   1      32.700  28.254  26.798  1.00  0.00    -0.462 OA
BRANCH  71  72
ATOM     72  C   UNL A   1      31.741  27.327  26.494  1.00  0.00     0.313 C 
ATOM     73  O   UNL A   1      30.804  27.061  27.230  1.00  0.00    -0.252 OA
BRANCH  72  74
ATOM     74  C   UNL A   1      31.955  26.675  25.074  1.00  0.00     0.132 C 
BRANCH  74  75
ATOM     75  C   UNL A   1      32.847  25.446  25.337  1.00  0.00    -0.019 A 
ATOM     76  C   UNL A   1      34.084  25.384  24.648  1.00  0.00     0.006 A 
ATOM     77  C   UNL A   1      32.566  24.294  26.064  1.00  0.00     0.022 A 
ATOM     78  C   UNL A   1      35.100  24.495  24.996  1.00  0.00     0.000 A 
ATOM     79  C   UNL A   1      33.613  23.486  26.562  1.00  0.00     0.016 A 
ATOM     80  Br  UNL A   1      31.142  23.157  25.382  1.00  0.00    -0.051 Br
ATOM     81  C   UNL A   1      34.895  23.606  26.036  1.00  0.00     0.001 A 
ENDBRANCH  74  75
BRANCH  74  82
ATOM     82  C   UNL A   1      30.467  26.838  24.609  1.00  0.00     0.048 C 
BRANCH  82  83
ATOM     83  C   UNL A   1      29.650  27.517  23.516  1.00  0.00     0.162 C 
BRANCH  83  84
ATOM     84  O   UNL A   1      30.310  28.027  22.392  1.00  0.00    -0.372 OA
BRANCH  84  85
ATOM     85  C   UNL A   1      30.300  29.449  22.271  1.00  0.00     0.275 C 
BRANCH  85  86
ATOM     86  C   UNL A   1      28.979  30.231  22.213  1.00  0.00     0.411 C 
ATOM     87  F   UNL A   1      28.107  29.677  21.343  1.00  0.00    -0.168 F 
ATOM     88  F   UNL A   1      28.373  30.289  23.423  1.00  0.00    -0.168 F 
ATOM     89  F   UNL A   1      29.205  31.501  21.806  1.00  0.00    -0.168 F 
ENDBRANCH  85  86
ENDBRANCH  84  85
ENDBRANCH  83  84
ENDBRANCH  82  83
ENDBRANCH  74  82
ENDBRANCH  72  74
ENDBRANCH  71  72
ENDBRANCH   1  71
TORSDOF 20
ENDMDL
MODEL 2
REMARK VINA RESULT:     -10.7      5.576     10.550
REMARK SMILES O=C(OCCOC(=O)[C@H](CCOCC(F)(F)F)c1ccccc1Br)c1ccc(-c2c3nc(c(-c4cc(S(=O)(=O)[O-])ccc4F)c4ccc([nH]4)c(-c4cc(S(=O)(=O)[O-])ccc4F)c4nc(c(-c5cc(S(=O)(=O)[O-])ccc5F)c5ccc2[nH]5)C=C4)C=C3)cc1
REMARK SMILES IDX 5 1 4 2 3 3 2 4 1 5 25 6 26 7 87 8 27 9 86 10 28 11 29 12
REMARK SMILES IDX 30 13 80 14 31 15 85 16 79 17 81 18 32 19 84 20 78 21 77 22
REMARK SMILES IDX 33 24 65 25 45 26 64 27 46 28 49 29 63 30 82 31 47 32 48 33
REMARK SMILES IDX 62 35 83 36 50 37 34 38 35 39 43 40 36 41 42 42 44 43 41 44
REMARK SMILES IDX 37 45 38 46 39 47 40 48 66 49 67 50 75 51 68 52 74 53 76 54
REMARK SMILES IDX 73 55 69 56 70 57 71 58 72 59 51 60 52 61 60 62 53 63 59 64
REMARK SMILES IDX 61 65 58 66 54 67 55 68 56 69 57 70 6 71 7 72 8 73 9 74
REMARK SMILES IDX 18 75 19 76 23 77 20 78 22 79 24 80 21 81 10 82 11 83 12 84
REMARK SMILES IDX 13 85 14 86 15 87 16 88 17 89
REMARK H PARENT 81 23 49 34
REMARK Flexibility Score: inf
ROOT
ATOM      1  C   UNL A   1      35.809  20.335  24.992  1.00  0.00     0.274 C 
ENDROOT
BRANCH   1   2
ATOM      2  C   UNL A   1      37.275  20.747  24.807  1.00  0.00     0.275 C 
BRANCH   2   3
ATOM      3  O   UNL A   1      38.141  20.357  25.879  1.00  0.00    -0.458 OA
BRANCH   3   4
ATOM      4  C   UNL A   1      39.419  20.743  26.111  1.00  0.00     0.338 C 
ATOM      5  O   UNL A   1      40.285  19.874  26.194  1.00  0.00    -0.246 OA
BRANCH   4   6
ATOM      6  C   UNL A   1      39.794  22.149  26.478  1.00  0.00     0.060 A 
ATOM      7  C   UNL A   1      39.120  23.322  26.124  1.00  0.00     0.016 A 
ATOM      8  C   UNL A   1      40.915  22.276  27.317  1.00  0.00     0.016 A 
ATOM      9  C   UNL A   1      39.519  24.570  26.612  1.00  0.00     0.010 A 
ATOM     10  C   UNL A   1      41.273  23.510  27.868  1.00  0.00     0.010 A 
ATOM     11  C   UNL A   1      40.598  24.677  27.488  1.00  0.00    -0.014 A 
BRANCH  11  12
ATOM     12  C   UNL A   1      41.174  26.009  27.804  1.00  0.00     0.031 A 
ATOM     13  C   UNL A   1      42.537  26.315  27.244  1.00  0.00     0.074 A 
ATOM     14  C   UNL A   1      40.513  26.922  28.540  1.00  0.00     0.049 A 
ATOM     15  N   UNL A   1      43.351  27.299  27.512  1.00  0.00    -0.248 NA
ATOM     16  C   UNL A   1      43.081  25.319  26.310  1.00  0.00     0.031 C 
ATOM     17  C   UNL A   1      39.185  26.743  29.127  1.00  0.00     0.029 A 
ATOM     18  N   UNL A   1      40.877  28.190  28.921  1.00  0.00    -0.354 N 
ATOM     19  C   UNL A   1      44.531  26.986  26.844  1.00  0.00     0.074 A 
ATOM     20  C   UNL A   1      44.350  25.678  26.260  1.00  0.00     0.031 C 
ATOM     21  C   UNL A   1      38.835  27.872  29.770  1.00  0.00     0.029 A 
ATOM     22  C   UNL A   1      39.931  28.833  29.686  1.00  0.00     0.049 A 
ATOM     23  H   UNL A   1      41.734  28.602  28.668  1.00  0.00     0.167 HD
ATOM     24  C   UNL A   1      45.647  27.740  26.689  1.00  0.00     0.034 A 
ATOM     25  C   UNL A   1      39.965  30.052  30.265  1.00  0.00     0.034 A 
ATOM     26  C   UNL A   1      45.755  29.073  27.216  1.00  0.00     0.049 A 
ATOM     27  C   UNL A   1      41.204  30.899  30.073  1.00  0.00     0.074 A 
ATOM     28  C   UNL A   1      46.799  29.969  27.102  1.00  0.00     0.029 A 
ATOM     29  N   UNL A   1      44.759  29.707  27.953  1.00  0.00    -0.354 N 
ATOM     30  N   UNL A   1      42.317  30.603  29.438  1.00  0.00    -0.248 NA
ATOM     31  C   UNL A   1      41.195  32.242  30.668  1.00  0.00     0.031 C 
ATOM     32  C   UNL A   1      46.456  31.125  27.813  1.00  0.00     0.029 A 
ATOM     33  C   UNL A   1      45.167  30.979  28.307  1.00  0.00     0.049 A 
ATOM     34  H   UNL A   1      43.890  29.307  28.188  1.00  0.00     0.167 HD
ATOM     35  C   UNL A   1      43.126  31.731  29.531  1.00  0.00     0.074 A 
ATOM     36  C   UNL A   1      42.373  32.716  30.281  1.00  0.00     0.031 C 
ATOM     37  C   UNL A   1      44.375  31.942  29.040  1.00  0.00     0.034 A 
BRANCH  24  38
ATOM     38  C   UNL A   1      46.804  27.100  25.957  1.00  0.00     0.023 A 
ATOM     39  C   UNL A   1      47.762  26.320  26.632  1.00  0.00     0.031 A 
ATOM     40  C   UNL A   1      47.045  27.403  24.606  1.00  0.00     0.131 A 
ATOM     41  C   UNL A   1      48.987  26.031  26.016  1.00  0.00     0.055 A 
ATOM     42  C   UNL A   1      48.214  26.997  23.959  1.00  0.00     0.041 A 
ATOM     43  F   UNL A   1      46.176  28.149  23.906  1.00  0.00    -0.206 F 
ATOM     44  C   UNL A   1      49.211  26.339  24.674  1.00  0.00     0.022 A 
BRANCH  41  45
ATOM     45  S   UNL A   1      50.368  25.498  27.070  1.00  0.00     0.124 S 
ATOM     46  O   UNL A   1      50.537  26.658  27.941  1.00  0.00    -0.237 OA
ATOM     47  O   UNL A   1      49.835  24.297  27.705  1.00  0.00    -0.237 OA
ATOM     48  O   UNL A   1      51.458  25.274  26.122  1.00  0.00    -0.744 OA
ENDBRANCH  41  45
ENDBRANCH  24  38
BRANCH  25  49
ATOM     49  C   UNL A   1      38.818  30.534  31.092  1.00  0.00     0.023 A 
ATOM     50  C   UNL A   1      37.712  31.179  30.515  1.00  0.00     0.031 A 
ATOM     51  C   UNL A   1      38.822  30.368  32.490  1.00  0.00     0.131 A 
ATOM     52  C   UNL A   1      36.674  31.663  31.333  1.00  0.00     0.055 A 
ATOM     53  C   UNL A   1      37.768  30.809  33.293  1.00  0.00     0.041 A 
ATOM     54  F   UNL A   1      39.851  29.754  33.097  1.00  0.00    -0.206 F 
ATOM     55  C   UNL A   1      36.690  31.470  32.715  1.00  0.00     0.022 A 
BRANCH  52  56
ATOM     56  S   UNL A   1      35.321  32.603  30.569  1.00  0.00     0.124 S 
ATOM     57  O   UNL A   1      34.319  32.596  31.629  1.00  0.00    -0.237 OA
ATOM     58  O   UNL A   1      35.958  33.886  30.297  1.00  0.00    -0.237 OA
ATOM     59  O   UNL A   1      34.984  31.814  29.385  1.00  0.00    -0.744 OA
ENDBRANCH  52  56
ENDBRANCH  25  49
BRANCH  37  60
ATOM     60  C   UNL A   1      44.981  33.308  29.231  1.00  0.00     0.023 A 
ATOM     61  C   UNL A   1      44.712  34.369  28.354  1.00  0.00     0.031 A 
ATOM     62  C   UNL A   1      45.771  33.562  30.367  1.00  0.00     0.131 A 
ATOM     63  C   UNL A   1      45.245  35.640  28.619  1.00  0.00     0.055 A 
ATOM     64  C   UNL A   1      46.254  34.838  30.654  1.00  0.00     0.041 A 
ATOM     65  F   UNL A   1      46.053  32.578  31.236  1.00  0.00    -0.206 F 
ATOM     66  C   UNL A   1      45.993  35.885  29.775  1.00  0.00     0.022 A 
BRANCH  63  67
ATOM     67  S   UNL A   1      44.975  36.971  27.417  1.00  0.00     0.124 S 
ATOM     68  O   UNL A   1      46.136  36.827  26.544  1.00  0.00    -0.237 OA
ATOM     69  O   UNL A   1      43.688  36.610  26.832  1.00  0.00    -0.237 OA
ATOM     70  O   UNL A   1      44.963  38.179  28.240  1.00  0.00    -0.744 OA
ENDBRANCH  63  67
ENDBRANCH  37  60
ENDBRANCH  11  12
ENDBRANCH   4   6
ENDBRANCH   3   4
ENDBRANCH   2   3
ENDBRANCH   1   2
BRANCH   1  71
ATOM     71  O   UNL A   1      34.846  21.398  24.890  1.00  0.00    -0.462 OA
BRANCH  71  72
ATOM     72  C   UNL A   1      34.171  21.630  26.057  1.00  0.00     0.313 C 
ATOM     73  O   UNL A   1      34.662  21.473  27.162  1.00  0.00    -0.252 OA
BRANCH  72  74
ATOM     74  C   UNL A   1      32.706  22.163  25.815  1.00  0.00     0.132 C 
BRANCH  74  75
ATOM     75  C   UNL A   1      32.871  23.679  25.598  1.00  0.00    -0.019 A 
ATOM     76  C   UNL A   1      31.921  24.530  26.217  1.00  0.00     0.006 A 
ATOM     77  C   UNL A   1      33.752  24.359  24.762  1.00  0.00     0.022 A 
ATOM     78  C   UNL A   1      32.107  25.906  26.344  1.00  0.00     0.000 A 
ATOM     79  C   UNL A   1      34.067  25.715  25.001  1.00  0.00     0.016 A 
ATOM     80  Br  UNL A   1      33.535  24.074  22.850  1.00  0.00    -0.051 Br
ATOM     81  C   UNL A   1      33.246  26.487  25.818  1.00  0.00     0.001 A 
ENDBRANCH  74  75
BRANCH  74  82
ATOM     82  C   UNL A   1      32.274  20.987  24.872  1.00  0.00     0.048 C 
BRANCH  82  83
ATOM     83  C   UNL A   1      32.167  20.655  23.388  1.00  0.00     0.162 C 
BRANCH  83  84
ATOM     84  O   UNL A   1      32.634  19.416  22.934  1.00  0.00    -0.372 OA
BRANCH  84  85
ATOM     85  C   UNL A   1      32.817  18.426  23.945  1.00  0.00     0.275 C 
BRANCH  85  86
ATOM     86  C   UNL A   1      33.730  17.212  23.712  1.00  0.00     0.411 C 
ATOM     87  F   UNL A   1      33.126  16.057  24.064  1.00  0.00    -0.168 F 
ATOM     88  F   UNL A   1      34.103  17.104  22.415  1.00  0.00    -0.168 F 
ATOM     89  F   UNL A   1      34.855  17.324  24.454  1.00  0.00    -0.168 F 
ENDBRANCH  85  86
ENDBRANCH  84  85
ENDBRANCH  83  84
ENDBRANCH  82  83
ENDBRANCH  74  82
ENDBRANCH  72  74
ENDBRANCH  71  72
ENDBRANCH   1  71
TORSDOF 20
ENDMDL
MODEL 3
REMARK VINA RESULT:     -10.7      5.457     10.559
REMARK SMILES O=C(OCCOC(=O)[C@H](CCOCC(F)(F)F)c1ccccc1Br)c1ccc(-c2c3nc(c(-c4cc(S(=O)(=O)[O-])ccc4F)c4ccc([nH]4)c(-c4cc(S(=O)(=O)[O-])ccc4F)c4nc(c(-c5cc(S(=O)(=O)[O-])ccc5F)c5ccc2[nH]5)C=C4)C=C3)cc1
REMARK SMILES IDX 5 1 4 2 3 3 2 4 1 5 25 6 26 7 87 8 27 9 86 10 28 11 29 12
REMARK SMILES IDX 30 13 80 14 31 15 85 16 79 17 81 18 32 19 84 20 78 21 77 22
REMARK SMILES IDX 33 24 65 25 45 26 64 27 46 28 49 29 63 30 82 31 47 32 48 33
REMARK SMILES IDX 62 35 83 36 50 37 34 38 35 39 43 40 36 41 42 42 44 43 41 44
REMARK SMILES IDX 37 45 38 46 39 47 40 48 66 49 67 50 75 51 68 52 74 53 76 54
REMARK SMILES IDX 73 55 69 56 70 57 71 58 72 59 51 60 52 61 60 62 53 63 59 64
REMARK SMILES IDX 61 65 58 66 54 67 55 68 56 69 57 70 6 71 7 72 8 73 9 74
REMARK SMILES IDX 18 75 19 76 23 77 20 78 22 79 24 80 21 81 10 82 11 83 12 84
REMARK SMILES IDX 13 85 14 86 15 87 16 88 17 89
REMARK H PARENT 81 23 49 34
REMARK Flexibility Score: inf
ROOT
ATOM      1  C   UNL A   1      36.703  22.216  25.564  1.00  0.00     0.274 C 
ENDROOT
BRANCH   1   2
ATOM      2  C   UNL A   1      37.603  20.998  25.320  1.00  0.00     0.275 C 
BRANCH   2   3
ATOM      3  O   UNL A   1      39.007  21.281  25.355  1.00  0.00    -0.458 OA
BRANCH   3   4
ATOM      4  C   UNL A   1      39.774  21.606  26.424  1.00  0.00     0.338 C 
ATOM      5  O   UNL A   1      40.108  20.710  27.196  1.00  0.00    -0.246 OA
BRANCH   4   6
ATOM      6  C   UNL A   1      40.059  23.024  26.823  1.00  0.00     0.060 A 
ATOM      7  C   UNL A   1      39.383  24.173  26.399  1.00  0.00     0.016 A 
ATOM      8  C   UNL A   1      41.084  23.190  27.771  1.00  0.00     0.016 A 
ATOM      9  C   UNL A   1      39.686  25.433  26.922  1.00  0.00     0.010 A 
ATOM     10  C   UNL A   1      41.340  24.436  28.352  1.00  0.00     0.010 A 
ATOM     11  C   UNL A   1      40.665  25.578  27.903  1.00  0.00    -0.014 A 
BRANCH  11  12
ATOM     12  C   UNL A   1      41.158  26.930  28.272  1.00  0.00     0.031 A 
ATOM     13  C   UNL A   1      42.568  27.276  27.877  1.00  0.00     0.074 A 
ATOM     14  C   UNL A   1      40.386  27.826  28.915  1.00  0.00     0.049 A 
ATOM     15  N   UNL A   1      43.314  28.286  28.230  1.00  0.00    -0.248 NA
ATOM     16  C   UNL A   1      43.251  26.291  27.025  1.00  0.00     0.031 C 
ATOM     17  C   UNL A   1      39.003  27.609  29.339  1.00  0.00     0.029 A 
ATOM     18  N   UNL A   1      40.661  29.107  29.323  1.00  0.00    -0.354 N 
ATOM     19  C   UNL A   1      44.574  28.006  27.713  1.00  0.00     0.074 A 
ATOM     20  C   UNL A   1      44.505  26.689  27.124  1.00  0.00     0.031 C 
ATOM     21  C   UNL A   1      38.543  28.730  29.924  1.00  0.00     0.029 A 
ATOM     22  C   UNL A   1      39.611  29.725  29.963  1.00  0.00     0.049 A 
ATOM     23  H   UNL A   1      41.530  29.544  29.171  1.00  0.00     0.167 HD
ATOM     24  C   UNL A   1      45.677  28.795  27.685  1.00  0.00     0.034 A 
ATOM     25  C   UNL A   1      39.538  30.948  30.529  1.00  0.00     0.034 A 
ATOM     26  C   UNL A   1      45.680  30.133  28.208  1.00  0.00     0.049 A 
ATOM     27  C   UNL A   1      40.765  31.832  30.479  1.00  0.00     0.074 A 
ATOM     28  C   UNL A   1      46.703  31.061  28.211  1.00  0.00     0.029 A 
ATOM     29  N   UNL A   1      44.583  30.740  28.813  1.00  0.00    -0.354 N 
ATOM     30  N   UNL A   1      41.954  31.567  29.985  1.00  0.00    -0.248 NA
ATOM     31  C   UNL A   1      40.643  33.179  31.055  1.00  0.00     0.031 C 
ATOM     32  C   UNL A   1      46.241  32.211  28.863  1.00  0.00     0.029 A 
ATOM     33  C   UNL A   1      44.907  32.027  29.201  1.00  0.00     0.049 A 
ATOM     34  H   UNL A   1      43.706  30.315  28.946  1.00  0.00     0.167 HD
ATOM     35  C   UNL A   1      42.712  32.722  30.164  1.00  0.00     0.074 A 
ATOM     36  C   UNL A   1      41.844  33.687  30.808  1.00  0.00     0.031 C 
ATOM     37  C   UNL A   1      44.003  32.968  29.824  1.00  0.00     0.034 A 
BRANCH  24  38
ATOM     38  C   UNL A   1      46.933  28.187  27.103  1.00  0.00     0.023 A 
ATOM     39  C   UNL A   1      47.268  28.347  25.745  1.00  0.00     0.031 A 
ATOM     40  C   UNL A   1      47.717  27.306  27.869  1.00  0.00     0.131 A 
ATOM     41  C   UNL A   1      48.226  27.509  25.159  1.00  0.00     0.055 A 
ATOM     42  C   UNL A   1      48.760  26.570  27.303  1.00  0.00     0.041 A 
ATOM     43  F   UNL A   1      47.446  27.102  29.167  1.00  0.00    -0.206 F 
ATOM     44  C   UNL A   1      48.996  26.640  25.933  1.00  0.00     0.022 A 
BRANCH  41  45
ATOM     45  S   UNL A   1      48.255  27.382  23.346  1.00  0.00     0.124 S 
ATOM     46  O   UNL A   1      48.160  25.937  23.152  1.00  0.00    -0.237 OA
ATOM     47  O   UNL A   1      47.082  28.155  22.957  1.00  0.00    -0.237 OA
ATOM     48  O   UNL A   1      49.542  27.969  22.981  1.00  0.00    -0.744 OA
ENDBRANCH  41  45
ENDBRANCH  24  38
BRANCH  25  49
ATOM     49  C   UNL A   1      38.286  31.398  31.208  1.00  0.00     0.023 A 
ATOM     50  C   UNL A   1      37.228  31.983  30.492  1.00  0.00     0.031 A 
ATOM     51  C   UNL A   1      38.136  31.264  32.602  1.00  0.00     0.131 A 
ATOM     52  C   UNL A   1      36.085  32.440  31.174  1.00  0.00     0.055 A 
ATOM     53  C   UNL A   1      36.981  31.677  33.268  1.00  0.00     0.041 A 
ATOM     54  F   UNL A   1      39.113  30.708  33.337  1.00  0.00    -0.206 F 
ATOM     55  C   UNL A   1      35.950  32.279  32.554  1.00  0.00     0.022 A 
BRANCH  52  56
ATOM     56  S   UNL A   1      34.792  33.304  30.236  1.00  0.00     0.124 S 
ATOM     57  O   UNL A   1      34.328  32.256  29.334  1.00  0.00    -0.237 OA
ATOM     58  O   UNL A   1      33.864  33.699  31.291  1.00  0.00    -0.237 OA
ATOM     59  O   UNL A   1      35.511  34.405  29.598  1.00  0.00    -0.744 OA
ENDBRANCH  52  56
ENDBRANCH  25  49
BRANCH  37  60
ATOM     60  C   UNL A   1      44.540  34.354  30.072  1.00  0.00     0.023 A 
ATOM     61  C   UNL A   1      44.491  35.357  29.092  1.00  0.00     0.031 A 
ATOM     62  C   UNL A   1      45.028  34.689  31.348  1.00  0.00     0.131 A 
ATOM     63  C   UNL A   1      44.938  36.651  29.401  1.00  0.00     0.055 A 
ATOM     64  C   UNL A   1      45.421  35.988  31.666  1.00  0.00     0.041 A 
ATOM     65  F   UNL A   1      45.092  33.763  32.319  1.00  0.00    -0.206 F 
ATOM     66  C   UNL A   1      45.380  36.977  30.687  1.00  0.00     0.022 A 
BRANCH  63  67
ATOM     67  S   UNL A   1      44.965  37.903  28.090  1.00  0.00     0.124 S 
ATOM     68  O   UNL A   1      45.276  39.117  28.840  1.00  0.00    -0.237 OA
ATOM     69  O   UNL A   1      46.018  37.412  27.207  1.00  0.00    -0.237 OA
ATOM     70  O   UNL A   1      43.615  37.846  27.534  1.00  0.00    -0.744 OA
ENDBRANCH  63  67
ENDBRANCH  37  60
ENDBRANCH  11  12
ENDBRANCH   4   6
ENDBRANCH   3   4
ENDBRANCH   2   3
ENDBRANCH   1   2
BRANCH   1  71
ATOM     71  O   UNL A   1      36.647  23.174  24.493  1.00  0.00    -0.462 OA
BRANCH  71  72
ATOM     72  C   UNL A   1      35.473  23.134  23.793  1.00  0.00     0.313 C 
ATOM     73  O   UNL A   1      35.414  22.994  22.583  1.00  0.00    -0.252 OA
BRANCH  72  74
ATOM     74  C   UNL A   1      34.206  23.245  24.726  1.00  0.00     0.132 C 
BRANCH  74  75
ATOM     75  C   UNL A   1      33.838  24.742  24.713  1.00  0.00    -0.019 A 
ATOM     76  C   UNL A   1      33.431  25.321  25.941  1.00  0.00     0.006 A 
ATOM     77  C   UNL A   1      33.715  25.608  23.630  1.00  0.00     0.022 A 
ATOM     78  C   UNL A   1      33.348  26.699  26.136  1.00  0.00     0.000 A 
ATOM     79  C   UNL A   1      33.802  27.006  23.816  1.00  0.00     0.016 A 
ATOM     80  Br  UNL A   1      32.301  25.214  22.354  1.00  0.00    -0.051 Br
ATOM     81  C   UNL A   1      33.638  27.551  25.086  1.00  0.00     0.001 A 
ENDBRANCH  74  75
BRANCH  74  82
ATOM     82  C   UNL A   1      33.497  21.963  24.169  1.00  0.00     0.048 C 
BRANCH  82  83
ATOM     83  C   UNL A   1      32.187  21.196  24.307  1.00  0.00     0.162 C 
BRANCH  83  84
ATOM     84  O   UNL A   1      32.214  19.891  24.811  1.00  0.00    -0.372 OA
BRANCH  84  85
ATOM     85  C   UNL A   1      33.516  19.355  25.046  1.00  0.00     0.275 C 
BRANCH  85  86
ATOM     86  C   UNL A   1      33.950  18.020  24.420  1.00  0.00     0.411 C 
ATOM     87  F   UNL A   1      35.294  17.886  24.411  1.00  0.00    -0.168 F 
ATOM     88  F   UNL A   1      33.434  16.960  25.085  1.00  0.00    -0.168 F 
ATOM     89  F   UNL A   1      33.527  17.946  23.138  1.00  0.00    -0.168 F 
ENDBRANCH  85  86
ENDBRANCH  84  85
ENDBRANCH  83  84
ENDBRANCH  82  83
ENDBRANCH  74  82
ENDBRANCH  72  74
ENDBRANCH  71  72
ENDBRANCH   1  71
TORSDOF 20
ENDMDL
