MODEL 1
REMARK VINA RESULT:     -12.0      0.000      0.000
REMARK SMILES O=C(OCCOC(=O)c1cccc(Nc2ccnc3ccc(F)cc23)c1)c1ccc(-c2c3nc(c(-c4cc(S(=O)(=O)[O-])ccc4F)c4ccc([nH]4)c(-c4cc(S(=O)(=O)[O-])ccc4F)c4nc(c(-c5cc(S(=O)(=O)[O-])ccc5F)c5ccc2[nH]5)C=C4)C=C3)cc1
REMARK SMILES IDX 4 1 3 2 2 3 1 4 27 5 28 6 89 7 29 8 88 9 30 10 31 11 32 12
REMARK SMILES IDX 82 13 33 14 87 15 81 16 83 17 34 18 86 19 80 20 79 21 35 23
REMARK SMILES IDX 67 24 47 25 66 26 48 27 51 28 65 29 84 30 49 31 50 32 64 34
REMARK SMILES IDX 85 35 52 36 36 37 37 38 45 39 38 40 44 41 46 42 43 43 39 44
REMARK SMILES IDX 40 45 41 46 42 47 68 48 69 49 77 50 70 51 76 52 78 53 75 54
REMARK SMILES IDX 71 55 72 56 73 57 74 58 53 59 54 60 62 61 55 62 61 63 63 64
REMARK SMILES IDX 60 65 56 66 57 67 58 68 59 69 5 70 6 71 7 72 8 73 9 74 10 75
REMARK SMILES IDX 26 76 11 77 13 78 12 79 14 80 15 82 16 83 25 84 17 85 19 86
REMARK SMILES IDX 24 87 18 88 20 89 22 90 21 91 23 92
REMARK H PARENT 83 22 51 33 14 81
REMARK Flexibility Score: inf
ROOT
ATOM      1  C   UNL A   1      36.897  23.175  25.037  1.00  0.00     0.275 C 
ENDROOT
BRANCH   1   2
ATOM      2  O   UNL A   1      37.730  22.367  25.889  1.00  0.00    -0.458 OA
BRANCH   2   3
ATOM      3  C   UNL A   1      38.991  22.655  26.311  1.00  0.00     0.338 C 
ATOM      4  O   UNL A   1      39.812  21.750  26.432  1.00  0.00    -0.246 OA
BRANCH   3   5
ATOM      5  C   UNL A   1      39.325  24.000  26.857  1.00  0.00     0.060 A 
ATOM      6  C   UNL A   1      39.027  24.440  28.150  1.00  0.00     0.016 A 
ATOM      7  C   UNL A   1      39.978  24.879  25.983  1.00  0.00     0.016 A 
ATOM      8  C   UNL A   1      39.501  25.674  28.610  1.00  0.00     0.010 A 
ATOM      9  C   UNL A   1      40.442  26.115  26.434  1.00  0.00     0.010 A 
ATOM     10  C   UNL A   1      40.229  26.510  27.762  1.00  0.00    -0.014 A 
BRANCH  10  11
ATOM     11  C   UNL A   1      40.629  27.868  28.194  1.00  0.00     0.031 A 
ATOM     12  C   UNL A   1      42.093  28.162  28.322  1.00  0.00     0.074 A 
ATOM     13  C   UNL A   1      39.711  28.805  28.499  1.00  0.00     0.049 A 
ATOM     14  N   UNL A   1      42.687  29.267  28.682  1.00  0.00    -0.248 NA
ATOM     15  C   UNL A   1      43.007  27.058  27.991  1.00  0.00     0.031 C 
ATOM     16  C   UNL A   1      38.262  28.645  28.386  1.00  0.00     0.029 A 
ATOM     17  N   UNL A   1      39.864  30.071  29.004  1.00  0.00    -0.354 N 
ATOM     18  C   UNL A   1      44.048  29.008  28.566  1.00  0.00     0.074 A 
ATOM     19  C   UNL A   1      44.185  27.611  28.217  1.00  0.00     0.031 C 
ATOM     20  C   UNL A   1      37.657  29.734  28.893  1.00  0.00     0.029 A 
ATOM     21  C   UNL A   1      38.677  30.680  29.339  1.00  0.00     0.049 A 
ATOM     22  H   UNL A   1      40.742  30.504  29.116  1.00  0.00     0.167 HD
ATOM     23  C   UNL A   1      45.086  29.870  28.681  1.00  0.00     0.034 A 
ATOM     24  C   UNL A   1      38.448  31.862  29.947  1.00  0.00     0.034 A 
ATOM     25  C   UNL A   1      44.931  31.242  29.089  1.00  0.00     0.049 A 
ATOM     26  C   UNL A   1      39.622  32.764  30.232  1.00  0.00     0.074 A 
ATOM     27  C   UNL A   1      45.897  32.220  29.236  1.00  0.00     0.029 A 
ATOM     28  N   UNL A   1      43.720  31.819  29.452  1.00  0.00    -0.354 N 
ATOM     29  N   UNL A   1      40.900  32.544  30.021  1.00  0.00    -0.248 NA
ATOM     30  C   UNL A   1      39.323  34.088  30.792  1.00  0.00     0.031 C 
ATOM     31  C   UNL A   1      45.277  33.369  29.745  1.00  0.00     0.029 A 
ATOM     32  C   UNL A   1      43.916  33.129  29.857  1.00  0.00     0.049 A 
ATOM     33  H   UNL A   1      42.848  31.363  29.425  1.00  0.00     0.167 HD
ATOM     34  C   UNL A   1      41.553  33.722  30.370  1.00  0.00     0.074 A 
ATOM     35  C   UNL A   1      40.527  34.643  30.821  1.00  0.00     0.031 C 
ATOM     36  C   UNL A   1      42.875  34.027  30.300  1.00  0.00     0.034 A 
BRANCH  23  37
ATOM     37  C   UNL A   1      46.451  29.310  28.373  1.00  0.00     0.023 A 
ATOM     38  C   UNL A   1      46.841  29.060  27.042  1.00  0.00     0.031 A 
ATOM     39  C   UNL A   1      47.316  28.905  29.400  1.00  0.00     0.131 A 
ATOM     40  C   UNL A   1      48.003  28.320  26.779  1.00  0.00     0.055 A 
ATOM     41  C   UNL A   1      48.518  28.246  29.127  1.00  0.00     0.041 A 
ATOM     42  F   UNL A   1      46.987  29.098  30.687  1.00  0.00    -0.206 F 
ATOM     43  C   UNL A   1      48.855  27.929  27.813  1.00  0.00     0.022 A 
BRANCH  40  44
ATOM     44  S   UNL A   1      48.274  27.713  25.091  1.00  0.00     0.124 S 
ATOM     45  O   UNL A   1      48.118  26.271  25.267  1.00  0.00    -0.237 OA
ATOM     46  O   UNL A   1      47.216  28.381  24.341  1.00  0.00    -0.237 OA
ATOM     47  O   UNL A   1      49.633  28.153  24.782  1.00  0.00    -0.744 OA
ENDBRANCH  40  44
ENDBRANCH  23  37
BRANCH  24  48
ATOM     48  C   UNL A   1      37.067  32.245  30.354  1.00  0.00     0.023 A 
ATOM     49  C   UNL A   1      36.185  32.895  29.477  1.00  0.00     0.031 A 
ATOM     50  C   UNL A   1      36.628  31.995  31.668  1.00  0.00     0.131 A 
ATOM     51  C   UNL A   1      34.922  33.308  29.935  1.00  0.00     0.055 A 
ATOM     52  C   UNL A   1      35.362  32.382  32.111  1.00  0.00     0.041 A 
ATOM     53  F   UNL A   1      37.428  31.360  32.538  1.00  0.00    -0.206 F 
ATOM     54  C   UNL A   1      34.504  33.053  31.244  1.00  0.00     0.022 A 
BRANCH  51  55
ATOM     55  S   UNL A   1      33.845  34.234  28.804  1.00  0.00     0.124 S 
ATOM     56  O   UNL A   1      32.838  34.763  29.716  1.00  0.00    -0.237 OA
ATOM     57  O   UNL A   1      34.773  35.206  28.238  1.00  0.00    -0.237 OA
ATOM     58  O   UNL A   1      33.371  33.213  27.873  1.00  0.00    -0.744 OA
ENDBRANCH  51  55
ENDBRANCH  24  48
BRANCH  36  59
ATOM     59  C   UNL A   1      43.269  35.438  30.654  1.00  0.00     0.023 A 
ATOM     60  C   UNL A   1      43.493  35.836  31.982  1.00  0.00     0.031 A 
ATOM     61  C   UNL A   1      43.424  36.396  29.635  1.00  0.00     0.131 A 
ATOM     62  C   UNL A   1      43.815  37.173  32.261  1.00  0.00     0.055 A 
ATOM     63  C   UNL A   1      43.798  37.710  29.915  1.00  0.00     0.041 A 
ATOM     64  F   UNL A   1      43.218  36.065  28.350  1.00  0.00    -0.206 F 
ATOM     65  C   UNL A   1      43.986  38.107  31.236  1.00  0.00     0.022 A 
BRANCH  62  66
ATOM     66  S   UNL A   1      43.936  37.695  33.994  1.00  0.00     0.124 S 
ATOM     67  O   UNL A   1      45.208  38.410  34.005  1.00  0.00    -0.237 OA
ATOM     68  O   UNL A   1      42.741  38.516  34.157  1.00  0.00    -0.237 OA
ATOM     69  O   UNL A   1      43.926  36.434  34.733  1.00  0.00    -0.744 OA
ENDBRANCH  62  66
ENDBRANCH  36  59
ENDBRANCH  10  11
ENDBRANCH   3   5
ENDBRANCH   2   3
ENDBRANCH   1   2
BRANCH   1  70
ATOM     70  C   UNL A   1      36.575  22.552  23.677  1.00  0.00     0.275 C 
BRANCH  70  71
ATOM     71  O   UNL A   1      35.179  22.259  23.533  1.00  0.00    -0.458 OA
BRANCH  71  72
ATOM     72  C   UNL A   1      34.378  23.343  23.390  1.00  0.00     0.338 C 
ATOM     73  O   UNL A   1      34.438  24.195  22.518  1.00  0.00    -0.246 OA
BRANCH  72  74
ATOM     74  C   UNL A   1      33.263  23.252  24.344  1.00  0.00     0.062 A 
ATOM     75  C   UNL A   1      32.751  21.976  24.605  1.00  0.00     0.016 A 
ATOM     76  C   UNL A   1      32.712  24.386  24.953  1.00  0.00     0.041 A 
ATOM     77  C   UNL A   1      31.691  21.827  25.492  1.00  0.00     0.003 A 
ATOM     78  C   UNL A   1      31.634  24.241  25.835  1.00  0.00     0.039 A 
ATOM     79  C   UNL A   1      31.130  22.954  26.091  1.00  0.00     0.026 A 
BRANCH  78  80
ATOM     80  N   UNL A   1      30.902  25.360  26.299  1.00  0.00    -0.355 N 
ATOM     81  H   UNL A   1      30.419  25.319  27.155  1.00  0.00     0.167 HD
BRANCH  80  82
ATOM     82  C   UNL A   1      30.873  26.544  25.512  1.00  0.00     0.050 A 
ATOM     83  C   UNL A   1      29.965  26.610  24.453  1.00  0.00     0.047 A 
ATOM     84  C   UNL A   1      31.697  27.656  25.788  1.00  0.00     0.027 A 
ATOM     85  C   UNL A   1      29.816  27.804  23.788  1.00  0.00     0.114 A 
ATOM     86  C   UNL A   1      31.445  28.835  25.048  1.00  0.00     0.072 A 
ATOM     87  C   UNL A   1      32.718  27.661  26.767  1.00  0.00     0.051 A 
ATOM     88  N   UNL A   1      30.512  28.917  24.085  1.00  0.00    -0.256 NA
ATOM     89  C   UNL A   1      32.178  29.978  25.334  1.00  0.00     0.032 A 
ATOM     90  C   UNL A   1      33.449  28.817  27.005  1.00  0.00     0.124 A 
ATOM     91  C   UNL A   1      33.181  29.982  26.305  1.00  0.00     0.041 A 
ATOM     92  F   UNL A   1      34.416  28.819  27.932  1.00  0.00    -0.207 F 
ENDBRANCH  80  82
ENDBRANCH  78  80
ENDBRANCH  72  74
ENDBRANCH  71  72
ENDBRANCH  70  71
ENDBRANCH   1  70
TORSDOF 16
ENDMDL
MODEL 2
REMARK VINA RESULT:     -12.0      4.532      9.743
REMARK SMILES O=C(OCCOC(=O)c1cccc(Nc2ccnc3ccc(F)cc23)c1)c1ccc(-c2c3nc(c(-c4cc(S(=O)(=O)[O-])ccc4F)c4ccc([nH]4)c(-c4cc(S(=O)(=O)[O-])ccc4F)c4nc(c(-c5cc(S(=O)(=O)[O-])ccc5F)c5ccc2[nH]5)C=C4)C=C3)cc1
REMARK SMILES IDX 4 1 3 2 2 3 1 4 27 5 28 6 89 7 29 8 88 9 30 10 31 11 32 12
REMARK SMILES IDX 82 13 33 14 87 15 81 16 83 17 34 18 86 19 80 20 79 21 35 23
REMARK SMILES IDX 67 24 47 25 66 26 48 27 51 28 65 29 84 30 49 31 50 32 64 34
REMARK SMILES IDX 85 35 52 36 36 37 37 38 45 39 38 40 44 41 46 42 43 43 39 44
REMARK SMILES IDX 40 45 41 46 42 47 68 48 69 49 77 50 70 51 76 52 78 53 75 54
REMARK SMILES IDX 71 55 72 56 73 57 74 58 53 59 54 60 62 61 55 62 61 63 63 64
REMARK SMILES IDX 60 65 56 66 57 67 58 68 59 69 5 70 6 71 7 72 8 73 9 74 10 75
REMARK SMILES IDX 26 76 11 77 13 78 12 79 14 80 15 82 16 83 25 84 17 85 19 86
REMARK SMILES IDX 24 87 18 88 20 89 22 90 21 91 23 92
REMARK H PARENT 83 22 51 33 14 81
REMARK Flexibility Score: inf
ROOT
ATOM      1  C   UNL A   1      32.176  30.500  26.117  1.00  0.00     0.275 C 
ENDROOT
BRANCH   1   2
ATOM      2  O   UNL A   1      33.528  30.183  26.496  1.00  0.00    -0.458 OA
BRANCH   2   3
ATOM      3  C   UNL A   1      34.254  30.760  27.491  1.00  0.00     0.338 C 
ATOM      4  O   UNL A   1      33.932  31.867  27.914  1.00  0.00    -0.246 OA
BRANCH   3   5
ATOM      5  C   UNL A   1      35.565  30.189  27.909  1.00  0.00     0.060 A 
ATOM      6  C   UNL A   1      36.702  30.108  27.100  1.00  0.00     0.016 A 
ATOM      7  C   UNL A   1      35.634  29.689  29.216  1.00  0.00     0.016 A 
ATOM      8  C   UNL A   1      37.924  29.676  27.629  1.00  0.00     0.010 A 
ATOM      9  C   UNL A   1      36.847  29.246  29.744  1.00  0.00     0.010 A 
ATOM     10  C   UNL A   1      38.008  29.262  28.960  1.00  0.00    -0.014 A 
BRANCH  10  11
ATOM     11  C   UNL A   1      39.261  28.685  29.497  1.00  0.00     0.031 A 
ATOM     12  C   UNL A   1      39.946  29.412  30.615  1.00  0.00     0.074 A 
ATOM     13  C   UNL A   1      39.795  27.563  28.978  1.00  0.00     0.049 A 
ATOM     14  N   UNL A   1      41.048  29.110  31.247  1.00  0.00    -0.248 NA
ATOM     15  C   UNL A   1      39.291  30.642  31.086  1.00  0.00     0.031 C 
ATOM     16  C   UNL A   1      39.208  26.756  27.910  1.00  0.00     0.029 A 
ATOM     17  N   UNL A   1      40.979  26.927  29.258  1.00  0.00    -0.354 N 
ATOM     18  C   UNL A   1      41.187  30.083  32.229  1.00  0.00     0.074 A 
ATOM     19  C   UNL A   1      40.124  31.043  32.029  1.00  0.00     0.031 C 
ATOM     20  C   UNL A   1      40.072  25.786  27.563  1.00  0.00     0.029 A 
ATOM     21  C   UNL A   1      41.262  25.886  28.406  1.00  0.00     0.049 A 
ATOM     22  H   UNL A   1      41.570  27.192  30.000  1.00  0.00     0.167 HD
ATOM     23  C   UNL A   1      42.084  30.139  33.243  1.00  0.00     0.034 A 
ATOM     24  C   UNL A   1      42.363  25.113  28.313  1.00  0.00     0.034 A 
ATOM     25  C   UNL A   1      43.172  29.207  33.387  1.00  0.00     0.049 A 
ATOM     26  C   UNL A   1      43.450  25.283  29.346  1.00  0.00     0.074 A 
ATOM     27  C   UNL A   1      44.142  29.149  34.370  1.00  0.00     0.029 A 
ATOM     28  N   UNL A   1      43.450  28.184  32.489  1.00  0.00    -0.354 N 
ATOM     29  N   UNL A   1      43.519  26.146  30.334  1.00  0.00    -0.248 NA
ATOM     30  C   UNL A   1      44.581  24.350  29.280  1.00  0.00     0.031 C 
ATOM     31  C   UNL A   1      45.040  28.127  34.033  1.00  0.00     0.029 A 
ATOM     32  C   UNL A   1      44.596  27.508  32.873  1.00  0.00     0.049 A 
ATOM     33  H   UNL A   1      42.910  27.969  31.695  1.00  0.00     0.167 HD
ATOM     34  C   UNL A   1      44.673  25.823  31.042  1.00  0.00     0.074 A 
ATOM     35  C   UNL A   1      45.275  24.697  30.354  1.00  0.00     0.031 C 
ATOM     36  C   UNL A   1      45.176  26.387  32.171  1.00  0.00     0.034 A 
BRANCH  23  37
ATOM     37  C   UNL A   1      41.900  31.264  34.230  1.00  0.00     0.023 A 
ATOM     38  C   UNL A   1      40.898  31.196  35.217  1.00  0.00     0.031 A 
ATOM     39  C   UNL A   1      42.631  32.456  34.113  1.00  0.00     0.131 A 
ATOM     40  C   UNL A   1      40.574  32.335  35.967  1.00  0.00     0.055 A 
ATOM     41  C   UNL A   1      42.363  33.560  34.926  1.00  0.00     0.041 A 
ATOM     42  F   UNL A   1      43.583  32.585  33.176  1.00  0.00    -0.206 F 
ATOM     43  C   UNL A   1      41.315  33.512  35.842  1.00  0.00     0.022 A 
BRANCH  40  44
ATOM     44  S   UNL A   1      39.054  32.312  36.958  1.00  0.00     0.124 S 
ATOM     45  O   UNL A   1      38.518  30.989  36.645  1.00  0.00    -0.237 OA
ATOM     46  O   UNL A   1      39.558  32.490  38.314  1.00  0.00    -0.237 OA
ATOM     47  O   UNL A   1      38.281  33.432  36.426  1.00  0.00    -0.744 OA
ENDBRANCH  40  44
ENDBRANCH  23  37
BRANCH  24  48
ATOM     48  C   UNL A   1      42.510  24.140  27.195  1.00  0.00     0.023 A 
ATOM     49  C   UNL A   1      41.988  22.839  27.267  1.00  0.00     0.031 A 
ATOM     50  C   UNL A   1      43.228  24.501  26.040  1.00  0.00     0.131 A 
ATOM     51  C   UNL A   1      42.224  21.933  26.219  1.00  0.00     0.055 A 
ATOM     52  C   UNL A   1      43.436  23.607  24.988  1.00  0.00     0.041 A 
ATOM     53  F   UNL A   1      43.731  25.740  25.917  1.00  0.00    -0.206 F 
ATOM     54  C   UNL A   1      42.941  22.309  25.079  1.00  0.00     0.022 A 
BRANCH  51  55
ATOM     55  S   UNL A   1      41.620  20.229  26.386  1.00  0.00     0.124 S 
ATOM     56  O   UNL A   1      40.187  20.398  26.179  1.00  0.00    -0.237 OA
ATOM     57  O   UNL A   1      42.347  19.550  25.320  1.00  0.00    -0.237 OA
ATOM     58  O   UNL A   1      42.018  19.859  27.742  1.00  0.00    -0.744 OA
ENDBRANCH  51  55
ENDBRANCH  24  48
BRANCH  36  59
ATOM     59  C   UNL A   1      46.401  25.742  32.768  1.00  0.00     0.023 A 
ATOM     60  C   UNL A   1      46.309  24.689  33.692  1.00  0.00     0.031 A 
ATOM     61  C   UNL A   1      47.679  26.196  32.399  1.00  0.00     0.131 A 
ATOM     62  C   UNL A   1      47.478  24.153  34.252  1.00  0.00     0.055 A 
ATOM     63  C   UNL A   1      48.839  25.622  32.917  1.00  0.00     0.041 A 
ATOM     64  F   UNL A   1      47.819  27.203  31.520  1.00  0.00    -0.206 F 
ATOM     65  C   UNL A   1      48.742  24.600  33.858  1.00  0.00     0.022 A 
BRANCH  62  66
ATOM     66  S   UNL A   1      47.325  22.909  35.563  1.00  0.00     0.124 S 
ATOM     67  O   UNL A   1      48.027  23.549  36.670  1.00  0.00    -0.237 OA
ATOM     68  O   UNL A   1      45.878  22.786  35.709  1.00  0.00    -0.237 OA
ATOM     69  O   UNL A   1      47.991  21.735  35.000  1.00  0.00    -0.744 OA
ENDBRANCH  62  66
ENDBRANCH  36  59
ENDBRANCH  10  11
ENDBRANCH   3   5
ENDBRANCH   2   3
ENDBRANCH   1   2
BRANCH   1  70
ATOM     70  C   UNL A   1      31.413  29.355  25.446  1.00  0.00     0.275 C 
BRANCH  70  71
ATOM     71  O   UNL A   1      32.091  28.099  25.581  1.00  0.00    -0.458 OA
BRANCH  71  72
ATOM     72  C   UNL A   1      31.569  27.263  26.511  1.00  0.00     0.338 C 
ATOM     73  O   UNL A   1      31.067  27.569  27.581  1.00  0.00    -0.246 OA
BRANCH  72  74
ATOM     74  C   UNL A   1      31.508  25.901  25.960  1.00  0.00     0.062 A 
ATOM     75  C   UNL A   1      30.791  25.728  24.771  1.00  0.00     0.016 A 
ATOM     76  C   UNL A   1      32.113  24.813  26.599  1.00  0.00     0.041 A 
ATOM     77  C   UNL A   1      30.689  24.462  24.205  1.00  0.00     0.003 A 
ATOM     78  C   UNL A   1      32.001  23.533  26.040  1.00  0.00     0.039 A 
ATOM     79  C   UNL A   1      31.280  23.373  24.844  1.00  0.00     0.026 A 
BRANCH  78  80
ATOM     80  N   UNL A   1      32.397  22.378  26.754  1.00  0.00    -0.355 N 
ATOM     81  H   UNL A   1      32.061  22.215  27.665  1.00  0.00     0.167 HD
BRANCH  80  82
ATOM     82  C   UNL A   1      33.287  21.454  26.140  1.00  0.00     0.050 A 
ATOM     83  C   UNL A   1      32.780  20.214  25.743  1.00  0.00     0.047 A 
ATOM     84  C   UNL A   1      34.640  21.763  25.887  1.00  0.00     0.027 A 
ATOM     85  C   UNL A   1      33.587  19.379  25.008  1.00  0.00     0.114 A 
ATOM     86  C   UNL A   1      35.370  20.832  25.109  1.00  0.00     0.072 A 
ATOM     87  C   UNL A   1      35.281  22.941  26.333  1.00  0.00     0.051 A 
ATOM     88  N   UNL A   1      34.852  19.677  24.660  1.00  0.00    -0.256 NA
ATOM     89  C   UNL A   1      36.684  21.125  24.770  1.00  0.00     0.032 A 
ATOM     90  C   UNL A   1      36.606  23.185  25.996  1.00  0.00     0.124 A 
ATOM     91  C   UNL A   1      37.312  22.292  25.207  1.00  0.00     0.041 A 
ATOM     92  F   UNL A   1      37.210  24.302  26.421  1.00  0.00    -0.207 F 
ENDBRANCH  80  82
ENDBRANCH  78  80
ENDBRANCH  72  74
ENDBRANCH  71  72
ENDBRANCH  70  71
ENDBRANCH   1  70
TORSDOF 16
ENDMDL
MODEL 3
REMARK VINA RESULT:     -11.9      1.371      1.617
REMARK SMILES O=C(OCCOC(=O)c1cccc(Nc2ccnc3ccc(F)cc23)c1)c1ccc(-c2c3nc(c(-c4cc(S(=O)(=O)[O-])ccc4F)c4ccc([nH]4)c(-c4cc(S(=O)(=O)[O-])ccc4F)c4nc(c(-c5cc(S(=O)(=O)[O-])ccc5F)c5ccc2[nH]5)C=C4)C=C3)cc1
REMARK SMILES IDX 4 1 3 2 2 3 1 4 27 5 28 6 89 7 29 8 88 9 30 10 31 11 32 12
REMARK SMILES IDX 82 13 33 14 87 15 81 16 83 17 34 18 86 19 80 20 79 21 35 23
REMARK SMILES IDX 67 24 47 25 66 26 48 27 51 28 65 29 84 30 49 31 50 32 64 34
REMARK SMILES IDX 85 35 52 36 36 37 37 38 45 39 38 40 44 41 46 42 43 43 39 44
REMARK SMILES IDX 40 45 41 46 42 47 68 48 69 49 77 50 70 51 76 52 78 53 75 54
REMARK SMILES IDX 71 55 72 56 73 57 74 58 53 59 54 60 62 61 55 62 61 63 63 64
REMARK SMILES IDX 60 65 56 66 57 67 58 68 59 69 5 70 6 71 7 72 8 73 9 74 10 75
REMARK SMILES IDX 26 76 11 77 13 78 12 79 14 80 15 82 16 83 25 84 17 85 19 86
REMARK SMILES IDX 24 87 18 88 20 89 22 90 21 91 23 92
REMARK H PARENT 83 22 51 33 14 81
REMARK Flexibility Score: inf
ROOT
ATOM      1  C   UNL A   1      36.938  23.283  24.958  1.00  0.00     0.275 C 
ENDROOT
BRANCH   1   2
ATOM      2  O   UNL A   1      37.726  22.357  25.729  1.00  0.00    -0.458 OA
BRANCH   2   3
ATOM      3  C   UNL A   1      38.925  22.602  26.323  1.00  0.00     0.338 C 
ATOM      4  O   UNL A   1      39.659  21.662  26.617  1.00  0.00    -0.246 OA
BRANCH   3   5
ATOM      5  C   UNL A   1      39.259  23.958  26.839  1.00  0.00     0.060 A 
ATOM      6  C   UNL A   1      38.935  24.437  28.113  1.00  0.00     0.016 A 
ATOM      7  C   UNL A   1      39.940  24.807  25.957  1.00  0.00     0.016 A 
ATOM      8  C   UNL A   1      39.410  25.678  28.550  1.00  0.00     0.010 A 
ATOM      9  C   UNL A   1      40.405  26.051  26.385  1.00  0.00     0.010 A 
ATOM     10  C   UNL A   1      40.165  26.484  27.696  1.00  0.00    -0.014 A 
BRANCH  10  11
ATOM     11  C   UNL A   1      40.567  27.850  28.100  1.00  0.00     0.031 A 
ATOM     12  C   UNL A   1      42.032  28.157  28.180  1.00  0.00     0.074 A 
ATOM     13  C   UNL A   1      39.652  28.784  28.422  1.00  0.00     0.049 A 
ATOM     14  N   UNL A   1      42.628  29.270  28.509  1.00  0.00    -0.248 NA
ATOM     15  C   UNL A   1      42.944  27.055  27.834  1.00  0.00     0.031 C 
ATOM     16  C   UNL A   1      38.201  28.612  28.356  1.00  0.00     0.029 A 
ATOM     17  N   UNL A   1      39.810  30.057  28.908  1.00  0.00    -0.354 N 
ATOM     18  C   UNL A   1      43.987  29.020  28.354  1.00  0.00     0.074 A 
ATOM     19  C   UNL A   1      44.124  27.620  28.017  1.00  0.00     0.031 C 
ATOM     20  C   UNL A   1      37.604  29.702  28.868  1.00  0.00     0.029 A 
ATOM     21  C   UNL A   1      38.630  30.661  29.272  1.00  0.00     0.049 A 
ATOM     22  H   UNL A   1      40.687  30.497  28.988  1.00  0.00     0.167 HD
ATOM     23  C   UNL A   1      45.021  29.891  28.427  1.00  0.00     0.034 A 
ATOM     24  C   UNL A   1      38.409  31.848  29.873  1.00  0.00     0.034 A 
ATOM     25  C   UNL A   1      44.868  31.267  28.824  1.00  0.00     0.049 A 
ATOM     26  C   UNL A   1      39.585  32.762  30.111  1.00  0.00     0.074 A 
ATOM     27  C   UNL A   1      45.830  32.253  28.930  1.00  0.00     0.029 A 
ATOM     28  N   UNL A   1      43.664  31.839  29.217  1.00  0.00    -0.354 N 
ATOM     29  N   UNL A   1      40.857  32.549  29.864  1.00  0.00    -0.248 NA
ATOM     30  C   UNL A   1      39.293  34.091  30.665  1.00  0.00     0.031 C 
ATOM     31  C   UNL A   1      45.218  33.404  29.444  1.00  0.00     0.029 A 
ATOM     32  C   UNL A   1      43.862  33.155  29.600  1.00  0.00     0.049 A 
ATOM     33  H   UNL A   1      42.795  31.376  29.222  1.00  0.00     0.167 HD
ATOM     34  C   UNL A   1      41.511  33.736  30.179  1.00  0.00     0.074 A 
ATOM     35  C   UNL A   1      40.492  34.655  30.650  1.00  0.00     0.031 C 
ATOM     36  C   UNL A   1      42.828  34.050  30.065  1.00  0.00     0.034 A 
BRANCH  23  37
ATOM     37  C   UNL A   1      46.381  29.338  28.084  1.00  0.00     0.023 A 
ATOM     38  C   UNL A   1      46.712  29.022  26.751  1.00  0.00     0.031 A 
ATOM     39  C   UNL A   1      47.301  29.003  29.088  1.00  0.00     0.131 A 
ATOM     40  C   UNL A   1      47.874  28.289  26.472  1.00  0.00     0.055 A 
ATOM     41  C   UNL A   1      48.500  28.350  28.793  1.00  0.00     0.041 A 
ATOM     42  F   UNL A   1      47.029  29.260  30.377  1.00  0.00    -0.206 F 
ATOM     43  C   UNL A   1      48.781  27.968  27.483  1.00  0.00     0.022 A 
BRANCH  40  44
ATOM     44  S   UNL A   1      48.076  27.595  24.807  1.00  0.00     0.124 S 
ATOM     45  O   UNL A   1      47.095  28.365  24.045  1.00  0.00    -0.237 OA
ATOM     46  O   UNL A   1      49.476  27.880  24.515  1.00  0.00    -0.237 OA
ATOM     47  O   UNL A   1      47.749  26.182  24.982  1.00  0.00    -0.744 OA
ENDBRANCH  40  44
ENDBRANCH  23  37
BRANCH  24  48
ATOM     48  C   UNL A   1      37.038  32.226  30.318  1.00  0.00     0.023 A 
ATOM     49  C   UNL A   1      36.149  32.919  29.482  1.00  0.00     0.031 A 
ATOM     50  C   UNL A   1      36.618  31.925  31.627  1.00  0.00     0.131 A 
ATOM     51  C   UNL A   1      34.897  33.323  29.977  1.00  0.00     0.055 A 
ATOM     52  C   UNL A   1      35.363  32.304  32.106  1.00  0.00     0.041 A 
ATOM     53  F   UNL A   1      37.426  31.248  32.457  1.00  0.00    -0.206 F 
ATOM     54  C   UNL A   1      34.497  33.018  31.281  1.00  0.00     0.022 A 
BRANCH  51  55
ATOM     55  S   UNL A   1      33.810  34.304  28.904  1.00  0.00     0.124 S 
ATOM     56  O   UNL A   1      32.803  34.774  29.846  1.00  0.00    -0.237 OA
ATOM     57  O   UNL A   1      34.731  35.313  28.391  1.00  0.00    -0.237 OA
ATOM     58  O   UNL A   1      33.341  33.334  27.917  1.00  0.00    -0.744 OA
ENDBRANCH  51  55
ENDBRANCH  24  48
BRANCH  36  59
ATOM     59  C   UNL A   1      43.222  35.468  30.390  1.00  0.00     0.023 A 
ATOM     60  C   UNL A   1      43.243  36.475  29.411  1.00  0.00     0.031 A 
ATOM     61  C   UNL A   1      43.581  35.810  31.706  1.00  0.00     0.131 A 
ATOM     62  C   UNL A   1      43.660  37.770  29.756  1.00  0.00     0.055 A 
ATOM     63  C   UNL A   1      43.942  37.111  32.054  1.00  0.00     0.041 A 
ATOM     64  F   UNL A   1      43.579  34.882  32.677  1.00  0.00    -0.206 F 
ATOM     65  C   UNL A   1      43.992  38.098  31.073  1.00  0.00     0.022 A 
BRANCH  62  66
ATOM     66  S   UNL A   1      43.835  39.007  28.442  1.00  0.00     0.124 S 
ATOM     67  O   UNL A   1      43.386  40.223  29.110  1.00  0.00    -0.237 OA
ATOM     68  O   UNL A   1      45.260  38.936  28.133  1.00  0.00    -0.237 OA
ATOM     69  O   UNL A   1      42.950  38.514  27.388  1.00  0.00    -0.744 OA
ENDBRANCH  62  66
ENDBRANCH  36  59
ENDBRANCH  10  11
ENDBRANCH   3   5
ENDBRANCH   2   3
ENDBRANCH   1   2
BRANCH   1  70
ATOM     70  C   UNL A   1      36.546  22.786  23.564  1.00  0.00     0.275 C 
BRANCH  70  71
ATOM     71  O   UNL A   1      35.170  22.386  23.499  1.00  0.00    -0.458 OA
BRANCH  71  72
ATOM     72  C   UNL A   1      34.289  23.395  23.295  1.00  0.00     0.338 C 
ATOM     73  O   UNL A   1      34.287  24.199  22.376  1.00  0.00    -0.246 OA
BRANCH  72  74
ATOM     74  C   UNL A   1      33.180  23.274  24.253  1.00  0.00     0.062 A 
ATOM     75  C   UNL A   1      32.824  21.981  24.653  1.00  0.00     0.016 A 
ATOM     76  C   UNL A   1      32.486  24.391  24.732  1.00  0.00     0.041 A 
ATOM     77  C   UNL A   1      31.778  21.800  25.551  1.00  0.00     0.003 A 
ATOM     78  C   UNL A   1      31.421  24.212  25.625  1.00  0.00     0.039 A 
ATOM     79  C   UNL A   1      31.075  22.909  26.021  1.00  0.00     0.026 A 
BRANCH  78  80
ATOM     80  N   UNL A   1      30.552  25.277  25.961  1.00  0.00    -0.355 N 
ATOM     81  H   UNL A   1      29.918  25.185  26.708  1.00  0.00     0.167 HD
BRANCH  80  82
ATOM     82  C   UNL A   1      30.605  26.481  25.207  1.00  0.00     0.050 A 
ATOM     83  C   UNL A   1      29.781  26.593  24.084  1.00  0.00     0.047 A 
ATOM     84  C   UNL A   1      31.428  27.567  25.574  1.00  0.00     0.027 A 
ATOM     85  C   UNL A   1      29.705  27.807  23.442  1.00  0.00     0.114 A 
ATOM     86  C   UNL A   1      31.254  28.770  24.848  1.00  0.00     0.072 A 
ATOM     87  C   UNL A   1      32.372  27.526  26.625  1.00  0.00     0.051 A 
ATOM     88  N   UNL A   1      30.399  28.896  23.821  1.00  0.00    -0.256 NA
ATOM     89  C   UNL A   1      31.986  29.889  25.219  1.00  0.00     0.032 A 
ATOM     90  C   UNL A   1      33.105  28.660  26.949  1.00  0.00     0.124 A 
ATOM     91  C   UNL A   1      32.913  29.847  26.262  1.00  0.00     0.041 A 
ATOM     92  F   UNL A   1      33.999  28.617  27.945  1.00  0.00    -0.207 F 
ENDBRANCH  80  82
ENDBRANCH  78  80
ENDBRANCH  72  74
ENDBRANCH  71  72
ENDBRANCH  70  71
ENDBRANCH   1  70
TORSDOF 16
ENDMDL
