MODEL 1
REMARK VINA RESULT:     -11.0      0.000      0.000
REMARK SMILES C=C[C@@H](C)Oc1cnc2ccccc2c1C(=O)OCCOC(=O)c1ccc(-c2c3nc(c(-c4cc(S(=O)(=O)[O-])ccc4F)c4ccc([nH]4)c(-c4cc(S(=O)(=O)[O-])ccc4F)c4nc(c(-c5cc(S(=O)(=O)[O-])ccc5F)c5ccc2[nH]5)C=C4)C=C3)cc1
REMARK SMILES IDX 19 1 18 2 16 3 17 4 15 5 6 6 7 7 8 8 14 9 9 10 13 11 10 12
REMARK SMILES IDX 12 13 11 14 5 15 3 16 4 17 2 18 1 19 20 20 21 21 22 22 23 23
REMARK SMILES IDX 24 24 25 25 86 26 26 27 85 28 27 29 28 30 29 31 79 32 30 33
REMARK SMILES IDX 84 34 78 35 80 36 31 37 83 38 77 39 76 40 32 42 64 43 44 44
REMARK SMILES IDX 63 45 45 46 48 47 62 48 81 49 46 50 47 51 61 53 82 54 49 55
REMARK SMILES IDX 33 56 34 57 42 58 35 59 41 60 43 61 40 62 36 63 37 64 38 65
REMARK SMILES IDX 39 66 65 67 66 68 74 69 67 70 73 71 75 72 72 73 68 74 69 75
REMARK SMILES IDX 70 76 71 77 50 78 51 79 59 80 52 81 58 82 60 83 57 84 53 85
REMARK SMILES IDX 54 86 55 87 56 88
REMARK H PARENT 80 41 48 52
REMARK Flexibility Score: inf
ROOT
ATOM      1  C   UNL A   1      36.401  22.675  23.752  1.00  0.00     0.275 C 
ENDROOT
BRANCH   1   2
ATOM      2  O   UNL A   1      35.618  23.592  24.545  1.00  0.00    -0.458 OA
BRANCH   2   3
ATOM      3  C   UNL A   1      34.502  24.091  23.953  1.00  0.00     0.342 C 
ATOM      4  O   UNL A   1      34.355  24.358  22.774  1.00  0.00    -0.246 OA
BRANCH   3   5
ATOM      5  C   UNL A   1      33.486  24.363  24.988  1.00  0.00     0.113 A 
ATOM      6  C   UNL A   1      32.773  23.292  25.538  1.00  0.00     0.153 A 
ATOM      7  C   UNL A   1      31.864  23.609  26.527  1.00  0.00     0.159 A 
ATOM      8  N   UNL A   1      31.560  24.871  26.912  1.00  0.00    -0.252 NA
ATOM      9  C   UNL A   1      33.211  25.706  25.363  1.00  0.00     0.018 A 
ATOM     10  C   UNL A   1      32.215  25.890  26.340  1.00  0.00     0.071 A 
ATOM     11  C   UNL A   1      33.848  26.858  24.827  1.00  0.00     0.011 A 
ATOM     12  C   UNL A   1      31.890  27.178  26.744  1.00  0.00     0.029 A 
ATOM     13  C   UNL A   1      33.511  28.141  25.254  1.00  0.00     0.001 A 
ATOM     14  C   UNL A   1      32.526  28.302  26.214  1.00  0.00     0.002 A 
BRANCH   6  15
ATOM     15  O   UNL A   1      33.108  22.011  25.223  1.00  0.00    -0.484 OA
BRANCH  15  16
ATOM     16  C   UNL A   1      32.173  21.156  24.531  1.00  0.00     0.192 C 
ATOM     17  C   UNL A   1      32.643  19.706  24.451  1.00  0.00     0.057 C 
BRANCH  16  18
ATOM     18  C   UNL A   1      31.728  21.701  23.196  1.00  0.00     0.009 C 
ATOM     19  C   UNL A   1      31.996  21.143  22.007  1.00  0.00     0.008 C 
ENDBRANCH  16  18
ENDBRANCH  15  16
ENDBRANCH   6  15
ENDBRANCH   3   5
ENDBRANCH   2   3
ENDBRANCH   1   2
BRANCH   1  20
ATOM     20  C   UNL A   1      36.675  21.414  24.565  1.00  0.00     0.275 C 
BRANCH  20  21
ATOM     21  O   UNL A   1      37.267  21.838  25.800  1.00  0.00    -0.458 OA
BRANCH  21  22
ATOM     22  C   UNL A   1      38.554  21.487  26.011  1.00  0.00     0.338 C 
ATOM     23  O   UNL A   1      39.071  20.395  25.853  1.00  0.00    -0.246 OA
BRANCH  22  24
ATOM     24  C   UNL A   1      39.256  22.715  26.408  1.00  0.00     0.060 A 
ATOM     25  C   UNL A   1      40.427  22.584  27.155  1.00  0.00     0.016 A 
ATOM     26  C   UNL A   1      38.775  23.975  26.058  1.00  0.00     0.016 A 
ATOM     27  C   UNL A   1      41.128  23.716  27.554  1.00  0.00     0.010 A 
ATOM     28  C   UNL A   1      39.505  25.112  26.431  1.00  0.00     0.010 A 
ATOM     29  C   UNL A   1      40.689  24.990  27.182  1.00  0.00    -0.014 A 
BRANCH  29  30
ATOM     30  C   UNL A   1      41.423  26.191  27.660  1.00  0.00     0.031 A 
ATOM     31  C   UNL A   1      40.710  27.187  28.527  1.00  0.00     0.074 A 
ATOM     32  C   UNL A   1      42.731  26.364  27.383  1.00  0.00     0.049 A 
ATOM     33  N   UNL A   1      41.096  28.374  28.917  1.00  0.00    -0.248 NA
ATOM     34  C   UNL A   1      39.388  26.784  29.025  1.00  0.00     0.031 C 
ATOM     35  C   UNL A   1      43.577  25.412  26.662  1.00  0.00     0.029 A 
ATOM     36  N   UNL A   1      43.581  27.400  27.685  1.00  0.00    -0.354 N 
ATOM     37  C   UNL A   1      40.049  28.877  29.682  1.00  0.00     0.074 A 
ATOM     38  C   UNL A   1      39.014  27.862  29.697  1.00  0.00     0.031 C 
ATOM     39  C   UNL A   1      44.825  25.905  26.587  1.00  0.00     0.029 A 
ATOM     40  C   UNL A   1      44.850  27.242  27.177  1.00  0.00     0.049 A 
ATOM     41  H   UNL A   1      43.308  28.183  28.217  1.00  0.00     0.167 HD
ATOM     42  C   UNL A   1      39.958  30.077  30.305  1.00  0.00     0.034 A 
ATOM     43  C   UNL A   1      45.894  28.096  27.140  1.00  0.00     0.034 A 
ATOM     44  C   UNL A   1      40.999  31.076  30.284  1.00  0.00     0.049 A 
ATOM     45  C   UNL A   1      45.722  29.482  27.718  1.00  0.00     0.074 A 
ATOM     46  C   UNL A   1      40.994  32.342  30.842  1.00  0.00     0.029 A 
ATOM     47  N   UNL A   1      42.233  30.921  29.665  1.00  0.00    -0.354 N 
ATOM     48  N   UNL A   1      44.688  29.994  28.346  1.00  0.00    -0.248 NA
ATOM     49  C   UNL A   1      46.846  30.415  27.552  1.00  0.00     0.031 C 
ATOM     50  C   UNL A   1      42.199  32.973  30.513  1.00  0.00     0.029 A 
ATOM     51  C   UNL A   1      42.984  32.079  29.803  1.00  0.00     0.049 A 
ATOM     52  H   UNL A   1      42.531  30.107  29.199  1.00  0.00     0.167 HD
ATOM     53  C   UNL A   1      45.043  31.304  28.656  1.00  0.00     0.074 A 
ATOM     54  C   UNL A   1      46.391  31.499  28.165  1.00  0.00     0.031 C 
ATOM     55  C   UNL A   1      44.319  32.263  29.287  1.00  0.00     0.034 A 
BRANCH  42  56
ATOM     56  C   UNL A   1      38.650  30.397  30.979  1.00  0.00     0.023 A 
ATOM     57  C   UNL A   1      37.621  31.091  30.321  1.00  0.00     0.031 A 
ATOM     58  C   UNL A   1      38.456  30.046  32.327  1.00  0.00     0.131 A 
ATOM     59  C   UNL A   1      36.472  31.470  31.032  1.00  0.00     0.055 A 
ATOM     60  C   UNL A   1      37.282  30.366  33.009  1.00  0.00     0.041 A 
ATOM     61  F   UNL A   1      39.418  29.405  33.010  1.00  0.00    -0.206 F 
ATOM     62  C   UNL A   1      36.286  31.094  32.366  1.00  0.00     0.022 A 
BRANCH  59  63
ATOM     63  S   UNL A   1      35.281  32.581  30.232  1.00  0.00     0.124 S 
ATOM     64  O   UNL A   1      34.791  31.749  29.136  1.00  0.00    -0.237 OA
ATOM     65  O   UNL A   1      34.332  32.850  31.305  1.00  0.00    -0.237 OA
ATOM     66  O   UNL A   1      36.098  33.721  29.821  1.00  0.00    -0.744 OA
ENDBRANCH  59  63
ENDBRANCH  42  56
BRANCH  43  67
ATOM     67  C   UNL A   1      47.163  27.725  26.445  1.00  0.00     0.023 A 
ATOM     68  C   UNL A   1      47.324  27.927  25.065  1.00  0.00     0.031 A 
ATOM     69  C   UNL A   1      48.207  27.094  27.145  1.00  0.00     0.131 A 
ATOM     70  C   UNL A   1      48.487  27.468  24.423  1.00  0.00     0.055 A 
ATOM     71  C   UNL A   1      49.384  26.690  26.513  1.00  0.00     0.041 A 
ATOM     72  F   UNL A   1      48.100  26.862  28.463  1.00  0.00    -0.206 F 
ATOM     73  C   UNL A   1      49.524  26.866  25.140  1.00  0.00     0.022 A 
BRANCH  70  74
ATOM     74  S   UNL A   1      48.591  27.589  22.615  1.00  0.00     0.124 S 
ATOM     75  O   UNL A   1      47.350  28.284  22.293  1.00  0.00    -0.237 OA
ATOM     76  O   UNL A   1      49.821  28.352  22.433  1.00  0.00    -0.237 OA
ATOM     77  O   UNL A   1      48.656  26.194  22.184  1.00  0.00    -0.744 OA
ENDBRANCH  70  74
ENDBRANCH  43  67
BRANCH  55  78
ATOM     78  C   UNL A   1      44.987  33.598  29.498  1.00  0.00     0.023 A 
ATOM     79  C   UNL A   1      44.863  34.640  28.563  1.00  0.00     0.031 A 
ATOM     80  C   UNL A   1      45.757  33.829  30.652  1.00  0.00     0.131 A 
ATOM     81  C   UNL A   1      45.531  35.854  28.778  1.00  0.00     0.055 A 
ATOM     82  C   UNL A   1      46.382  35.055  30.883  1.00  0.00     0.041 A 
ATOM     83  F   UNL A   1      45.908  32.866  31.576  1.00  0.00    -0.206 F 
ATOM     84  C   UNL A   1      46.278  36.073  29.938  1.00  0.00     0.022 A 
BRANCH  81  85
ATOM     85  S   UNL A   1      45.460  37.131  27.491  1.00  0.00     0.124 S 
ATOM     86  O   UNL A   1      46.679  36.867  26.733  1.00  0.00    -0.237 OA
ATOM     87  O   UNL A   1      44.206  36.823  26.812  1.00  0.00    -0.237 OA
ATOM     88  O   UNL A   1      45.460  38.382  28.249  1.00  0.00    -0.744 OA
ENDBRANCH  81  85
ENDBRANCH  55  78
ENDBRANCH  29  30
ENDBRANCH  22  24
ENDBRANCH  21  22
ENDBRANCH  20  21
ENDBRANCH   1  20
TORSDOF 17
ENDMDL
MODEL 2
REMARK VINA RESULT:     -11.0      5.221     10.125
REMARK SMILES C=C[C@@H](C)Oc1cnc2ccccc2c1C(=O)OCCOC(=O)c1ccc(-c2c3nc(c(-c4cc(S(=O)(=O)[O-])ccc4F)c4ccc([nH]4)c(-c4cc(S(=O)(=O)[O-])ccc4F)c4nc(c(-c5cc(S(=O)(=O)[O-])ccc5F)c5ccc2[nH]5)C=C4)C=C3)cc1
REMARK SMILES IDX 19 1 18 2 16 3 17 4 15 5 6 6 7 7 8 8 14 9 9 10 13 11 10 12
REMARK SMILES IDX 12 13 11 14 5 15 3 16 4 17 2 18 1 19 20 20 21 21 22 22 23 23
REMARK SMILES IDX 24 24 25 25 86 26 26 27 85 28 27 29 28 30 29 31 79 32 30 33
REMARK SMILES IDX 84 34 78 35 80 36 31 37 83 38 77 39 76 40 32 42 64 43 44 44
REMARK SMILES IDX 63 45 45 46 48 47 62 48 81 49 46 50 47 51 61 53 82 54 49 55
REMARK SMILES IDX 33 56 34 57 42 58 35 59 41 60 43 61 40 62 36 63 37 64 38 65
REMARK SMILES IDX 39 66 65 67 66 68 74 69 67 70 73 71 75 72 72 73 68 74 69 75
REMARK SMILES IDX 70 76 71 77 50 78 51 79 59 80 52 81 58 82 60 83 57 84 53 85
REMARK SMILES IDX 54 86 55 87 56 88
REMARK H PARENT 80 41 48 52
REMARK Flexibility Score: inf
ROOT
ATOM      1  C   UNL A   1      31.818  28.910  27.141  1.00  0.00     0.275 C 
ENDROOT
BRANCH   1   2
ATOM      2  O   UNL A   1      32.608  27.798  26.670  1.00  0.00    -0.458 OA
BRANCH   2   3
ATOM      3  C   UNL A   1      31.914  26.745  26.164  1.00  0.00     0.342 C 
ATOM      4  O   UNL A   1      30.958  26.186  26.670  1.00  0.00    -0.246 OA
BRANCH   3   5
ATOM      5  C   UNL A   1      32.560  26.296  24.915  1.00  0.00     0.113 A 
ATOM      6  C   UNL A   1      32.169  26.873  23.702  1.00  0.00     0.153 A 
ATOM      7  C   UNL A   1      32.837  26.436  22.576  1.00  0.00     0.159 A 
ATOM      8  N   UNL A   1      33.751  25.437  22.568  1.00  0.00    -0.252 NA
ATOM      9  C   UNL A   1      33.522  25.249  24.962  1.00  0.00     0.018 A 
ATOM     10  C   UNL A   1      34.080  24.859  23.730  1.00  0.00     0.071 A 
ATOM     11  C   UNL A   1      33.946  24.573  26.138  1.00  0.00     0.011 A 
ATOM     12  C   UNL A   1      35.017  23.836  23.705  1.00  0.00     0.029 A 
ATOM     13  C   UNL A   1      34.895  23.554  26.088  1.00  0.00     0.001 A 
ATOM     14  C   UNL A   1      35.431  23.181  24.866  1.00  0.00     0.002 A 
BRANCH   6  15
ATOM     15  O   UNL A   1      31.307  27.926  23.690  1.00  0.00    -0.484 OA
BRANCH  15  16
ATOM     16  C   UNL A   1      29.881  27.707  23.642  1.00  0.00     0.192 C 
ATOM     17  C   UNL A   1      29.513  26.235  23.478  1.00  0.00     0.057 C 
BRANCH  16  18
ATOM     18  C   UNL A   1      29.163  28.601  22.661  1.00  0.00     0.009 C 
ATOM     19  C   UNL A   1      28.084  29.344  22.940  1.00  0.00     0.008 C 
ENDBRANCH  16  18
ENDBRANCH  15  16
ENDBRANCH   6  15
ENDBRANCH   3   5
ENDBRANCH   2   3
ENDBRANCH   1   2
BRANCH   1  20
ATOM     20  C   UNL A   1      31.976  30.083  26.179  1.00  0.00     0.275 C 
BRANCH  20  21
ATOM     21  O   UNL A   1      33.318  30.564  26.329  1.00  0.00    -0.458 OA
BRANCH  21  22
ATOM     22  C   UNL A   1      33.506  31.591  27.185  1.00  0.00     0.338 C 
ATOM     23  O   UNL A   1      32.761  32.530  27.407  1.00  0.00    -0.246 OA
BRANCH  22  24
ATOM     24  C   UNL A   1      34.775  31.327  27.875  1.00  0.00     0.060 A 
ATOM     25  C   UNL A   1      34.972  30.054  28.413  1.00  0.00     0.016 A 
ATOM     26  C   UNL A   1      35.755  32.309  27.998  1.00  0.00     0.016 A 
ATOM     27  C   UNL A   1      36.158  29.755  29.074  1.00  0.00     0.010 A 
ATOM     28  C   UNL A   1      36.963  31.992  28.634  1.00  0.00     0.010 A 
ATOM     29  C   UNL A   1      37.174  30.711  29.177  1.00  0.00    -0.014 A 
BRANCH  29  30
ATOM     30  C   UNL A   1      38.413  30.389  29.932  1.00  0.00     0.031 A 
ATOM     31  C   UNL A   1      39.448  29.507  29.296  1.00  0.00     0.074 A 
ATOM     32  C   UNL A   1      38.650  30.926  31.145  1.00  0.00     0.049 A 
ATOM     33  N   UNL A   1      40.514  28.966  29.823  1.00  0.00    -0.248 NA
ATOM     34  C   UNL A   1      39.256  29.205  27.870  1.00  0.00     0.031 C 
ATOM     35  C   UNL A   1      37.790  31.897  31.824  1.00  0.00     0.029 A 
ATOM     36  N   UNL A   1      39.692  30.738  32.020  1.00  0.00    -0.354 N 
ATOM     37  C   UNL A   1      41.106  28.229  28.803  1.00  0.00     0.074 A 
ATOM     38  C   UNL A   1      40.276  28.397  27.627  1.00  0.00     0.031 C 
ATOM     39  C   UNL A   1      38.346  32.224  33.002  1.00  0.00     0.029 A 
ATOM     40  C   UNL A   1      39.553  31.427  33.204  1.00  0.00     0.049 A 
ATOM     41  H   UNL A   1      40.466  30.163  31.820  1.00  0.00     0.167 HD
ATOM     42  C   UNL A   1      42.233  27.477  28.848  1.00  0.00     0.034 A 
ATOM     43  C   UNL A   1      40.281  31.377  34.339  1.00  0.00     0.034 A 
ATOM     44  C   UNL A   1      43.052  27.323  30.025  1.00  0.00     0.049 A 
ATOM     45  C   UNL A   1      41.451  30.424  34.413  1.00  0.00     0.074 A 
ATOM     46  C   UNL A   1      44.187  26.550  30.194  1.00  0.00     0.029 A 
ATOM     47  N   UNL A   1      42.819  27.953  31.240  1.00  0.00    -0.354 N 
ATOM     48  N   UNL A   1      41.944  29.645  33.478  1.00  0.00    -0.248 NA
ATOM     49  C   UNL A   1      42.144  30.321  35.706  1.00  0.00     0.031 C 
ATOM     50  C   UNL A   1      44.607  26.667  31.524  1.00  0.00     0.029 A 
ATOM     51  C   UNL A   1      43.771  27.564  32.171  1.00  0.00     0.049 A 
ATOM     52  H   UNL A   1      42.085  28.586  31.415  1.00  0.00     0.167 HD
ATOM     53  C   UNL A   1      43.007  28.967  34.069  1.00  0.00     0.074 A 
ATOM     54  C   UNL A   1      43.098  29.442  35.433  1.00  0.00     0.031 C 
ATOM     55  C   UNL A   1      43.832  28.032  33.534  1.00  0.00     0.034 A 
BRANCH  42  56
ATOM     56  C   UNL A   1      42.581  26.697  27.607  1.00  0.00     0.023 A 
ATOM     57  C   UNL A   1      42.332  25.319  27.498  1.00  0.00     0.031 A 
ATOM     58  C   UNL A   1      43.226  27.342  26.536  1.00  0.00     0.131 A 
ATOM     59  C   UNL A   1      42.785  24.617  26.370  1.00  0.00     0.055 A 
ATOM     60  C   UNL A   1      43.613  26.652  25.388  1.00  0.00     0.041 A 
ATOM     61  F   UNL A   1      43.510  28.653  26.601  1.00  0.00    -0.206 F 
ATOM     62  C   UNL A   1      43.406  25.278  25.305  1.00  0.00     0.022 A 
BRANCH  59  63
ATOM     63  S   UNL A   1      42.679  22.806  26.370  1.00  0.00     0.124 S 
ATOM     64  O   UNL A   1      43.982  22.434  26.916  1.00  0.00    -0.237 OA
ATOM     65  O   UNL A   1      41.531  22.559  27.233  1.00  0.00    -0.237 OA
ATOM     66  O   UNL A   1      42.484  22.474  24.961  1.00  0.00    -0.744 OA
ENDBRANCH  59  63
ENDBRANCH  42  56
BRANCH  43  67
ATOM     67  C   UNL A   1      39.878  32.166  35.541  1.00  0.00     0.023 A 
ATOM     68  C   UNL A   1      38.997  31.637  36.499  1.00  0.00     0.031 A 
ATOM     69  C   UNL A   1      40.315  33.492  35.710  1.00  0.00     0.131 A 
ATOM     70  C   UNL A   1      38.554  32.443  37.561  1.00  0.00     0.055 A 
ATOM     71  C   UNL A   1      39.915  34.271  36.797  1.00  0.00     0.041 A 
ATOM     72  F   UNL A   1      41.145  34.055  34.817  1.00  0.00    -0.206 F 
ATOM     73  C   UNL A   1      39.019  33.750  37.725  1.00  0.00     0.022 A 
BRANCH  70  74
ATOM     74  S   UNL A   1      37.287  31.788  38.683  1.00  0.00     0.124 S 
ATOM     75  O   UNL A   1      37.960  31.876  39.974  1.00  0.00    -0.237 OA
ATOM     76  O   UNL A   1      36.183  32.717  38.468  1.00  0.00    -0.237 OA
ATOM     77  O   UNL A   1      37.062  30.431  38.187  1.00  0.00    -0.744 OA
ENDBRANCH  70  74
ENDBRANCH  43  67
BRANCH  55  78
ATOM     78  C   UNL A   1      44.918  27.485  34.427  1.00  0.00     0.023 A 
ATOM     79  C   UNL A   1      44.720  26.328  35.202  1.00  0.00     0.031 A 
ATOM     80  C   UNL A   1      46.164  28.130  34.503  1.00  0.00     0.131 A 
ATOM     81  C   UNL A   1      45.741  25.873  36.049  1.00  0.00     0.055 A 
ATOM     82  C   UNL A   1      47.193  27.647  35.312  1.00  0.00     0.041 A 
ATOM     83  F   UNL A   1      46.404  29.239  33.784  1.00  0.00    -0.206 F 
ATOM     84  C   UNL A   1      46.981  26.517  36.098  1.00  0.00     0.022 A 
BRANCH  81  85
ATOM     85  S   UNL A   1      45.412  24.457  37.133  1.00  0.00     0.124 S 
ATOM     86  O   UNL A   1      44.376  24.984  38.015  1.00  0.00    -0.237 OA
ATOM     87  O   UNL A   1      44.984  23.431  36.188  1.00  0.00    -0.237 OA
ATOM     88  O   UNL A   1      46.703  24.207  37.773  1.00  0.00    -0.744 OA
ENDBRANCH  81  85
ENDBRANCH  55  78
ENDBRANCH  29  30
ENDBRANCH  22  24
ENDBRANCH  21  22
ENDBRANCH  20  21
ENDBRANCH   1  20
TORSDOF 17
ENDMDL
MODEL 3
REMARK VINA RESULT:     -11.0      5.073      9.854
REMARK SMILES C=C[C@@H](C)Oc1cnc2ccccc2c1C(=O)OCCOC(=O)c1ccc(-c2c3nc(c(-c4cc(S(=O)(=O)[O-])ccc4F)c4ccc([nH]4)c(-c4cc(S(=O)(=O)[O-])ccc4F)c4nc(c(-c5cc(S(=O)(=O)[O-])ccc5F)c5ccc2[nH]5)C=C4)C=C3)cc1
REMARK SMILES IDX 19 1 18 2 16 3 17 4 15 5 6 6 7 7 8 8 14 9 9 10 13 11 10 12
REMARK SMILES IDX 12 13 11 14 5 15 3 16 4 17 2 18 1 19 20 20 21 21 22 22 23 23
REMARK SMILES IDX 24 24 25 25 86 26 26 27 85 28 27 29 28 30 29 31 79 32 30 33
REMARK SMILES IDX 84 34 78 35 80 36 31 37 83 38 77 39 76 40 32 42 64 43 44 44
REMARK SMILES IDX 63 45 45 46 48 47 62 48 81 49 46 50 47 51 61 53 82 54 49 55
REMARK SMILES IDX 33 56 34 57 42 58 35 59 41 60 43 61 40 62 36 63 37 64 38 65
REMARK SMILES IDX 39 66 65 67 66 68 74 69 67 70 73 71 75 72 72 73 68 74 69 75
REMARK SMILES IDX 70 76 71 77 50 78 51 79 59 80 52 81 58 82 60 83 57 84 53 85
REMARK SMILES IDX 54 86 55 87 56 88
REMARK H PARENT 80 41 48 52
REMARK Flexibility Score: inf
ROOT
ATOM      1  C   UNL A   1      33.636  28.927  24.464  1.00  0.00     0.275 C 
ENDROOT
BRANCH   1   2
ATOM      2  O   UNL A   1      33.663  27.667  25.168  1.00  0.00    -0.458 OA
BRANCH   2   3
ATOM      3  C   UNL A   1      33.303  26.573  24.447  1.00  0.00     0.342 C 
ATOM      4  O   UNL A   1      33.552  26.352  23.275  1.00  0.00    -0.246 OA
BRANCH   3   5
ATOM      5  C   UNL A   1      32.457  25.699  25.285  1.00  0.00     0.113 A 
ATOM      6  C   UNL A   1      31.113  26.036  25.476  1.00  0.00     0.153 A 
ATOM      7  C   UNL A   1      30.369  25.159  26.238  1.00  0.00     0.159 A 
ATOM      8  N   UNL A   1      30.875  24.078  26.877  1.00  0.00    -0.252 NA
ATOM      9  C   UNL A   1      33.037  24.570  25.926  1.00  0.00     0.018 A 
ATOM     10  C   UNL A   1      32.176  23.796  26.726  1.00  0.00     0.071 A 
ATOM     11  C   UNL A   1      34.400  24.178  25.829  1.00  0.00     0.011 A 
ATOM     12  C   UNL A   1      32.681  22.686  27.388  1.00  0.00     0.029 A 
ATOM     13  C   UNL A   1      34.882  23.054  26.497  1.00  0.00     0.001 A 
ATOM     14  C   UNL A   1      34.020  22.306  27.282  1.00  0.00     0.002 A 
BRANCH   6  15
ATOM     15  O   UNL A   1      30.562  27.074  24.790  1.00  0.00    -0.484 OA
BRANCH  15  16
ATOM     16  C   UNL A   1      29.899  26.850  23.527  1.00  0.00     0.192 C 
ATOM     17  C   UNL A   1      30.470  27.705  22.399  1.00  0.00     0.057 C 
BRANCH  16  18
ATOM     18  C   UNL A   1      28.394  26.924  23.611  1.00  0.00     0.009 C 
ATOM     19  C   UNL A   1      27.669  28.046  23.500  1.00  0.00     0.008 C 
ENDBRANCH  16  18
ENDBRANCH  15  16
ENDBRANCH   6  15
ENDBRANCH   3   5
ENDBRANCH   2   3
ENDBRANCH   1   2
BRANCH   1  20
ATOM     20  C   UNL A   1      32.414  29.724  24.907  1.00  0.00     0.275 C 
BRANCH  20  21
ATOM     21  O   UNL A   1      32.477  29.817  26.337  1.00  0.00    -0.458 OA
BRANCH  21  22
ATOM     22  C   UNL A   1      32.853  31.006  26.854  1.00  0.00     0.338 C 
ATOM     23  O   UNL A   1      32.280  32.079  26.766  1.00  0.00    -0.246 OA
BRANCH  22  24
ATOM     24  C   UNL A   1      34.076  30.752  27.627  1.00  0.00     0.060 A 
ATOM     25  C   UNL A   1      34.864  31.848  27.978  1.00  0.00     0.016 A 
ATOM     26  C   UNL A   1      34.446  29.463  28.001  1.00  0.00     0.016 A 
ATOM     27  C   UNL A   1      36.031  31.660  28.711  1.00  0.00     0.010 A 
ATOM     28  C   UNL A   1      35.603  29.281  28.771  1.00  0.00     0.010 A 
ATOM     29  C   UNL A   1      36.405  30.380  29.132  1.00  0.00    -0.014 A 
BRANCH  29  30
ATOM     30  C   UNL A   1      37.681  30.192  29.871  1.00  0.00     0.031 A 
ATOM     31  C   UNL A   1      38.777  29.381  29.243  1.00  0.00     0.074 A 
ATOM     32  C   UNL A   1      37.891  30.789  31.061  1.00  0.00     0.049 A 
ATOM     33  N   UNL A   1      39.895  28.952  29.765  1.00  0.00    -0.248 NA
ATOM     34  C   UNL A   1      38.586  29.015  27.832  1.00  0.00     0.031 C 
ATOM     35  C   UNL A   1      36.963  31.705  31.725  1.00  0.00     0.029 A 
ATOM     36  N   UNL A   1      38.961  30.721  31.920  1.00  0.00    -0.354 N 
ATOM     37  C   UNL A   1      40.530  28.235  28.758  1.00  0.00     0.074 A 
ATOM     38  C   UNL A   1      39.667  28.290  27.595  1.00  0.00     0.031 C 
ATOM     39  C   UNL A   1      37.509  32.119  32.881  1.00  0.00     0.029 A 
ATOM     40  C   UNL A   1      38.785  31.436  33.083  1.00  0.00     0.049 A 
ATOM     41  H   UNL A   1      39.779  30.209  31.722  1.00  0.00     0.167 HD
ATOM     42  C   UNL A   1      41.718  27.584  28.804  1.00  0.00     0.034 A 
ATOM     43  C   UNL A   1      39.535  31.488  34.203  1.00  0.00     0.034 A 
ATOM     44  C   UNL A   1      42.569  27.541  29.968  1.00  0.00     0.049 A 
ATOM     45  C   UNL A   1      40.784  30.642  34.284  1.00  0.00     0.074 A 
ATOM     46  C   UNL A   1      43.769  26.875  30.138  1.00  0.00     0.029 A 
ATOM     47  N   UNL A   1      42.304  28.191  31.167  1.00  0.00    -0.354 N 
ATOM     48  N   UNL A   1      41.325  29.877  33.365  1.00  0.00    -0.248 NA
ATOM     49  C   UNL A   1      41.506  30.643  35.566  1.00  0.00     0.031 C 
ATOM     50  C   UNL A   1      44.201  27.074  31.455  1.00  0.00     0.029 A 
ATOM     51  C   UNL A   1      43.302  27.916  32.089  1.00  0.00     0.049 A 
ATOM     52  H   UNL A   1      41.521  28.764  31.336  1.00  0.00     0.167 HD
ATOM     53  C   UNL A   1      42.453  29.313  33.956  1.00  0.00     0.074 A 
ATOM     54  C   UNL A   1      42.527  29.841  35.302  1.00  0.00     0.031 C 
ATOM     55  C   UNL A   1      43.347  28.435  33.435  1.00  0.00     0.034 A 
BRANCH  42  56
ATOM     56  C   UNL A   1      42.110  26.795  27.582  1.00  0.00     0.023 A 
ATOM     57  C   UNL A   1      41.925  25.405  27.500  1.00  0.00     0.031 A 
ATOM     58  C   UNL A   1      42.733  27.446  26.502  1.00  0.00     0.131 A 
ATOM     59  C   UNL A   1      42.418  24.701  26.391  1.00  0.00     0.055 A 
ATOM     60  C   UNL A   1      43.159  26.750  25.370  1.00  0.00     0.041 A 
ATOM     61  F   UNL A   1      42.957  28.769  26.540  1.00  0.00    -0.206 F 
ATOM     62  C   UNL A   1      43.015  25.367  25.316  1.00  0.00     0.022 A 
BRANCH  59  63
ATOM     63  S   UNL A   1      42.394  22.887  26.430  1.00  0.00     0.124 S 
ATOM     64  O   UNL A   1      42.525  22.559  25.012  1.00  0.00    -0.237 OA
ATOM     65  O   UNL A   1      43.546  22.576  27.266  1.00  0.00    -0.237 OA
ATOM     66  O   UNL A   1      41.093  22.574  27.017  1.00  0.00    -0.744 OA
ENDBRANCH  59  63
ENDBRANCH  42  56
BRANCH  43  67
ATOM     67  C   UNL A   1      39.086  32.280  35.387  1.00  0.00     0.023 A 
ATOM     68  C   UNL A   1      39.545  33.590  35.606  1.00  0.00     0.031 A 
ATOM     69  C   UNL A   1      38.245  31.707  36.358  1.00  0.00     0.131 A 
ATOM     70  C   UNL A   1      39.189  34.267  36.784  1.00  0.00     0.055 A 
ATOM     71  C   UNL A   1      37.850  32.404  37.501  1.00  0.00     0.041 A 
ATOM     72  F   UNL A   1      37.789  30.453  36.209  1.00  0.00    -0.206 F 
ATOM     73  C   UNL A   1      38.333  33.690  37.724  1.00  0.00     0.022 A 
BRANCH  70  74
ATOM     74  S   UNL A   1      39.934  35.888  37.117  1.00  0.00     0.124 S 
ATOM     75  O   UNL A   1      39.653  36.604  35.878  1.00  0.00    -0.237 OA
ATOM     76  O   UNL A   1      39.194  36.326  38.295  1.00  0.00    -0.237 OA
ATOM     77  O   UNL A   1      41.343  35.574  37.350  1.00  0.00    -0.744 OA
ENDBRANCH  70  74
ENDBRANCH  43  67
BRANCH  55  78
ATOM     78  C   UNL A   1      44.492  28.014  34.323  1.00  0.00     0.023 A 
ATOM     79  C   UNL A   1      44.421  26.854  35.114  1.00  0.00     0.031 A 
ATOM     80  C   UNL A   1      45.666  28.785  34.376  1.00  0.00     0.131 A 
ATOM     81  C   UNL A   1      45.491  26.518  35.956  1.00  0.00     0.055 A 
ATOM     82  C   UNL A   1      46.747  28.420  35.179  1.00  0.00     0.041 A 
ATOM     83  F   UNL A   1      45.784  29.902  33.640  1.00  0.00    -0.206 F 
ATOM     84  C   UNL A   1      46.659  27.285  35.982  1.00  0.00     0.022 A 
BRANCH  81  85
ATOM     85  S   UNL A   1      45.319  25.091  37.062  1.00  0.00     0.124 S 
ATOM     86  O   UNL A   1      43.876  24.875  37.058  1.00  0.00    -0.237 OA
ATOM     87  O   UNL A   1      46.119  24.073  36.388  1.00  0.00    -0.237 OA
ATOM     88  O   UNL A   1      45.871  25.570  38.329  1.00  0.00    -0.744 OA
ENDBRANCH  81  85
ENDBRANCH  55  78
ENDBRANCH  29  30
ENDBRANCH  22  24
ENDBRANCH  21  22
ENDBRANCH  20  21
ENDBRANCH   1  20
TORSDOF 17
ENDMDL
