MODEL 1
REMARK VINA RESULT:     -10.1      0.000      0.000
REMARK SMILES O=C(OCCOC(=O)[C@H]1CC[C@H](CN2C(=O)c3cccnc3C2=O)O1)c1ccc(-c2c3nc(c(-c4cc(S(=O)(=O)[O-])ccc4F)c4ccc([nH]4)c(-c4cc(S(=O)(=O)[O-])ccc4F)c4nc(c(-c5cc(S(=O)(=O)[O-])ccc5F)c5ccc2[nH]5)C=C4)C=C3)cc1
REMARK SMILES IDX 4 1 3 2 2 3 1 4 26 5 27 6 88 7 28 8 87 9 29 10 30 11 31 12
REMARK SMILES IDX 81 13 32 14 86 15 80 16 82 17 33 18 85 19 79 20 78 21 34 23
REMARK SMILES IDX 66 24 46 25 65 26 47 27 50 28 64 29 83 30 48 31 49 32 63 34
REMARK SMILES IDX 84 35 51 36 35 37 36 38 44 39 37 40 43 41 45 42 42 43 38 44
REMARK SMILES IDX 39 45 40 46 41 47 67 48 68 49 76 50 69 51 75 52 77 53 74 54
REMARK SMILES IDX 70 55 71 56 72 57 73 58 52 59 53 60 61 61 54 62 60 63 62 64
REMARK SMILES IDX 59 65 55 66 56 67 57 68 58 69 5 70 6 71 7 72 8 73 9 74 10 75
REMARK SMILES IDX 25 76 11 77 12 78 13 79 14 80 15 81 23 82 16 83 17 84 22 85
REMARK SMILES IDX 24 86 18 87 21 88 19 89 20 90
REMARK H PARENT 82 22 50 33
REMARK Flexibility Score: inf
ROOT
ATOM      1  C   UNL A   1      33.838  33.676  28.242  1.00  0.00     0.275 C 
ENDROOT
BRANCH   1   2
ATOM      2  O   UNL A   1      33.977  32.287  28.594  1.00  0.00    -0.458 OA
BRANCH   2   3
ATOM      3  C   UNL A   1      34.593  31.302  27.888  1.00  0.00     0.338 C 
ATOM      4  O   UNL A   1      34.040  30.854  26.886  1.00  0.00    -0.246 OA
BRANCH   3   5
ATOM      5  C   UNL A   1      35.798  30.580  28.412  1.00  0.00     0.060 A 
ATOM      6  C   UNL A   1      35.820  29.716  29.514  1.00  0.00     0.016 A 
ATOM      7  C   UNL A   1      37.001  30.774  27.705  1.00  0.00     0.016 A 
ATOM      8  C   UNL A   1      36.974  29.001  29.851  1.00  0.00     0.010 A 
ATOM      9  C   UNL A   1      38.166  30.071  28.046  1.00  0.00     0.010 A 
ATOM     10  C   UNL A   1      38.152  29.172  29.122  1.00  0.00    -0.014 A 
BRANCH  10  11
ATOM     11  C   UNL A   1      39.406  28.572  29.629  1.00  0.00     0.031 A 
ATOM     12  C   UNL A   1      40.034  29.206  30.832  1.00  0.00     0.074 A 
ATOM     13  C   UNL A   1      39.943  27.472  29.070  1.00  0.00     0.049 A 
ATOM     14  N   UNL A   1      41.117  28.870  31.478  1.00  0.00    -0.248 NA
ATOM     15  C   UNL A   1      39.326  30.370  31.388  1.00  0.00     0.031 C 
ATOM     16  C   UNL A   1      39.364  26.733  27.953  1.00  0.00     0.029 A 
ATOM     17  N   UNL A   1      41.100  26.792  29.353  1.00  0.00    -0.354 N 
ATOM     18  C   UNL A   1      41.207  29.768  32.535  1.00  0.00     0.074 A 
ATOM     19  C   UNL A   1      40.108  30.697  32.400  1.00  0.00     0.031 C 
ATOM     20  C   UNL A   1      40.201  25.743  27.595  1.00  0.00     0.029 A 
ATOM     21  C   UNL A   1      41.374  25.777  28.464  1.00  0.00     0.049 A 
ATOM     22  H   UNL A   1      41.679  27.009  30.119  1.00  0.00     0.167 HD
ATOM     23  C   UNL A   1      42.117  29.796  33.539  1.00  0.00     0.034 A 
ATOM     24  C   UNL A   1      42.461  24.985  28.355  1.00  0.00     0.034 A 
ATOM     25  C   UNL A   1      43.240  28.897  33.605  1.00  0.00     0.049 A 
ATOM     26  C   UNL A   1      43.550  25.127  29.392  1.00  0.00     0.074 A 
ATOM     27  C   UNL A   1      44.251  28.842  34.545  1.00  0.00     0.029 A 
ATOM     28  N   UNL A   1      43.517  27.912  32.661  1.00  0.00    -0.354 N 
ATOM     29  N   UNL A   1      43.612  25.953  30.412  1.00  0.00    -0.248 NA
ATOM     30  C   UNL A   1      44.698  24.218  29.284  1.00  0.00     0.031 C 
ATOM     31  C   UNL A   1      45.179  27.882  34.126  1.00  0.00     0.029 A 
ATOM     32  C   UNL A   1      44.705  27.273  32.972  1.00  0.00     0.049 A 
ATOM     33  H   UNL A   1      42.949  27.700  31.885  1.00  0.00     0.167 HD
ATOM     34  C   UNL A   1      44.785  25.639  31.090  1.00  0.00     0.074 A 
ATOM     35  C   UNL A   1      45.401  24.548  30.359  1.00  0.00     0.031 C 
ATOM     36  C   UNL A   1      45.298  26.189  32.221  1.00  0.00     0.034 A 
BRANCH  23  37
ATOM     37  C   UNL A   1      41.946  30.889  34.563  1.00  0.00     0.023 A 
ATOM     38  C   UNL A   1      42.456  32.184  34.343  1.00  0.00     0.031 A 
ATOM     39  C   UNL A   1      41.398  30.604  35.825  1.00  0.00     0.131 A 
ATOM     40  C   UNL A   1      42.521  33.100  35.404  1.00  0.00     0.055 A 
ATOM     41  C   UNL A   1      41.376  31.555  36.847  1.00  0.00     0.041 A 
ATOM     42  F   UNL A   1      40.922  29.381  36.101  1.00  0.00    -0.206 F 
ATOM     43  C   UNL A   1      41.963  32.802  36.649  1.00  0.00     0.022 A 
BRANCH  40  44
ATOM     44  S   UNL A   1      43.537  34.590  35.195  1.00  0.00     0.124 S 
ATOM     45  O   UNL A   1      43.467  35.185  36.527  1.00  0.00    -0.237 OA
ATOM     46  O   UNL A   1      44.830  34.038  34.809  1.00  0.00    -0.237 OA
ATOM     47  O   UNL A   1      42.838  35.335  34.150  1.00  0.00    -0.744 OA
ENDBRANCH  40  44
ENDBRANCH  23  37
BRANCH  24  48
ATOM     48  C   UNL A   1      42.594  24.037  27.210  1.00  0.00     0.023 A 
ATOM     49  C   UNL A   1      42.082  22.731  27.255  1.00  0.00     0.031 A 
ATOM     50  C   UNL A   1      43.269  24.436  26.040  1.00  0.00     0.131 A 
ATOM     51  C   UNL A   1      42.275  21.863  26.164  1.00  0.00     0.055 A 
ATOM     52  C   UNL A   1      43.424  23.585  24.944  1.00  0.00     0.041 A 
ATOM     53  F   UNL A   1      43.785  25.671  25.944  1.00  0.00    -0.206 F 
ATOM     54  C   UNL A   1      42.932  22.286  25.005  1.00  0.00     0.022 A 
BRANCH  51  55
ATOM     55  S   UNL A   1      41.701  20.146  26.295  1.00  0.00     0.124 S 
ATOM     56  O   UNL A   1      40.260  20.301  26.130  1.00  0.00    -0.237 OA
ATOM     57  O   UNL A   1      42.409  19.506  25.192  1.00  0.00    -0.237 OA
ATOM     58  O   UNL A   1      42.136  19.742  27.630  1.00  0.00    -0.744 OA
ENDBRANCH  51  55
ENDBRANCH  24  48
BRANCH  36  59
ATOM     59  C   UNL A   1      46.564  25.582  32.771  1.00  0.00     0.023 A 
ATOM     60  C   UNL A   1      47.835  25.985  32.329  1.00  0.00     0.031 A 
ATOM     61  C   UNL A   1      46.489  24.614  33.790  1.00  0.00     0.131 A 
ATOM     62  C   UNL A   1      48.982  25.399  32.886  1.00  0.00     0.055 A 
ATOM     63  C   UNL A   1      47.633  24.078  34.379  1.00  0.00     0.041 A 
ATOM     64  F   UNL A   1      45.297  24.192  34.244  1.00  0.00    -0.206 F 
ATOM     65  C   UNL A   1      48.889  24.465  33.922  1.00  0.00     0.022 A 
BRANCH  62  66
ATOM     66  S   UNL A   1      50.603  25.830  32.199  1.00  0.00     0.124 S 
ATOM     67  O   UNL A   1      50.991  24.586  31.539  1.00  0.00    -0.237 OA
ATOM     68  O   UNL A   1      50.284  26.947  31.317  1.00  0.00    -0.237 OA
ATOM     69  O   UNL A   1      51.394  26.179  33.378  1.00  0.00    -0.744 OA
ENDBRANCH  62  66
ENDBRANCH  36  59
ENDBRANCH  10  11
ENDBRANCH   3   5
ENDBRANCH   2   3
ENDBRANCH   1   2
BRANCH   1  70
ATOM     70  C   UNL A   1      33.851  34.605  29.461  1.00  0.00     0.274 C 
BRANCH  70  71
ATOM     71  O   UNL A   1      34.000  33.870  30.683  1.00  0.00    -0.460 OA
BRANCH  71  72
ATOM     72  C   UNL A   1      34.552  34.560  31.727  1.00  0.00     0.335 C 
ATOM     73  O   UNL A   1      34.205  35.677  32.090  1.00  0.00    -0.249 OA
BRANCH  72  74
ATOM     74  C   UNL A   1      35.627  33.706  32.407  1.00  0.00     0.228 C 
ATOM     75  C   UNL A   1      36.344  32.775  31.461  1.00  0.00     0.047 C 
ATOM     76  O   UNL A   1      36.630  34.518  33.028  1.00  0.00    -0.361 OA
ATOM     77  C   UNL A   1      37.505  33.615  31.009  1.00  0.00     0.037 C 
ATOM     78  C   UNL A   1      37.833  34.452  32.246  1.00  0.00     0.139 C 
BRANCH  78  79
ATOM     79  C   UNL A   1      38.961  33.889  33.133  1.00  0.00     0.161 C 
BRANCH  79  80
ATOM     80  N   UNL A   1      38.577  33.861  34.530  1.00  0.00    -0.270 N 
ATOM     81  C   UNL A   1      37.998  32.782  35.136  1.00  0.00     0.263 C 
ATOM     82  C   UNL A   1      38.947  34.820  35.437  1.00  0.00     0.280 C 
ATOM     83  O   UNL A   1      37.581  31.754  34.645  1.00  0.00    -0.269 OA
ATOM     84  C   UNL A   1      38.054  33.031  36.567  1.00  0.00     0.071 A 
ATOM     85  C   UNL A   1      38.632  34.263  36.758  1.00  0.00     0.141 A 
ATOM     86  O   UNL A   1      39.489  35.889  35.220  1.00  0.00    -0.267 OA
ATOM     87  C   UNL A   1      37.779  32.221  37.646  1.00  0.00     0.018 A 
ATOM     88  N   UNL A   1      38.995  34.788  37.942  1.00  0.00    -0.250 NA
ATOM     89  C   UNL A   1      38.135  32.716  38.902  1.00  0.00     0.021 A 
ATOM     90  C   UNL A   1      38.735  33.980  38.999  1.00  0.00     0.112 A 
ENDBRANCH  79  80
ENDBRANCH  78  79
ENDBRANCH  72  74
ENDBRANCH  71  72
ENDBRANCH  70  71
ENDBRANCH   1  70
TORSDOF 16
ENDMDL
MODEL 2
REMARK VINA RESULT:     -10.0      4.408      8.290
REMARK SMILES O=C(OCCOC(=O)[C@H]1CC[C@H](CN2C(=O)c3cccnc3C2=O)O1)c1ccc(-c2c3nc(c(-c4cc(S(=O)(=O)[O-])ccc4F)c4ccc([nH]4)c(-c4cc(S(=O)(=O)[O-])ccc4F)c4nc(c(-c5cc(S(=O)(=O)[O-])ccc5F)c5ccc2[nH]5)C=C4)C=C3)cc1
REMARK SMILES IDX 4 1 3 2 2 3 1 4 26 5 27 6 88 7 28 8 87 9 29 10 30 11 31 12
REMARK SMILES IDX 81 13 32 14 86 15 80 16 82 17 33 18 85 19 79 20 78 21 34 23
REMARK SMILES IDX 66 24 46 25 65 26 47 27 50 28 64 29 83 30 48 31 49 32 63 34
REMARK SMILES IDX 84 35 51 36 35 37 36 38 44 39 37 40 43 41 45 42 42 43 38 44
REMARK SMILES IDX 39 45 40 46 41 47 67 48 68 49 76 50 69 51 75 52 77 53 74 54
REMARK SMILES IDX 70 55 71 56 72 57 73 58 52 59 53 60 61 61 54 62 60 63 62 64
REMARK SMILES IDX 59 65 55 66 56 67 57 68 58 69 5 70 6 71 7 72 8 73 9 74 10 75
REMARK SMILES IDX 25 76 11 77 12 78 13 79 14 80 15 81 23 82 16 83 17 84 22 85
REMARK SMILES IDX 24 86 18 87 21 88 19 89 20 90
REMARK H PARENT 82 22 50 33
REMARK Flexibility Score: inf
ROOT
ATOM      1  C   UNL A   1      32.152  29.950  25.942  1.00  0.00     0.275 C 
ENDROOT
BRANCH   1   2
ATOM      2  O   UNL A   1      33.559  30.049  26.228  1.00  0.00    -0.458 OA
BRANCH   2   3
ATOM      3  C   UNL A   1      34.156  30.590  27.323  1.00  0.00     0.338 C 
ATOM      4  O   UNL A   1      33.700  31.629  27.797  1.00  0.00    -0.246 OA
BRANCH   3   5
ATOM      5  C   UNL A   1      35.480  30.103  27.832  1.00  0.00     0.060 A 
ATOM      6  C   UNL A   1      36.668  30.042  27.095  1.00  0.00     0.016 A 
ATOM      7  C   UNL A   1      35.524  29.704  29.183  1.00  0.00     0.016 A 
ATOM      8  C   UNL A   1      37.877  29.681  27.697  1.00  0.00     0.010 A 
ATOM      9  C   UNL A   1      36.730  29.327  29.790  1.00  0.00     0.010 A 
ATOM     10  C   UNL A   1      37.918  29.322  29.045  1.00  0.00    -0.014 A 
BRANCH  10  11
ATOM     11  C   UNL A   1      39.161  28.740  29.598  1.00  0.00     0.031 A 
ATOM     12  C   UNL A   1      39.721  29.366  30.838  1.00  0.00     0.074 A 
ATOM     13  C   UNL A   1      39.747  27.662  29.046  1.00  0.00     0.049 A 
ATOM     14  N   UNL A   1      40.781  29.043  31.527  1.00  0.00    -0.248 NA
ATOM     15  C   UNL A   1      38.962  30.504  31.381  1.00  0.00     0.031 C 
ATOM     16  C   UNL A   1      39.235  26.930  27.891  1.00  0.00     0.029 A 
ATOM     17  N   UNL A   1      40.905  27.003  29.369  1.00  0.00    -0.354 N 
ATOM     18  C   UNL A   1      40.804  29.923  32.601  1.00  0.00     0.074 A 
ATOM     19  C   UNL A   1      39.691  30.831  32.433  1.00  0.00     0.031 C 
ATOM     20  C   UNL A   1      40.109  25.965  27.556  1.00  0.00     0.029 A 
ATOM     21  C   UNL A   1      41.242  26.009  28.476  1.00  0.00     0.049 A 
ATOM     22  H   UNL A   1      41.445  27.218  30.163  1.00  0.00     0.167 HD
ATOM     23  C   UNL A   1      41.667  29.954  33.645  1.00  0.00     0.034 A 
ATOM     24  C   UNL A   1      42.350  25.243  28.403  1.00  0.00     0.034 A 
ATOM     25  C   UNL A   1      42.806  29.078  33.746  1.00  0.00     0.049 A 
ATOM     26  C   UNL A   1      43.388  25.390  29.490  1.00  0.00     0.074 A 
ATOM     27  C   UNL A   1      43.776  29.029  34.730  1.00  0.00     0.029 A 
ATOM     28  N   UNL A   1      43.147  28.116  32.800  1.00  0.00    -0.354 N 
ATOM     29  N   UNL A   1      43.386  26.200  30.526  1.00  0.00    -0.248 NA
ATOM     30  C   UNL A   1      44.560  24.508  29.419  1.00  0.00     0.031 C 
ATOM     31  C   UNL A   1      44.742  28.097  34.338  1.00  0.00     0.029 A 
ATOM     32  C   UNL A   1      44.334  27.499  33.153  1.00  0.00     0.049 A 
ATOM     33  H   UNL A   1      42.619  27.906  31.996  1.00  0.00     0.167 HD
ATOM     34  C   UNL A   1      44.535  25.900  31.251  1.00  0.00     0.074 A 
ATOM     35  C   UNL A   1      45.207  24.835  30.530  1.00  0.00     0.031 C 
ATOM     36  C   UNL A   1      44.984  26.440  32.412  1.00  0.00     0.034 A 
BRANCH  23  37
ATOM     37  C   UNL A   1      41.427  31.025  34.679  1.00  0.00     0.023 A 
ATOM     38  C   UNL A   1      40.354  30.937  35.587  1.00  0.00     0.031 A 
ATOM     39  C   UNL A   1      42.183  32.209  34.667  1.00  0.00     0.131 A 
ATOM     40  C   UNL A   1      39.993  32.055  36.354  1.00  0.00     0.055 A 
ATOM     41  C   UNL A   1      41.877  33.283  35.505  1.00  0.00     0.041 A 
ATOM     42  F   UNL A   1      43.199  32.362  33.804  1.00  0.00    -0.206 F 
ATOM     43  C   UNL A   1      40.761  33.221  36.335  1.00  0.00     0.022 A 
BRANCH  40  44
ATOM     44  S   UNL A   1      38.386  32.037  37.200  1.00  0.00     0.124 S 
ATOM     45  O   UNL A   1      37.671  33.102  36.499  1.00  0.00    -0.237 OA
ATOM     46  O   UNL A   1      37.914  30.681  36.951  1.00  0.00    -0.237 OA
ATOM     47  O   UNL A   1      38.728  32.336  38.589  1.00  0.00    -0.744 OA
ENDBRANCH  40  44
ENDBRANCH  23  37
BRANCH  24  48
ATOM     48  C   UNL A   1      42.555  24.318  27.250  1.00  0.00     0.023 A 
ATOM     49  C   UNL A   1      42.110  22.987  27.268  1.00  0.00     0.031 A 
ATOM     50  C   UNL A   1      43.233  24.766  26.100  1.00  0.00     0.131 A 
ATOM     51  C   UNL A   1      42.370  22.145  26.171  1.00  0.00     0.055 A 
ATOM     52  C   UNL A   1      43.454  23.939  24.997  1.00  0.00     0.041 A 
ATOM     53  F   UNL A   1      43.687  26.028  26.030  1.00  0.00    -0.206 F 
ATOM     54  C   UNL A   1      43.028  22.616  25.032  1.00  0.00     0.022 A 
BRANCH  51  55
ATOM     55  S   UNL A   1      41.881  20.400  26.268  1.00  0.00     0.124 S 
ATOM     56  O   UNL A   1      42.672  19.808  25.195  1.00  0.00    -0.237 OA
ATOM     57  O   UNL A   1      42.279  20.050  27.628  1.00  0.00    -0.237 OA
ATOM     58  O   UNL A   1      40.439  20.437  26.034  1.00  0.00    -0.744 OA
ENDBRANCH  51  55
ENDBRANCH  24  48
BRANCH  36  59
ATOM     59  C   UNL A   1      46.237  25.852  33.008  1.00  0.00     0.023 A 
ATOM     60  C   UNL A   1      46.203  24.732  33.857  1.00  0.00     0.031 A 
ATOM     61  C   UNL A   1      47.491  26.399  32.678  1.00  0.00     0.131 A 
ATOM     62  C   UNL A   1      47.401  24.215  34.371  1.00  0.00     0.055 A 
ATOM     63  C   UNL A   1      48.682  25.844  33.147  1.00  0.00     0.041 A 
ATOM     64  F   UNL A   1      47.577  27.471  31.873  1.00  0.00    -0.206 F 
ATOM     65  C   UNL A   1      48.639  24.749  34.005  1.00  0.00     0.022 A 
BRANCH  62  66
ATOM     66  S   UNL A   1      47.320  22.864  35.577  1.00  0.00     0.124 S 
ATOM     67  O   UNL A   1      46.840  23.553  36.771  1.00  0.00    -0.237 OA
ATOM     68  O   UNL A   1      46.380  21.940  34.952  1.00  0.00    -0.237 OA
ATOM     69  O   UNL A   1      48.700  22.386  35.651  1.00  0.00    -0.744 OA
ENDBRANCH  62  66
ENDBRANCH  36  59
ENDBRANCH  10  11
ENDBRANCH   3   5
ENDBRANCH   2   3
ENDBRANCH   1   2
BRANCH   1  70
ATOM     70  C   UNL A   1      31.856  29.169  24.658  1.00  0.00     0.274 C 
BRANCH  70  71
ATOM     71  O   UNL A   1      31.040  28.019  24.915  1.00  0.00    -0.460 OA
BRANCH  71  72
ATOM     72  C   UNL A   1      31.609  27.049  25.693  1.00  0.00     0.335 C 
ATOM     73  O   UNL A   1      31.245  26.754  26.824  1.00  0.00    -0.249 OA
BRANCH  72  74
ATOM     74  C   UNL A   1      32.733  26.353  24.918  1.00  0.00     0.228 C 
ATOM     75  C   UNL A   1      33.846  25.844  25.800  1.00  0.00     0.047 C 
ATOM     76  O   UNL A   1      32.245  25.229  24.177  1.00  0.00    -0.361 OA
ATOM     77  C   UNL A   1      33.393  24.445  26.108  1.00  0.00     0.037 C 
ATOM     78  C   UNL A   1      32.674  24.021  24.828  1.00  0.00     0.139 C 
BRANCH  78  79
ATOM     79  C   UNL A   1      33.532  23.212  23.835  1.00  0.00     0.161 C 
BRANCH  79  80
ATOM     80  N   UNL A   1      33.312  21.787  23.977  1.00  0.00    -0.270 N 
ATOM     81  C   UNL A   1      32.441  21.073  23.203  1.00  0.00     0.263 C 
ATOM     82  C   UNL A   1      34.100  20.972  24.746  1.00  0.00     0.280 C 
ATOM     83  O   UNL A   1      31.626  21.467  22.395  1.00  0.00    -0.269 OA
ATOM     84  C   UNL A   1      32.733  19.669  23.439  1.00  0.00     0.071 A 
ATOM     85  C   UNL A   1      33.741  19.599  24.371  1.00  0.00     0.141 A 
ATOM     86  O   UNL A   1      34.973  21.294  25.532  1.00  0.00    -0.267 OA
ATOM     87  C   UNL A   1      32.292  18.527  22.809  1.00  0.00     0.018 A 
ATOM     88  N   UNL A   1      34.392  18.483  24.743  1.00  0.00    -0.250 NA
ATOM     89  C   UNL A   1      32.934  17.337  23.159  1.00  0.00     0.021 A 
ATOM     90  C   UNL A   1      33.964  17.364  24.109  1.00  0.00     0.112 A 
ENDBRANCH  79  80
ENDBRANCH  78  79
ENDBRANCH  72  74
ENDBRANCH  71  72
ENDBRANCH  70  71
ENDBRANCH   1  70
TORSDOF 16
ENDMDL
MODEL 3
REMARK VINA RESULT:     -10.0      5.485     11.743
REMARK SMILES O=C(OCCOC(=O)[C@H]1CC[C@H](CN2C(=O)c3cccnc3C2=O)O1)c1ccc(-c2c3nc(c(-c4cc(S(=O)(=O)[O-])ccc4F)c4ccc([nH]4)c(-c4cc(S(=O)(=O)[O-])ccc4F)c4nc(c(-c5cc(S(=O)(=O)[O-])ccc5F)c5ccc2[nH]5)C=C4)C=C3)cc1
REMARK SMILES IDX 4 1 3 2 2 3 1 4 26 5 27 6 88 7 28 8 87 9 29 10 30 11 31 12
REMARK SMILES IDX 81 13 32 14 86 15 80 16 82 17 33 18 85 19 79 20 78 21 34 23
REMARK SMILES IDX 66 24 46 25 65 26 47 27 50 28 64 29 83 30 48 31 49 32 63 34
REMARK SMILES IDX 84 35 51 36 35 37 36 38 44 39 37 40 43 41 45 42 42 43 38 44
REMARK SMILES IDX 39 45 40 46 41 47 67 48 68 49 76 50 69 51 75 52 77 53 74 54
REMARK SMILES IDX 70 55 71 56 72 57 73 58 52 59 53 60 61 61 54 62 60 63 62 64
REMARK SMILES IDX 59 65 55 66 56 67 57 68 58 69 5 70 6 71 7 72 8 73 9 74 10 75
REMARK SMILES IDX 25 76 11 77 12 78 13 79 14 80 15 81 23 82 16 83 17 84 22 85
REMARK SMILES IDX 24 86 18 87 21 88 19 89 20 90
REMARK H PARENT 82 22 50 33
REMARK Flexibility Score: inf
ROOT
ATOM      1  C   UNL A   1      36.766  21.230  25.380  1.00  0.00     0.275 C 
ENDROOT
BRANCH   1   2
ATOM      2  O   UNL A   1      37.408  22.474  25.717  1.00  0.00    -0.458 OA
BRANCH   2   3
ATOM      3  C   UNL A   1      38.689  22.671  26.125  1.00  0.00     0.338 C 
ATOM      4  O   UNL A   1      39.439  21.702  26.221  1.00  0.00    -0.246 OA
BRANCH   3   5
ATOM      5  C   UNL A   1      39.154  23.981  26.687  1.00  0.00     0.060 A 
ATOM      6  C   UNL A   1      38.992  24.408  28.010  1.00  0.00     0.016 A 
ATOM      7  C   UNL A   1      39.839  24.836  25.800  1.00  0.00     0.016 A 
ATOM      8  C   UNL A   1      39.566  25.601  28.463  1.00  0.00     0.010 A 
ATOM      9  C   UNL A   1      40.405  26.040  26.244  1.00  0.00     0.010 A 
ATOM     10  C   UNL A   1      40.274  26.424  27.586  1.00  0.00    -0.014 A 
BRANCH  10  11
ATOM     11  C   UNL A   1      40.682  27.773  28.035  1.00  0.00     0.031 A 
ATOM     12  C   UNL A   1      42.144  28.092  28.015  1.00  0.00     0.074 A 
ATOM     13  C   UNL A   1      39.779  28.702  28.402  1.00  0.00     0.049 A 
ATOM     14  N   UNL A   1      42.759  29.196  28.342  1.00  0.00    -0.248 NA
ATOM     15  C   UNL A   1      43.030  27.016  27.542  1.00  0.00     0.031 C 
ATOM     16  C   UNL A   1      38.331  28.518  28.375  1.00  0.00     0.029 A 
ATOM     17  N   UNL A   1      39.943  29.975  28.883  1.00  0.00    -0.354 N 
ATOM     18  C   UNL A   1      44.105  28.956  28.090  1.00  0.00     0.074 A 
ATOM     19  C   UNL A   1      44.217  27.584  27.648  1.00  0.00     0.031 C 
ATOM     20  C   UNL A   1      37.737  29.611  28.886  1.00  0.00     0.029 A 
ATOM     21  C   UNL A   1      38.765  30.573  29.273  1.00  0.00     0.049 A 
ATOM     22  H   UNL A   1      40.818  30.420  28.944  1.00  0.00     0.167 HD
ATOM     23  C   UNL A   1      45.147  29.814  28.199  1.00  0.00     0.034 A 
ATOM     24  C   UNL A   1      38.550  31.753  29.891  1.00  0.00     0.034 A 
ATOM     25  C   UNL A   1      45.009  31.154  28.709  1.00  0.00     0.049 A 
ATOM     26  C   UNL A   1      39.741  32.645  30.152  1.00  0.00     0.074 A 
ATOM     27  C   UNL A   1      45.986  32.112  28.904  1.00  0.00     0.029 A 
ATOM     28  N   UNL A   1      43.809  31.713  29.142  1.00  0.00    -0.354 N 
ATOM     29  N   UNL A   1      41.008  32.428  29.877  1.00  0.00    -0.248 NA
ATOM     30  C   UNL A   1      39.476  33.947  30.777  1.00  0.00     0.031 C 
ATOM     31  C   UNL A   1      45.393  33.214  29.528  1.00  0.00     0.029 A 
ATOM     32  C   UNL A   1      44.028  32.984  29.643  1.00  0.00     0.049 A 
ATOM     33  H   UNL A   1      42.932  31.268  29.097  1.00  0.00     0.167 HD
ATOM     34  C   UNL A   1      41.687  33.580  30.260  1.00  0.00     0.074 A 
ATOM     35  C   UNL A   1      40.687  34.489  30.789  1.00  0.00     0.031 C 
ATOM     36  C   UNL A   1      43.010  33.867  30.169  1.00  0.00     0.034 A 
BRANCH  23  37
ATOM     37  C   UNL A   1      46.504  29.266  27.835  1.00  0.00     0.023 A 
ATOM     38  C   UNL A   1      46.842  28.982  26.497  1.00  0.00     0.031 A 
ATOM     39  C   UNL A   1      47.413  28.892  28.837  1.00  0.00     0.131 A 
ATOM     40  C   UNL A   1      47.994  28.234  26.211  1.00  0.00     0.055 A 
ATOM     41  C   UNL A   1      48.608  28.234  28.536  1.00  0.00     0.041 A 
ATOM     42  F   UNL A   1      47.133  29.112  30.131  1.00  0.00    -0.206 F 
ATOM     43  C   UNL A   1      48.891  27.878  27.220  1.00  0.00     0.022 A 
BRANCH  40  44
ATOM     44  S   UNL A   1      48.184  27.549  24.541  1.00  0.00     0.124 S 
ATOM     45  O   UNL A   1      49.538  27.976  24.197  1.00  0.00    -0.237 OA
ATOM     46  O   UNL A   1      48.001  26.120  24.764  1.00  0.00    -0.237 OA
ATOM     47  O   UNL A   1      47.121  28.204  23.781  1.00  0.00    -0.744 OA
ENDBRANCH  40  44
ENDBRANCH  23  37
BRANCH  24  48
ATOM     48  C   UNL A   1      37.179  32.130  30.345  1.00  0.00     0.023 A 
ATOM     49  C   UNL A   1      36.272  32.803  29.510  1.00  0.00     0.031 A 
ATOM     50  C   UNL A   1      36.764  31.831  31.656  1.00  0.00     0.131 A 
ATOM     51  C   UNL A   1      35.009  33.176  30.004  1.00  0.00     0.055 A 
ATOM     52  C   UNL A   1      35.494  32.167  32.130  1.00  0.00     0.041 A 
ATOM     53  F   UNL A   1      37.592  31.196  32.500  1.00  0.00    -0.206 F 
ATOM     54  C   UNL A   1      34.610  32.851  31.303  1.00  0.00     0.022 A 
BRANCH  51  55
ATOM     55  S   UNL A   1      33.900  34.141  28.939  1.00  0.00     0.124 S 
ATOM     56  O   UNL A   1      33.430  33.128  28.001  1.00  0.00    -0.237 OA
ATOM     57  O   UNL A   1      32.917  34.636  29.897  1.00  0.00    -0.237 OA
ATOM     58  O   UNL A   1      34.779  35.161  28.369  1.00  0.00    -0.744 OA
ENDBRANCH  51  55
ENDBRANCH  24  48
BRANCH  36  59
ATOM     59  C   UNL A   1      43.449  35.244  30.600  1.00  0.00     0.023 A 
ATOM     60  C   UNL A   1      43.389  36.350  29.735  1.00  0.00     0.031 A 
ATOM     61  C   UNL A   1      43.892  35.454  31.919  1.00  0.00     0.131 A 
ATOM     62  C   UNL A   1      43.794  37.612  30.193  1.00  0.00     0.055 A 
ATOM     63  C   UNL A   1      44.239  36.722  32.384  1.00  0.00     0.041 A 
ATOM     64  F   UNL A   1      43.971  34.429  32.784  1.00  0.00    -0.206 F 
ATOM     65  C   UNL A   1      44.198  37.809  31.516  1.00  0.00     0.022 A 
BRANCH  62  66
ATOM     66  S   UNL A   1      43.845  38.991  29.017  1.00  0.00     0.124 S 
ATOM     67  O   UNL A   1      43.921  40.145  29.908  1.00  0.00    -0.237 OA
ATOM     68  O   UNL A   1      45.048  38.701  28.244  1.00  0.00    -0.237 OA
ATOM     69  O   UNL A   1      42.589  38.860  28.280  1.00  0.00    -0.744 OA
ENDBRANCH  62  66
ENDBRANCH  36  59
ENDBRANCH  10  11
ENDBRANCH   3   5
ENDBRANCH   2   3
ENDBRANCH   1   2
BRANCH   1  70
ATOM     70  C   UNL A   1      35.280  21.204  25.755  1.00  0.00     0.274 C 
BRANCH  70  71
ATOM     71  O   UNL A   1      34.533  22.183  25.020  1.00  0.00    -0.460 OA
BRANCH  71  72
ATOM     72  C   UNL A   1      34.115  23.270  25.736  1.00  0.00     0.335 C 
ATOM     73  O   UNL A   1      33.556  23.221  26.825  1.00  0.00    -0.249 OA
BRANCH  72  74
ATOM     74  C   UNL A   1      34.499  24.559  25.000  1.00  0.00     0.228 C 
ATOM     75  C   UNL A   1      34.439  24.434  23.498  1.00  0.00     0.047 C 
ATOM     76  O   UNL A   1      33.640  25.647  25.360  1.00  0.00    -0.361 OA
ATOM     77  C   UNL A   1      33.028  24.859  23.200  1.00  0.00     0.037 C 
ATOM     78  C   UNL A   1      32.752  25.921  24.264  1.00  0.00     0.139 C 
BRANCH  78  79
ATOM     79  C   UNL A   1      32.977  27.375  23.807  1.00  0.00     0.161 C 
BRANCH  79  80
ATOM     80  N   UNL A   1      31.723  28.080  23.632  1.00  0.00    -0.270 N 
ATOM     81  C   UNL A   1      31.313  29.110  24.431  1.00  0.00     0.263 C 
ATOM     82  C   UNL A   1      30.922  27.938  22.529  1.00  0.00     0.280 C 
ATOM     83  O   UNL A   1      31.799  29.527  25.461  1.00  0.00    -0.269 OA
ATOM     84  C   UNL A   1      30.187  29.734  23.757  1.00  0.00     0.071 A 
ATOM     85  C   UNL A   1      29.945  29.032  22.600  1.00  0.00     0.141 A 
ATOM     86  O   UNL A   1      31.022  27.125  21.627  1.00  0.00    -0.267 OA
ATOM     87  C   UNL A   1      29.502  30.901  24.013  1.00  0.00     0.018 A 
ATOM     88  N   UNL A   1      29.083  29.384  21.630  1.00  0.00    -0.250 NA
ATOM     89  C   UNL A   1      28.591  31.315  23.038  1.00  0.00     0.021 A 
ATOM     90  C   UNL A   1      28.423  30.541  21.882  1.00  0.00     0.112 A 
ENDBRANCH  79  80
ENDBRANCH  78  79
ENDBRANCH  72  74
ENDBRANCH  71  72
ENDBRANCH  70  71
ENDBRANCH   1  70
TORSDOF 16
ENDMDL
