MODEL 1
REMARK VINA RESULT:     -11.0      0.000      0.000
REMARK SMILES NC(=O)c1c(F)cccc1O[C@@H](F)C(=O)OCCOC(=O)c1ccc(-c2c3nc(c(-c4cc(S(=O)(=O)[O-])ccc4F)c4ccc([nH]4)c(-c4cc(S(=O)(=O)[O-])ccc4F)c4nc(c(-c5cc(S(=O)(=O)[O-])ccc5F)c5ccc2[nH]5)C=C4)C=C3)cc1
REMARK SMILES IDX 17 1 16 2 14 3 15 4 12 5 13 6 11 7 10 8 4 9 5 10 6 11 7 12
REMARK SMILES IDX 9 13 8 14 2 15 1 16 3 19 18 20 19 21 20 22 21 23 22 24 23 25
REMARK SMILES IDX 84 26 24 27 83 28 25 29 26 30 27 31 77 32 28 33 82 34 76 35
REMARK SMILES IDX 78 36 29 37 81 38 75 39 74 40 30 42 62 43 42 44 61 45 43 46
REMARK SMILES IDX 46 47 60 48 79 49 44 50 45 51 59 53 80 54 47 55 31 56 32 57
REMARK SMILES IDX 40 58 33 59 39 60 41 61 38 62 34 63 35 64 36 65 37 66 63 67
REMARK SMILES IDX 64 68 72 69 65 70 71 71 73 72 70 73 66 74 67 75 68 76 69 77
REMARK SMILES IDX 48 78 49 79 57 80 50 81 56 82 58 83 55 84 51 85 52 86 53 87
REMARK SMILES IDX 54 88
REMARK H PARENT 1 17 1 18 78 41 46 52
REMARK Flexibility Score: inf
ROOT
ATOM      1  C   UNL A   1      35.574  21.926  24.204  1.00  0.00     0.274 C 
ENDROOT
BRANCH   1   2
ATOM      2  O   UNL A   1      34.404  21.580  24.975  1.00  0.00    -0.457 OA
BRANCH   2   3
ATOM      3  C   UNL A   1      33.547  22.602  25.277  1.00  0.00     0.381 C 
ATOM      4  O   UNL A   1      33.732  23.377  26.211  1.00  0.00    -0.244 OA
BRANCH   3   5
ATOM      5  C   UNL A   1      32.392  22.759  24.232  1.00  0.00     0.461 C 
ATOM      6  F   UNL A   1      32.143  21.530  23.667  1.00  0.00    -0.189 F 
BRANCH   5   7
ATOM      7  O   UNL A   1      32.215  23.668  23.167  1.00  0.00    -0.450 OA
BRANCH   7   8
ATOM      8  C   UNL A   1      31.553  24.835  23.372  1.00  0.00     0.139 A 
ATOM      9  C   UNL A   1      31.622  25.956  22.537  1.00  0.00     0.117 A 
ATOM     10  C   UNL A   1      30.776  27.039  22.786  1.00  0.00     0.139 A 
ATOM     11  F   UNL A   1      30.813  28.132  22.008  1.00  0.00    -0.206 F 
ATOM     12  C   UNL A   1      29.853  27.012  23.830  1.00  0.00     0.040 A 
ATOM     13  C   UNL A   1      30.621  24.807  24.420  1.00  0.00     0.047 A 
ATOM     14  C   UNL A   1      29.774  25.890  24.651  1.00  0.00     0.007 A 
BRANCH   9  15
ATOM     15  C   UNL A   1      32.532  25.998  21.377  1.00  0.00     0.255 C 
ATOM     16  N   UNL A   1      31.996  25.685  20.160  1.00  0.00    -0.365 N 
ATOM     17  H   UNL A   1      32.563  25.699  19.355  1.00  0.00     0.159 HD
ATOM     18  H   UNL A   1      31.044  25.445  20.088  1.00  0.00     0.159 HD
ATOM     19  O   UNL A   1      33.692  26.367  21.476  1.00  0.00    -0.269 OA
ENDBRANCH   9  15
ENDBRANCH   7   8
ENDBRANCH   5   7
ENDBRANCH   3   5
ENDBRANCH   2   3
ENDBRANCH   1   2
BRANCH   1  20
ATOM     20  C   UNL A   1      36.779  21.084  24.633  1.00  0.00     0.275 C 
BRANCH  20  21
ATOM     21  O   UNL A   1      37.341  21.552  25.872  1.00  0.00    -0.458 OA
BRANCH  21  22
ATOM     22  C   UNL A   1      38.661  21.295  26.029  1.00  0.00     0.338 C 
ATOM     23  O   UNL A   1      39.265  20.300  25.662  1.00  0.00    -0.246 OA
BRANCH  22  24
ATOM     24  C   UNL A   1      39.336  22.479  26.573  1.00  0.00     0.060 A 
ATOM     25  C   UNL A   1      38.906  23.729  26.121  1.00  0.00     0.016 A 
ATOM     26  C   UNL A   1      40.423  22.370  27.441  1.00  0.00     0.016 A 
ATOM     27  C   UNL A   1      39.585  24.878  26.500  1.00  0.00     0.010 A 
ATOM     28  C   UNL A   1      41.093  23.531  27.840  1.00  0.00     0.010 A 
ATOM     29  C   UNL A   1      40.687  24.787  27.357  1.00  0.00    -0.014 A 
BRANCH  29  30
ATOM     30  C   UNL A   1      41.445  26.014  27.688  1.00  0.00     0.031 A 
ATOM     31  C   UNL A   1      40.794  27.079  28.522  1.00  0.00     0.074 A 
ATOM     32  C   UNL A   1      42.729  26.130  27.300  1.00  0.00     0.049 A 
ATOM     33  N   UNL A   1      41.230  28.272  28.821  1.00  0.00    -0.248 NA
ATOM     34  C   UNL A   1      39.478  26.755  29.099  1.00  0.00     0.031 C 
ATOM     35  C   UNL A   1      43.488  25.106  26.578  1.00  0.00     0.029 A 
ATOM     36  N   UNL A   1      43.630  27.147  27.476  1.00  0.00    -0.354 N 
ATOM     37  C   UNL A   1      40.241  28.851  29.607  1.00  0.00     0.074 A 
ATOM     38  C   UNL A   1      39.172  27.883  29.727  1.00  0.00     0.031 C 
ATOM     39  C   UNL A   1      44.746  25.538  26.397  1.00  0.00     0.029 A 
ATOM     40  C   UNL A   1      44.864  26.894  26.924  1.00  0.00     0.049 A 
ATOM     41  H   UNL A   1      43.414  27.981  27.953  1.00  0.00     0.167 HD
ATOM     42  C   UNL A   1      40.234  30.079  30.177  1.00  0.00     0.034 A 
ATOM     43  C   UNL A   1      45.953  27.681  26.827  1.00  0.00     0.034 A 
ATOM     44  C   UNL A   1      41.317  31.020  30.057  1.00  0.00     0.049 A 
ATOM     45  C   UNL A   1      45.877  29.080  27.379  1.00  0.00     0.074 A 
ATOM     46  C   UNL A   1      41.395  32.313  30.542  1.00  0.00     0.029 A 
ATOM     47  N   UNL A   1      42.521  30.760  29.417  1.00  0.00    -0.354 N 
ATOM     48  N   UNL A   1      44.885  29.662  28.014  1.00  0.00    -0.248 NA
ATOM     49  C   UNL A   1      47.055  29.936  27.186  1.00  0.00     0.031 C 
ATOM     50  C   UNL A   1      42.630  32.848  30.162  1.00  0.00     0.029 A 
ATOM     51  C   UNL A   1      43.344  31.870  29.488  1.00  0.00     0.049 A 
ATOM     52  H   UNL A   1      42.755  29.910  28.977  1.00  0.00     0.167 HD
ATOM     53  C   UNL A   1      45.329  30.945  28.312  1.00  0.00     0.074 A 
ATOM     54  C   UNL A   1      46.677  31.053  27.794  1.00  0.00     0.031 C 
ATOM     55  C   UNL A   1      44.682  31.946  28.959  1.00  0.00     0.034 A 
BRANCH  42  56
ATOM     56  C   UNL A   1      39.006  30.491  30.940  1.00  0.00     0.023 A 
ATOM     57  C   UNL A   1      37.974  31.228  30.334  1.00  0.00     0.031 A 
ATOM     58  C   UNL A   1      38.852  30.113  32.286  1.00  0.00     0.131 A 
ATOM     59  C   UNL A   1      36.845  31.589  31.084  1.00  0.00     0.055 A 
ATOM     60  C   UNL A   1      37.703  30.429  33.011  1.00  0.00     0.041 A 
ATOM     61  F   UNL A   1      39.820  29.427  32.915  1.00  0.00    -0.206 F 
ATOM     62  C   UNL A   1      36.691  31.173  32.410  1.00  0.00     0.022 A 
BRANCH  59  63
ATOM     63  S   UNL A   1      35.589  32.652  30.322  1.00  0.00     0.124 S 
ATOM     64  O   UNL A   1      34.417  32.354  31.143  1.00  0.00    -0.237 OA
ATOM     65  O   UNL A   1      36.157  33.985  30.481  1.00  0.00    -0.237 OA
ATOM     66  O   UNL A   1      35.519  32.166  28.946  1.00  0.00    -0.744 OA
ENDBRANCH  59  63
ENDBRANCH  42  56
BRANCH  43  67
ATOM     67  C   UNL A   1      47.180  27.197  26.136  1.00  0.00     0.023 A 
ATOM     68  C   UNL A   1      48.182  26.511  26.839  1.00  0.00     0.031 A 
ATOM     69  C   UNL A   1      47.384  27.441  24.765  1.00  0.00     0.131 A 
ATOM     70  C   UNL A   1      49.357  26.121  26.177  1.00  0.00     0.055 A 
ATOM     71  C   UNL A   1      48.533  27.009  24.101  1.00  0.00     0.041 A 
ATOM     72  F   UNL A   1      46.457  28.096  24.047  1.00  0.00    -0.206 F 
ATOM     73  C   UNL A   1      49.533  26.352  24.810  1.00  0.00     0.022 A 
BRANCH  70  74
ATOM     74  S   UNL A   1      50.688  25.358  27.145  1.00  0.00     0.124 S 
ATOM     75  O   UNL A   1      51.104  26.464  27.999  1.00  0.00    -0.237 OA
ATOM     76  O   UNL A   1      49.993  24.260  27.808  1.00  0.00    -0.237 OA
ATOM     77  O   UNL A   1      51.659  24.955  26.130  1.00  0.00    -0.744 OA
ENDBRANCH  70  74
ENDBRANCH  43  67
BRANCH  55  78
ATOM     78  C   UNL A   1      45.441  33.225  29.174  1.00  0.00     0.023 A 
ATOM     79  C   UNL A   1      45.437  34.248  28.212  1.00  0.00     0.031 A 
ATOM     80  C   UNL A   1      46.143  33.433  30.374  1.00  0.00     0.131 A 
ATOM     81  C   UNL A   1      46.149  35.430  28.456  1.00  0.00     0.055 A 
ATOM     82  C   UNL A   1      46.815  34.627  30.628  1.00  0.00     0.041 A 
ATOM     83  F   UNL A   1      46.168  32.483  31.323  1.00  0.00    -0.206 F 
ATOM     84  C   UNL A   1      46.825  35.632  29.665  1.00  0.00     0.022 A 
BRANCH  81  85
ATOM     85  S   UNL A   1      46.201  36.700  27.163  1.00  0.00     0.124 S 
ATOM     86  O   UNL A   1      46.525  35.910  25.978  1.00  0.00    -0.237 OA
ATOM     87  O   UNL A   1      44.852  37.254  27.208  1.00  0.00    -0.237 OA
ATOM     88  O   UNL A   1      47.256  37.605  27.613  1.00  0.00    -0.744 OA
ENDBRANCH  81  85
ENDBRANCH  55  78
ENDBRANCH  29  30
ENDBRANCH  22  24
ENDBRANCH  21  22
ENDBRANCH  20  21
ENDBRANCH   1  20
TORSDOF 17
ENDMDL
MODEL 2
REMARK VINA RESULT:     -11.0      1.767      1.967
REMARK SMILES NC(=O)c1c(F)cccc1O[C@@H](F)C(=O)OCCOC(=O)c1ccc(-c2c3nc(c(-c4cc(S(=O)(=O)[O-])ccc4F)c4ccc([nH]4)c(-c4cc(S(=O)(=O)[O-])ccc4F)c4nc(c(-c5cc(S(=O)(=O)[O-])ccc5F)c5ccc2[nH]5)C=C4)C=C3)cc1
REMARK SMILES IDX 17 1 16 2 14 3 15 4 12 5 13 6 11 7 10 8 4 9 5 10 6 11 7 12
REMARK SMILES IDX 9 13 8 14 2 15 1 16 3 19 18 20 19 21 20 22 21 23 22 24 23 25
REMARK SMILES IDX 84 26 24 27 83 28 25 29 26 30 27 31 77 32 28 33 82 34 76 35
REMARK SMILES IDX 78 36 29 37 81 38 75 39 74 40 30 42 62 43 42 44 61 45 43 46
REMARK SMILES IDX 46 47 60 48 79 49 44 50 45 51 59 53 80 54 47 55 31 56 32 57
REMARK SMILES IDX 40 58 33 59 39 60 41 61 38 62 34 63 35 64 36 65 37 66 63 67
REMARK SMILES IDX 64 68 72 69 65 70 71 71 73 72 70 73 66 74 67 75 68 76 69 77
REMARK SMILES IDX 48 78 49 79 57 80 50 81 56 82 58 83 55 84 51 85 52 86 53 87
REMARK SMILES IDX 54 88
REMARK H PARENT 1 17 1 18 78 41 46 52
REMARK Flexibility Score: inf
ROOT
ATOM      1  C   UNL A   1      34.753  21.136  25.657  1.00  0.00     0.274 C 
ENDROOT
BRANCH   1   2
ATOM      2  O   UNL A   1      34.781  22.493  26.149  1.00  0.00    -0.457 OA
BRANCH   2   3
ATOM      3  C   UNL A   1      33.608  23.191  26.080  1.00  0.00     0.381 C 
ATOM      4  O   UNL A   1      32.687  23.034  26.877  1.00  0.00    -0.244 OA
BRANCH   3   5
ATOM      5  C   UNL A   1      33.621  24.299  24.973  1.00  0.00     0.461 C 
ATOM      6  F   UNL A   1      34.787  24.185  24.254  1.00  0.00    -0.189 F 
BRANCH   5   7
ATOM      7  O   UNL A   1      33.394  25.690  25.043  1.00  0.00    -0.450 OA
BRANCH   7   8
ATOM      8  C   UNL A   1      32.217  26.209  24.613  1.00  0.00     0.139 A 
ATOM      9  C   UNL A   1      32.046  26.951  23.439  1.00  0.00     0.117 A 
ATOM     10  C   UNL A   1      30.754  27.302  23.041  1.00  0.00     0.139 A 
ATOM     11  F   UNL A   1      30.550  28.013  21.920  1.00  0.00    -0.206 F 
ATOM     12  C   UNL A   1      29.637  26.906  23.775  1.00  0.00     0.040 A 
ATOM     13  C   UNL A   1      31.092  25.809  25.350  1.00  0.00     0.047 A 
ATOM     14  C   UNL A   1      29.807  26.156  24.935  1.00  0.00     0.007 A 
BRANCH   9  15
ATOM     15  C   UNL A   1      33.193  27.327  22.591  1.00  0.00     0.255 C 
ATOM     16  N   UNL A   1      33.992  28.337  23.045  1.00  0.00    -0.365 N 
ATOM     17  H   UNL A   1      34.770  28.625  22.515  1.00  0.00     0.159 HD
ATOM     18  H   UNL A   1      33.789  28.778  23.901  1.00  0.00     0.159 HD
ATOM     19  O   UNL A   1      33.470  26.720  21.567  1.00  0.00    -0.269 OA
ENDBRANCH   9  15
ENDBRANCH   7   8
ENDBRANCH   5   7
ENDBRANCH   3   5
ENDBRANCH   2   3
ENDBRANCH   1   2
BRANCH   1  20
ATOM     20  C   UNL A   1      36.133  20.713  25.144  1.00  0.00     0.275 C 
BRANCH  20  21
ATOM     21  O   UNL A   1      37.097  21.775  25.273  1.00  0.00    -0.458 OA
BRANCH  21  22
ATOM     22  C   UNL A   1      38.305  21.389  25.748  1.00  0.00     0.338 C 
ATOM     23  O   UNL A   1      38.827  20.293  25.626  1.00  0.00    -0.246 OA
BRANCH  22  24
ATOM     24  C   UNL A   1      39.009  22.547  26.311  1.00  0.00     0.060 A 
ATOM     25  C   UNL A   1      38.493  23.814  26.029  1.00  0.00     0.016 A 
ATOM     26  C   UNL A   1      40.197  22.404  27.031  1.00  0.00     0.016 A 
ATOM     27  C   UNL A   1      39.181  24.951  26.426  1.00  0.00     0.010 A 
ATOM     28  C   UNL A   1      40.879  23.552  27.449  1.00  0.00     0.010 A 
ATOM     29  C   UNL A   1      40.382  24.828  27.133  1.00  0.00    -0.014 A 
BRANCH  29  30
ATOM     30  C   UNL A   1      41.142  26.050  27.480  1.00  0.00     0.031 A 
ATOM     31  C   UNL A   1      40.512  27.079  28.374  1.00  0.00     0.074 A 
ATOM     32  C   UNL A   1      42.410  26.192  27.051  1.00  0.00     0.049 A 
ATOM     33  N   UNL A   1      40.949  28.266  28.699  1.00  0.00    -0.248 NA
ATOM     34  C   UNL A   1      39.220  26.723  28.984  1.00  0.00     0.031 C 
ATOM     35  C   UNL A   1      43.152  25.200  26.267  1.00  0.00     0.029 A 
ATOM     36  N   UNL A   1      43.309  27.210  27.231  1.00  0.00    -0.354 N 
ATOM     37  C   UNL A   1      39.983  28.807  29.539  1.00  0.00     0.074 A 
ATOM     38  C   UNL A   1      38.928  27.826  29.662  1.00  0.00     0.031 C 
ATOM     39  C   UNL A   1      44.398  25.651  26.058  1.00  0.00     0.029 A 
ATOM     40  C   UNL A   1      44.524  26.988  26.628  1.00  0.00     0.049 A 
ATOM     41  H   UNL A   1      43.103  28.025  27.745  1.00  0.00     0.167 HD
ATOM     42  C   UNL A   1      39.987  30.014  30.152  1.00  0.00     0.034 A 
ATOM     43  C   UNL A   1      45.603  27.789  26.520  1.00  0.00     0.034 A 
ATOM     44  C   UNL A   1      41.057  30.969  30.026  1.00  0.00     0.049 A 
ATOM     45  C   UNL A   1      45.535  29.167  27.124  1.00  0.00     0.074 A 
ATOM     46  C   UNL A   1      41.141  32.245  30.554  1.00  0.00     0.029 A 
ATOM     47  N   UNL A   1      42.239  30.743  29.336  1.00  0.00    -0.354 N 
ATOM     48  N   UNL A   1      44.562  29.717  27.813  1.00  0.00    -0.248 NA
ATOM     49  C   UNL A   1      46.698  30.040  26.919  1.00  0.00     0.031 C 
ATOM     50  C   UNL A   1      42.357  32.804  30.149  1.00  0.00     0.029 A 
ATOM     51  C   UNL A   1      43.055  31.857  29.417  1.00  0.00     0.049 A 
ATOM     52  H   UNL A   1      42.464  29.911  28.858  1.00  0.00     0.167 HD
ATOM     53  C   UNL A   1      45.005  30.993  28.140  1.00  0.00     0.074 A 
ATOM     54  C   UNL A   1      46.333  31.131  27.579  1.00  0.00     0.031 C 
ATOM     55  C   UNL A   1      44.373  31.965  28.844  1.00  0.00     0.034 A 
BRANCH  42  56
ATOM     56  C   UNL A   1      38.783  30.388  30.972  1.00  0.00     0.023 A 
ATOM     57  C   UNL A   1      37.719  31.125  30.425  1.00  0.00     0.031 A 
ATOM     58  C   UNL A   1      38.687  29.973  32.312  1.00  0.00     0.131 A 
ATOM     59  C   UNL A   1      36.614  31.449  31.227  1.00  0.00     0.055 A 
ATOM     60  C   UNL A   1      37.562  30.252  33.088  1.00  0.00     0.041 A 
ATOM     61  F   UNL A   1      39.687  29.286  32.886  1.00  0.00    -0.206 F 
ATOM     62  C   UNL A   1      36.517  30.996  32.546  1.00  0.00     0.022 A 
BRANCH  59  63
ATOM     63  S   UNL A   1      35.315  32.512  30.542  1.00  0.00     0.124 S 
ATOM     64  O   UNL A   1      34.343  32.526  31.633  1.00  0.00    -0.237 OA
ATOM     65  O   UNL A   1      36.020  33.765  30.299  1.00  0.00    -0.237 OA
ATOM     66  O   UNL A   1      34.886  31.798  29.341  1.00  0.00    -0.744 OA
ENDBRANCH  59  63
ENDBRANCH  42  56
BRANCH  43  67
ATOM     67  C   UNL A   1      46.808  27.340  25.770  1.00  0.00     0.023 A 
ATOM     68  C   UNL A   1      47.018  27.733  24.439  1.00  0.00     0.031 A 
ATOM     69  C   UNL A   1      47.753  26.484  26.363  1.00  0.00     0.131 A 
ATOM     70  C   UNL A   1      48.130  27.244  23.735  1.00  0.00     0.055 A 
ATOM     71  C   UNL A   1      48.882  26.039  25.673  1.00  0.00     0.041 A 
ATOM     72  F   UNL A   1      47.597  26.075  27.633  1.00  0.00    -0.206 F 
ATOM     73  C   UNL A   1      49.071  26.412  24.347  1.00  0.00     0.022 A 
BRANCH  70  74
ATOM     74  S   UNL A   1      48.299  27.662  21.978  1.00  0.00     0.124 S 
ATOM     75  O   UNL A   1      49.480  28.517  21.990  1.00  0.00    -0.237 OA
ATOM     76  O   UNL A   1      48.464  26.347  21.366  1.00  0.00    -0.237 OA
ATOM     77  O   UNL A   1      47.042  28.338  21.666  1.00  0.00    -0.744 OA
ENDBRANCH  70  74
ENDBRANCH  43  67
BRANCH  55  78
ATOM     78  C   UNL A   1      45.129  33.243  29.077  1.00  0.00     0.023 A 
ATOM     79  C   UNL A   1      45.016  34.329  28.196  1.00  0.00     0.031 A 
ATOM     80  C   UNL A   1      45.939  33.382  30.217  1.00  0.00     0.131 A 
ATOM     81  C   UNL A   1      45.729  35.508  28.455  1.00  0.00     0.055 A 
ATOM     82  C   UNL A   1      46.614  34.570  30.491  1.00  0.00     0.041 A 
ATOM     83  F   UNL A   1      46.071  32.369  31.089  1.00  0.00    -0.206 F 
ATOM     84  C   UNL A   1      46.515  35.641  29.605  1.00  0.00     0.022 A 
BRANCH  81  85
ATOM     85  S   UNL A   1      45.636  36.865  27.257  1.00  0.00     0.124 S 
ATOM     86  O   UNL A   1      46.142  37.991  28.037  1.00  0.00    -0.237 OA
ATOM     87  O   UNL A   1      46.502  36.398  26.180  1.00  0.00    -0.237 OA
ATOM     88  O   UNL A   1      44.215  36.930  26.922  1.00  0.00    -0.744 OA
ENDBRANCH  81  85
ENDBRANCH  55  78
ENDBRANCH  29  30
ENDBRANCH  22  24
ENDBRANCH  21  22
ENDBRANCH  20  21
ENDBRANCH   1  20
TORSDOF 17
ENDMDL
MODEL 3
REMARK VINA RESULT:     -11.0      5.314     10.088
REMARK SMILES NC(=O)c1c(F)cccc1O[C@@H](F)C(=O)OCCOC(=O)c1ccc(-c2c3nc(c(-c4cc(S(=O)(=O)[O-])ccc4F)c4ccc([nH]4)c(-c4cc(S(=O)(=O)[O-])ccc4F)c4nc(c(-c5cc(S(=O)(=O)[O-])ccc5F)c5ccc2[nH]5)C=C4)C=C3)cc1
REMARK SMILES IDX 17 1 16 2 14 3 15 4 12 5 13 6 11 7 10 8 4 9 5 10 6 11 7 12
REMARK SMILES IDX 9 13 8 14 2 15 1 16 3 19 18 20 19 21 20 22 21 23 22 24 23 25
REMARK SMILES IDX 84 26 24 27 83 28 25 29 26 30 27 31 77 32 28 33 82 34 76 35
REMARK SMILES IDX 78 36 29 37 81 38 75 39 74 40 30 42 62 43 42 44 61 45 43 46
REMARK SMILES IDX 46 47 60 48 79 49 44 50 45 51 59 53 80 54 47 55 31 56 32 57
REMARK SMILES IDX 40 58 33 59 39 60 41 61 38 62 34 63 35 64 36 65 37 66 63 67
REMARK SMILES IDX 64 68 72 69 65 70 71 71 73 72 70 73 66 74 67 75 68 76 69 77
REMARK SMILES IDX 48 78 49 79 57 80 50 81 56 82 58 83 55 84 51 85 52 86 53 87
REMARK SMILES IDX 54 88
REMARK H PARENT 1 17 1 18 78 41 46 52
REMARK Flexibility Score: inf
ROOT
ATOM      1  C   UNL A   1      31.563  29.238  24.875  1.00  0.00     0.274 C 
ENDROOT
BRANCH   1   2
ATOM      2  O   UNL A   1      30.952  28.034  25.385  1.00  0.00    -0.457 OA
BRANCH   2   3
ATOM      3  C   UNL A   1      31.541  27.466  26.480  1.00  0.00     0.381 C 
ATOM      4  O   UNL A   1      31.164  27.677  27.629  1.00  0.00    -0.244 OA
BRANCH   3   5
ATOM      5  C   UNL A   1      32.645  26.420  26.105  1.00  0.00     0.461 C 
ATOM      6  F   UNL A   1      33.852  27.071  26.017  1.00  0.00    -0.189 F 
BRANCH   5   7
ATOM      7  O   UNL A   1      32.701  25.451  25.080  1.00  0.00    -0.450 OA
BRANCH   7   8
ATOM      8  C   UNL A   1      32.890  24.143  25.391  1.00  0.00     0.139 A 
ATOM      9  C   UNL A   1      33.235  23.142  24.477  1.00  0.00     0.117 A 
ATOM     10  C   UNL A   1      33.541  21.865  24.953  1.00  0.00     0.139 A 
ATOM     11  F   UNL A   1      33.876  20.878  24.108  1.00  0.00    -0.206 F 
ATOM     12  C   UNL A   1      33.533  21.581  26.318  1.00  0.00     0.040 A 
ATOM     13  C   UNL A   1      32.885  23.858  26.764  1.00  0.00     0.047 A 
ATOM     14  C   UNL A   1      33.204  22.581  27.228  1.00  0.00     0.007 A 
BRANCH   9  15
ATOM     15  C   UNL A   1      33.328  23.417  23.030  1.00  0.00     0.255 C 
ATOM     16  N   UNL A   1      32.159  23.673  22.373  1.00  0.00    -0.365 N 
ATOM     17  H   UNL A   1      32.169  23.862  21.407  1.00  0.00     0.159 HD
ATOM     18  H   UNL A   1      31.306  23.667  22.866  1.00  0.00     0.159 HD
ATOM     19  O   UNL A   1      34.402  23.490  22.452  1.00  0.00    -0.269 OA
ENDBRANCH   9  15
ENDBRANCH   7   8
ENDBRANCH   5   7
ENDBRANCH   3   5
ENDBRANCH   2   3
ENDBRANCH   1   2
BRANCH   1  20
ATOM     20  C   UNL A   1      31.841  30.231  26.008  1.00  0.00     0.275 C 
BRANCH  20  21
ATOM     21  O   UNL A   1      33.252  30.453  26.186  1.00  0.00    -0.458 OA
BRANCH  21  22
ATOM     22  C   UNL A   1      33.567  31.349  27.151  1.00  0.00     0.338 C 
ATOM     23  O   UNL A   1      32.851  32.230  27.599  1.00  0.00    -0.246 OA
BRANCH  22  24
ATOM     24  C   UNL A   1      34.874  31.015  27.730  1.00  0.00     0.060 A 
ATOM     25  C   UNL A   1      35.098  29.684  28.089  1.00  0.00     0.016 A 
ATOM     26  C   UNL A   1      35.830  31.996  27.996  1.00  0.00     0.016 A 
ATOM     27  C   UNL A   1      36.261  29.328  28.755  1.00  0.00     0.010 A 
ATOM     28  C   UNL A   1      37.013  31.632  28.649  1.00  0.00     0.010 A 
ATOM     29  C   UNL A   1      37.224  30.301  29.045  1.00  0.00    -0.014 A 
BRANCH  29  30
ATOM     30  C   UNL A   1      38.423  29.917  29.824  1.00  0.00     0.031 A 
ATOM     31  C   UNL A   1      39.426  28.979  29.218  1.00  0.00     0.074 A 
ATOM     32  C   UNL A   1      38.636  30.467  31.035  1.00  0.00     0.049 A 
ATOM     33  N   UNL A   1      40.471  28.422  29.767  1.00  0.00    -0.248 NA
ATOM     34  C   UNL A   1      39.227  28.623  27.803  1.00  0.00     0.031 C 
ATOM     35  C   UNL A   1      37.777  31.471  31.669  1.00  0.00     0.029 A 
ATOM     36  N   UNL A   1      39.649  30.280  31.938  1.00  0.00    -0.354 N 
ATOM     37  C   UNL A   1      41.048  27.639  28.775  1.00  0.00     0.074 A 
ATOM     38  C   UNL A   1      40.228  27.778  27.592  1.00  0.00     0.031 C 
ATOM     39  C   UNL A   1      38.316  31.828  32.845  1.00  0.00     0.029 A 
ATOM     40  C   UNL A   1      39.514  31.030  33.083  1.00  0.00     0.049 A 
ATOM     41  H   UNL A   1      40.402  29.665  31.782  1.00  0.00     0.167 HD
ATOM     42  C   UNL A   1      42.165  26.877  28.853  1.00  0.00     0.034 A 
ATOM     43  C   UNL A   1      40.257  31.045  34.207  1.00  0.00     0.034 A 
ATOM     44  C   UNL A   1      42.974  26.766  30.039  1.00  0.00     0.049 A 
ATOM     45  C   UNL A   1      41.432  30.109  34.302  1.00  0.00     0.074 A 
ATOM     46  C   UNL A   1      44.092  25.979  30.250  1.00  0.00     0.029 A 
ATOM     47  N   UNL A   1      42.759  27.478  31.210  1.00  0.00    -0.354 N 
ATOM     48  N   UNL A   1      41.897  29.276  33.398  1.00  0.00    -0.248 NA
ATOM     49  C   UNL A   1      42.171  30.095  35.571  1.00  0.00     0.031 C 
ATOM     50  C   UNL A   1      44.530  26.187  31.561  1.00  0.00     0.029 A 
ATOM     51  C   UNL A   1      43.718  27.144  32.150  1.00  0.00     0.049 A 
ATOM     52  H   UNL A   1      42.031  28.126  31.352  1.00  0.00     0.167 HD
ATOM     53  C   UNL A   1      42.994  28.656  33.984  1.00  0.00     0.074 A 
ATOM     54  C   UNL A   1      43.127  29.212  35.315  1.00  0.00     0.031 C 
ATOM     55  C   UNL A   1      43.821  27.713  33.469  1.00  0.00     0.034 A 
BRANCH  42  56
ATOM     56  C   UNL A   1      42.549  26.072  27.642  1.00  0.00     0.023 A 
ATOM     57  C   UNL A   1      42.146  24.735  27.487  1.00  0.00     0.031 A 
ATOM     58  C   UNL A   1      43.306  26.663  26.614  1.00  0.00     0.131 A 
ATOM     59  C   UNL A   1      42.526  24.023  26.340  1.00  0.00     0.055 A 
ATOM     60  C   UNL A   1      43.635  25.966  25.452  1.00  0.00     0.041 A 
ATOM     61  F   UNL A   1      43.733  27.931  26.726  1.00  0.00    -0.206 F 
ATOM     62  C   UNL A   1      43.246  24.637  25.311  1.00  0.00     0.022 A 
BRANCH  59  63
ATOM     63  S   UNL A   1      42.109  22.263  26.221  1.00  0.00     0.124 S 
ATOM     64  O   UNL A   1      42.814  21.876  25.001  1.00  0.00    -0.237 OA
ATOM     65  O   UNL A   1      42.643  21.721  27.466  1.00  0.00    -0.237 OA
ATOM     66  O   UNL A   1      40.651  22.263  26.119  1.00  0.00    -0.744 OA
ENDBRANCH  59  63
ENDBRANCH  42  56
BRANCH  43  67
ATOM     67  C   UNL A   1      39.885  31.925  35.349  1.00  0.00     0.023 A 
ATOM     68  C   UNL A   1      39.005  31.480  36.347  1.00  0.00     0.031 A 
ATOM     69  C   UNL A   1      40.380  33.239  35.442  1.00  0.00     0.131 A 
ATOM     70  C   UNL A   1      38.621  32.351  37.379  1.00  0.00     0.055 A 
ATOM     71  C   UNL A   1      40.033  34.086  36.496  1.00  0.00     0.041 A 
ATOM     72  F   UNL A   1      41.222  33.715  34.511  1.00  0.00    -0.206 F 
ATOM     73  C   UNL A   1      39.141  33.646  37.468  1.00  0.00     0.022 A 
BRANCH  70  74
ATOM     74  S   UNL A   1      37.379  31.790  38.576  1.00  0.00     0.124 S 
ATOM     75  O   UNL A   1      37.146  30.419  38.139  1.00  0.00    -0.237 OA
ATOM     76  O   UNL A   1      38.084  31.950  39.844  1.00  0.00    -0.237 OA
ATOM     77  O   UNL A   1      36.264  32.710  38.366  1.00  0.00    -0.744 OA
ENDBRANCH  70  74
ENDBRANCH  43  67
BRANCH  55  78
ATOM     78  C   UNL A   1      44.962  27.257  34.335  1.00  0.00     0.023 A 
ATOM     79  C   UNL A   1      44.846  26.128  35.161  1.00  0.00     0.031 A 
ATOM     80  C   UNL A   1      46.189  27.940  34.298  1.00  0.00     0.131 A 
ATOM     81  C   UNL A   1      45.937  25.729  35.945  1.00  0.00     0.055 A 
ATOM     82  C   UNL A   1      47.284  27.515  35.049  1.00  0.00     0.041 A 
ATOM     83  F   UNL A   1      46.345  29.022  33.518  1.00  0.00    -0.206 F 
ATOM     84  C   UNL A   1      47.160  26.405  35.881  1.00  0.00     0.022 A 
BRANCH  81  85
ATOM     85  S   UNL A   1      45.735  24.321  37.069  1.00  0.00     0.124 S 
ATOM     86  O   UNL A   1      44.559  23.657  36.512  1.00  0.00    -0.237 OA
ATOM     87  O   UNL A   1      46.999  23.609  36.917  1.00  0.00    -0.237 OA
ATOM     88  O   UNL A   1      45.534  24.950  38.373  1.00  0.00    -0.744 OA
ENDBRANCH  81  85
ENDBRANCH  55  78
ENDBRANCH  29  30
ENDBRANCH  22  24
ENDBRANCH  21  22
ENDBRANCH  20  21
ENDBRANCH   1  20
TORSDOF 17
ENDMDL
