MODEL 1
REMARK VINA RESULT:     -11.7      0.000      0.000
REMARK SMILES Cc1cc(N2CCCC[C@@H]2C)cc(C(=O)OCCOC(=O)c2ccc(-c3c4nc(c(-c5cc(S(=O)(=O)[O-])ccc5F)c5ccc([nH]5)c(-c5cc(S(=O)(=O)[O-])ccc5F)c5nc(c(-c6cc(S(=O)(=O)[O-])ccc6F)c6ccc3[nH]6)C=C5)C=C4)cc2)c1N
REMARK SMILES IDX 18 1 17 2 16 3 14 4 15 5 13 6 1 7 2 8 3 9 85 10 4 11 12 12
REMARK SMILES IDX 86 13 5 16 6 17 10 18 7 19 9 20 11 21 8 22 19 23 20 24 21 25
REMARK SMILES IDX 22 26 23 27 84 28 24 29 83 30 25 31 26 32 27 33 77 34 28 35
REMARK SMILES IDX 82 36 76 37 78 38 29 39 81 40 75 41 74 42 30 44 62 45 42 46
REMARK SMILES IDX 61 47 43 48 46 49 60 50 79 51 44 52 45 53 59 55 80 56 47 57
REMARK SMILES IDX 31 58 32 59 40 60 33 61 39 62 41 63 38 64 34 65 35 66 36 67
REMARK SMILES IDX 37 68 63 69 64 70 72 71 65 72 71 73 73 74 70 75 66 76 67 77
REMARK SMILES IDX 68 78 69 79 48 80 49 81 57 82 50 83 56 84 58 85 55 86 51 87
REMARK SMILES IDX 52 88 53 89 54 90
REMARK H PARENT 86 14 86 15 78 43 46 54
REMARK Flexibility Score: inf
ROOT
ATOM      1  C   UNL A   1      36.861  20.468  25.007  1.00  0.00     0.275 C 
ENDROOT
BRANCH   1   2
ATOM      2  C   UNL A   1      35.361  20.757  25.011  1.00  0.00     0.275 C 
BRANCH   2   3
ATOM      3  O   UNL A   1      35.103  22.104  25.460  1.00  0.00    -0.458 OA
BRANCH   3   4
ATOM      4  C   UNL A   1      34.576  22.956  24.538  1.00  0.00     0.340 C 
ATOM      5  O   UNL A   1      34.919  23.050  23.368  1.00  0.00    -0.246 OA
BRANCH   4   6
ATOM      6  C   UNL A   1      33.475  23.755  25.139  1.00  0.00     0.085 A 
ATOM      7  C   UNL A   1      30.094  23.313  26.846  1.00  0.00     0.047 C 
ATOM      8  C   UNL A   1      31.311  23.928  26.205  1.00  0.00    -0.025 A 
ATOM      9  C   UNL A   1      31.473  25.324  26.256  1.00  0.00     0.031 A 
ATOM     10  C   UNL A   1      32.272  23.141  25.545  1.00  0.00     0.049 A 
ATOM     11  C   UNL A   1      32.605  25.956  25.742  1.00  0.00     0.038 A 
ATOM     12  C   UNL A   1      33.624  25.145  25.231  1.00  0.00     0.043 A 
BRANCH  10  13
ATOM     13  N   UNL A   1      32.064  21.773  25.397  1.00  0.00    -0.398 N 
ATOM     14  H   UNL A   1      31.734  21.415  24.541  1.00  0.00     0.156 HD
ATOM     15  H   UNL A   1      32.248  21.162  26.147  1.00  0.00     0.156 HD
ENDBRANCH  10  13
BRANCH  11  16
ATOM     16  N   UNL A   1      32.713  27.328  25.664  1.00  0.00    -0.369 N 
ATOM     17  C   UNL A   1      33.258  28.016  26.836  1.00  0.00     0.117 C 
ATOM     18  C   UNL A   1      32.430  28.168  24.491  1.00  0.00     0.079 C 
ATOM     19  C   UNL A   1      32.256  29.063  27.310  1.00  0.00     0.021 C 
ATOM     20  C   UNL A   1      31.415  29.245  24.935  1.00  0.00     0.025 C 
ATOM     21  C   UNL A   1      31.876  27.440  23.268  1.00  0.00     0.031 C 
ATOM     22  C   UNL A   1      31.890  30.013  26.171  1.00  0.00     0.004 C 
ENDBRANCH  11  16
ENDBRANCH   4   6
ENDBRANCH   3   4
ENDBRANCH   2   3
ENDBRANCH   1   2
BRANCH   1  23
ATOM     23  O   UNL A   1      37.545  21.546  25.663  1.00  0.00    -0.458 OA
BRANCH  23  24
ATOM     24  C   UNL A   1      38.850  21.336  25.964  1.00  0.00     0.338 C 
ATOM     25  O   UNL A   1      39.478  20.307  25.781  1.00  0.00    -0.246 OA
BRANCH  24  26
ATOM     26  C   UNL A   1      39.426  22.567  26.560  1.00  0.00     0.060 A 
ATOM     27  C   UNL A   1      39.016  23.822  26.114  1.00  0.00     0.016 A 
ATOM     28  C   UNL A   1      40.444  22.486  27.510  1.00  0.00     0.016 A 
ATOM     29  C   UNL A   1      39.671  24.978  26.542  1.00  0.00     0.010 A 
ATOM     30  C   UNL A   1      41.029  23.659  28.015  1.00  0.00     0.010 A 
ATOM     31  C   UNL A   1      40.679  24.928  27.512  1.00  0.00    -0.014 A 
BRANCH  31  32
ATOM     32  C   UNL A   1      41.414  26.170  27.930  1.00  0.00     0.031 A 
ATOM     33  C   UNL A   1      40.714  27.204  28.783  1.00  0.00     0.074 A 
ATOM     34  C   UNL A   1      42.708  26.383  27.601  1.00  0.00     0.049 A 
ATOM     35  N   UNL A   1      41.045  28.449  29.023  1.00  0.00    -0.248 NA
ATOM     36  C   UNL A   1      39.463  26.786  29.431  1.00  0.00     0.031 C 
ATOM     37  C   UNL A   1      43.563  25.461  26.852  1.00  0.00     0.029 A 
ATOM     38  N   UNL A   1      43.541  27.448  27.869  1.00  0.00    -0.354 N 
ATOM     39  C   UNL A   1      39.999  28.986  29.771  1.00  0.00     0.074 A 
ATOM     40  C   UNL A   1      39.029  27.925  29.949  1.00  0.00     0.031 C 
ATOM     41  C   UNL A   1      44.805  25.964  26.779  1.00  0.00     0.029 A 
ATOM     42  C   UNL A   1      44.811  27.305  27.350  1.00  0.00     0.049 A 
ATOM     43  H   UNL A   1      43.257  28.237  28.383  1.00  0.00     0.167 HD
ATOM     44  C   UNL A   1      39.861  30.246  30.255  1.00  0.00     0.034 A 
ATOM     45  C   UNL A   1      45.846  28.169  27.275  1.00  0.00     0.034 A 
ATOM     46  C   UNL A   1      40.875  31.269  30.144  1.00  0.00     0.049 A 
ATOM     47  C   UNL A   1      45.665  29.572  27.796  1.00  0.00     0.074 A 
ATOM     48  C   UNL A   1      40.834  32.578  30.593  1.00  0.00     0.029 A 
ATOM     49  N   UNL A   1      42.127  31.089  29.573  1.00  0.00    -0.354 N 
ATOM     50  N   UNL A   1      44.615  30.110  28.373  1.00  0.00    -0.248 NA
ATOM     51  C   UNL A   1      46.798  30.493  27.631  1.00  0.00     0.031 C 
ATOM     52  C   UNL A   1      42.039  33.202  30.251  1.00  0.00     0.029 A 
ATOM     53  C   UNL A   1      42.860  32.264  29.649  1.00  0.00     0.049 A 
ATOM     54  H   UNL A   1      42.448  30.249  29.171  1.00  0.00     0.167 HD
ATOM     55  C   UNL A   1      44.964  31.431  28.636  1.00  0.00     0.074 A 
ATOM     56  C   UNL A   1      46.331  31.599  28.189  1.00  0.00     0.031 C 
ATOM     57  C   UNL A   1      44.218  32.423  29.188  1.00  0.00     0.034 A 
BRANCH  44  58
ATOM     58  C   UNL A   1      38.535  30.613  30.885  1.00  0.00     0.023 A 
ATOM     59  C   UNL A   1      37.495  31.218  30.162  1.00  0.00     0.031 A 
ATOM     60  C   UNL A   1      38.324  30.359  32.254  1.00  0.00     0.131 A 
ATOM     61  C   UNL A   1      36.317  31.605  30.821  1.00  0.00     0.055 A 
ATOM     62  C   UNL A   1      37.120  30.675  32.886  1.00  0.00     0.041 A 
ATOM     63  F   UNL A   1      39.287  29.800  33.003  1.00  0.00    -0.206 F 
ATOM     64  C   UNL A   1      36.113  31.315  32.173  1.00  0.00     0.022 A 
BRANCH  61  65
ATOM     65  S   UNL A   1      35.104  32.607  29.920  1.00  0.00     0.124 S 
ATOM     66  O   UNL A   1      34.146  32.929  30.974  1.00  0.00    -0.237 OA
ATOM     67  O   UNL A   1      35.913  33.719  29.430  1.00  0.00    -0.237 OA
ATOM     68  O   UNL A   1      34.604  31.698  28.890  1.00  0.00    -0.744 OA
ENDBRANCH  61  65
ENDBRANCH  44  58
BRANCH  45  69
ATOM     69  C   UNL A   1      47.113  27.778  26.585  1.00  0.00     0.023 A 
ATOM     70  C   UNL A   1      47.267  27.926  25.196  1.00  0.00     0.031 A 
ATOM     71  C   UNL A   1      48.176  27.198  27.302  1.00  0.00     0.131 A 
ATOM     72  C   UNL A   1      48.439  27.473  24.569  1.00  0.00     0.055 A 
ATOM     73  C   UNL A   1      49.366  26.811  26.684  1.00  0.00     0.041 A 
ATOM     74  F   UNL A   1      48.080  27.014  28.629  1.00  0.00    -0.206 F 
ATOM     75  C   UNL A   1      49.497  26.937  25.306  1.00  0.00     0.022 A 
BRANCH  72  76
ATOM     76  S   UNL A   1      48.528  27.506  22.756  1.00  0.00     0.124 S 
ATOM     77  O   UNL A   1      47.328  28.258  22.413  1.00  0.00    -0.237 OA
ATOM     78  O   UNL A   1      49.799  28.185  22.527  1.00  0.00    -0.237 OA
ATOM     79  O   UNL A   1      48.505  26.091  22.389  1.00  0.00    -0.744 OA
ENDBRANCH  72  76
ENDBRANCH  45  69
BRANCH  57  80
ATOM     80  C   UNL A   1      44.891  33.759  29.369  1.00  0.00     0.023 A 
ATOM     81  C   UNL A   1      44.832  34.756  28.378  1.00  0.00     0.031 A 
ATOM     82  C   UNL A   1      45.626  34.029  30.536  1.00  0.00     0.131 A 
ATOM     83  C   UNL A   1      45.544  35.952  28.547  1.00  0.00     0.055 A 
ATOM     84  C   UNL A   1      46.289  35.242  30.724  1.00  0.00     0.041 A 
ATOM     85  F   UNL A   1      45.717  33.111  31.513  1.00  0.00    -0.206 F 
ATOM     86  C   UNL A   1      46.261  36.207  29.720  1.00  0.00     0.022 A 
BRANCH  83  87
ATOM     87  S   UNL A   1      45.597  37.138  27.176  1.00  0.00     0.124 S 
ATOM     88  O   UNL A   1      46.279  36.372  26.138  1.00  0.00    -0.237 OA
ATOM     89  O   UNL A   1      44.183  37.410  26.943  1.00  0.00    -0.237 OA
ATOM     90  O   UNL A   1      46.360  38.260  27.721  1.00  0.00    -0.744 OA
ENDBRANCH  83  87
ENDBRANCH  57  80
ENDBRANCH  31  32
ENDBRANCH  24  26
ENDBRANCH  23  24
ENDBRANCH   1  23
TORSDOF 16
ENDMDL
MODEL 2
REMARK VINA RESULT:     -11.7      5.061     10.011
REMARK SMILES Cc1cc(N2CCCC[C@@H]2C)cc(C(=O)OCCOC(=O)c2ccc(-c3c4nc(c(-c5cc(S(=O)(=O)[O-])ccc5F)c5ccc([nH]5)c(-c5cc(S(=O)(=O)[O-])ccc5F)c5nc(c(-c6cc(S(=O)(=O)[O-])ccc6F)c6ccc3[nH]6)C=C5)C=C4)cc2)c1N
REMARK SMILES IDX 18 1 17 2 16 3 14 4 15 5 13 6 1 7 2 8 3 9 85 10 4 11 12 12
REMARK SMILES IDX 86 13 5 16 6 17 10 18 7 19 9 20 11 21 8 22 19 23 20 24 21 25
REMARK SMILES IDX 22 26 23 27 84 28 24 29 83 30 25 31 26 32 27 33 77 34 28 35
REMARK SMILES IDX 82 36 76 37 78 38 29 39 81 40 75 41 74 42 30 44 62 45 42 46
REMARK SMILES IDX 61 47 43 48 46 49 60 50 79 51 44 52 45 53 59 55 80 56 47 57
REMARK SMILES IDX 31 58 32 59 40 60 33 61 39 62 41 63 38 64 34 65 35 66 36 67
REMARK SMILES IDX 37 68 63 69 64 70 72 71 65 72 71 73 73 74 70 75 66 76 67 77
REMARK SMILES IDX 68 78 69 79 48 80 49 81 57 82 50 83 56 84 58 85 55 86 51 87
REMARK SMILES IDX 52 88 53 89 54 90
REMARK H PARENT 86 14 86 15 78 43 46 54
REMARK Flexibility Score: inf
ROOT
ATOM      1  C   UNL A   1      31.594  29.421  25.798  1.00  0.00     0.275 C 
ENDROOT
BRANCH   1   2
ATOM      2  C   UNL A   1      31.510  28.523  27.031  1.00  0.00     0.275 C 
BRANCH   2   3
ATOM      3  O   UNL A   1      32.232  27.292  26.815  1.00  0.00    -0.458 OA
BRANCH   3   4
ATOM      4  C   UNL A   1      31.519  26.261  26.288  1.00  0.00     0.340 C 
ATOM      5  O   UNL A   1      30.364  25.969  26.567  1.00  0.00    -0.246 OA
BRANCH   4   6
ATOM      6  C   UNL A   1      32.329  25.533  25.275  1.00  0.00     0.085 A 
ATOM      7  C   UNL A   1      32.761  25.230  21.498  1.00  0.00     0.047 C 
ATOM      8  C   UNL A   1      32.894  25.009  22.982  1.00  0.00    -0.025 A 
ATOM      9  C   UNL A   1      33.897  24.143  23.452  1.00  0.00     0.031 A 
ATOM     10  C   UNL A   1      32.029  25.630  23.900  1.00  0.00     0.049 A 
ATOM     11  C   UNL A   1      34.122  23.940  24.814  1.00  0.00     0.038 A 
ATOM     12  C   UNL A   1      33.356  24.687  25.714  1.00  0.00     0.043 A 
BRANCH  10  13
ATOM     13  N   UNL A   1      30.966  26.402  23.438  1.00  0.00    -0.398 N 
ATOM     14  H   UNL A   1      31.069  27.376  23.346  1.00  0.00     0.156 HD
ATOM     15  H   UNL A   1      30.112  25.973  23.202  1.00  0.00     0.156 HD
ENDBRANCH  10  13
BRANCH  11  16
ATOM     16  N   UNL A   1      35.008  22.995  25.283  1.00  0.00    -0.369 N 
ATOM     17  C   UNL A   1      36.408  23.405  25.410  1.00  0.00     0.117 C 
ATOM     18  C   UNL A   1      34.682  21.643  25.763  1.00  0.00     0.079 C 
ATOM     19  C   UNL A   1      37.281  22.456  24.598  1.00  0.00     0.021 C 
ATOM     20  C   UNL A   1      35.552  20.651  24.962  1.00  0.00     0.025 C 
ATOM     21  C   UNL A   1      33.217  21.228  25.641  1.00  0.00     0.031 C 
ATOM     22  C   UNL A   1      37.039  21.008  25.019  1.00  0.00     0.004 C 
ENDBRANCH  11  16
ENDBRANCH   4   6
ENDBRANCH   3   4
ENDBRANCH   2   3
ENDBRANCH   1   2
BRANCH   1  23
ATOM     23  O   UNL A   1      32.855  30.106  25.805  1.00  0.00    -0.458 OA
BRANCH  23  24
ATOM     24  C   UNL A   1      33.049  30.996  26.810  1.00  0.00     0.338 C 
ATOM     25  O   UNL A   1      32.258  31.841  27.192  1.00  0.00    -0.246 OA
BRANCH  24  26
ATOM     26  C   UNL A   1      34.397  30.791  27.398  1.00  0.00     0.060 A 
ATOM     27  C   UNL A   1      34.887  29.504  27.602  1.00  0.00     0.016 A 
ATOM     28  C   UNL A   1      35.153  31.880  27.833  1.00  0.00     0.016 A 
ATOM     29  C   UNL A   1      36.073  29.297  28.309  1.00  0.00     0.010 A 
ATOM     30  C   UNL A   1      36.397  31.669  28.453  1.00  0.00     0.010 A 
ATOM     31  C   UNL A   1      36.863  30.370  28.736  1.00  0.00    -0.014 A 
BRANCH  31  32
ATOM     32  C   UNL A   1      38.111  30.141  29.541  1.00  0.00     0.031 A 
ATOM     33  C   UNL A   1      39.235  29.311  28.961  1.00  0.00     0.074 A 
ATOM     34  C   UNL A   1      38.287  30.687  30.764  1.00  0.00     0.049 A 
ATOM     35  N   UNL A   1      40.260  28.760  29.563  1.00  0.00    -0.248 NA
ATOM     36  C   UNL A   1      39.183  29.050  27.516  1.00  0.00     0.031 C 
ATOM     37  C   UNL A   1      37.345  31.577  31.446  1.00  0.00     0.029 A 
ATOM     38  N   UNL A   1      39.333  30.585  31.655  1.00  0.00    -0.354 N 
ATOM     39  C   UNL A   1      40.919  28.012  28.589  1.00  0.00     0.074 A 
ATOM     40  C   UNL A   1      40.179  28.192  27.357  1.00  0.00     0.031 C 
ATOM     41  C   UNL A   1      37.880  31.988  32.607  1.00  0.00     0.029 A 
ATOM     42  C   UNL A   1      39.141  31.289  32.825  1.00  0.00     0.049 A 
ATOM     43  H   UNL A   1      40.145  30.058  31.472  1.00  0.00     0.167 HD
ATOM     44  C   UNL A   1      42.032  27.245  28.715  1.00  0.00     0.034 A 
ATOM     45  C   UNL A   1      39.852  31.323  33.972  1.00  0.00     0.034 A 
ATOM     46  C   UNL A   1      42.809  27.145  29.929  1.00  0.00     0.049 A 
ATOM     47  C   UNL A   1      41.070  30.445  34.103  1.00  0.00     0.074 A 
ATOM     48  C   UNL A   1      43.947  26.392  30.166  1.00  0.00     0.029 A 
ATOM     49  N   UNL A   1      42.549  27.844  31.100  1.00  0.00    -0.354 N 
ATOM     50  N   UNL A   1      41.600  29.631  33.219  1.00  0.00    -0.248 NA
ATOM     51  C   UNL A   1      41.770  30.469  35.394  1.00  0.00     0.031 C 
ATOM     52  C   UNL A   1      44.346  26.598  31.491  1.00  0.00     0.029 A 
ATOM     53  C   UNL A   1      43.498  27.531  32.063  1.00  0.00     0.049 A 
ATOM     54  H   UNL A   1      41.799  28.470  31.229  1.00  0.00     0.167 HD
ATOM     55  C   UNL A   1      42.694  29.048  33.852  1.00  0.00     0.074 A 
ATOM     56  C   UNL A   1      42.769  29.628  35.176  1.00  0.00     0.031 C 
ATOM     57  C   UNL A   1      43.554  28.107  33.385  1.00  0.00     0.034 A 
BRANCH  44  58
ATOM     58  C   UNL A   1      42.434  26.395  27.531  1.00  0.00     0.023 A 
ATOM     59  C   UNL A   1      42.021  25.061  27.382  1.00  0.00     0.031 A 
ATOM     60  C   UNL A   1      43.268  26.940  26.537  1.00  0.00     0.131 A 
ATOM     61  C   UNL A   1      42.492  24.300  26.300  1.00  0.00     0.055 A 
ATOM     62  C   UNL A   1      43.670  26.202  25.422  1.00  0.00     0.041 A 
ATOM     63  F   UNL A   1      43.712  28.203  26.633  1.00  0.00    -0.206 F 
ATOM     64  C   UNL A   1      43.293  24.869  25.305  1.00  0.00     0.022 A 
BRANCH  61  65
ATOM     65  S   UNL A   1      42.148  22.520  26.273  1.00  0.00     0.124 S 
ATOM     66  O   UNL A   1      42.968  22.078  25.149  1.00  0.00    -0.237 OA
ATOM     67  O   UNL A   1      42.591  22.091  27.595  1.00  0.00    -0.237 OA
ATOM     68  O   UNL A   1      40.705  22.452  26.046  1.00  0.00    -0.744 OA
ENDBRANCH  61  65
ENDBRANCH  44  58
BRANCH  45  69
ATOM     69  C   UNL A   1      39.375  32.132  35.137  1.00  0.00     0.023 A 
ATOM     70  C   UNL A   1      39.781  33.464  35.318  1.00  0.00     0.031 A 
ATOM     71  C   UNL A   1      38.543  31.562  36.118  1.00  0.00     0.131 A 
ATOM     72  C   UNL A   1      39.381  34.169  36.465  1.00  0.00     0.055 A 
ATOM     73  C   UNL A   1      38.092  32.287  37.222  1.00  0.00     0.041 A 
ATOM     74  F   UNL A   1      38.137  30.286  36.008  1.00  0.00    -0.206 F 
ATOM     75  C   UNL A   1      38.522  33.596  37.407  1.00  0.00     0.022 A 
BRANCH  72  76
ATOM     76  S   UNL A   1      40.073  35.819  36.764  1.00  0.00     0.124 S 
ATOM     77  O   UNL A   1      39.414  36.198  38.008  1.00  0.00    -0.237 OA
ATOM     78  O   UNL A   1      41.502  35.538  36.853  1.00  0.00    -0.237 OA
ATOM     79  O   UNL A   1      39.663  36.579  35.584  1.00  0.00    -0.744 OA
ENDBRANCH  72  76
ENDBRANCH  45  69
BRANCH  57  80
ATOM     80  C   UNL A   1      44.669  27.686  34.308  1.00  0.00     0.023 A 
ATOM     81  C   UNL A   1      44.513  26.623  35.217  1.00  0.00     0.031 A 
ATOM     82  C   UNL A   1      45.893  28.376  34.301  1.00  0.00     0.131 A 
ATOM     83  C   UNL A   1      45.542  26.319  36.120  1.00  0.00     0.055 A 
ATOM     84  C   UNL A   1      46.934  28.035  35.164  1.00  0.00     0.041 A 
ATOM     85  F   UNL A   1      46.094  29.400  33.455  1.00  0.00    -0.206 F 
ATOM     86  C   UNL A   1      46.757  27.010  36.090  1.00  0.00     0.022 A 
BRANCH  83  87
ATOM     87  S   UNL A   1      45.241  25.067  37.397  1.00  0.00     0.124 S 
ATOM     88  O   UNL A   1      45.281  23.829  36.625  1.00  0.00    -0.237 OA
ATOM     89  O   UNL A   1      46.355  25.283  38.315  1.00  0.00    -0.237 OA
ATOM     90  O   UNL A   1      43.926  25.426  37.927  1.00  0.00    -0.744 OA
ENDBRANCH  83  87
ENDBRANCH  57  80
ENDBRANCH  31  32
ENDBRANCH  24  26
ENDBRANCH  23  24
ENDBRANCH   1  23
TORSDOF 16
ENDMDL
MODEL 3
REMARK VINA RESULT:     -11.6      1.742      2.260
REMARK SMILES Cc1cc(N2CCCC[C@@H]2C)cc(C(=O)OCCOC(=O)c2ccc(-c3c4nc(c(-c5cc(S(=O)(=O)[O-])ccc5F)c5ccc([nH]5)c(-c5cc(S(=O)(=O)[O-])ccc5F)c5nc(c(-c6cc(S(=O)(=O)[O-])ccc6F)c6ccc3[nH]6)C=C5)C=C4)cc2)c1N
REMARK SMILES IDX 18 1 17 2 16 3 14 4 15 5 13 6 1 7 2 8 3 9 85 10 4 11 12 12
REMARK SMILES IDX 86 13 5 16 6 17 10 18 7 19 9 20 11 21 8 22 19 23 20 24 21 25
REMARK SMILES IDX 22 26 23 27 84 28 24 29 83 30 25 31 26 32 27 33 77 34 28 35
REMARK SMILES IDX 82 36 76 37 78 38 29 39 81 40 75 41 74 42 30 44 62 45 42 46
REMARK SMILES IDX 61 47 43 48 46 49 60 50 79 51 44 52 45 53 59 55 80 56 47 57
REMARK SMILES IDX 31 58 32 59 40 60 33 61 39 62 41 63 38 64 34 65 35 66 36 67
REMARK SMILES IDX 37 68 63 69 64 70 72 71 65 72 71 73 73 74 70 75 66 76 67 77
REMARK SMILES IDX 68 78 69 79 48 80 49 81 57 82 50 83 56 84 58 85 55 86 51 87
REMARK SMILES IDX 52 88 53 89 54 90
REMARK H PARENT 86 14 86 15 78 43 46 54
REMARK Flexibility Score: inf
ROOT
ATOM      1  C   UNL A   1      35.652  20.710  25.001  1.00  0.00     0.275 C 
ENDROOT
BRANCH   1   2
ATOM      2  C   UNL A   1      34.224  21.230  25.160  1.00  0.00     0.275 C 
BRANCH   2   3
ATOM      3  O   UNL A   1      34.049  22.466  24.436  1.00  0.00    -0.458 OA
BRANCH   3   4
ATOM      4  C   UNL A   1      32.817  23.039  24.513  1.00  0.00     0.340 C 
ATOM      5  O   UNL A   1      31.866  22.614  25.155  1.00  0.00    -0.246 OA
BRANCH   4   6
ATOM      6  C   UNL A   1      32.779  24.299  23.724  1.00  0.00     0.085 A 
ATOM      7  C   UNL A   1      32.578  25.523  20.118  1.00  0.00     0.047 C 
ATOM      8  C   UNL A   1      32.708  25.487  21.618  1.00  0.00    -0.025 A 
ATOM      9  C   UNL A   1      32.699  26.700  22.330  1.00  0.00     0.031 A 
ATOM     10  C   UNL A   1      32.858  24.275  22.316  1.00  0.00     0.049 A 
ATOM     11  C   UNL A   1      32.749  26.741  23.723  1.00  0.00     0.038 A 
ATOM     12  C   UNL A   1      32.738  25.521  24.408  1.00  0.00     0.043 A 
BRANCH  10  13
ATOM     13  N   UNL A   1      32.977  23.080  21.612  1.00  0.00    -0.398 N 
ATOM     14  H   UNL A   1      33.229  22.254  22.083  1.00  0.00     0.156 HD
ATOM     15  H   UNL A   1      32.808  23.061  20.642  1.00  0.00     0.156 HD
ENDBRANCH  10  13
BRANCH  11  16
ATOM     16  N   UNL A   1      32.877  27.921  24.423  1.00  0.00    -0.369 N 
ATOM     17  C   UNL A   1      34.159  28.160  25.089  1.00  0.00     0.117 C 
ATOM     18  C   UNL A   1      31.895  29.014  24.494  1.00  0.00     0.079 C 
ATOM     19  C   UNL A   1      33.913  28.400  26.574  1.00  0.00     0.021 C 
ATOM     20  C   UNL A   1      31.621  29.287  25.989  1.00  0.00     0.025 C 
ATOM     21  C   UNL A   1      30.566  28.763  23.785  1.00  0.00     0.031 C 
ATOM     22  C   UNL A   1      32.909  29.533  26.778  1.00  0.00     0.004 C 
ENDBRANCH  11  16
ENDBRANCH   4   6
ENDBRANCH   3   4
ENDBRANCH   2   3
ENDBRANCH   1   2
BRANCH   1  23
ATOM     23  O   UNL A   1      36.570  21.756  25.353  1.00  0.00    -0.458 OA
BRANCH  23  24
ATOM     24  C   UNL A   1      37.862  21.386  25.534  1.00  0.00     0.338 C 
ATOM     25  O   UNL A   1      38.361  20.320  25.217  1.00  0.00    -0.246 OA
BRANCH  24  26
ATOM     26  C   UNL A   1      38.606  22.490  26.189  1.00  0.00     0.060 A 
ATOM     27  C   UNL A   1      38.141  23.800  26.102  1.00  0.00     0.016 A 
ATOM     28  C   UNL A   1      39.823  22.246  26.825  1.00  0.00     0.016 A 
ATOM     29  C   UNL A   1      38.918  24.865  26.564  1.00  0.00     0.010 A 
ATOM     30  C   UNL A   1      40.553  23.311  27.381  1.00  0.00     0.010 A 
ATOM     31  C   UNL A   1      40.132  24.647  27.227  1.00  0.00    -0.014 A 
BRANCH  31  32
ATOM     32  C   UNL A   1      40.987  25.797  27.674  1.00  0.00     0.031 A 
ATOM     33  C   UNL A   1      40.402  26.858  28.581  1.00  0.00     0.074 A 
ATOM     34  C   UNL A   1      42.288  25.903  27.326  1.00  0.00     0.049 A 
ATOM     35  N   UNL A   1      40.852  28.056  28.861  1.00  0.00    -0.248 NA
ATOM     36  C   UNL A   1      39.129  26.532  29.240  1.00  0.00     0.031 C 
ATOM     37  C   UNL A   1      43.040  24.936  26.524  1.00  0.00     0.029 A 
ATOM     38  N   UNL A   1      43.222  26.875  27.615  1.00  0.00    -0.354 N 
ATOM     39  C   UNL A   1      39.874  28.658  29.651  1.00  0.00     0.074 A 
ATOM     40  C   UNL A   1      38.813  27.685  29.810  1.00  0.00     0.031 C 
ATOM     41  C   UNL A   1      44.322  25.325  26.442  1.00  0.00     0.029 A 
ATOM     42  C   UNL A   1      44.464  26.636  27.063  1.00  0.00     0.049 A 
ATOM     43  H   UNL A   1      43.022  27.666  28.164  1.00  0.00     0.167 HD
ATOM     44  C   UNL A   1      39.863  29.905  30.185  1.00  0.00     0.034 A 
ATOM     45  C   UNL A   1      45.573  27.403  26.998  1.00  0.00     0.034 A 
ATOM     46  C   UNL A   1      40.966  30.833  30.090  1.00  0.00     0.049 A 
ATOM     47  C   UNL A   1      45.533  28.795  27.575  1.00  0.00     0.074 A 
ATOM     48  C   UNL A   1      41.055  32.122  30.589  1.00  0.00     0.029 A 
ATOM     49  N   UNL A   1      42.185  30.561  29.485  1.00  0.00    -0.354 N 
ATOM     50  N   UNL A   1      44.548  29.405  28.194  1.00  0.00    -0.248 NA
ATOM     51  C   UNL A   1      46.744  29.612  27.420  1.00  0.00     0.031 C 
ATOM     52  C   UNL A   1      42.307  32.645  30.244  1.00  0.00     0.029 A 
ATOM     53  C   UNL A   1      43.026  31.660  29.589  1.00  0.00     0.049 A 
ATOM     54  H   UNL A   1      42.419  29.712  29.045  1.00  0.00     0.167 HD
ATOM     55  C   UNL A   1      45.024  30.677  28.500  1.00  0.00     0.074 A 
ATOM     56  C   UNL A   1      46.392  30.734  28.030  1.00  0.00     0.031 C 
ATOM     57  C   UNL A   1      44.384  31.710  29.104  1.00  0.00     0.034 A 
BRANCH  44  58
ATOM     58  C   UNL A   1      38.590  30.368  30.857  1.00  0.00     0.023 A 
ATOM     59  C   UNL A   1      37.569  31.038  30.164  1.00  0.00     0.031 A 
ATOM     60  C   UNL A   1      38.410  30.139  32.235  1.00  0.00     0.131 A 
ATOM     61  C   UNL A   1      36.445  31.512  30.861  1.00  0.00     0.055 A 
ATOM     62  C   UNL A   1      37.254  30.543  32.906  1.00  0.00     0.041 A 
ATOM     63  F   UNL A   1      39.358  29.521  32.955  1.00  0.00    -0.206 F 
ATOM     64  C   UNL A   1      36.269  31.246  32.222  1.00  0.00     0.022 A 
BRANCH  61  65
ATOM     65  S   UNL A   1      35.273  32.589  29.993  1.00  0.00     0.124 S 
ATOM     66  O   UNL A   1      36.144  33.670  29.541  1.00  0.00    -0.237 OA
ATOM     67  O   UNL A   1      34.749  31.712  28.950  1.00  0.00    -0.237 OA
ATOM     68  O   UNL A   1      34.315  32.963  31.032  1.00  0.00    -0.744 OA
ENDBRANCH  61  65
ENDBRANCH  44  58
BRANCH  45  69
ATOM     69  C   UNL A   1      46.785  26.923  26.266  1.00  0.00     0.023 A 
ATOM     70  C   UNL A   1      47.850  26.303  26.940  1.00  0.00     0.031 A 
ATOM     71  C   UNL A   1      46.919  27.127  24.880  1.00  0.00     0.131 A 
ATOM     72  C   UNL A   1      49.009  25.939  26.234  1.00  0.00     0.055 A 
ATOM     73  C   UNL A   1      48.043  26.702  24.171  1.00  0.00     0.041 A 
ATOM     74  F   UNL A   1      45.940  27.731  24.185  1.00  0.00    -0.206 F 
ATOM     75  C   UNL A   1      49.103  26.115  24.851  1.00  0.00     0.022 A 
BRANCH  72  76
ATOM     76  S   UNL A   1      50.438  25.315  27.163  1.00  0.00     0.124 S 
ATOM     77  O   UNL A   1      50.802  26.476  27.964  1.00  0.00    -0.237 OA
ATOM     78  O   UNL A   1      49.860  24.189  27.888  1.00  0.00    -0.237 OA
ATOM     79  O   UNL A   1      51.393  24.954  26.116  1.00  0.00    -0.744 OA
ENDBRANCH  72  76
ENDBRANCH  45  69
BRANCH  57  80
ATOM     80  C   UNL A   1      45.182  32.971  29.321  1.00  0.00     0.023 A 
ATOM     81  C   UNL A   1      45.215  33.997  28.360  1.00  0.00     0.031 A 
ATOM     82  C   UNL A   1      45.943  33.134  30.491  1.00  0.00     0.131 A 
ATOM     83  C   UNL A   1      46.039  35.115  28.560  1.00  0.00     0.055 A 
ATOM     84  C   UNL A   1      46.719  34.272  30.710  1.00  0.00     0.041 A 
ATOM     85  F   UNL A   1      45.948  32.183  31.440  1.00  0.00    -0.206 F 
ATOM     86  C   UNL A   1      46.780  35.265  29.736  1.00  0.00     0.022 A 
BRANCH  83  87
ATOM     87  S   UNL A   1      46.201  36.330  27.224  1.00  0.00     0.124 S 
ATOM     88  O   UNL A   1      44.807  36.656  26.939  1.00  0.00    -0.237 OA
ATOM     89  O   UNL A   1      46.986  37.386  27.854  1.00  0.00    -0.237 OA
ATOM     90  O   UNL A   1      46.893  35.592  26.169  1.00  0.00    -0.744 OA
ENDBRANCH  83  87
ENDBRANCH  57  80
ENDBRANCH  31  32
ENDBRANCH  24  26
ENDBRANCH  23  24
ENDBRANCH   1  23
TORSDOF 16
ENDMDL
