MODEL 1
REMARK VINA RESULT:     -12.4      0.000      0.000
REMARK SMILES CC1(C)OC(=O)C(/C=N/[C@@H](C(=O)OCCOC(=O)c2ccc(-c3c4nc(c(-c5cc(S(=O)(=O)[O-])ccc5F)c5ccc([nH]5)c(-c5cc(S(=O)(=O)[O-])ccc5F)c5nc(c(-c6cc(S(=O)(=O)[O-])ccc6F)c6ccc3[nH]6)C=C5)C=C4)cc2)c2ccccc2)C(=O)O1
REMARK SMILES IDX 15 1 14 2 13 3 11 4 12 5 10 6 9 7 8 8 7 9 1 10 2 11 3 12
REMARK SMILES IDX 4 13 90 14 5 15 88 16 6 17 89 18 82 19 83 20 87 21 84 22
REMARK SMILES IDX 86 23 85 24 16 25 17 26 18 27 19 28 20 29 81 30 21 31 80 32
REMARK SMILES IDX 22 33 23 34 24 35 74 36 25 37 79 38 73 39 75 40 26 41 78 42
REMARK SMILES IDX 72 43 71 44 27 46 59 47 39 48 58 49 40 50 43 51 57 52 76 53
REMARK SMILES IDX 41 54 42 55 56 57 77 58 44 59 28 60 29 61 37 62 30 63 36 64
REMARK SMILES IDX 38 65 35 66 31 67 32 68 33 69 34 70 60 71 61 72 69 73 62 74
REMARK SMILES IDX 68 75 70 76 67 77 63 78 64 79 65 80 66 81 45 82 46 83 54 84
REMARK SMILES IDX 47 85 53 86 55 87 52 88 48 89 49 90 50 91 51 92
REMARK H PARENT 75 45 43 56
REMARK Flexibility Score: inf
ROOT
ATOM      1  C   UNL A   1      31.523  29.410  26.145  1.00  0.00     0.275 C 
ENDROOT
BRANCH   1   2
ATOM      2  C   UNL A   1      31.575  28.074  26.881  1.00  0.00     0.274 C 
BRANCH   2   3
ATOM      3  O   UNL A   1      31.728  26.994  25.939  1.00  0.00    -0.460 OA
BRANCH   3   4
ATOM      4  C   UNL A   1      30.609  26.264  25.650  1.00  0.00     0.335 C 
ATOM      5  O   UNL A   1      29.902  25.747  26.510  1.00  0.00    -0.249 OA
BRANCH   4   6
ATOM      6  C   UNL A   1      30.366  26.110  24.131  1.00  0.00     0.244 C 
BRANCH   6   7
ATOM      7  N   UNL A   1      31.448  25.389  23.405  1.00  0.00    -0.276 NA
ATOM      8  C   UNL A   1      31.407  24.104  23.360  1.00  0.00     0.106 C 
BRANCH   8   9
ATOM      9  C   UNL A   1      32.559  23.327  22.789  1.00  0.00     0.250 C 
ATOM     10  C   UNL A   1      35.467  24.094  25.030  1.00  0.00     0.106 C 
ATOM     11  C   UNL A   1      35.230  23.394  23.694  1.00  0.00     0.252 C 
ATOM     12  C   UNL A   1      36.548  22.871  23.126  1.00  0.00     0.106 C 
ATOM     13  O   UNL A   1      34.754  24.356  22.761  1.00  0.00    -0.422 OA
ATOM     14  O   UNL A   1      34.406  22.247  23.907  1.00  0.00    -0.422 OA
ATOM     15  C   UNL A   1      33.551  24.256  22.193  1.00  0.00     0.329 C 
ATOM     16  C   UNL A   1      33.078  22.334  23.756  1.00  0.00     0.329 C 
ATOM     17  O   UNL A   1      33.269  24.966  21.231  1.00  0.00    -0.251 OA
ATOM     18  O   UNL A   1      32.336  21.531  24.319  1.00  0.00    -0.251 OA
ENDBRANCH   8   9
ENDBRANCH   6   7
BRANCH   6  19
ATOM     19  C   UNL A   1      29.867  27.389  23.447  1.00  0.00    -0.012 A 
ATOM     20  C   UNL A   1      28.495  27.700  23.499  1.00  0.00     0.006 A 
ATOM     21  C   UNL A   1      30.706  28.286  22.762  1.00  0.00     0.006 A 
ATOM     22  C   UNL A   1      27.988  28.853  22.892  1.00  0.00     0.000 A 
ATOM     23  C   UNL A   1      30.198  29.441  22.157  1.00  0.00     0.000 A 
ATOM     24  C   UNL A   1      28.840  29.726  22.222  1.00  0.00     0.000 A 
ENDBRANCH   6  19
ENDBRANCH   4   6
ENDBRANCH   3   4
ENDBRANCH   2   3
ENDBRANCH   1   2
BRANCH   1  25
ATOM     25  O   UNL A   1      32.857  29.933  26.026  1.00  0.00    -0.458 OA
BRANCH  25  26
ATOM     26  C   UNL A   1      33.193  30.931  26.875  1.00  0.00     0.338 C 
ATOM     27  O   UNL A   1      32.486  31.852  27.251  1.00  0.00    -0.246 OA
BRANCH  26  28
ATOM     28  C   UNL A   1      34.567  30.724  27.367  1.00  0.00     0.060 A 
ATOM     29  C   UNL A   1      35.056  29.431  27.545  1.00  0.00     0.016 A 
ATOM     30  C   UNL A   1      35.328  31.820  27.779  1.00  0.00     0.016 A 
ATOM     31  C   UNL A   1      36.261  29.227  28.214  1.00  0.00     0.010 A 
ATOM     32  C   UNL A   1      36.578  31.611  28.373  1.00  0.00     0.010 A 
ATOM     33  C   UNL A   1      37.042  30.310  28.639  1.00  0.00    -0.014 A 
BRANCH  33  34
ATOM     34  C   UNL A   1      38.296  30.091  29.420  1.00  0.00     0.031 A 
ATOM     35  C   UNL A   1      39.392  29.224  28.853  1.00  0.00     0.074 A 
ATOM     36  C   UNL A   1      38.475  30.660  30.629  1.00  0.00     0.049 A 
ATOM     37  N   UNL A   1      40.426  28.687  29.449  1.00  0.00    -0.248 NA
ATOM     38  C   UNL A   1      39.290  28.900  27.423  1.00  0.00     0.031 C 
ATOM     39  C   UNL A   1      37.538  31.571  31.288  1.00  0.00     0.029 A 
ATOM     40  N   UNL A   1      39.512  30.548  31.525  1.00  0.00    -0.354 N 
ATOM     41  C   UNL A   1      41.053  27.897  28.490  1.00  0.00     0.074 A 
ATOM     42  C   UNL A   1      40.276  28.028  27.273  1.00  0.00     0.031 C 
ATOM     43  C   UNL A   1      38.052  31.955  32.467  1.00  0.00     0.029 A 
ATOM     44  C   UNL A   1      39.302  31.241  32.695  1.00  0.00     0.049 A 
ATOM     45  H   UNL A   1      40.325  30.023  31.347  1.00  0.00     0.167 HD
ATOM     46  C   UNL A   1      42.166  27.129  28.618  1.00  0.00     0.034 A 
ATOM     47  C   UNL A   1      39.997  31.255  33.849  1.00  0.00     0.034 A 
ATOM     48  C   UNL A   1      42.963  27.062  29.821  1.00  0.00     0.049 A 
ATOM     49  C   UNL A   1      41.218  30.388  33.983  1.00  0.00     0.074 A 
ATOM     50  C   UNL A   1      44.118  26.335  30.056  1.00  0.00     0.029 A 
ATOM     51  N   UNL A   1      42.696  27.763  30.991  1.00  0.00    -0.354 N 
ATOM     52  N   UNL A   1      41.740  29.561  33.108  1.00  0.00    -0.248 NA
ATOM     53  C   UNL A   1      41.929  30.444  35.266  1.00  0.00     0.031 C 
ATOM     54  C   UNL A   1      44.519  26.557  31.380  1.00  0.00     0.029 A 
ATOM     55  C   UNL A   1      43.653  27.471  31.954  1.00  0.00     0.049 A 
ATOM     56  H   UNL A   1      41.938  28.377  31.120  1.00  0.00     0.167 HD
ATOM     57  C   UNL A   1      42.838  28.988  33.742  1.00  0.00     0.074 A 
ATOM     58  C   UNL A   1      42.919  29.587  35.060  1.00  0.00     0.031 C 
ATOM     59  C   UNL A   1      43.699  28.048  33.276  1.00  0.00     0.034 A 
BRANCH  46  60
ATOM     60  C   UNL A   1      42.538  26.247  27.447  1.00  0.00     0.023 A 
ATOM     61  C   UNL A   1      42.054  24.935  27.310  1.00  0.00     0.031 A 
ATOM     62  C   UNL A   1      43.445  26.716  26.478  1.00  0.00     0.131 A 
ATOM     63  C   UNL A   1      42.547  24.111  26.285  1.00  0.00     0.055 A 
ATOM     64  C   UNL A   1      43.863  25.920  25.409  1.00  0.00     0.041 A 
ATOM     65  F   UNL A   1      43.962  27.952  26.567  1.00  0.00    -0.206 F 
ATOM     66  C   UNL A   1      43.427  24.602  25.318  1.00  0.00     0.022 A 
BRANCH  63  67
ATOM     67  S   UNL A   1      42.159  22.340  26.338  1.00  0.00     0.124 S 
ATOM     68  O   UNL A   1      40.707  22.351  26.163  1.00  0.00    -0.237 OA
ATOM     69  O   UNL A   1      42.935  21.815  25.221  1.00  0.00    -0.237 OA
ATOM     70  O   UNL A   1      42.612  21.927  27.665  1.00  0.00    -0.744 OA
ENDBRANCH  63  67
ENDBRANCH  46  60
BRANCH  47  71
ATOM     71  C   UNL A   1      39.487  32.044  35.005  1.00  0.00     0.023 A 
ATOM     72  C   UNL A   1      39.932  33.349  35.251  1.00  0.00     0.031 A 
ATOM     73  C   UNL A   1      38.528  31.492  35.876  1.00  0.00     0.131 A 
ATOM     74  C   UNL A   1      39.428  34.059  36.353  1.00  0.00     0.055 A 
ATOM     75  C   UNL A   1      37.998  32.216  36.942  1.00  0.00     0.041 A 
ATOM     76  F   UNL A   1      38.068  30.246  35.676  1.00  0.00    -0.206 F 
ATOM     77  C   UNL A   1      38.452  33.508  37.189  1.00  0.00     0.022 A 
BRANCH  74  78
ATOM     78  S   UNL A   1      40.087  35.712  36.701  1.00  0.00     0.124 S 
ATOM     79  O   UNL A   1      39.656  36.458  35.524  1.00  0.00    -0.237 OA
ATOM     80  O   UNL A   1      39.421  36.050  37.955  1.00  0.00    -0.237 OA
ATOM     81  O   UNL A   1      41.528  35.489  36.806  1.00  0.00    -0.744 OA
ENDBRANCH  74  78
ENDBRANCH  47  71
BRANCH  59  82
ATOM     82  C   UNL A   1      44.809  27.629  34.206  1.00  0.00     0.023 A 
ATOM     83  C   UNL A   1      44.657  26.547  35.090  1.00  0.00     0.031 A 
ATOM     84  C   UNL A   1      46.023  28.337  34.224  1.00  0.00     0.131 A 
ATOM     85  C   UNL A   1      45.685  26.232  35.991  1.00  0.00     0.055 A 
ATOM     86  C   UNL A   1      47.061  27.992  35.091  1.00  0.00     0.041 A 
ATOM     87  F   UNL A   1      46.217  29.381  33.401  1.00  0.00    -0.206 F 
ATOM     88  C   UNL A   1      46.891  26.941  35.989  1.00  0.00     0.022 A 
BRANCH  85  89
ATOM     89  S   UNL A   1      45.402  24.932  37.223  1.00  0.00     0.124 S 
ATOM     90  O   UNL A   1      46.273  23.863  36.742  1.00  0.00    -0.237 OA
ATOM     91  O   UNL A   1      45.812  25.579  38.464  1.00  0.00    -0.237 OA
ATOM     92  O   UNL A   1      43.969  24.659  37.112  1.00  0.00    -0.744 OA
ENDBRANCH  85  89
ENDBRANCH  59  82
ENDBRANCH  33  34
ENDBRANCH  26  28
ENDBRANCH  25  26
ENDBRANCH   1  25
TORSDOF 17
ENDMDL
MODEL 2
REMARK VINA RESULT:     -12.4      4.908      9.918
REMARK SMILES CC1(C)OC(=O)C(/C=N/[C@@H](C(=O)OCCOC(=O)c2ccc(-c3c4nc(c(-c5cc(S(=O)(=O)[O-])ccc5F)c5ccc([nH]5)c(-c5cc(S(=O)(=O)[O-])ccc5F)c5nc(c(-c6cc(S(=O)(=O)[O-])ccc6F)c6ccc3[nH]6)C=C5)C=C4)cc2)c2ccccc2)C(=O)O1
REMARK SMILES IDX 15 1 14 2 13 3 11 4 12 5 10 6 9 7 8 8 7 9 1 10 2 11 3 12
REMARK SMILES IDX 4 13 90 14 5 15 88 16 6 17 89 18 82 19 83 20 87 21 84 22
REMARK SMILES IDX 86 23 85 24 16 25 17 26 18 27 19 28 20 29 81 30 21 31 80 32
REMARK SMILES IDX 22 33 23 34 24 35 74 36 25 37 79 38 73 39 75 40 26 41 78 42
REMARK SMILES IDX 72 43 71 44 27 46 59 47 39 48 58 49 40 50 43 51 57 52 76 53
REMARK SMILES IDX 41 54 42 55 56 57 77 58 44 59 28 60 29 61 37 62 30 63 36 64
REMARK SMILES IDX 38 65 35 66 31 67 32 68 33 69 34 70 60 71 61 72 69 73 62 74
REMARK SMILES IDX 68 75 70 76 67 77 63 78 64 79 65 80 66 81 45 82 46 83 54 84
REMARK SMILES IDX 47 85 53 86 55 87 52 88 48 89 49 90 50 91 51 92
REMARK H PARENT 75 45 43 56
REMARK Flexibility Score: inf
ROOT
ATOM      1  C   UNL A   1      36.939  21.584  24.228  1.00  0.00     0.275 C 
ENDROOT
BRANCH   1   2
ATOM      2  C   UNL A   1      36.129  22.777  23.729  1.00  0.00     0.274 C 
BRANCH   2   3
ATOM      3  O   UNL A   1      34.732  22.590  24.030  1.00  0.00    -0.460 OA
BRANCH   3   4
ATOM      4  C   UNL A   1      33.848  22.788  23.006  1.00  0.00     0.335 C 
ATOM      5  O   UNL A   1      34.121  23.430  21.997  1.00  0.00    -0.249 OA
BRANCH   4   6
ATOM      6  C   UNL A   1      32.457  22.172  23.283  1.00  0.00     0.244 C 
BRANCH   6   7
ATOM      7  N   UNL A   1      31.536  23.053  24.053  1.00  0.00    -0.276 NA
ATOM      8  C   UNL A   1      31.862  24.285  24.221  1.00  0.00     0.106 C 
BRANCH   8   9
ATOM      9  C   UNL A   1      31.054  25.167  25.130  1.00  0.00     0.250 C 
ATOM     10  C   UNL A   1      33.406  27.877  26.217  1.00  0.00     0.106 C 
ATOM     11  C   UNL A   1      32.006  27.390  26.581  1.00  0.00     0.252 C 
ATOM     12  C   UNL A   1      31.417  28.249  27.698  1.00  0.00     0.106 C 
ATOM     13  O   UNL A   1      32.112  26.075  27.113  1.00  0.00    -0.422 OA
ATOM     14  O   UNL A   1      31.145  27.557  25.455  1.00  0.00    -0.422 OA
ATOM     15  C   UNL A   1      31.530  25.027  26.528  1.00  0.00     0.329 C 
ATOM     16  C   UNL A   1      30.949  26.545  24.599  1.00  0.00     0.329 C 
ATOM     17  O   UNL A   1      31.448  23.960  27.131  1.00  0.00    -0.251 OA
ATOM     18  O   UNL A   1      30.581  26.768  23.448  1.00  0.00    -0.251 OA
ENDBRANCH   8   9
ENDBRANCH   6   7
BRANCH   6  19
ATOM     19  C   UNL A   1      32.505  20.713  23.755  1.00  0.00    -0.012 A 
ATOM     20  C   UNL A   1      32.687  20.445  25.125  1.00  0.00     0.006 A 
ATOM     21  C   UNL A   1      32.375  19.609  22.894  1.00  0.00     0.006 A 
ATOM     22  C   UNL A   1      32.739  19.133  25.608  1.00  0.00     0.000 A 
ATOM     23  C   UNL A   1      32.423  18.297  23.378  1.00  0.00     0.000 A 
ATOM     24  C   UNL A   1      32.605  18.058  24.734  1.00  0.00     0.000 A 
ENDBRANCH   6  19
ENDBRANCH   4   6
ENDBRANCH   3   4
ENDBRANCH   2   3
ENDBRANCH   1   2
BRANCH   1  25
ATOM     25  O   UNL A   1      37.319  21.812  25.596  1.00  0.00    -0.458 OA
BRANCH  25  26
ATOM     26  C   UNL A   1      38.612  21.573  25.911  1.00  0.00     0.338 C 
ATOM     27  O   UNL A   1      39.267  20.579  25.645  1.00  0.00    -0.246 OA
BRANCH  26  28
ATOM     28  C   UNL A   1      39.182  22.747  26.597  1.00  0.00     0.060 A 
ATOM     29  C   UNL A   1      38.671  24.019  26.341  1.00  0.00     0.016 A 
ATOM     30  C   UNL A   1      40.316  22.600  27.397  1.00  0.00     0.016 A 
ATOM     31  C   UNL A   1      39.342  25.146  26.808  1.00  0.00     0.010 A 
ATOM     32  C   UNL A   1      40.936  23.733  27.935  1.00  0.00     0.010 A 
ATOM     33  C   UNL A   1      40.484  25.026  27.612  1.00  0.00    -0.014 A 
BRANCH  33  34
ATOM     34  C   UNL A   1      41.244  26.234  28.050  1.00  0.00     0.031 A 
ATOM     35  C   UNL A   1      40.554  27.302  28.860  1.00  0.00     0.074 A 
ATOM     36  C   UNL A   1      42.547  26.390  27.741  1.00  0.00     0.049 A 
ATOM     37  N   UNL A   1      40.928  28.530  29.114  1.00  0.00    -0.248 NA
ATOM     38  C   UNL A   1      39.252  26.940  29.437  1.00  0.00     0.031 C 
ATOM     39  C   UNL A   1      43.372  25.421  27.018  1.00  0.00     0.029 A 
ATOM     40  N   UNL A   1      43.408  27.432  27.995  1.00  0.00    -0.354 N 
ATOM     41  C   UNL A   1      39.874  29.114  29.812  1.00  0.00     0.074 A 
ATOM     42  C   UNL A   1      38.847  28.099  29.936  1.00  0.00     0.031 C 
ATOM     43  C   UNL A   1      44.621  25.900  26.909  1.00  0.00     0.029 A 
ATOM     44  C   UNL A   1      44.662  27.249  27.460  1.00  0.00     0.049 A 
ATOM     45  H   UNL A   1      43.150  28.231  28.508  1.00  0.00     0.167 HD
ATOM     46  C   UNL A   1      39.774  30.379  30.294  1.00  0.00     0.034 A 
ATOM     47  C   UNL A   1      45.711  28.089  27.363  1.00  0.00     0.034 A 
ATOM     48  C   UNL A   1      40.835  31.356  30.217  1.00  0.00     0.049 A 
ATOM     49  C   UNL A   1      45.580  29.492  27.886  1.00  0.00     0.074 A 
ATOM     50  C   UNL A   1      40.849  32.658  30.689  1.00  0.00     0.029 A 
ATOM     51  N   UNL A   1      42.081  31.133  29.643  1.00  0.00    -0.354 N 
ATOM     52  N   UNL A   1      44.542  30.069  28.446  1.00  0.00    -0.248 NA
ATOM     53  C   UNL A   1      46.756  30.360  27.747  1.00  0.00     0.031 C 
ATOM     54  C   UNL A   1      42.082  33.237  30.356  1.00  0.00     0.029 A 
ATOM     55  C   UNL A   1      42.862  32.277  29.733  1.00  0.00     0.049 A 
ATOM     56  H   UNL A   1      42.368  30.287  29.231  1.00  0.00     0.167 HD
ATOM     57  C   UNL A   1      44.938  31.375  28.715  1.00  0.00     0.074 A 
ATOM     58  C   UNL A   1      46.318  31.490  28.285  1.00  0.00     0.031 C 
ATOM     59  C   UNL A   1      44.223  32.389  29.265  1.00  0.00     0.034 A 
BRANCH  46  60
ATOM     60  C   UNL A   1      38.443  30.794  30.881  1.00  0.00     0.023 A 
ATOM     61  C   UNL A   1      37.416  31.349  30.099  1.00  0.00     0.031 A 
ATOM     62  C   UNL A   1      38.223  30.681  32.267  1.00  0.00     0.131 A 
ATOM     63  C   UNL A   1      36.260  31.852  30.716  1.00  0.00     0.055 A 
ATOM     64  C   UNL A   1      37.032  31.101  32.864  1.00  0.00     0.041 A 
ATOM     65  F   UNL A   1      39.174  30.180  33.071  1.00  0.00    -0.206 F 
ATOM     66  C   UNL A   1      36.048  31.708  32.090  1.00  0.00     0.022 A 
BRANCH  63  67
ATOM     67  S   UNL A   1      35.116  32.854  29.727  1.00  0.00     0.124 S 
ATOM     68  O   UNL A   1      36.005  33.896  29.215  1.00  0.00    -0.237 OA
ATOM     69  O   UNL A   1      34.623  31.894  28.748  1.00  0.00    -0.237 OA
ATOM     70  O   UNL A   1      34.131  33.316  30.703  1.00  0.00    -0.744 OA
ENDBRANCH  63  67
ENDBRANCH  46  60
BRANCH  47  71
ATOM     71  C   UNL A   1      46.940  27.650  26.646  1.00  0.00     0.023 A 
ATOM     72  C   UNL A   1      47.078  27.821  25.261  1.00  0.00     0.031 A 
ATOM     73  C   UNL A   1      48.004  27.060  27.353  1.00  0.00     0.131 A 
ATOM     74  C   UNL A   1      48.252  27.391  24.622  1.00  0.00     0.055 A 
ATOM     75  C   UNL A   1      49.186  26.676  26.720  1.00  0.00     0.041 A 
ATOM     76  F   UNL A   1      47.920  26.882  28.681  1.00  0.00    -0.206 F 
ATOM     77  C   UNL A   1      49.313  26.837  25.344  1.00  0.00     0.022 A 
BRANCH  74  78
ATOM     78  S   UNL A   1      48.367  27.541  22.818  1.00  0.00     0.124 S 
ATOM     79  O   UNL A   1      47.163  28.302  22.506  1.00  0.00    -0.237 OA
ATOM     80  O   UNL A   1      49.634  28.247  22.651  1.00  0.00    -0.237 OA
ATOM     81  O   UNL A   1      48.366  26.154  22.361  1.00  0.00    -0.744 OA
ENDBRANCH  74  78
ENDBRANCH  47  71
BRANCH  59  82
ATOM     82  C   UNL A   1      44.939  33.703  29.441  1.00  0.00     0.023 A 
ATOM     83  C   UNL A   1      44.911  34.693  28.443  1.00  0.00     0.031 A 
ATOM     84  C   UNL A   1      45.679  33.957  30.609  1.00  0.00     0.131 A 
ATOM     85  C   UNL A   1      45.650  35.874  28.611  1.00  0.00     0.055 A 
ATOM     86  C   UNL A   1      46.375  35.152  30.791  1.00  0.00     0.041 A 
ATOM     87  F   UNL A   1      45.740  33.042  31.590  1.00  0.00    -0.206 F 
ATOM     88  C   UNL A   1      46.372  36.115  29.785  1.00  0.00     0.022 A 
BRANCH  85  89
ATOM     89  S   UNL A   1      45.719  37.065  27.245  1.00  0.00     0.124 S 
ATOM     90  O   UNL A   1      44.305  37.360  27.027  1.00  0.00    -0.237 OA
ATOM     91  O   UNL A   1      46.516  38.147  27.812  1.00  0.00    -0.237 OA
ATOM     92  O   UNL A   1      46.367  36.317  26.169  1.00  0.00    -0.744 OA
ENDBRANCH  85  89
ENDBRANCH  59  82
ENDBRANCH  33  34
ENDBRANCH  26  28
ENDBRANCH  25  26
ENDBRANCH   1  25
TORSDOF 17
ENDMDL
MODEL 3
REMARK VINA RESULT:     -12.1      4.489      9.585
REMARK SMILES CC1(C)OC(=O)C(/C=N/[C@@H](C(=O)OCCOC(=O)c2ccc(-c3c4nc(c(-c5cc(S(=O)(=O)[O-])ccc5F)c5ccc([nH]5)c(-c5cc(S(=O)(=O)[O-])ccc5F)c5nc(c(-c6cc(S(=O)(=O)[O-])ccc6F)c6ccc3[nH]6)C=C5)C=C4)cc2)c2ccccc2)C(=O)O1
REMARK SMILES IDX 15 1 14 2 13 3 11 4 12 5 10 6 9 7 8 8 7 9 1 10 2 11 3 12
REMARK SMILES IDX 4 13 90 14 5 15 88 16 6 17 89 18 82 19 83 20 87 21 84 22
REMARK SMILES IDX 86 23 85 24 16 25 17 26 18 27 19 28 20 29 81 30 21 31 80 32
REMARK SMILES IDX 22 33 23 34 24 35 74 36 25 37 79 38 73 39 75 40 26 41 78 42
REMARK SMILES IDX 72 43 71 44 27 46 59 47 39 48 58 49 40 50 43 51 57 52 76 53
REMARK SMILES IDX 41 54 42 55 56 57 77 58 44 59 28 60 29 61 37 62 30 63 36 64
REMARK SMILES IDX 38 65 35 66 31 67 32 68 33 69 34 70 60 71 61 72 69 73 62 74
REMARK SMILES IDX 68 75 70 76 67 77 63 78 64 79 65 80 66 81 45 82 46 83 54 84
REMARK SMILES IDX 47 85 53 86 55 87 52 88 48 89 49 90 50 91 51 92
REMARK H PARENT 75 45 43 56
REMARK Flexibility Score: inf
ROOT
ATOM      1  C   UNL A   1      36.664  21.387  25.788  1.00  0.00     0.275 C 
ENDROOT
BRANCH   1   2
ATOM      2  C   UNL A   1      35.855  22.661  26.017  1.00  0.00     0.274 C 
BRANCH   2   3
ATOM      3  O   UNL A   1      34.646  22.359  26.742  1.00  0.00    -0.460 OA
BRANCH   3   4
ATOM      4  C   UNL A   1      33.471  22.770  26.179  1.00  0.00     0.335 C 
ATOM      5  O   UNL A   1      32.451  22.981  26.828  1.00  0.00    -0.249 OA
BRANCH   4   6
ATOM      6  C   UNL A   1      33.547  22.879  24.638  1.00  0.00     0.244 C 
BRANCH   6   7
ATOM      7  N   UNL A   1      33.075  24.180  24.089  1.00  0.00    -0.276 NA
ATOM      8  C   UNL A   1      33.942  25.101  23.859  1.00  0.00     0.106 C 
BRANCH   8   9
ATOM      9  C   UNL A   1      33.498  26.481  23.468  1.00  0.00     0.250 C 
ATOM     10  C   UNL A   1      29.758  26.421  23.730  1.00  0.00     0.106 C 
ATOM     11  C   UNL A   1      30.834  27.364  23.196  1.00  0.00     0.252 C 
ATOM     12  C   UNL A   1      30.195  28.621  22.607  1.00  0.00     0.106 C 
ATOM     13  O   UNL A   1      31.500  26.721  22.117  1.00  0.00    -0.422 OA
ATOM     14  O   UNL A   1      31.650  27.804  24.281  1.00  0.00    -0.422 OA
ATOM     15  C   UNL A   1      32.803  26.438  22.158  1.00  0.00     0.329 C 
ATOM     16  C   UNL A   1      32.787  27.158  24.575  1.00  0.00     0.329 C 
ATOM     17  O   UNL A   1      33.386  26.098  21.131  1.00  0.00    -0.251 OA
ATOM     18  O   UNL A   1      33.269  27.233  25.703  1.00  0.00    -0.251 OA
ENDBRANCH   8   9
ENDBRANCH   6   7
BRANCH   6  19
ATOM     19  C   UNL A   1      33.032  21.637  23.900  1.00  0.00    -0.012 A 
ATOM     20  C   UNL A   1      33.223  20.369  24.480  1.00  0.00     0.006 A 
ATOM     21  C   UNL A   1      32.367  21.685  22.662  1.00  0.00     0.006 A 
ATOM     22  C   UNL A   1      32.773  19.205  23.848  1.00  0.00     0.000 A 
ATOM     23  C   UNL A   1      31.914  20.521  22.031  1.00  0.00     0.000 A 
ATOM     24  C   UNL A   1      32.116  19.281  22.624  1.00  0.00     0.000 A 
ENDBRANCH   6  19
ENDBRANCH   4   6
ENDBRANCH   3   4
ENDBRANCH   2   3
ENDBRANCH   1   2
BRANCH   1  25
ATOM     25  O   UNL A   1      37.928  21.732  25.198  1.00  0.00    -0.458 OA
BRANCH  25  26
ATOM     26  C   UNL A   1      39.032  21.450  25.928  1.00  0.00     0.338 C 
ATOM     27  O   UNL A   1      39.607  20.377  26.015  1.00  0.00    -0.246 OA
BRANCH  26  28
ATOM     28  C   UNL A   1      39.518  22.675  26.588  1.00  0.00     0.060 A 
ATOM     29  C   UNL A   1      39.111  23.924  26.124  1.00  0.00     0.016 A 
ATOM     30  C   UNL A   1      40.487  22.585  27.589  1.00  0.00     0.016 A 
ATOM     31  C   UNL A   1      39.733  25.079  26.594  1.00  0.00     0.010 A 
ATOM     32  C   UNL A   1      41.047  23.753  28.118  1.00  0.00     0.010 A 
ATOM     33  C   UNL A   1      40.710  25.016  27.596  1.00  0.00    -0.014 A 
BRANCH  33  34
ATOM     34  C   UNL A   1      41.429  26.245  28.046  1.00  0.00     0.031 A 
ATOM     35  C   UNL A   1      40.698  27.287  28.855  1.00  0.00     0.074 A 
ATOM     36  C   UNL A   1      42.729  26.443  27.749  1.00  0.00     0.049 A 
ATOM     37  N   UNL A   1      41.031  28.526  29.117  1.00  0.00    -0.248 NA
ATOM     38  C   UNL A   1      39.404  26.882  29.420  1.00  0.00     0.031 C 
ATOM     39  C   UNL A   1      43.590  25.504  27.028  1.00  0.00     0.029 A 
ATOM     40  N   UNL A   1      43.554  27.511  28.013  1.00  0.00    -0.354 N 
ATOM     41  C   UNL A   1      39.954  29.073  29.809  1.00  0.00     0.074 A 
ATOM     42  C   UNL A   1      38.959  28.026  29.920  1.00  0.00     0.031 C 
ATOM     43  C   UNL A   1      44.823  26.023  26.931  1.00  0.00     0.029 A 
ATOM     44  C   UNL A   1      44.817  27.370  27.489  1.00  0.00     0.049 A 
ATOM     45  H   UNL A   1      43.267  28.299  28.528  1.00  0.00     0.167 HD
ATOM     46  C   UNL A   1      39.810  30.332  30.295  1.00  0.00     0.034 A 
ATOM     47  C   UNL A   1      45.840  28.243  27.403  1.00  0.00     0.034 A 
ATOM     48  C   UNL A   1      40.840  31.343  30.231  1.00  0.00     0.049 A 
ATOM     49  C   UNL A   1      45.661  29.639  27.931  1.00  0.00     0.074 A 
ATOM     50  C   UNL A   1      40.810  32.642  30.707  1.00  0.00     0.029 A 
ATOM     51  N   UNL A   1      42.097  31.162  29.666  1.00  0.00    -0.354 N 
ATOM     52  N   UNL A   1      44.601  30.180  28.484  1.00  0.00    -0.248 NA
ATOM     53  C   UNL A   1      46.810  30.544  27.805  1.00  0.00     0.031 C 
ATOM     54  C   UNL A   1      42.026  33.261  30.387  1.00  0.00     0.029 A 
ATOM     55  C   UNL A   1      42.841  32.329  29.767  1.00  0.00     0.049 A 
ATOM     56  H   UNL A   1      42.414  30.327  29.253  1.00  0.00     0.167 HD
ATOM     57  C   UNL A   1      44.953  31.497  28.762  1.00  0.00     0.074 A 
ATOM     58  C   UNL A   1      46.332  31.658  28.344  1.00  0.00     0.031 C 
ATOM     59  C   UNL A   1      44.202  32.486  29.311  1.00  0.00     0.034 A 
BRANCH  46  60
ATOM     60  C   UNL A   1      38.462  30.702  30.873  1.00  0.00     0.023 A 
ATOM     61  C   UNL A   1      37.444  31.282  30.096  1.00  0.00     0.031 A 
ATOM     62  C   UNL A   1      38.214  30.520  32.246  1.00  0.00     0.131 A 
ATOM     63  C   UNL A   1      36.269  31.741  30.712  1.00  0.00     0.055 A 
ATOM     64  C   UNL A   1      37.006  30.897  32.837  1.00  0.00     0.041 A 
ATOM     65  F   UNL A   1      39.155  29.993  33.046  1.00  0.00    -0.206 F 
ATOM     66  C   UNL A   1      36.031  31.528  32.072  1.00  0.00     0.022 A 
BRANCH  63  67
ATOM     67  S   UNL A   1      35.133  32.776  29.747  1.00  0.00     0.124 S 
ATOM     68  O   UNL A   1      36.029  33.828  29.269  1.00  0.00    -0.237 OA
ATOM     69  O   UNL A   1      34.640  31.846  28.739  1.00  0.00    -0.237 OA
ATOM     70  O   UNL A   1      34.146  33.214  30.733  1.00  0.00    -0.744 OA
ENDBRANCH  63  67
ENDBRANCH  46  60
BRANCH  47  71
ATOM     71  C   UNL A   1      47.088  27.846  26.694  1.00  0.00     0.023 A 
ATOM     72  C   UNL A   1      47.188  27.914  25.298  1.00  0.00     0.031 A 
ATOM     73  C   UNL A   1      48.209  27.402  27.421  1.00  0.00     0.131 A 
ATOM     74  C   UNL A   1      48.382  27.529  24.667  1.00  0.00     0.055 A 
ATOM     75  C   UNL A   1      49.406  27.063  26.793  1.00  0.00     0.041 A 
ATOM     76  F   UNL A   1      48.162  27.326  28.761  1.00  0.00    -0.206 F 
ATOM     77  C   UNL A   1      49.496  27.120  25.406  1.00  0.00     0.022 A 
BRANCH  74  78
ATOM     78  S   UNL A   1      48.453  27.540  22.855  1.00  0.00     0.124 S 
ATOM     79  O   UNL A   1      48.432  26.114  22.548  1.00  0.00    -0.237 OA
ATOM     80  O   UNL A   1      47.251  28.289  22.507  1.00  0.00    -0.237 OA
ATOM     81  O   UNL A   1      49.714  28.222  22.569  1.00  0.00    -0.744 OA
ENDBRANCH  74  78
ENDBRANCH  47  71
BRANCH  59  82
ATOM     82  C   UNL A   1      44.875  33.821  29.497  1.00  0.00     0.023 A 
ATOM     83  C   UNL A   1      45.579  34.130  30.675  1.00  0.00     0.031 A 
ATOM     84  C   UNL A   1      44.789  34.804  28.496  1.00  0.00     0.131 A 
ATOM     85  C   UNL A   1      46.130  35.409  30.843  1.00  0.00     0.055 A 
ATOM     86  C   UNL A   1      45.379  36.059  28.649  1.00  0.00     0.041 A 
ATOM     87  F   UNL A   1      44.126  34.559  27.355  1.00  0.00    -0.206 F 
ATOM     88  C   UNL A   1      46.045  36.372  29.832  1.00  0.00     0.022 A 
BRANCH  85  89
ATOM     89  S   UNL A   1      46.898  35.828  32.431  1.00  0.00     0.124 S 
ATOM     90  O   UNL A   1      46.984  37.284  32.352  1.00  0.00    -0.237 OA
ATOM     91  O   UNL A   1      45.939  35.297  33.393  1.00  0.00    -0.237 OA
ATOM     92  O   UNL A   1      48.182  35.130  32.388  1.00  0.00    -0.744 OA
ENDBRANCH  85  89
ENDBRANCH  59  82
ENDBRANCH  33  34
ENDBRANCH  26  28
ENDBRANCH  25  26
ENDBRANCH   1  25
TORSDOF 17
ENDMDL
