MODEL 1
REMARK VINA RESULT:     -11.2      0.000      0.000
REMARK SMILES O=C(OCCOC(=O)c1cccnc1NC[C@H](c1ccccc1)[NH+]1CCOCC1)c1ccc(-c2c3nc(c(-c4cc(S(=O)(=O)[O-])ccc4F)c4ccc([nH]4)c(-c4cc(S(=O)(=O)[O-])ccc4F)c4nc(c(-c5cc(S(=O)(=O)[O-])ccc5F)c5ccc2[nH]5)C=C4)C=C3)cc1
REMARK SMILES IDX 5 1 4 2 3 3 2 4 1 5 30 6 31 7 92 8 32 9 91 10 33 11 34 12
REMARK SMILES IDX 35 13 85 14 36 15 90 16 84 17 86 18 37 19 89 20 83 21 82 22
REMARK SMILES IDX 38 24 70 25 50 26 69 27 51 28 54 29 68 30 87 31 52 32 53 33
REMARK SMILES IDX 67 35 88 36 55 37 39 38 40 39 48 40 41 41 47 42 49 43 46 44
REMARK SMILES IDX 42 45 43 46 44 47 45 48 71 49 72 50 80 51 73 52 79 53 81 54
REMARK SMILES IDX 78 55 74 56 75 57 76 58 77 59 56 60 57 61 65 62 58 63 64 64
REMARK SMILES IDX 66 65 63 66 59 67 60 68 61 69 62 70 6 71 7 72 8 73 9 74
REMARK SMILES IDX 10 75 14 76 11 77 13 78 12 79 15 80 16 82 17 83 24 84 25 85
REMARK SMILES IDX 29 86 26 88 28 89 27 90 18 91 19 92 23 93 20 94 22 95 21 96
REMARK H PARENT 86 23 54 34 15 81 24 87
REMARK Flexibility Score: inf
ROOT
ATOM      1  C   UNL A   1      31.438  31.479  26.849  1.00  0.00     0.275 C 
ENDROOT
BRANCH   1   2
ATOM      2  C   UNL A   1      31.890  32.925  26.628  1.00  0.00     0.275 C 
BRANCH   2   3
ATOM      3  O   UNL A   1      32.566  33.558  27.740  1.00  0.00    -0.458 OA
BRANCH   3   4
ATOM      4  C   UNL A   1      33.867  33.938  27.712  1.00  0.00     0.338 C 
ATOM      5  O   UNL A   1      34.222  34.883  27.013  1.00  0.00    -0.246 OA
BRANCH   4   6
ATOM      6  C   UNL A   1      34.870  33.177  28.519  1.00  0.00     0.060 A 
ATOM      7  C   UNL A   1      34.652  31.907  29.059  1.00  0.00     0.016 A 
ATOM      8  C   UNL A   1      36.138  33.755  28.653  1.00  0.00     0.016 A 
ATOM      9  C   UNL A   1      35.721  31.158  29.559  1.00  0.00     0.010 A 
ATOM     10  C   UNL A   1      37.211  33.009  29.132  1.00  0.00     0.010 A 
ATOM     11  C   UNL A   1      37.010  31.695  29.569  1.00  0.00    -0.014 A 
BRANCH  11  12
ATOM     12  C   UNL A   1      38.128  30.964  30.199  1.00  0.00     0.031 A 
ATOM     13  C   UNL A   1      38.526  31.370  31.586  1.00  0.00     0.074 A 
ATOM     14  C   UNL A   1      38.780  29.985  29.543  1.00  0.00     0.049 A 
ATOM     15  N   UNL A   1      39.444  30.861  32.359  1.00  0.00    -0.248 NA
ATOM     16  C   UNL A   1      37.774  32.484  32.189  1.00  0.00     0.031 C 
ATOM     17  C   UNL A   1      38.446  29.494  28.206  1.00  0.00     0.029 A 
ATOM     18  N   UNL A   1      39.883  29.248  29.894  1.00  0.00    -0.354 N 
ATOM     19  C   UNL A   1      39.336  31.548  33.560  1.00  0.00     0.074 A 
ATOM     20  C   UNL A   1      38.341  32.579  33.380  1.00  0.00     0.031 C 
ATOM     21  C   UNL A   1      39.378  28.605  27.814  1.00  0.00     0.029 A 
ATOM     22  C   UNL A   1      40.363  28.453  28.878  1.00  0.00     0.049 A 
ATOM     23  H   UNL A   1      40.292  29.286  30.788  1.00  0.00     0.167 HD
ATOM     24  C   UNL A   1      39.973  31.298  34.726  1.00  0.00     0.034 A 
ATOM     25  C   UNL A   1      41.484  27.705  28.819  1.00  0.00     0.034 A 
ATOM     26  C   UNL A   1      40.987  30.289  34.863  1.00  0.00     0.049 A 
ATOM     27  C   UNL A   1      42.306  27.576  30.079  1.00  0.00     0.074 A 
ATOM     28  C   UNL A   1      41.665  29.892  35.997  1.00  0.00     0.029 A 
ATOM     29  N   UNL A   1      41.490  29.539  33.807  1.00  0.00    -0.354 N 
ATOM     30  N   UNL A   1      42.101  28.128  31.254  1.00  0.00    -0.248 NA
ATOM     31  C   UNL A   1      43.476  26.691  30.026  1.00  0.00     0.031 C 
ATOM     32  C   UNL A   1      42.629  28.952  35.615  1.00  0.00     0.029 A 
ATOM     33  C   UNL A   1      42.511  28.720  34.251  1.00  0.00     0.049 A 
ATOM     34  H   UNL A   1      41.167  29.585  32.878  1.00  0.00     0.167 HD
ATOM     35  C   UNL A   1      43.078  27.606  32.095  1.00  0.00     0.074 A 
ATOM     36  C   UNL A   1      43.879  26.706  31.289  1.00  0.00     0.031 C 
ATOM     37  C   UNL A   1      43.285  27.830  33.419  1.00  0.00     0.034 A 
BRANCH  24  38
ATOM     38  C   UNL A   1      39.582  32.141  35.908  1.00  0.00     0.023 A 
ATOM     39  C   UNL A   1      40.227  33.364  36.172  1.00  0.00     0.031 A 
ATOM     40  C   UNL A   1      38.606  31.697  36.814  1.00  0.00     0.131 A 
ATOM     41  C   UNL A   1      39.940  34.067  37.350  1.00  0.00     0.055 A 
ATOM     42  C   UNL A   1      38.275  32.435  37.951  1.00  0.00     0.041 A 
ATOM     43  F   UNL A   1      37.981  30.525  36.622  1.00  0.00    -0.206 F 
ATOM     44  C   UNL A   1      38.952  33.621  38.232  1.00  0.00     0.022 A 
BRANCH  41  45
ATOM     45  S   UNL A   1      40.954  35.510  37.772  1.00  0.00     0.124 S 
ATOM     46  O   UNL A   1      41.308  35.225  39.161  1.00  0.00    -0.237 OA
ATOM     47  O   UNL A   1      42.045  35.425  36.807  1.00  0.00    -0.237 OA
ATOM     48  O   UNL A   1      40.043  36.636  37.585  1.00  0.00    -0.744 OA
ENDBRANCH  41  45
ENDBRANCH  24  38
BRANCH  25  49
ATOM     49  C   UNL A   1      41.917  27.052  27.549  1.00  0.00     0.023 A 
ATOM     50  C   UNL A   1      41.942  25.656  27.406  1.00  0.00     0.031 A 
ATOM     51  C   UNL A   1      42.407  27.828  26.481  1.00  0.00     0.131 A 
ATOM     52  C   UNL A   1      42.502  25.077  26.253  1.00  0.00     0.055 A 
ATOM     53  C   UNL A   1      42.926  27.249  25.319  1.00  0.00     0.041 A 
ATOM     54  F   UNL A   1      42.400  29.170  26.556  1.00  0.00    -0.206 F 
ATOM     55  C   UNL A   1      42.991  25.864  25.208  1.00  0.00     0.022 A 
BRANCH  52  56
ATOM     56  S   UNL A   1      42.684  23.272  26.185  1.00  0.00     0.124 S 
ATOM     57  O   UNL A   1      42.792  23.036  24.750  1.00  0.00    -0.237 OA
ATOM     58  O   UNL A   1      43.901  23.067  26.964  1.00  0.00    -0.237 OA
ATOM     59  O   UNL A   1      41.455  22.783  26.808  1.00  0.00    -0.744 OA
ENDBRANCH  52  56
ENDBRANCH  25  49
BRANCH  37  60
ATOM     60  C   UNL A   1      44.388  27.047  34.073  1.00  0.00     0.023 A 
ATOM     61  C   UNL A   1      44.200  25.716  34.477  1.00  0.00     0.031 A 
ATOM     62  C   UNL A   1      45.644  27.641  34.288  1.00  0.00     0.131 A 
ATOM     63  C   UNL A   1      45.241  25.034  35.121  1.00  0.00     0.055 A 
ATOM     64  C   UNL A   1      46.696  26.937  34.872  1.00  0.00     0.041 A 
ATOM     65  F   UNL A   1      45.871  28.913  33.920  1.00  0.00    -0.206 F 
ATOM     66  C   UNL A   1      46.494  25.628  35.302  1.00  0.00     0.022 A 
BRANCH  63  67
ATOM     67  S   UNL A   1      44.913  23.378  35.780  1.00  0.00     0.124 S 
ATOM     68  O   UNL A   1      45.944  22.583  35.120  1.00  0.00    -0.237 OA
ATOM     69  O   UNL A   1      45.082  23.573  37.216  1.00  0.00    -0.237 OA
ATOM     70  O   UNL A   1      43.544  23.104  35.350  1.00  0.00    -0.744 OA
ENDBRANCH  63  67
ENDBRANCH  37  60
ENDBRANCH  11  12
ENDBRANCH   4   6
ENDBRANCH   3   4
ENDBRANCH   2   3
ENDBRANCH   1   2
BRANCH   1  71
ATOM     71  O   UNL A   1      32.464  30.528  26.524  1.00  0.00    -0.458 OA
BRANCH  71  72
ATOM     72  C   UNL A   1      32.120  29.242  26.775  1.00  0.00     0.342 C 
ATOM     73  O   UNL A   1      31.415  28.861  27.705  1.00  0.00    -0.246 OA
BRANCH  72  74
ATOM     74  C   UNL A   1      32.810  28.328  25.857  1.00  0.00     0.102 A 
ATOM     75  C   UNL A   1      33.257  27.124  26.412  1.00  0.00     0.021 A 
ATOM     76  C   UNL A   1      32.933  28.548  24.477  1.00  0.00     0.140 A 
ATOM     77  C   UNL A   1      33.874  26.187  25.599  1.00  0.00     0.021 A 
ATOM     78  N   UNL A   1      33.549  27.628  23.696  1.00  0.00    -0.239 NA
ATOM     79  C   UNL A   1      34.021  26.492  24.262  1.00  0.00     0.113 A 
BRANCH  76  80
ATOM     80  N   UNL A   1      32.372  29.642  23.837  1.00  0.00    -0.363 N 
ATOM     81  H   UNL A   1      32.573  30.550  24.161  1.00  0.00     0.162 HD
BRANCH  80  82
ATOM     82  C   UNL A   1      31.488  29.465  22.688  1.00  0.00     0.184 C 
BRANCH  82  83
ATOM     83  C   UNL A   1      30.050  28.870  23.012  1.00  0.00     0.234 C 
BRANCH  83  84
ATOM     84  N   UNL A   1      28.814  29.303  22.279  1.00  0.00    -0.323 N 
ATOM     85  C   UNL A   1      28.969  30.405  21.307  1.00  0.00     0.291 C 
ATOM     86  C   UNL A   1      27.583  29.590  23.020  1.00  0.00     0.291 C 
ATOM     87  H   UNL A   1      28.694  28.404  21.814  1.00  0.00     0.348 HD
ATOM     88  C   UNL A   1      28.833  31.826  21.910  1.00  0.00     0.221 C 
ATOM     89  C   UNL A   1      27.592  30.945  23.720  1.00  0.00     0.221 C 
ATOM     90  O   UNL A   1      27.670  31.988  22.737  1.00  0.00    -0.370 OA
ENDBRANCH  83  84
BRANCH  83  91
ATOM     91  C   UNL A   1      30.124  27.375  23.372  1.00  0.00     0.011 A 
ATOM     92  C   UNL A   1      29.719  26.872  24.616  1.00  0.00     0.010 A 
ATOM     93  C   UNL A   1      30.689  26.472  22.444  1.00  0.00     0.010 A 
ATOM     94  C   UNL A   1      29.965  25.536  24.954  1.00  0.00     0.001 A 
ATOM     95  C   UNL A   1      30.942  25.144  22.786  1.00  0.00     0.001 A 
ATOM     96  C   UNL A   1      30.596  24.681  24.051  1.00  0.00     0.000 A 
ENDBRANCH  83  91
ENDBRANCH  82  83
ENDBRANCH  80  82
ENDBRANCH  76  80
ENDBRANCH  72  74
ENDBRANCH  71  72
ENDBRANCH   1  71
TORSDOF 19
ENDMDL
MODEL 2
REMARK VINA RESULT:     -11.2      2.019      3.173
REMARK SMILES O=C(OCCOC(=O)c1cccnc1NC[C@H](c1ccccc1)[NH+]1CCOCC1)c1ccc(-c2c3nc(c(-c4cc(S(=O)(=O)[O-])ccc4F)c4ccc([nH]4)c(-c4cc(S(=O)(=O)[O-])ccc4F)c4nc(c(-c5cc(S(=O)(=O)[O-])ccc5F)c5ccc2[nH]5)C=C4)C=C3)cc1
REMARK SMILES IDX 5 1 4 2 3 3 2 4 1 5 30 6 31 7 92 8 32 9 91 10 33 11 34 12
REMARK SMILES IDX 35 13 85 14 36 15 90 16 84 17 86 18 37 19 89 20 83 21 82 22
REMARK SMILES IDX 38 24 70 25 50 26 69 27 51 28 54 29 68 30 87 31 52 32 53 33
REMARK SMILES IDX 67 35 88 36 55 37 39 38 40 39 48 40 41 41 47 42 49 43 46 44
REMARK SMILES IDX 42 45 43 46 44 47 45 48 71 49 72 50 80 51 73 52 79 53 81 54
REMARK SMILES IDX 78 55 74 56 75 57 76 58 77 59 56 60 57 61 65 62 58 63 64 64
REMARK SMILES IDX 66 65 63 66 59 67 60 68 61 69 62 70 6 71 7 72 8 73 9 74
REMARK SMILES IDX 10 75 14 76 11 77 13 78 12 79 15 80 16 82 17 83 24 84 25 85
REMARK SMILES IDX 29 86 26 88 28 89 27 90 18 91 19 92 23 93 20 94 22 95 21 96
REMARK H PARENT 86 23 54 34 15 81 24 87
REMARK Flexibility Score: inf
ROOT
ATOM      1  C   UNL A   1      32.020  29.327  26.157  1.00  0.00     0.275 C 
ENDROOT
BRANCH   1   2
ATOM      2  C   UNL A   1      33.156  30.340  26.323  1.00  0.00     0.275 C 
BRANCH   2   3
ATOM      3  O   UNL A   1      33.147  31.111  27.547  1.00  0.00    -0.458 OA
BRANCH   3   4
ATOM      4  C   UNL A   1      34.169  31.909  27.942  1.00  0.00     0.338 C 
ATOM      5  O   UNL A   1      34.025  33.128  27.981  1.00  0.00    -0.246 OA
BRANCH   4   6
ATOM      6  C   UNL A   1      35.483  31.293  28.302  1.00  0.00     0.060 A 
ATOM      7  C   UNL A   1      36.724  31.906  28.108  1.00  0.00     0.016 A 
ATOM      8  C   UNL A   1      35.441  30.057  28.958  1.00  0.00     0.016 A 
ATOM      9  C   UNL A   1      37.871  31.387  28.715  1.00  0.00     0.010 A 
ATOM     10  C   UNL A   1      36.575  29.544  29.581  1.00  0.00     0.010 A 
ATOM     11  C   UNL A   1      37.796  30.221  29.479  1.00  0.00    -0.014 A 
BRANCH  11  12
ATOM     12  C   UNL A   1      39.016  29.597  30.029  1.00  0.00     0.031 A 
ATOM     13  C   UNL A   1      39.612  30.209  31.260  1.00  0.00     0.074 A 
ATOM     14  C   UNL A   1      39.583  28.531  29.433  1.00  0.00     0.049 A 
ATOM     15  N   UNL A   1      40.651  29.825  31.948  1.00  0.00    -0.248 NA
ATOM     16  C   UNL A   1      38.933  31.400  31.800  1.00  0.00     0.031 C 
ATOM     17  C   UNL A   1      39.061  27.843  28.254  1.00  0.00     0.029 A 
ATOM     18  N   UNL A   1      40.746  27.858  29.714  1.00  0.00    -0.354 N 
ATOM     19  C   UNL A   1      40.712  30.687  33.035  1.00  0.00     0.074 A 
ATOM     20  C   UNL A   1      39.674  31.677  32.860  1.00  0.00     0.031 C 
ATOM     21  C   UNL A   1      39.944  26.906  27.858  1.00  0.00     0.029 A 
ATOM     22  C   UNL A   1      41.084  26.919  28.766  1.00  0.00     0.049 A 
ATOM     23  H   UNL A   1      41.287  28.032  30.517  1.00  0.00     0.167 HD
ATOM     24  C   UNL A   1      41.526  30.617  34.111  1.00  0.00     0.034 A 
ATOM     25  C   UNL A   1      42.202  26.173  28.645  1.00  0.00     0.034 A 
ATOM     26  C   UNL A   1      42.574  29.643  34.237  1.00  0.00     0.049 A 
ATOM     27  C   UNL A   1      43.211  26.238  29.766  1.00  0.00     0.074 A 
ATOM     28  C   UNL A   1      43.430  29.424  35.298  1.00  0.00     0.029 A 
ATOM     29  N   UNL A   1      42.928  28.743  33.240  1.00  0.00    -0.354 N 
ATOM     30  N   UNL A   1      43.174  26.962  30.864  1.00  0.00    -0.248 NA
ATOM     31  C   UNL A   1      44.380  25.358  29.664  1.00  0.00     0.031 C 
ATOM     32  C   UNL A   1      44.347  28.439  34.915  1.00  0.00     0.029 A 
ATOM     33  C   UNL A   1      44.027  28.002  33.637  1.00  0.00     0.049 A 
ATOM     34  H   UNL A   1      42.465  28.647  32.376  1.00  0.00     0.167 HD
ATOM     35  C   UNL A   1      44.282  26.576  31.610  1.00  0.00     0.074 A 
ATOM     36  C   UNL A   1      44.972  25.565  30.832  1.00  0.00     0.031 C 
ATOM     37  C   UNL A   1      44.685  26.998  32.836  1.00  0.00     0.034 A 
BRANCH  24  38
ATOM     38  C   UNL A   1      41.300  31.630  35.200  1.00  0.00     0.023 A 
ATOM     39  C   UNL A   1      40.108  31.636  35.948  1.00  0.00     0.031 A 
ATOM     40  C   UNL A   1      42.248  32.634  35.452  1.00  0.00     0.131 A 
ATOM     41  C   UNL A   1      39.862  32.668  36.864  1.00  0.00     0.055 A 
ATOM     42  C   UNL A   1      42.027  33.621  36.414  1.00  0.00     0.041 A 
ATOM     43  F   UNL A   1      43.388  32.689  34.748  1.00  0.00    -0.206 F 
ATOM     44  C   UNL A   1      40.823  33.650  37.117  1.00  0.00     0.022 A 
BRANCH  41  45
ATOM     45  S   UNL A   1      38.224  32.776  37.634  1.00  0.00     0.124 S 
ATOM     46  O   UNL A   1      38.341  31.801  38.716  1.00  0.00    -0.237 OA
ATOM     47  O   UNL A   1      38.157  34.175  38.044  1.00  0.00    -0.237 OA
ATOM     48  O   UNL A   1      37.313  32.399  36.558  1.00  0.00    -0.744 OA
ENDBRANCH  41  45
ENDBRANCH  24  38
BRANCH  25  49
ATOM     49  C   UNL A   1      42.450  25.336  27.435  1.00  0.00     0.023 A 
ATOM     50  C   UNL A   1      42.037  23.997  27.365  1.00  0.00     0.031 A 
ATOM     51  C   UNL A   1      43.198  25.847  26.357  1.00  0.00     0.131 A 
ATOM     52  C   UNL A   1      42.425  23.197  26.275  1.00  0.00     0.055 A 
ATOM     53  C   UNL A   1      43.548  25.060  25.256  1.00  0.00     0.041 A 
ATOM     54  F   UNL A   1      43.613  27.125  26.363  1.00  0.00    -0.206 F 
ATOM     55  C   UNL A   1      43.175  23.720  25.219  1.00  0.00     0.022 A 
BRANCH  52  56
ATOM     56  S   UNL A   1      42.028  21.426  26.309  1.00  0.00     0.124 S 
ATOM     57  O   UNL A   1      40.608  21.431  25.979  1.00  0.00    -0.237 OA
ATOM     58  O   UNL A   1      42.924  20.901  25.283  1.00  0.00    -0.237 OA
ATOM     59  O   UNL A   1      42.350  21.031  27.679  1.00  0.00    -0.744 OA
ENDBRANCH  52  56
ENDBRANCH  25  49
BRANCH  37  60
ATOM     60  C   UNL A   1      45.896  26.325  33.420  1.00  0.00     0.023 A 
ATOM     61  C   UNL A   1      45.785  25.149  34.177  1.00  0.00     0.031 A 
ATOM     62  C   UNL A   1      47.176  26.868  33.209  1.00  0.00     0.131 A 
ATOM     63  C   UNL A   1      46.934  24.575  34.738  1.00  0.00     0.055 A 
ATOM     64  C   UNL A   1      48.321  26.258  33.717  1.00  0.00     0.041 A 
ATOM     65  F   UNL A   1      47.331  27.994  32.493  1.00  0.00    -0.206 F 
ATOM     66  C   UNL A   1      48.203  25.110  34.496  1.00  0.00     0.022 A 
BRANCH  63  67
ATOM     67  S   UNL A   1      46.739  23.156  35.847  1.00  0.00     0.124 S 
ATOM     68  O   UNL A   1      48.073  22.565  35.817  1.00  0.00    -0.237 OA
ATOM     69  O   UNL A   1      46.352  23.790  37.104  1.00  0.00    -0.237 OA
ATOM     70  O   UNL A   1      45.691  22.363  35.207  1.00  0.00    -0.744 OA
ENDBRANCH  63  67
ENDBRANCH  37  60
ENDBRANCH  11  12
ENDBRANCH   4   6
ENDBRANCH   3   4
ENDBRANCH   2   3
ENDBRANCH   1   2
BRANCH   1  71
ATOM     71  O   UNL A   1      32.502  27.988  25.962  1.00  0.00    -0.458 OA
BRANCH  71  72
ATOM     72  C   UNL A   1      31.754  27.041  26.576  1.00  0.00     0.342 C 
ATOM     73  O   UNL A   1      31.017  27.228  27.539  1.00  0.00    -0.246 OA
BRANCH  72  74
ATOM     74  C   UNL A   1      32.035  25.712  26.019  1.00  0.00     0.102 A 
ATOM     75  C   UNL A   1      33.207  25.095  26.467  1.00  0.00     0.021 A 
ATOM     76  C   UNL A   1      31.156  25.011  25.179  1.00  0.00     0.140 A 
ATOM     77  C   UNL A   1      33.518  23.819  26.026  1.00  0.00     0.021 A 
ATOM     78  N   UNL A   1      31.478  23.769  24.746  1.00  0.00    -0.239 NA
ATOM     79  C   UNL A   1      32.643  23.210  25.150  1.00  0.00     0.113 A 
BRANCH  76  80
ATOM     80  N   UNL A   1      29.907  25.497  24.826  1.00  0.00    -0.363 N 
ATOM     81  H   UNL A   1      29.184  25.514  25.494  1.00  0.00     0.162 HD
BRANCH  80  82
ATOM     82  C   UNL A   1      29.650  25.984  23.473  1.00  0.00     0.184 C 
BRANCH  82  83
ATOM     83  C   UNL A   1      30.421  27.312  23.062  1.00  0.00     0.234 C 
BRANCH  83  84
ATOM     84  N   UNL A   1      31.493  27.331  22.012  1.00  0.00    -0.323 N 
ATOM     85  C   UNL A   1      31.651  26.105  21.201  1.00  0.00     0.291 C 
ATOM     86  C   UNL A   1      32.849  27.764  22.355  1.00  0.00     0.291 C 
ATOM     87  H   UNL A   1      31.053  28.080  21.480  1.00  0.00     0.348 HD
ATOM     88  C   UNL A   1      32.590  25.037  21.817  1.00  0.00     0.221 C 
ATOM     89  C   UNL A   1      33.658  26.709  23.103  1.00  0.00     0.221 C 
ATOM     90  O   UNL A   1      33.851  25.568  22.256  1.00  0.00    -0.370 OA
ENDBRANCH  83  84
BRANCH  83  91
ATOM     91  C   UNL A   1      29.488  28.537  23.087  1.00  0.00     0.011 A 
ATOM     92  C   UNL A   1      29.949  29.837  23.334  1.00  0.00     0.010 A 
ATOM     93  C   UNL A   1      28.098  28.346  22.926  1.00  0.00     0.010 A 
ATOM     94  C   UNL A   1      29.041  30.888  23.514  1.00  0.00     0.001 A 
ATOM     95  C   UNL A   1      27.195  29.392  23.115  1.00  0.00     0.001 A 
ATOM     96  C   UNL A   1      27.668  30.661  23.429  1.00  0.00     0.000 A 
ENDBRANCH  83  91
ENDBRANCH  82  83
ENDBRANCH  80  82
ENDBRANCH  76  80
ENDBRANCH  72  74
ENDBRANCH  71  72
ENDBRANCH   1  71
TORSDOF 19
ENDMDL
MODEL 3
REMARK VINA RESULT:     -11.2      5.076     10.436
REMARK SMILES O=C(OCCOC(=O)c1cccnc1NC[C@H](c1ccccc1)[NH+]1CCOCC1)c1ccc(-c2c3nc(c(-c4cc(S(=O)(=O)[O-])ccc4F)c4ccc([nH]4)c(-c4cc(S(=O)(=O)[O-])ccc4F)c4nc(c(-c5cc(S(=O)(=O)[O-])ccc5F)c5ccc2[nH]5)C=C4)C=C3)cc1
REMARK SMILES IDX 5 1 4 2 3 3 2 4 1 5 30 6 31 7 92 8 32 9 91 10 33 11 34 12
REMARK SMILES IDX 35 13 85 14 36 15 90 16 84 17 86 18 37 19 89 20 83 21 82 22
REMARK SMILES IDX 38 24 70 25 50 26 69 27 51 28 54 29 68 30 87 31 52 32 53 33
REMARK SMILES IDX 67 35 88 36 55 37 39 38 40 39 48 40 41 41 47 42 49 43 46 44
REMARK SMILES IDX 42 45 43 46 44 47 45 48 71 49 72 50 80 51 73 52 79 53 81 54
REMARK SMILES IDX 78 55 74 56 75 57 76 58 77 59 56 60 57 61 65 62 58 63 64 64
REMARK SMILES IDX 66 65 63 66 59 67 60 68 61 69 62 70 6 71 7 72 8 73 9 74
REMARK SMILES IDX 10 75 14 76 11 77 13 78 12 79 15 80 16 82 17 83 24 84 25 85
REMARK SMILES IDX 29 86 26 88 28 89 27 90 18 91 19 92 23 93 20 94 22 95 21 96
REMARK H PARENT 86 23 54 34 15 81 24 87
REMARK Flexibility Score: inf
ROOT
ATOM      1  C   UNL A   1      36.168  22.388  25.316  1.00  0.00     0.275 C 
ENDROOT
BRANCH   1   2
ATOM      2  C   UNL A   1      37.546  21.801  24.995  1.00  0.00     0.275 C 
BRANCH   2   3
ATOM      3  O   UNL A   1      38.268  21.226  26.110  1.00  0.00    -0.458 OA
BRANCH   3   4
ATOM      4  C   UNL A   1      39.581  21.455  26.354  1.00  0.00     0.338 C 
ATOM      5  O   UNL A   1      40.417  20.588  26.114  1.00  0.00    -0.246 OA
BRANCH   4   6
ATOM      6  C   UNL A   1      40.000  22.762  26.947  1.00  0.00     0.060 A 
ATOM      7  C   UNL A   1      40.864  22.896  28.038  1.00  0.00     0.016 A 
ATOM      8  C   UNL A   1      39.557  23.919  26.296  1.00  0.00     0.016 A 
ATOM      9  C   UNL A   1      41.416  24.141  28.353  1.00  0.00     0.010 A 
ATOM     10  C   UNL A   1      40.117  25.159  26.592  1.00  0.00     0.010 A 
ATOM     11  C   UNL A   1      41.068  25.272  27.612  1.00  0.00    -0.014 A 
BRANCH  11  12
ATOM     12  C   UNL A   1      41.551  26.611  28.005  1.00  0.00     0.031 A 
ATOM     13  C   UNL A   1      42.992  26.930  27.748  1.00  0.00     0.074 A 
ATOM     14  C   UNL A   1      40.730  27.503  28.592  1.00  0.00     0.049 A 
ATOM     15  N   UNL A   1      43.640  28.040  27.968  1.00  0.00    -0.248 NA
ATOM     16  C   UNL A   1      43.807  25.862  27.143  1.00  0.00     0.031 C 
ATOM     17  C   UNL A   1      39.306  27.301  28.852  1.00  0.00     0.029 A 
ATOM     18  N   UNL A   1      40.982  28.749  29.110  1.00  0.00    -0.354 N 
ATOM     19  C   UNL A   1      44.918  27.826  27.470  1.00  0.00     0.074 A 
ATOM     20  C   UNL A   1      44.987  26.450  27.036  1.00  0.00     0.031 C 
ATOM     21  C   UNL A   1      38.832  28.342  29.561  1.00  0.00     0.029 A 
ATOM     22  C   UNL A   1      39.914  29.291  29.790  1.00  0.00     0.049 A 
ATOM     23  H   UNL A   1      41.846  29.210  29.007  1.00  0.00     0.167 HD
ATOM     24  C   UNL A   1      45.923  28.720  27.335  1.00  0.00     0.034 A 
ATOM     25  C   UNL A   1      39.839  30.418  30.526  1.00  0.00     0.034 A 
ATOM     26  C   UNL A   1      45.835  30.072  27.812  1.00  0.00     0.049 A 
ATOM     27  C   UNL A   1      41.038  31.335  30.530  1.00  0.00     0.074 A 
ATOM     28  C   UNL A   1      46.753  31.096  27.685  1.00  0.00     0.029 A 
ATOM     29  N   UNL A   1      44.767  30.576  28.542  1.00  0.00    -0.354 N 
ATOM     30  N   UNL A   1      42.196  31.175  29.926  1.00  0.00    -0.248 NA
ATOM     31  C   UNL A   1      40.912  32.599  31.264  1.00  0.00     0.031 C 
ATOM     32  C   UNL A   1      46.270  32.197  28.401  1.00  0.00     0.029 A 
ATOM     33  C   UNL A   1      45.024  31.879  28.925  1.00  0.00     0.049 A 
ATOM     34  H   UNL A   1      43.945  30.077  28.758  1.00  0.00     0.167 HD
ATOM     35  C   UNL A   1      42.910  32.346  30.157  1.00  0.00     0.074 A 
ATOM     36  C   UNL A   1      42.057  33.196  30.964  1.00  0.00     0.031 C 
ATOM     37  C   UNL A   1      44.147  32.700  29.725  1.00  0.00     0.034 A 
BRANCH  24  38
ATOM     38  C   UNL A   1      47.175  28.236  26.658  1.00  0.00     0.023 A 
ATOM     39  C   UNL A   1      47.289  28.238  25.255  1.00  0.00     0.031 A 
ATOM     40  C   UNL A   1      48.237  27.709  27.410  1.00  0.00     0.131 A 
ATOM     41  C   UNL A   1      48.410  27.660  24.644  1.00  0.00     0.055 A 
ATOM     42  C   UNL A   1      49.381  27.195  26.797  1.00  0.00     0.041 A 
ATOM     43  F   UNL A   1      48.166  27.659  28.749  1.00  0.00    -0.206 F 
ATOM     44  C   UNL A   1      49.467  27.156  25.407  1.00  0.00     0.022 A 
BRANCH  41  45
ATOM     45  S   UNL A   1      48.416  27.468  22.841  1.00  0.00     0.124 S 
ATOM     46  O   UNL A   1      48.357  26.015  22.698  1.00  0.00    -0.237 OA
ATOM     47  O   UNL A   1      47.217  28.196  22.440  1.00  0.00    -0.237 OA
ATOM     48  O   UNL A   1      49.679  28.078  22.435  1.00  0.00    -0.744 OA
ENDBRANCH  41  45
ENDBRANCH  24  38
BRANCH  25  49
ATOM     49  C   UNL A   1      38.625  30.738  31.334  1.00  0.00     0.023 A 
ATOM     50  C   UNL A   1      37.505  31.366  30.769  1.00  0.00     0.031 A 
ATOM     51  C   UNL A   1      38.611  30.501  32.722  1.00  0.00     0.131 A 
ATOM     52  C   UNL A   1      36.446  31.791  31.592  1.00  0.00     0.055 A 
ATOM     53  C   UNL A   1      37.539  30.889  33.531  1.00  0.00     0.041 A 
ATOM     54  F   UNL A   1      39.652  29.895  33.319  1.00  0.00    -0.206 F 
ATOM     55  C   UNL A   1      36.456  31.555  32.969  1.00  0.00     0.022 A 
BRANCH  52  56
ATOM     56  S   UNL A   1      35.102  32.761  30.852  1.00  0.00     0.124 S 
ATOM     57  O   UNL A   1      35.712  34.081  30.739  1.00  0.00    -0.237 OA
ATOM     58  O   UNL A   1      34.878  32.048  29.598  1.00  0.00    -0.237 OA
ATOM     59  O   UNL A   1      34.024  32.652  31.833  1.00  0.00    -0.744 OA
ENDBRANCH  52  56
ENDBRANCH  25  49
BRANCH  37  60
ATOM     60  C   UNL A   1      44.618  34.083  30.079  1.00  0.00     0.023 A 
ATOM     61  C   UNL A   1      44.408  35.170  29.216  1.00  0.00     0.031 A 
ATOM     62  C   UNL A   1      45.278  34.314  31.298  1.00  0.00     0.131 A 
ATOM     63  C   UNL A   1      44.898  36.436  29.564  1.00  0.00     0.055 A 
ATOM     64  C   UNL A   1      45.708  35.587  31.668  1.00  0.00     0.041 A 
ATOM     65  F   UNL A   1      45.504  33.304  32.155  1.00  0.00    -0.206 F 
ATOM     66  C   UNL A   1      45.528  36.656  30.793  1.00  0.00     0.022 A 
BRANCH  63  67
ATOM     67  S   UNL A   1      44.760  37.779  28.356  1.00  0.00     0.124 S 
ATOM     68  O   UNL A   1      44.171  37.093  27.210  1.00  0.00    -0.237 OA
ATOM     69  O   UNL A   1      43.892  38.731  29.042  1.00  0.00    -0.237 OA
ATOM     70  O   UNL A   1      46.142  38.220  28.176  1.00  0.00    -0.744 OA
ENDBRANCH  63  67
ENDBRANCH  37  60
ENDBRANCH  11  12
ENDBRANCH   4   6
ENDBRANCH   3   4
ENDBRANCH   2   3
ENDBRANCH   1   2
BRANCH   1  71
ATOM     71  O   UNL A   1      35.963  23.671  24.703  1.00  0.00    -0.458 OA
BRANCH  71  72
ATOM     72  C   UNL A   1      35.259  23.620  23.547  1.00  0.00     0.342 C 
ATOM     73  O   UNL A   1      35.583  22.995  22.542  1.00  0.00    -0.246 OA
BRANCH  72  74
ATOM     74  C   UNL A   1      34.103  24.524  23.601  1.00  0.00     0.102 A 
ATOM     75  C   UNL A   1      34.360  25.821  24.054  1.00  0.00     0.021 A 
ATOM     76  C   UNL A   1      32.825  24.192  23.124  1.00  0.00     0.140 A 
ATOM     77  C   UNL A   1      33.332  26.749  24.087  1.00  0.00     0.021 A 
ATOM     78  N   UNL A   1      31.826  25.105  23.174  1.00  0.00    -0.239 NA
ATOM     79  C   UNL A   1      32.083  26.340  23.665  1.00  0.00     0.113 A 
BRANCH  76  80
ATOM     80  N   UNL A   1      32.541  22.980  22.515  1.00  0.00    -0.363 N 
ATOM     81  H   UNL A   1      32.895  22.792  21.616  1.00  0.00     0.162 HD
BRANCH  80  82
ATOM     82  C   UNL A   1      31.724  21.977  23.192  1.00  0.00     0.184 C 
BRANCH  82  83
ATOM     83  C   UNL A   1      32.382  21.301  24.472  1.00  0.00     0.234 C 
BRANCH  83  84
ATOM     84  N   UNL A   1      31.869  21.536  25.862  1.00  0.00    -0.323 N 
ATOM     85  C   UNL A   1      30.580  22.248  25.985  1.00  0.00     0.291 C 
ATOM     86  C   UNL A   1      32.747  22.115  26.881  1.00  0.00     0.291 C 
ATOM     87  H   UNL A   1      31.771  20.542  26.066  1.00  0.00     0.348 HD
ATOM     88  C   UNL A   1      30.692  23.793  26.010  1.00  0.00     0.221 C 
ATOM     89  C   UNL A   1      32.935  23.623  26.742  1.00  0.00     0.221 C 
ATOM     90  O   UNL A   1      31.675  24.280  26.939  1.00  0.00    -0.370 OA
ENDBRANCH  83  84
BRANCH  83  91
ATOM     91  C   UNL A   1      32.866  19.871  24.170  1.00  0.00     0.011 A 
ATOM     92  C   UNL A   1      34.011  19.316  24.756  1.00  0.00     0.010 A 
ATOM     93  C   UNL A   1      32.174  19.101  23.208  1.00  0.00     0.010 A 
ATOM     94  C   UNL A   1      34.501  18.079  24.321  1.00  0.00     0.001 A 
ATOM     95  C   UNL A   1      32.670  17.873  22.769  1.00  0.00     0.001 A 
ATOM     96  C   UNL A   1      33.846  17.372  23.314  1.00  0.00     0.000 A 
ENDBRANCH  83  91
ENDBRANCH  82  83
ENDBRANCH  80  82
ENDBRANCH  76  80
ENDBRANCH  72  74
ENDBRANCH  71  72
ENDBRANCH   1  71
TORSDOF 19
ENDMDL
