MODEL 1
REMARK VINA RESULT:     -12.0      0.000      0.000
REMARK SMILES C[C@]1(C(=O)N2CCC(CC(=O)OCCOC(=O)c3ccc(-c4c5nc(c(-c6cc(S(=O)(=O)[O-])ccc6F)c6ccc([nH]6)c(-c6cc(S(=O)(=O)[O-])ccc6F)c6nc(c(-c7cc(S(=O)(=O)[O-])ccc7F)c7ccc4[nH]7)C=C6)C=C5)cc3)CC2)CCC[NH2+]C1
REMARK SMILES IDX 14 1 13 2 12 3 10 4 11 5 9 6 8 7 3 8 4 9 5 10 6 11 82 12
REMARK SMILES IDX 7 13 81 14 2 15 1 16 83 17 87 18 84 19 86 20 85 21 15 24
REMARK SMILES IDX 16 25 17 26 18 27 19 28 80 29 20 30 79 31 21 32 22 33 23 34
REMARK SMILES IDX 73 35 24 36 78 37 72 38 74 39 25 40 77 41 71 42 70 43 26 45
REMARK SMILES IDX 58 46 38 47 57 48 39 49 42 50 56 51 75 52 40 53 41 54 55 56
REMARK SMILES IDX 76 57 43 58 27 59 28 60 36 61 29 62 35 63 37 64 34 65 30 66
REMARK SMILES IDX 31 67 32 68 33 69 59 70 60 71 68 72 61 73 67 74 69 75 66 76
REMARK SMILES IDX 62 77 63 78 64 79 65 80 44 81 45 82 53 83 46 84 52 85 54 86
REMARK SMILES IDX 51 87 47 88 48 89 49 90 50 91
REMARK H PARENT 86 22 86 23 74 44 42 55
REMARK Flexibility Score: inf
ROOT
ATOM      1  C   UNL A   1      36.375  20.718  25.082  1.00  0.00     0.275 C 
ENDROOT
BRANCH   1   2
ATOM      2  C   UNL A   1      35.059  21.452  25.337  1.00  0.00     0.274 C 
BRANCH   2   3
ATOM      3  O   UNL A   1      33.997  20.501  25.531  1.00  0.00    -0.462 OA
BRANCH   3   4
ATOM      4  C   UNL A   1      32.747  20.912  25.206  1.00  0.00     0.306 C 
ATOM      5  O   UNL A   1      31.780  20.174  25.074  1.00  0.00    -0.252 OA
BRANCH   4   6
ATOM      6  C   UNL A   1      32.682  22.405  24.962  1.00  0.00     0.126 C 
BRANCH   6   7
ATOM      7  C   UNL A   1      31.262  23.026  24.941  1.00  0.00     0.003 C 
ATOM      8  C   UNL A   1      30.772  27.128  24.693  1.00  0.00     0.234 C 
ATOM      9  O   UNL A   1      30.079  27.810  23.931  1.00  0.00    -0.274 OA
ATOM     10  N   UNL A   1      30.511  25.781  24.837  1.00  0.00    -0.342 N 
ATOM     11  C   UNL A   1      30.145  24.997  23.672  1.00  0.00     0.120 C 
ATOM     12  C   UNL A   1      30.219  25.121  26.086  1.00  0.00     0.120 C 
ATOM     13  C   UNL A   1      31.064  23.782  23.602  1.00  0.00     0.026 C 
ATOM     14  C   UNL A   1      31.024  23.845  26.231  1.00  0.00     0.026 C 
BRANCH   8  15
ATOM     15  C   UNL A   1      31.939  27.766  25.500  1.00  0.00     0.095 C 
ATOM     16  C   UNL A   1      31.515  27.880  26.975  1.00  0.00     0.028 C 
ATOM     17  C   UNL A   1      33.301  27.045  25.415  1.00  0.00     0.028 C 
ATOM     18  C   UNL A   1      32.162  29.198  24.932  1.00  0.00     0.277 C 
ATOM     19  C   UNL A   1      33.897  27.082  24.010  1.00  0.00     0.063 C 
ATOM     20  N   UNL A   1      32.713  29.196  23.570  1.00  0.00    -0.345 N 
ATOM     21  C   UNL A   1      33.992  28.507  23.478  1.00  0.00     0.260 C 
ATOM     22  H   UNL A   1      32.047  28.733  22.950  1.00  0.00     0.346 HD
ATOM     23  H   UNL A   1      32.868  30.168  23.301  1.00  0.00     0.346 HD
ENDBRANCH   8  15
ENDBRANCH   6   7
ENDBRANCH   4   6
ENDBRANCH   3   4
ENDBRANCH   2   3
ENDBRANCH   1   2
BRANCH   1  24
ATOM     24  O   UNL A   1      37.472  21.648  25.095  1.00  0.00    -0.458 OA
BRANCH  24  25
ATOM     25  C   UNL A   1      38.586  21.246  25.751  1.00  0.00     0.338 C 
ATOM     26  O   UNL A   1      39.009  20.111  25.870  1.00  0.00    -0.246 OA
BRANCH  25  27
ATOM     27  C   UNL A   1      39.281  22.437  26.261  1.00  0.00     0.060 A 
ATOM     28  C   UNL A   1      38.772  23.706  25.970  1.00  0.00     0.016 A 
ATOM     29  C   UNL A   1      40.465  22.298  26.982  1.00  0.00     0.016 A 
ATOM     30  C   UNL A   1      39.442  24.847  26.404  1.00  0.00     0.010 A 
ATOM     31  C   UNL A   1      41.127  23.443  27.435  1.00  0.00     0.010 A 
ATOM     32  C   UNL A   1      40.624  24.724  27.145  1.00  0.00    -0.014 A 
BRANCH  32  33
ATOM     33  C   UNL A   1      41.365  25.932  27.583  1.00  0.00     0.031 A 
ATOM     34  C   UNL A   1      40.659  26.974  28.402  1.00  0.00     0.074 A 
ATOM     35  C   UNL A   1      42.657  26.094  27.241  1.00  0.00     0.049 A 
ATOM     36  N   UNL A   1      41.061  28.170  28.747  1.00  0.00    -0.248 NA
ATOM     37  C   UNL A   1      39.319  26.620  28.893  1.00  0.00     0.031 C 
ATOM     38  C   UNL A   1      43.465  25.118  26.508  1.00  0.00     0.029 A 
ATOM     39  N   UNL A   1      43.515  27.143  27.456  1.00  0.00    -0.354 N 
ATOM     40  C   UNL A   1      40.020  28.720  29.486  1.00  0.00     0.074 A 
ATOM     41  C   UNL A   1      38.958  27.735  29.512  1.00  0.00     0.031 C 
ATOM     42  C   UNL A   1      44.700  25.619  26.329  1.00  0.00     0.029 A 
ATOM     43  C   UNL A   1      44.750  26.972  26.875  1.00  0.00     0.049 A 
ATOM     44  H   UNL A   1      43.269  27.943  27.975  1.00  0.00     0.167 HD
ATOM     45  C   UNL A   1      39.961  29.932  30.091  1.00  0.00     0.034 A 
ATOM     46  C   UNL A   1      45.786  27.827  26.758  1.00  0.00     0.034 A 
ATOM     47  C   UNL A   1      41.028  30.903  30.047  1.00  0.00     0.049 A 
ATOM     48  C   UNL A   1      45.652  29.214  27.337  1.00  0.00     0.074 A 
ATOM     49  C   UNL A   1      41.068  32.170  30.604  1.00  0.00     0.029 A 
ATOM     50  N   UNL A   1      42.245  30.715  29.405  1.00  0.00    -0.354 N 
ATOM     51  N   UNL A   1      44.645  29.743  27.994  1.00  0.00    -0.248 NA
ATOM     52  C   UNL A   1      46.792  30.122  27.153  1.00  0.00     0.031 C 
ATOM     53  C   UNL A   1      42.283  32.767  30.250  1.00  0.00     0.029 A 
ATOM     54  C   UNL A   1      43.032  31.849  29.530  1.00  0.00     0.049 A 
ATOM     55  H   UNL A   1      42.510  29.895  28.929  1.00  0.00     0.167 HD
ATOM     56  C   UNL A   1      45.044  31.034  28.325  1.00  0.00     0.074 A 
ATOM     57  C   UNL A   1      46.386  31.201  27.807  1.00  0.00     0.031 C 
ATOM     58  C   UNL A   1      44.366  31.997  29.001  1.00  0.00     0.034 A 
BRANCH  45  59
ATOM     59  C   UNL A   1      38.679  30.287  30.802  1.00  0.00     0.023 A 
ATOM     60  C   UNL A   1      37.639  30.972  30.152  1.00  0.00     0.031 A 
ATOM     61  C   UNL A   1      38.505  29.959  32.159  1.00  0.00     0.131 A 
ATOM     62  C   UNL A   1      36.503  31.367  30.873  1.00  0.00     0.055 A 
ATOM     63  C   UNL A   1      37.340  30.289  32.853  1.00  0.00     0.041 A 
ATOM     64  F   UNL A   1      39.474  29.324  32.838  1.00  0.00    -0.206 F 
ATOM     65  C   UNL A   1      36.335  31.010  32.213  1.00  0.00     0.022 A 
BRANCH  62  66
ATOM     66  S   UNL A   1      35.305  32.469  30.073  1.00  0.00     0.124 S 
ATOM     67  O   UNL A   1      34.370  32.730  31.164  1.00  0.00    -0.237 OA
ATOM     68  O   UNL A   1      36.138  33.594  29.661  1.00  0.00    -0.237 OA
ATOM     69  O   UNL A   1      34.769  31.658  28.982  1.00  0.00    -0.744 OA
ENDBRANCH  62  66
ENDBRANCH  45  59
BRANCH  46  70
ATOM     70  C   UNL A   1      47.017  27.434  26.013  1.00  0.00     0.023 A 
ATOM     71  C   UNL A   1      47.188  27.784  24.665  1.00  0.00     0.031 A 
ATOM     72  C   UNL A   1      48.009  26.642  26.619  1.00  0.00     0.131 A 
ATOM     73  C   UNL A   1      48.297  27.302  23.952  1.00  0.00     0.055 A 
ATOM     74  C   UNL A   1      49.140  26.214  25.921  1.00  0.00     0.041 A 
ATOM     75  F   UNL A   1      47.894  26.273  27.904  1.00  0.00    -0.206 F 
ATOM     76  C   UNL A   1      49.281  26.531  24.574  1.00  0.00     0.022 A 
BRANCH  73  77
ATOM     77  S   UNL A   1      48.382  27.612  22.167  1.00  0.00     0.124 S 
ATOM     78  O   UNL A   1      48.590  26.267  21.641  1.00  0.00    -0.237 OA
ATOM     79  O   UNL A   1      47.079  28.211  21.901  1.00  0.00    -0.237 OA
ATOM     80  O   UNL A   1      49.521  28.517  22.032  1.00  0.00    -0.744 OA
ENDBRANCH  73  77
ENDBRANCH  46  70
BRANCH  58  81
ATOM     81  C   UNL A   1      45.095  33.291  29.257  1.00  0.00     0.023 A 
ATOM     82  C   UNL A   1      44.994  34.384  28.380  1.00  0.00     0.031 A 
ATOM     83  C   UNL A   1      45.914  33.424  30.393  1.00  0.00     0.131 A 
ATOM     84  C   UNL A   1      45.739  35.548  28.627  1.00  0.00     0.055 A 
ATOM     85  C   UNL A   1      46.612  34.602  30.661  1.00  0.00     0.041 A 
ATOM     86  F   UNL A   1      46.047  32.409  31.262  1.00  0.00    -0.206 F 
ATOM     87  C   UNL A   1      46.534  35.669  29.769  1.00  0.00     0.022 A 
BRANCH  84  88
ATOM     88  S   UNL A   1      45.711  36.880  27.396  1.00  0.00     0.124 S 
ATOM     89  O   UNL A   1      46.575  36.345  26.349  1.00  0.00    -0.237 OA
ATOM     90  O   UNL A   1      44.291  36.970  27.065  1.00  0.00    -0.237 OA
ATOM     91  O   UNL A   1      46.250  38.029  28.120  1.00  0.00    -0.744 OA
ENDBRANCH  84  88
ENDBRANCH  58  81
ENDBRANCH  32  33
ENDBRANCH  25  27
ENDBRANCH  24  25
ENDBRANCH   1  24
TORSDOF 16
ENDMDL
MODEL 2
REMARK VINA RESULT:     -12.0      5.020     10.000
REMARK SMILES C[C@]1(C(=O)N2CCC(CC(=O)OCCOC(=O)c3ccc(-c4c5nc(c(-c6cc(S(=O)(=O)[O-])ccc6F)c6ccc([nH]6)c(-c6cc(S(=O)(=O)[O-])ccc6F)c6nc(c(-c7cc(S(=O)(=O)[O-])ccc7F)c7ccc4[nH]7)C=C6)C=C5)cc3)CC2)CCC[NH2+]C1
REMARK SMILES IDX 14 1 13 2 12 3 10 4 11 5 9 6 8 7 3 8 4 9 5 10 6 11 82 12
REMARK SMILES IDX 7 13 81 14 2 15 1 16 83 17 87 18 84 19 86 20 85 21 15 24
REMARK SMILES IDX 16 25 17 26 18 27 19 28 80 29 20 30 79 31 21 32 22 33 23 34
REMARK SMILES IDX 73 35 24 36 78 37 72 38 74 39 25 40 77 41 71 42 70 43 26 45
REMARK SMILES IDX 58 46 38 47 57 48 39 49 42 50 56 51 75 52 40 53 41 54 55 56
REMARK SMILES IDX 76 57 43 58 27 59 28 60 36 61 29 62 35 63 37 64 34 65 30 66
REMARK SMILES IDX 31 67 32 68 33 69 59 70 60 71 68 72 61 73 67 74 69 75 66 76
REMARK SMILES IDX 62 77 63 78 64 79 65 80 44 81 45 82 53 83 46 84 52 85 54 86
REMARK SMILES IDX 51 87 47 88 48 89 49 90 50 91
REMARK H PARENT 86 22 86 23 74 44 42 55
REMARK Flexibility Score: inf
ROOT
ATOM      1  C   UNL A   1      31.732  29.697  25.235  1.00  0.00     0.275 C 
ENDROOT
BRANCH   1   2
ATOM      2  C   UNL A   1      31.683  28.193  24.972  1.00  0.00     0.274 C 
BRANCH   2   3
ATOM      3  O   UNL A   1      30.696  27.903  23.967  1.00  0.00    -0.462 OA
BRANCH   3   4
ATOM      4  C   UNL A   1      30.245  26.626  23.909  1.00  0.00     0.306 C 
ATOM      5  O   UNL A   1      29.086  26.303  23.688  1.00  0.00    -0.252 OA
BRANCH   4   6
ATOM      6  C   UNL A   1      31.337  25.621  24.209  1.00  0.00     0.126 C 
BRANCH   6   7
ATOM      7  C   UNL A   1      30.970  24.507  25.222  1.00  0.00     0.003 C 
ATOM      8  C   UNL A   1      33.821  21.771  26.453  1.00  0.00     0.234 C 
ATOM      9  O   UNL A   1      34.157  21.415  27.587  1.00  0.00    -0.274 OA
ATOM     10  N   UNL A   1      32.617  22.418  26.265  1.00  0.00    -0.342 N 
ATOM     11  C   UNL A   1      32.174  23.398  27.238  1.00  0.00     0.120 C 
ATOM     12  C   UNL A   1      31.567  21.976  25.379  1.00  0.00     0.120 C 
ATOM     13  C   UNL A   1      31.830  24.687  26.501  1.00  0.00     0.026 C 
ATOM     14  C   UNL A   1      31.044  23.123  24.537  1.00  0.00     0.026 C 
BRANCH   8  15
ATOM     15  C   UNL A   1      34.737  21.500  25.225  1.00  0.00     0.095 C 
ATOM     16  C   UNL A   1      34.363  20.135  24.622  1.00  0.00     0.028 C 
ATOM     17  C   UNL A   1      34.723  22.570  24.113  1.00  0.00     0.028 C 
ATOM     18  C   UNL A   1      36.201  21.429  25.750  1.00  0.00     0.277 C 
ATOM     19  C   UNL A   1      35.291  23.908  24.579  1.00  0.00     0.063 C 
ATOM     20  N   UNL A   1      36.708  22.727  26.213  1.00  0.00    -0.345 N 
ATOM     21  C   UNL A   1      36.685  23.748  25.174  1.00  0.00     0.260 C 
ATOM     22  H   UNL A   1      36.129  23.043  26.993  1.00  0.00     0.346 HD
ATOM     23  H   UNL A   1      37.680  22.595  26.492  1.00  0.00     0.346 HD
ENDBRANCH   8  15
ENDBRANCH   6   7
ENDBRANCH   4   6
ENDBRANCH   3   4
ENDBRANCH   2   3
ENDBRANCH   1   2
BRANCH   1  24
ATOM     24  O   UNL A   1      33.042  30.079  25.691  1.00  0.00    -0.458 OA
BRANCH  24  25
ATOM     25  C   UNL A   1      33.084  31.023  26.661  1.00  0.00     0.338 C 
ATOM     26  O   UNL A   1      32.263  31.893  26.886  1.00  0.00    -0.246 OA
BRANCH  25  27
ATOM     27  C   UNL A   1      34.281  30.792  27.483  1.00  0.00     0.060 A 
ATOM     28  C   UNL A   1      35.190  31.834  27.680  1.00  0.00     0.016 A 
ATOM     29  C   UNL A   1      34.526  29.527  28.015  1.00  0.00     0.016 A 
ATOM     30  C   UNL A   1      36.353  31.620  28.417  1.00  0.00     0.010 A 
ATOM     31  C   UNL A   1      35.684  29.318  28.770  1.00  0.00     0.010 A 
ATOM     32  C   UNL A   1      36.607  30.360  28.972  1.00  0.00    -0.014 A 
BRANCH  32  33
ATOM     33  C   UNL A   1      37.858  30.111  29.729  1.00  0.00     0.031 A 
ATOM     34  C   UNL A   1      38.883  29.168  29.170  1.00  0.00     0.074 A 
ATOM     35  C   UNL A   1      38.067  30.721  30.911  1.00  0.00     0.049 A 
ATOM     36  N   UNL A   1      39.959  28.682  29.734  1.00  0.00    -0.248 NA
ATOM     37  C   UNL A   1      38.662  28.708  27.791  1.00  0.00     0.031 C 
ATOM     38  C   UNL A   1      37.174  31.709  31.521  1.00  0.00     0.029 A 
ATOM     39  N   UNL A   1      39.089  30.592  31.817  1.00  0.00    -0.354 N 
ATOM     40  C   UNL A   1      40.539  27.848  28.785  1.00  0.00     0.074 A 
ATOM     41  C   UNL A   1      39.678  27.873  27.621  1.00  0.00     0.031 C 
ATOM     42  C   UNL A   1      37.687  32.091  32.703  1.00  0.00     0.029 A 
ATOM     43  C   UNL A   1      38.905  31.329  32.963  1.00  0.00     0.049 A 
ATOM     44  H   UNL A   1      39.879  30.024  31.661  1.00  0.00     0.167 HD
ATOM     45  C   UNL A   1      41.689  27.134  28.878  1.00  0.00     0.034 A 
ATOM     46  C   UNL A   1      39.615  31.353  34.110  1.00  0.00     0.034 A 
ATOM     47  C   UNL A   1      42.529  27.117  30.050  1.00  0.00     0.049 A 
ATOM     48  C   UNL A   1      40.824  30.459  34.234  1.00  0.00     0.074 A 
ATOM     49  C   UNL A   1      43.702  26.413  30.263  1.00  0.00     0.029 A 
ATOM     50  N   UNL A   1      42.284  27.837  31.213  1.00  0.00    -0.354 N 
ATOM     51  N   UNL A   1      41.340  29.637  33.348  1.00  0.00    -0.248 NA
ATOM     52  C   UNL A   1      41.543  30.490  35.514  1.00  0.00     0.031 C 
ATOM     53  C   UNL A   1      44.133  26.662  31.572  1.00  0.00     0.029 A 
ATOM     54  C   UNL A   1      43.268  27.575  32.153  1.00  0.00     0.049 A 
ATOM     55  H   UNL A   1      41.522  28.444  31.349  1.00  0.00     0.167 HD
ATOM     56  C   UNL A   1      42.460  29.078  33.957  1.00  0.00     0.074 A 
ATOM     57  C   UNL A   1      42.551  29.663  35.278  1.00  0.00     0.031 C 
ATOM     58  C   UNL A   1      43.338  28.165  33.468  1.00  0.00     0.034 A 
BRANCH  45  59
ATOM     59  C   UNL A   1      42.065  26.276  27.695  1.00  0.00     0.023 A 
ATOM     60  C   UNL A   1      41.622  24.948  27.577  1.00  0.00     0.031 A 
ATOM     61  C   UNL A   1      42.902  26.784  26.687  1.00  0.00     0.131 A 
ATOM     62  C   UNL A   1      42.070  24.153  26.512  1.00  0.00     0.055 A 
ATOM     63  C   UNL A   1      43.285  26.012  25.589  1.00  0.00     0.041 A 
ATOM     64  F   UNL A   1      43.374  28.039  26.758  1.00  0.00    -0.206 F 
ATOM     65  C   UNL A   1      42.880  24.682  25.504  1.00  0.00     0.022 A 
BRANCH  62  66
ATOM     66  S   UNL A   1      41.690  22.380  26.530  1.00  0.00     0.124 S 
ATOM     67  O   UNL A   1      40.237  22.390  26.381  1.00  0.00    -0.237 OA
ATOM     68  O   UNL A   1      42.448  21.883  25.387  1.00  0.00    -0.237 OA
ATOM     69  O   UNL A   1      42.171  21.940  27.838  1.00  0.00    -0.744 OA
ENDBRANCH  62  66
ENDBRANCH  45  59
BRANCH  46  70
ATOM     70  C   UNL A   1      39.176  32.195  35.260  1.00  0.00     0.023 A 
ATOM     71  C   UNL A   1      39.646  33.509  35.413  1.00  0.00     0.031 A 
ATOM     72  C   UNL A   1      38.336  31.675  36.260  1.00  0.00     0.131 A 
ATOM     73  C   UNL A   1      39.314  34.240  36.564  1.00  0.00     0.055 A 
ATOM     74  C   UNL A   1      37.961  32.427  37.375  1.00  0.00     0.041 A 
ATOM     75  F   UNL A   1      37.862  30.423  36.168  1.00  0.00    -0.206 F 
ATOM     76  C   UNL A   1      38.464  33.714  37.540  1.00  0.00     0.022 A 
BRANCH  73  77
ATOM     77  S   UNL A   1      40.096  35.857  36.820  1.00  0.00     0.124 S 
ATOM     78  O   UNL A   1      39.523  36.266  38.098  1.00  0.00    -0.237 OA
ATOM     79  O   UNL A   1      41.513  35.509  36.835  1.00  0.00    -0.237 OA
ATOM     80  O   UNL A   1      39.659  36.634  35.663  1.00  0.00    -0.744 OA
ENDBRANCH  73  77
ENDBRANCH  46  70
BRANCH  58  81
ATOM     81  C   UNL A   1      44.498  27.793  34.356  1.00  0.00     0.023 A 
ATOM     82  C   UNL A   1      44.469  26.648  35.171  1.00  0.00     0.031 A 
ATOM     83  C   UNL A   1      45.645  28.607  34.394  1.00  0.00     0.131 A 
ATOM     84  C   UNL A   1      45.547  26.374  36.027  1.00  0.00     0.055 A 
ATOM     85  C   UNL A   1      46.735  28.301  35.208  1.00  0.00     0.041 A 
ATOM     86  F   UNL A   1      45.723  29.712  33.636  1.00  0.00    -0.206 F 
ATOM     87  C   UNL A   1      46.685  27.185  36.039  1.00  0.00     0.022 A 
BRANCH  84  88
ATOM     88  S   UNL A   1      45.413  24.981  37.180  1.00  0.00     0.124 S 
ATOM     89  O   UNL A   1      44.497  24.090  36.476  1.00  0.00    -0.237 OA
ATOM     90  O   UNL A   1      46.796  24.523  37.280  1.00  0.00    -0.237 OA
ATOM     91  O   UNL A   1      44.876  25.591  38.395  1.00  0.00    -0.744 OA
ENDBRANCH  84  88
ENDBRANCH  58  81
ENDBRANCH  32  33
ENDBRANCH  25  27
ENDBRANCH  24  25
ENDBRANCH   1  24
TORSDOF 16
ENDMDL
MODEL 3
REMARK VINA RESULT:     -11.9      1.655      2.138
REMARK SMILES C[C@]1(C(=O)N2CCC(CC(=O)OCCOC(=O)c3ccc(-c4c5nc(c(-c6cc(S(=O)(=O)[O-])ccc6F)c6ccc([nH]6)c(-c6cc(S(=O)(=O)[O-])ccc6F)c6nc(c(-c7cc(S(=O)(=O)[O-])ccc7F)c7ccc4[nH]7)C=C6)C=C5)cc3)CC2)CCC[NH2+]C1
REMARK SMILES IDX 14 1 13 2 12 3 10 4 11 5 9 6 8 7 3 8 4 9 5 10 6 11 82 12
REMARK SMILES IDX 7 13 81 14 2 15 1 16 83 17 87 18 84 19 86 20 85 21 15 24
REMARK SMILES IDX 16 25 17 26 18 27 19 28 80 29 20 30 79 31 21 32 22 33 23 34
REMARK SMILES IDX 73 35 24 36 78 37 72 38 74 39 25 40 77 41 71 42 70 43 26 45
REMARK SMILES IDX 58 46 38 47 57 48 39 49 42 50 56 51 75 52 40 53 41 54 55 56
REMARK SMILES IDX 76 57 43 58 27 59 28 60 36 61 29 62 35 63 37 64 34 65 30 66
REMARK SMILES IDX 31 67 32 68 33 69 59 70 60 71 68 72 61 73 67 74 69 75 66 76
REMARK SMILES IDX 62 77 63 78 64 79 65 80 44 81 45 82 53 83 46 84 52 85 54 86
REMARK SMILES IDX 51 87 47 88 48 89 49 90 50 91
REMARK H PARENT 86 22 86 23 74 44 42 55
REMARK Flexibility Score: inf
ROOT
ATOM      1  C   UNL A   1      36.157  20.632  24.940  1.00  0.00     0.275 C 
ENDROOT
BRANCH   1   2
ATOM      2  C   UNL A   1      34.678  20.830  25.271  1.00  0.00     0.274 C 
BRANCH   2   3
ATOM      3  O   UNL A   1      34.166  21.970  24.560  1.00  0.00    -0.462 OA
BRANCH   3   4
ATOM      4  C   UNL A   1      33.538  22.916  25.300  1.00  0.00     0.306 C 
ATOM      5  O   UNL A   1      33.955  23.368  26.357  1.00  0.00    -0.252 OA
BRANCH   4   6
ATOM      6  C   UNL A   1      32.209  23.323  24.698  1.00  0.00     0.126 C 
BRANCH   6   7
ATOM      7  C   UNL A   1      32.283  24.107  23.363  1.00  0.00     0.003 C 
ATOM      8  C   UNL A   1      32.719  28.222  23.370  1.00  0.00     0.234 C 
ATOM      9  O   UNL A   1      33.523  28.946  22.774  1.00  0.00    -0.274 OA
ATOM     10  N   UNL A   1      32.522  26.923  22.948  1.00  0.00    -0.342 N 
ATOM     11  C   UNL A   1      33.658  26.136  22.507  1.00  0.00     0.120 C 
ATOM     12  C   UNL A   1      31.251  26.360  22.562  1.00  0.00     0.120 C 
ATOM     13  C   UNL A   1      33.658  24.819  23.275  1.00  0.00     0.026 C 
ATOM     14  C   UNL A   1      31.035  25.005  23.207  1.00  0.00     0.026 C 
BRANCH   8  15
ATOM     15  C   UNL A   1      31.918  28.752  24.594  1.00  0.00     0.095 C 
ATOM     16  C   UNL A   1      30.607  29.382  24.091  1.00  0.00     0.028 C 
ATOM     17  C   UNL A   1      31.598  27.723  25.698  1.00  0.00     0.028 C 
ATOM     18  C   UNL A   1      32.781  29.862  25.262  1.00  0.00     0.277 C 
ATOM     19  C   UNL A   1      32.852  27.210  26.402  1.00  0.00     0.063 C 
ATOM     20  N   UNL A   1      33.991  29.338  25.908  1.00  0.00    -0.345 N 
ATOM     21  C   UNL A   1      33.700  28.355  26.942  1.00  0.00     0.260 C 
ATOM     22  H   UNL A   1      34.575  28.898  25.196  1.00  0.00     0.346 HD
ATOM     23  H   UNL A   1      34.465  30.122  26.354  1.00  0.00     0.346 HD
ENDBRANCH   8  15
ENDBRANCH   6   7
ENDBRANCH   4   6
ENDBRANCH   3   4
ENDBRANCH   2   3
ENDBRANCH   1   2
BRANCH   1  24
ATOM     24  O   UNL A   1      36.970  21.462  25.787  1.00  0.00    -0.458 OA
BRANCH  24  25
ATOM     25  C   UNL A   1      38.288  21.154  25.837  1.00  0.00     0.338 C 
ATOM     26  O   UNL A   1      38.821  20.119  25.484  1.00  0.00    -0.246 OA
BRANCH  25  27
ATOM     27  C   UNL A   1      39.021  22.327  26.334  1.00  0.00     0.060 A 
ATOM     28  C   UNL A   1      38.582  23.608  25.988  1.00  0.00     0.016 A 
ATOM     29  C   UNL A   1      40.174  22.155  27.098  1.00  0.00     0.016 A 
ATOM     30  C   UNL A   1      39.292  24.730  26.411  1.00  0.00     0.010 A 
ATOM     31  C   UNL A   1      40.875  23.282  27.538  1.00  0.00     0.010 A 
ATOM     32  C   UNL A   1      40.442  24.576  27.193  1.00  0.00    -0.014 A 
BRANCH  32  33
ATOM     33  C   UNL A   1      41.226  25.761  27.620  1.00  0.00     0.031 A 
ATOM     34  C   UNL A   1      40.557  26.837  28.426  1.00  0.00     0.074 A 
ATOM     35  C   UNL A   1      42.523  25.873  27.279  1.00  0.00     0.049 A 
ATOM     36  N   UNL A   1      41.001  28.021  28.759  1.00  0.00    -0.248 NA
ATOM     37  C   UNL A   1      39.204  26.536  28.918  1.00  0.00     0.031 C 
ATOM     38  C   UNL A   1      43.297  24.861  26.557  1.00  0.00     0.029 A 
ATOM     39  N   UNL A   1      43.418  26.893  27.483  1.00  0.00    -0.354 N 
ATOM     40  C   UNL A   1      39.978  28.616  29.490  1.00  0.00     0.074 A 
ATOM     41  C   UNL A   1      38.882  27.670  29.524  1.00  0.00     0.031 C 
ATOM     42  C   UNL A   1      44.549  25.316  26.375  1.00  0.00     0.029 A 
ATOM     43  C   UNL A   1      44.647  26.672  26.907  1.00  0.00     0.049 A 
ATOM     44  H   UNL A   1      43.200  27.707  27.994  1.00  0.00     0.167 HD
ATOM     45  C   UNL A   1      39.962  29.837  30.082  1.00  0.00     0.034 A 
ATOM     46  C   UNL A   1      45.713  27.488  26.783  1.00  0.00     0.034 A 
ATOM     47  C   UNL A   1      41.063  30.768  30.029  1.00  0.00     0.049 A 
ATOM     48  C   UNL A   1      45.628  28.884  27.346  1.00  0.00     0.074 A 
ATOM     49  C   UNL A   1      41.148  32.038  30.572  1.00  0.00     0.029 A 
ATOM     50  N   UNL A   1      42.274  30.529  29.391  1.00  0.00    -0.354 N 
ATOM     51  N   UNL A   1      44.639  29.456  27.995  1.00  0.00    -0.248 NA
ATOM     52  C   UNL A   1      46.800  29.749  27.154  1.00  0.00     0.031 C 
ATOM     53  C   UNL A   1      42.385  32.588  30.214  1.00  0.00     0.029 A 
ATOM     54  C   UNL A   1      43.101  31.636  29.506  1.00  0.00     0.049 A 
ATOM     55  H   UNL A   1      42.511  29.695  28.925  1.00  0.00     0.167 HD
ATOM     56  C   UNL A   1      45.084  30.736  28.314  1.00  0.00     0.074 A 
ATOM     57  C   UNL A   1      46.432  30.849  27.796  1.00  0.00     0.031 C 
ATOM     58  C   UNL A   1      44.440  31.730  28.977  1.00  0.00     0.034 A 
BRANCH  45  59
ATOM     59  C   UNL A   1      38.692  30.244  30.787  1.00  0.00     0.023 A 
ATOM     60  C   UNL A   1      37.653  30.907  30.111  1.00  0.00     0.031 A 
ATOM     61  C   UNL A   1      38.531  29.992  32.161  1.00  0.00     0.131 A 
ATOM     62  C   UNL A   1      36.530  31.354  30.823  1.00  0.00     0.055 A 
ATOM     63  C   UNL A   1      37.377  30.374  32.848  1.00  0.00     0.041 A 
ATOM     64  F   UNL A   1      39.500  29.383  32.862  1.00  0.00    -0.206 F 
ATOM     65  C   UNL A   1      36.374  31.072  32.182  1.00  0.00     0.022 A 
BRANCH  62  66
ATOM     66  S   UNL A   1      35.337  32.425  29.977  1.00  0.00     0.124 S 
ATOM     67  O   UNL A   1      34.905  31.571  28.873  1.00  0.00    -0.237 OA
ATOM     68  O   UNL A   1      34.346  32.677  31.017  1.00  0.00    -0.237 OA
ATOM     69  O   UNL A   1      36.135  33.584  29.583  1.00  0.00    -0.744 OA
ENDBRANCH  62  66
ENDBRANCH  45  59
BRANCH  46  70
ATOM     70  C   UNL A   1      46.930  27.043  26.045  1.00  0.00     0.023 A 
ATOM     71  C   UNL A   1      47.984  26.398  26.711  1.00  0.00     0.031 A 
ATOM     72  C   UNL A   1      47.089  27.318  24.675  1.00  0.00     0.131 A 
ATOM     73  C   UNL A   1      49.168  26.096  26.020  1.00  0.00     0.055 A 
ATOM     74  C   UNL A   1      48.245  26.964  23.978  1.00  0.00     0.041 A 
ATOM     75  F   UNL A   1      46.116  27.938  23.989  1.00  0.00    -0.206 F 
ATOM     76  C   UNL A   1      49.301  26.362  24.656  1.00  0.00     0.022 A 
BRANCH  73  77
ATOM     77  S   UNL A   1      50.578  25.444  26.958  1.00  0.00     0.124 S 
ATOM     78  O   UNL A   1      49.977  24.305  27.645  1.00  0.00    -0.237 OA
ATOM     79  O   UNL A   1      51.526  25.124  25.897  1.00  0.00    -0.237 OA
ATOM     80  O   UNL A   1      50.960  26.561  27.819  1.00  0.00    -0.744 OA
ENDBRANCH  73  77
ENDBRANCH  46  70
BRANCH  58  81
ATOM     81  C   UNL A   1      45.215  33.000  29.221  1.00  0.00     0.023 A 
ATOM     82  C   UNL A   1      45.162  34.083  28.326  1.00  0.00     0.031 A 
ATOM     83  C   UNL A   1      46.028  33.120  30.362  1.00  0.00     0.131 A 
ATOM     84  C   UNL A   1      45.947  35.221  28.563  1.00  0.00     0.055 A 
ATOM     85  C   UNL A   1      46.767  34.275  30.618  1.00  0.00     0.041 A 
ATOM     86  F   UNL A   1      46.115  32.114  31.247  1.00  0.00    -0.206 F 
ATOM     87  C   UNL A   1      46.737  35.330  29.710  1.00  0.00     0.022 A 
BRANCH  84  88
ATOM     88  S   UNL A   1      45.980  36.534  27.311  1.00  0.00     0.124 S 
ATOM     89  O   UNL A   1      46.657  37.614  28.021  1.00  0.00    -0.237 OA
ATOM     90  O   UNL A   1      46.735  35.914  26.226  1.00  0.00    -0.237 OA
ATOM     91  O   UNL A   1      44.567  36.769  27.024  1.00  0.00    -0.744 OA
ENDBRANCH  84  88
ENDBRANCH  58  81
ENDBRANCH  32  33
ENDBRANCH  25  27
ENDBRANCH  24  25
ENDBRANCH   1  24
TORSDOF 16
ENDMDL
