MODEL 1
REMARK VINA RESULT:     -12.2      0.000      0.000
REMARK SMILES O=C(OCCOC(=O)c1cc(Cl)ncc1-c1cccc(C(F)(F)F)c1)c1ccc(-c2c3nc(c(-c4cc(S(=O)(=O)[O-])ccc4F)c4ccc([nH]4)c(-c4cc(S(=O)(=O)[O-])ccc4F)c4nc(c(-c5cc(S(=O)(=O)[O-])ccc5F)c5ccc2[nH]5)C=C4)C=C3)cc1
REMARK SMILES IDX 4 1 3 2 2 3 1 4 26 5 27 6 88 7 28 8 87 9 29 10 30 11 31 12
REMARK SMILES IDX 81 13 32 14 86 15 80 16 82 17 33 18 85 19 79 20 78 21 34 23
REMARK SMILES IDX 66 24 46 25 65 26 47 27 50 28 64 29 83 30 48 31 49 32 63 34
REMARK SMILES IDX 84 35 51 36 35 37 36 38 44 39 37 40 43 41 45 42 42 43 38 44
REMARK SMILES IDX 39 45 40 46 41 47 67 48 68 49 76 50 69 51 75 52 77 53 74 54
REMARK SMILES IDX 70 55 71 56 72 57 73 58 52 59 53 60 61 61 54 62 60 63 62 64
REMARK SMILES IDX 59 65 55 66 56 67 57 68 58 69 5 70 6 71 7 72 8 73 9 74 10 75
REMARK SMILES IDX 15 76 11 77 14 78 12 79 13 80 16 81 17 82 25 83 18 84 20 85
REMARK SMILES IDX 19 86 21 87 22 88 23 89 24 90
REMARK H PARENT 82 22 50 33
REMARK Flexibility Score: inf
ROOT
ATOM      1  C   UNL A   1      31.834  29.969  26.426  1.00  0.00     0.275 C 
ENDROOT
BRANCH   1   2
ATOM      2  O   UNL A   1      33.160  30.484  26.360  1.00  0.00    -0.458 OA
BRANCH   2   3
ATOM      3  C   UNL A   1      33.428  31.454  27.269  1.00  0.00     0.338 C 
ATOM      4  O   UNL A   1      32.916  32.558  27.322  1.00  0.00    -0.246 OA
BRANCH   3   5
ATOM      5  C   UNL A   1      34.677  31.061  27.968  1.00  0.00     0.060 A 
ATOM      6  C   UNL A   1      34.879  29.734  28.369  1.00  0.00     0.016 A 
ATOM      7  C   UNL A   1      35.721  31.985  28.059  1.00  0.00     0.016 A 
ATOM      8  C   UNL A   1      36.113  29.336  28.852  1.00  0.00     0.010 A 
ATOM      9  C   UNL A   1      36.986  31.568  28.454  1.00  0.00     0.010 A 
ATOM     10  C   UNL A   1      37.167  30.251  28.897  1.00  0.00    -0.014 A 
BRANCH  10  11
ATOM     11  C   UNL A   1      38.386  29.869  29.626  1.00  0.00     0.031 A 
ATOM     12  C   UNL A   1      38.585  30.442  30.995  1.00  0.00     0.074 A 
ATOM     13  C   UNL A   1      39.239  28.981  29.090  1.00  0.00     0.049 A 
ATOM     14  N   UNL A   1      39.538  30.219  31.856  1.00  0.00    -0.248 NA
ATOM     15  C   UNL A   1      37.574  31.411  31.452  1.00  0.00     0.031 C 
ATOM     16  C   UNL A   1      39.104  28.373  27.766  1.00  0.00     0.029 A 
ATOM     17  N   UNL A   1      40.393  28.444  29.589  1.00  0.00    -0.354 N 
ATOM     18  C   UNL A   1      39.225  31.002  32.961  1.00  0.00     0.074 A 
ATOM     19  C   UNL A   1      38.069  31.792  32.614  1.00  0.00     0.031 C 
ATOM     20  C   UNL A   1      40.164  27.579  27.539  1.00  0.00     0.029 A 
ATOM     21  C   UNL A   1      41.045  27.628  28.698  1.00  0.00     0.049 A 
ATOM     22  H   UNL A   1      40.723  28.623  30.499  1.00  0.00     0.167 HD
ATOM     23  C   UNL A   1      39.817  31.009  34.179  1.00  0.00     0.034 A 
ATOM     24  C   UNL A   1      42.234  27.009  28.810  1.00  0.00     0.034 A 
ATOM     25  C   UNL A   1      40.974  30.206  34.478  1.00  0.00     0.049 A 
ATOM     26  C   UNL A   1      42.940  27.093  30.134  1.00  0.00     0.074 A 
ATOM     27  C   UNL A   1      41.668  30.086  35.665  1.00  0.00     0.029 A 
ATOM     28  N   UNL A   1      41.620  29.392  33.550  1.00  0.00    -0.354 N 
ATOM     29  N   UNL A   1      42.597  27.772  31.207  1.00  0.00    -0.248 NA
ATOM     30  C   UNL A   1      44.158  26.294  30.286  1.00  0.00     0.031 C 
ATOM     31  C   UNL A   1      42.761  29.239  35.442  1.00  0.00     0.029 A 
ATOM     32  C   UNL A   1      42.719  28.785  34.131  1.00  0.00     0.049 A 
ATOM     33  H   UNL A   1      41.336  29.267  32.616  1.00  0.00     0.167 HD
ATOM     34  C   UNL A   1      43.535  27.450  32.178  1.00  0.00     0.074 A 
ATOM     35  C   UNL A   1      44.462  26.521  31.557  1.00  0.00     0.031 C 
ATOM     36  C   UNL A   1      43.616  27.865  33.469  1.00  0.00     0.034 A 
BRANCH  23  37
ATOM     37  C   UNL A   1      39.215  31.927  35.213  1.00  0.00     0.023 A 
ATOM     38  C   UNL A   1      39.627  33.271  35.324  1.00  0.00     0.031 A 
ATOM     39  C   UNL A   1      38.330  31.431  36.182  1.00  0.00     0.131 A 
ATOM     40  C   UNL A   1      39.259  34.028  36.447  1.00  0.00     0.055 A 
ATOM     41  C   UNL A   1      37.889  32.222  37.247  1.00  0.00     0.041 A 
ATOM     42  F   UNL A   1      37.920  30.154  36.145  1.00  0.00    -0.206 F 
ATOM     43  C   UNL A   1      38.373  33.520  37.398  1.00  0.00     0.022 A 
BRANCH  40  44
ATOM     44  S   UNL A   1      40.120  35.598  36.750  1.00  0.00     0.124 S 
ATOM     45  O   UNL A   1      39.619  35.957  38.075  1.00  0.00    -0.237 OA
ATOM     46  O   UNL A   1      41.523  35.207  36.684  1.00  0.00    -0.237 OA
ATOM     47  O   UNL A   1      39.658  36.458  35.663  1.00  0.00    -0.744 OA
ENDBRANCH  40  44
ENDBRANCH  23  37
BRANCH  24  48
ATOM     48  C   UNL A   1      42.811  26.294  27.639  1.00  0.00     0.023 A 
ATOM     49  C   UNL A   1      42.511  24.953  27.362  1.00  0.00     0.031 A 
ATOM     50  C   UNL A   1      43.667  26.978  26.755  1.00  0.00     0.131 A 
ATOM     51  C   UNL A   1      43.078  24.330  26.236  1.00  0.00     0.055 A 
ATOM     52  C   UNL A   1      44.205  26.365  25.624  1.00  0.00     0.041 A 
ATOM     53  F   UNL A   1      43.974  28.267  26.972  1.00  0.00    -0.206 F 
ATOM     54  C   UNL A   1      43.918  25.029  25.363  1.00  0.00     0.022 A 
BRANCH  51  55
ATOM     55  S   UNL A   1      42.729  22.575  25.939  1.00  0.00     0.124 S 
ATOM     56  O   UNL A   1      43.323  22.366  24.624  1.00  0.00    -0.237 OA
ATOM     57  O   UNL A   1      43.411  21.937  27.061  1.00  0.00    -0.237 OA
ATOM     58  O   UNL A   1      41.269  22.505  25.982  1.00  0.00    -0.744 OA
ENDBRANCH  51  55
ENDBRANCH  24  48
BRANCH  36  59
ATOM     59  C   UNL A   1      44.717  27.262  34.297  1.00  0.00     0.023 A 
ATOM     60  C   UNL A   1      44.554  26.031  34.951  1.00  0.00     0.031 A 
ATOM     61  C   UNL A   1      45.947  27.932  34.421  1.00  0.00     0.131 A 
ATOM     62  C   UNL A   1      45.594  25.526  35.742  1.00  0.00     0.055 A 
ATOM     63  C   UNL A   1      46.995  27.399  35.166  1.00  0.00     0.041 A 
ATOM     64  F   UNL A   1      46.145  29.112  33.811  1.00  0.00    -0.206 F 
ATOM     65  C   UNL A   1      46.819  26.194  35.840  1.00  0.00     0.022 A 
BRANCH  62  66
ATOM     66  S   UNL A   1      45.301  24.015  36.697  1.00  0.00     0.124 S 
ATOM     67  O   UNL A   1      44.926  24.551  38.002  1.00  0.00    -0.237 OA
ATOM     68  O   UNL A   1      44.233  23.368  35.942  1.00  0.00    -0.237 OA
ATOM     69  O   UNL A   1      46.592  23.329  36.656  1.00  0.00    -0.744 OA
ENDBRANCH  62  66
ENDBRANCH  36  59
ENDBRANCH  10  11
ENDBRANCH   3   5
ENDBRANCH   2   3
ENDBRANCH   1   2
BRANCH   1  70
ATOM     70  C   UNL A   1      31.773  28.591  27.113  1.00  0.00     0.275 C 
BRANCH  70  71
ATOM     71  O   UNL A   1      32.667  27.597  26.564  1.00  0.00    -0.458 OA
BRANCH  71  72
ATOM     72  C   UNL A   1      32.144  26.390  26.237  1.00  0.00     0.339 C 
ATOM     73  O   UNL A   1      31.459  25.678  26.949  1.00  0.00    -0.246 OA
BRANCH  72  74
ATOM     74  C   UNL A   1      32.625  25.985  24.892  1.00  0.00     0.072 A 
ATOM     75  C   UNL A   1      33.820  25.252  24.825  1.00  0.00     0.057 A 
ATOM     76  C   UNL A   1      31.847  26.175  23.737  1.00  0.00     0.015 A 
ATOM     77  C   UNL A   1      34.184  24.720  23.603  1.00  0.00     0.129 A 
ATOM     78  C   UNL A   1      32.371  25.641  22.555  1.00  0.00     0.122 A 
ATOM     79  Cl  UNL A   1      35.497  23.628  23.466  1.00  0.00    -0.062 Cl
ATOM     80  N   UNL A   1      33.499  24.906  22.464  1.00  0.00    -0.244 NA
BRANCH  76  81
ATOM     81  C   UNL A   1      30.558  26.881  23.669  1.00  0.00    -0.015 A 
ATOM     82  C   UNL A   1      29.372  26.251  24.073  1.00  0.00     0.009 A 
ATOM     83  C   UNL A   1      30.455  28.148  23.087  1.00  0.00     0.021 A 
ATOM     84  C   UNL A   1      28.131  26.859  23.873  1.00  0.00     0.001 A 
ATOM     85  C   UNL A   1      29.217  28.755  22.827  1.00  0.00     0.056 A 
ATOM     86  C   UNL A   1      28.053  28.099  23.240  1.00  0.00     0.013 A 
BRANCH  85  87
ATOM     87  C   UNL A   1      29.144  30.073  22.095  1.00  0.00     0.416 C 
ATOM     88  F   UNL A   1      30.196  30.241  21.241  1.00  0.00    -0.166 F 
ATOM     89  F   UNL A   1      28.027  30.189  21.327  1.00  0.00    -0.166 F 
ATOM     90  F   UNL A   1      29.168  31.159  22.915  1.00  0.00    -0.166 F 
ENDBRANCH  85  87
ENDBRANCH  76  81
ENDBRANCH  72  74
ENDBRANCH  71  72
ENDBRANCH  70  71
ENDBRANCH   1  70
TORSDOF 16
ENDMDL
MODEL 2
REMARK VINA RESULT:     -12.1      1.538      1.862
REMARK SMILES O=C(OCCOC(=O)c1cc(Cl)ncc1-c1cccc(C(F)(F)F)c1)c1ccc(-c2c3nc(c(-c4cc(S(=O)(=O)[O-])ccc4F)c4ccc([nH]4)c(-c4cc(S(=O)(=O)[O-])ccc4F)c4nc(c(-c5cc(S(=O)(=O)[O-])ccc5F)c5ccc2[nH]5)C=C4)C=C3)cc1
REMARK SMILES IDX 4 1 3 2 2 3 1 4 26 5 27 6 88 7 28 8 87 9 29 10 30 11 31 12
REMARK SMILES IDX 81 13 32 14 86 15 80 16 82 17 33 18 85 19 79 20 78 21 34 23
REMARK SMILES IDX 66 24 46 25 65 26 47 27 50 28 64 29 83 30 48 31 49 32 63 34
REMARK SMILES IDX 84 35 51 36 35 37 36 38 44 39 37 40 43 41 45 42 42 43 38 44
REMARK SMILES IDX 39 45 40 46 41 47 67 48 68 49 76 50 69 51 75 52 77 53 74 54
REMARK SMILES IDX 70 55 71 56 72 57 73 58 52 59 53 60 61 61 54 62 60 63 62 64
REMARK SMILES IDX 59 65 55 66 56 67 57 68 58 69 5 70 6 71 7 72 8 73 9 74 10 75
REMARK SMILES IDX 15 76 11 77 14 78 12 79 13 80 16 81 17 82 25 83 18 84 20 85
REMARK SMILES IDX 19 86 21 87 22 88 23 89 24 90
REMARK H PARENT 82 22 50 33
REMARK Flexibility Score: inf
ROOT
ATOM      1  C   UNL A   1      32.335  30.764  26.887  1.00  0.00     0.275 C 
ENDROOT
BRANCH   1   2
ATOM      2  O   UNL A   1      33.752  30.857  26.982  1.00  0.00    -0.458 OA
BRANCH   2   3
ATOM      3  C   UNL A   1      34.192  31.767  27.887  1.00  0.00     0.338 C 
ATOM      4  O   UNL A   1      33.806  32.916  28.003  1.00  0.00    -0.246 OA
BRANCH   3   5
ATOM      5  C   UNL A   1      35.444  31.226  28.473  1.00  0.00     0.060 A 
ATOM      6  C   UNL A   1      35.502  29.901  28.924  1.00  0.00     0.016 A 
ATOM      7  C   UNL A   1      36.610  31.992  28.404  1.00  0.00     0.016 A 
ATOM      8  C   UNL A   1      36.714  29.349  29.298  1.00  0.00     0.010 A 
ATOM      9  C   UNL A   1      37.840  31.413  28.689  1.00  0.00     0.010 A 
ATOM     10  C   UNL A   1      37.884  30.103  29.183  1.00  0.00    -0.014 A 
BRANCH  10  11
ATOM     11  C   UNL A   1      39.111  29.578  29.801  1.00  0.00     0.031 A 
ATOM     12  C   UNL A   1      39.538  30.172  31.108  1.00  0.00     0.074 A 
ATOM     13  C   UNL A   1      39.767  28.555  29.231  1.00  0.00     0.049 A 
ATOM     14  N   UNL A   1      40.539  29.848  31.877  1.00  0.00    -0.248 NA
ATOM     15  C   UNL A   1      38.728  31.294  31.613  1.00  0.00     0.031 C 
ATOM     16  C   UNL A   1      39.403  27.919  27.964  1.00  0.00     0.029 A 
ATOM     17  N   UNL A   1      40.882  27.877  29.637  1.00  0.00    -0.354 N 
ATOM     18  C   UNL A   1      40.464  30.712  32.963  1.00  0.00     0.074 A 
ATOM     19  C   UNL A   1      39.397  31.647  32.694  1.00  0.00     0.031 C 
ATOM     20  C   UNL A   1      40.310  26.972  27.673  1.00  0.00     0.029 A 
ATOM     21  C   UNL A   1      41.312  26.940  28.730  1.00  0.00     0.049 A 
ATOM     22  H   UNL A   1      41.333  28.044  30.497  1.00  0.00     0.167 HD
ATOM     23  C   UNL A   1      41.182  30.683  34.111  1.00  0.00     0.034 A 
ATOM     24  C   UNL A   1      42.408  26.160  28.753  1.00  0.00     0.034 A 
ATOM     25  C   UNL A   1      42.242  29.735  34.332  1.00  0.00     0.049 A 
ATOM     26  C   UNL A   1      43.261  26.195  29.990  1.00  0.00     0.074 A 
ATOM     27  C   UNL A   1      43.038  29.563  35.446  1.00  0.00     0.029 A 
ATOM     28  N   UNL A   1      42.660  28.798  33.390  1.00  0.00    -0.354 N 
ATOM     29  N   UNL A   1      43.136  26.960  31.053  1.00  0.00    -0.248 NA
ATOM     30  C   UNL A   1      44.365  25.235  30.060  1.00  0.00     0.031 C 
ATOM     31  C   UNL A   1      43.971  28.559  35.159  1.00  0.00     0.029 A 
ATOM     32  C   UNL A   1      43.721  28.063  33.886  1.00  0.00     0.049 A 
ATOM     33  H   UNL A   1      42.260  28.677  32.499  1.00  0.00     0.167 HD
ATOM     34  C   UNL A   1      44.123  26.545  31.938  1.00  0.00     0.074 A 
ATOM     35  C   UNL A   1      44.836  25.467  31.277  1.00  0.00     0.031 C 
ATOM     36  C   UNL A   1      44.403  26.996  33.189  1.00  0.00     0.034 A 
BRANCH  23  37
ATOM     37  C   UNL A   1      40.832  31.721  35.149  1.00  0.00     0.023 A 
ATOM     38  C   UNL A   1      39.806  31.495  36.089  1.00  0.00     0.031 A 
ATOM     39  C   UNL A   1      41.423  32.993  35.116  1.00  0.00     0.131 A 
ATOM     40  C   UNL A   1      39.317  32.558  36.863  1.00  0.00     0.055 A 
ATOM     41  C   UNL A   1      40.997  34.021  35.961  1.00  0.00     0.041 A 
ATOM     42  F   UNL A   1      42.388  33.277  34.229  1.00  0.00    -0.206 F 
ATOM     43  C   UNL A   1      39.922  33.815  36.823  1.00  0.00     0.022 A 
BRANCH  40  44
ATOM     44  S   UNL A   1      37.755  32.328  37.760  1.00  0.00     0.124 S 
ATOM     45  O   UNL A   1      37.556  30.885  37.639  1.00  0.00    -0.237 OA
ATOM     46  O   UNL A   1      38.081  32.817  39.094  1.00  0.00    -0.237 OA
ATOM     47  O   UNL A   1      36.804  33.145  37.009  1.00  0.00    -0.744 OA
ENDBRANCH  40  44
ENDBRANCH  23  37
BRANCH  24  48
ATOM     48  C   UNL A   1      42.746  25.323  27.571  1.00  0.00     0.023 A 
ATOM     49  C   UNL A   1      42.305  23.998  27.444  1.00  0.00     0.031 A 
ATOM     50  C   UNL A   1      43.511  25.869  26.523  1.00  0.00     0.131 A 
ATOM     51  C   UNL A   1      42.648  23.255  26.300  1.00  0.00     0.055 A 
ATOM     52  C   UNL A   1      43.826  25.138  25.377  1.00  0.00     0.041 A 
ATOM     53  F   UNL A   1      43.947  27.137  26.593  1.00  0.00    -0.206 F 
ATOM     54  C   UNL A   1      43.400  23.819  25.265  1.00  0.00     0.022 A 
BRANCH  51  55
ATOM     55  S   UNL A   1      42.122  21.522  26.193  1.00  0.00     0.124 S 
ATOM     56  O   UNL A   1      42.316  21.062  27.563  1.00  0.00    -0.237 OA
ATOM     57  O   UNL A   1      40.738  21.654  25.751  1.00  0.00    -0.237 OA
ATOM     58  O   UNL A   1      43.036  20.948  25.207  1.00  0.00    -0.744 OA
ENDBRANCH  51  55
ENDBRANCH  24  48
BRANCH  36  59
ATOM     59  C   UNL A   1      45.494  26.274  33.930  1.00  0.00     0.023 A 
ATOM     60  C   UNL A   1      45.208  25.233  34.825  1.00  0.00     0.031 A 
ATOM     61  C   UNL A   1      46.836  26.636  33.725  1.00  0.00     0.131 A 
ATOM     62  C   UNL A   1      46.254  24.614  35.522  1.00  0.00     0.055 A 
ATOM     63  C   UNL A   1      47.876  25.981  34.382  1.00  0.00     0.041 A 
ATOM     64  F   UNL A   1      47.155  27.627  32.876  1.00  0.00    -0.206 F 
ATOM     65  C   UNL A   1      47.587  24.970  35.293  1.00  0.00     0.022 A 
BRANCH  62  66
ATOM     66  S   UNL A   1      45.844  23.380  36.784  1.00  0.00     0.124 S 
ATOM     67  O   UNL A   1      44.753  24.033  37.501  1.00  0.00    -0.237 OA
ATOM     68  O   UNL A   1      45.475  22.220  35.981  1.00  0.00    -0.237 OA
ATOM     69  O   UNL A   1      47.087  23.240  37.541  1.00  0.00    -0.744 OA
ENDBRANCH  62  66
ENDBRANCH  36  59
ENDBRANCH  10  11
ENDBRANCH   3   5
ENDBRANCH   2   3
ENDBRANCH   1   2
BRANCH   1  70
ATOM     70  C   UNL A   1      31.825  29.324  27.090  1.00  0.00     0.275 C 
BRANCH  70  71
ATOM     71  O   UNL A   1      31.548  28.599  25.872  1.00  0.00    -0.458 OA
BRANCH  71  72
ATOM     72  C   UNL A   1      31.488  27.246  25.943  1.00  0.00     0.339 C 
ATOM     73  O   UNL A   1      31.276  26.579  26.938  1.00  0.00    -0.246 OA
BRANCH  72  74
ATOM     74  C   UNL A   1      31.837  26.661  24.623  1.00  0.00     0.072 A 
ATOM     75  C   UNL A   1      33.027  25.922  24.536  1.00  0.00     0.057 A 
ATOM     76  C   UNL A   1      30.945  26.694  23.537  1.00  0.00     0.015 A 
ATOM     77  C   UNL A   1      33.274  25.229  23.367  1.00  0.00     0.129 A 
ATOM     78  C   UNL A   1      31.355  26.003  22.392  1.00  0.00     0.122 A 
ATOM     79  Cl  UNL A   1      34.579  24.126  23.249  1.00  0.00    -0.062 Cl
ATOM     80  N   UNL A   1      32.477  25.260  22.289  1.00  0.00    -0.244 NA
BRANCH  76  81
ATOM     81  C   UNL A   1      29.648  27.386  23.503  1.00  0.00    -0.015 A 
ATOM     82  C   UNL A   1      28.470  26.723  23.876  1.00  0.00     0.009 A 
ATOM     83  C   UNL A   1      29.529  28.680  22.985  1.00  0.00     0.021 A 
ATOM     84  C   UNL A   1      27.222  27.325  23.706  1.00  0.00     0.001 A 
ATOM     85  C   UNL A   1      28.284  29.283  22.755  1.00  0.00     0.056 A 
ATOM     86  C   UNL A   1      27.128  28.594  23.135  1.00  0.00     0.013 A 
BRANCH  85  87
ATOM     87  C   UNL A   1      28.195  30.635  22.089  1.00  0.00     0.416 C 
ATOM     88  F   UNL A   1      27.411  31.501  22.796  1.00  0.00    -0.166 F 
ATOM     89  F   UNL A   1      29.405  31.247  21.973  1.00  0.00    -0.166 F 
ATOM     90  F   UNL A   1      27.656  30.598  20.840  1.00  0.00    -0.166 F 
ENDBRANCH  85  87
ENDBRANCH  76  81
ENDBRANCH  72  74
ENDBRANCH  71  72
ENDBRANCH  70  71
ENDBRANCH   1  70
TORSDOF 16
ENDMDL
MODEL 3
REMARK VINA RESULT:     -12.0      5.607     10.438
REMARK SMILES O=C(OCCOC(=O)c1cc(Cl)ncc1-c1cccc(C(F)(F)F)c1)c1ccc(-c2c3nc(c(-c4cc(S(=O)(=O)[O-])ccc4F)c4ccc([nH]4)c(-c4cc(S(=O)(=O)[O-])ccc4F)c4nc(c(-c5cc(S(=O)(=O)[O-])ccc5F)c5ccc2[nH]5)C=C4)C=C3)cc1
REMARK SMILES IDX 4 1 3 2 2 3 1 4 26 5 27 6 88 7 28 8 87 9 29 10 30 11 31 12
REMARK SMILES IDX 81 13 32 14 86 15 80 16 82 17 33 18 85 19 79 20 78 21 34 23
REMARK SMILES IDX 66 24 46 25 65 26 47 27 50 28 64 29 83 30 48 31 49 32 63 34
REMARK SMILES IDX 84 35 51 36 35 37 36 38 44 39 37 40 43 41 45 42 42 43 38 44
REMARK SMILES IDX 39 45 40 46 41 47 67 48 68 49 76 50 69 51 75 52 77 53 74 54
REMARK SMILES IDX 70 55 71 56 72 57 73 58 52 59 53 60 61 61 54 62 60 63 62 64
REMARK SMILES IDX 59 65 55 66 56 67 57 68 58 69 5 70 6 71 7 72 8 73 9 74 10 75
REMARK SMILES IDX 15 76 11 77 14 78 12 79 13 80 16 81 17 82 25 83 18 84 20 85
REMARK SMILES IDX 19 86 21 87 22 88 23 89 24 90
REMARK H PARENT 82 22 50 33
REMARK Flexibility Score: inf
ROOT
ATOM      1  C   UNL A   1      37.899  21.207  25.039  1.00  0.00     0.275 C 
ENDROOT
BRANCH   1   2
ATOM      2  O   UNL A   1      38.346  21.954  26.165  1.00  0.00    -0.458 OA
BRANCH   2   3
ATOM      3  C   UNL A   1      39.669  21.820  26.434  1.00  0.00     0.338 C 
ATOM      4  O   UNL A   1      40.276  20.773  26.575  1.00  0.00    -0.246 OA
BRANCH   3   5
ATOM      5  C   UNL A   1      40.165  23.154  26.855  1.00  0.00     0.060 A 
ATOM      6  C   UNL A   1      39.618  24.321  26.305  1.00  0.00     0.016 A 
ATOM      7  C   UNL A   1      41.051  23.238  27.932  1.00  0.00     0.016 A 
ATOM      8  C   UNL A   1      39.951  25.556  26.830  1.00  0.00     0.010 A 
ATOM      9  C   UNL A   1      41.314  24.468  28.522  1.00  0.00     0.010 A 
ATOM     10  C   UNL A   1      40.800  25.633  27.936  1.00  0.00    -0.014 A 
BRANCH  10  11
ATOM     11  C   UNL A   1      41.318  26.954  28.323  1.00  0.00     0.031 A 
ATOM     12  C   UNL A   1      42.758  27.246  28.034  1.00  0.00     0.074 A 
ATOM     13  C   UNL A   1      40.492  27.874  28.849  1.00  0.00     0.049 A 
ATOM     14  N   UNL A   1      43.434  28.345  28.222  1.00  0.00    -0.248 NA
ATOM     15  C   UNL A   1      43.548  26.142  27.463  1.00  0.00     0.031 C 
ATOM     16  C   UNL A   1      39.075  27.663  29.148  1.00  0.00     0.029 A 
ATOM     17  N   UNL A   1      40.727  29.164  29.233  1.00  0.00    -0.354 N 
ATOM     18  C   UNL A   1      44.720  28.067  27.772  1.00  0.00     0.074 A 
ATOM     19  C   UNL A   1      44.757  26.669  27.417  1.00  0.00     0.031 C 
ATOM     20  C   UNL A   1      38.578  28.774  29.715  1.00  0.00     0.029 A 
ATOM     21  C   UNL A   1      39.641  29.766  29.818  1.00  0.00     0.049 A 
ATOM     22  H   UNL A   1      41.592  29.617  29.103  1.00  0.00     0.167 HD
ATOM     23  C   UNL A   1      45.755  28.924  27.610  1.00  0.00     0.034 A 
ATOM     24  C   UNL A   1      39.532  30.980  30.387  1.00  0.00     0.034 A 
ATOM     25  C   UNL A   1      45.673  30.311  27.984  1.00  0.00     0.049 A 
ATOM     26  C   UNL A   1      40.716  31.901  30.291  1.00  0.00     0.074 A 
ATOM     27  C   UNL A   1      46.623  31.304  27.858  1.00  0.00     0.029 A 
ATOM     28  N   UNL A   1      44.559  30.894  28.581  1.00  0.00    -0.354 N 
ATOM     29  N   UNL A   1      41.908  31.659  29.789  1.00  0.00    -0.248 NA
ATOM     30  C   UNL A   1      40.533  33.268  30.785  1.00  0.00     0.031 C 
ATOM     31  C   UNL A   1      46.102  32.474  28.426  1.00  0.00     0.029 A 
ATOM     32  C   UNL A   1      44.805  32.227  28.854  1.00  0.00     0.049 A 
ATOM     33  H   UNL A   1      43.716  30.424  28.781  1.00  0.00     0.167 HD
ATOM     34  C   UNL A   1      42.606  32.856  29.869  1.00  0.00     0.074 A 
ATOM     35  C   UNL A   1      41.700  33.816  30.475  1.00  0.00     0.031 C 
ATOM     36  C   UNL A   1      43.869  33.146  29.462  1.00  0.00     0.034 A 
BRANCH  23  37
ATOM     37  C   UNL A   1      47.024  28.342  27.036  1.00  0.00     0.023 A 
ATOM     38  C   UNL A   1      47.280  28.373  25.650  1.00  0.00     0.031 A 
ATOM     39  C   UNL A   1      47.918  27.631  27.852  1.00  0.00     0.131 A 
ATOM     40  C   UNL A   1      48.320  27.602  25.110  1.00  0.00     0.055 A 
ATOM     41  C   UNL A   1      49.012  26.945  27.316  1.00  0.00     0.041 A 
ATOM     42  F   UNL A   1      47.717  27.545  29.175  1.00  0.00    -0.206 F 
ATOM     43  C   UNL A   1      49.203  26.906  25.937  1.00  0.00     0.022 A 
BRANCH  40  44
ATOM     44  S   UNL A   1      48.369  27.355  23.312  1.00  0.00     0.124 S 
ATOM     45  O   UNL A   1      49.648  27.970  22.965  1.00  0.00    -0.237 OA
ATOM     46  O   UNL A   1      48.306  25.904  23.191  1.00  0.00    -0.237 OA
ATOM     47  O   UNL A   1      47.190  28.075  22.834  1.00  0.00    -0.744 OA
ENDBRANCH  40  44
ENDBRANCH  23  37
BRANCH  24  48
ATOM     48  C   UNL A   1      38.281  31.356  31.098  1.00  0.00     0.023 A 
ATOM     49  C   UNL A   1      37.229  32.024  30.455  1.00  0.00     0.031 A 
ATOM     50  C   UNL A   1      38.119  31.017  32.455  1.00  0.00     0.131 A 
ATOM     51  C   UNL A   1      36.065  32.347  31.174  1.00  0.00     0.055 A 
ATOM     52  C   UNL A   1      36.951  31.316  33.158  1.00  0.00     0.041 A 
ATOM     53  F   UNL A   1      39.093  30.368  33.111  1.00  0.00    -0.206 F 
ATOM     54  C   UNL A   1      35.918  31.992  32.518  1.00  0.00     0.022 A 
BRANCH  51  55
ATOM     55  S   UNL A   1      34.748  33.271  30.335  1.00  0.00     0.124 S 
ATOM     56  O   UNL A   1      35.507  34.258  29.575  1.00  0.00    -0.237 OA
ATOM     57  O   UNL A   1      34.095  32.225  29.555  1.00  0.00    -0.237 OA
ATOM     58  O   UNL A   1      33.953  33.810  31.438  1.00  0.00    -0.744 OA
ENDBRANCH  51  55
ENDBRANCH  24  48
BRANCH  36  59
ATOM     59  C   UNL A   1      44.308  34.576  29.615  1.00  0.00     0.023 A 
ATOM     60  C   UNL A   1      44.091  35.523  28.603  1.00  0.00     0.031 A 
ATOM     61  C   UNL A   1      44.947  34.989  30.797  1.00  0.00     0.131 A 
ATOM     62  C   UNL A   1      44.552  36.835  28.774  1.00  0.00     0.055 A 
ATOM     63  C   UNL A   1      45.355  36.308  30.982  1.00  0.00     0.041 A 
ATOM     64  F   UNL A   1      45.174  34.115  31.792  1.00  0.00    -0.206 F 
ATOM     65  C   UNL A   1      45.166  37.237  29.964  1.00  0.00     0.022 A 
BRANCH  62  66
ATOM     66  S   UNL A   1      44.395  37.995  27.391  1.00  0.00     0.124 S 
ATOM     67  O   UNL A   1      45.613  37.726  26.633  1.00  0.00    -0.237 OA
ATOM     68  O   UNL A   1      43.147  37.571  26.765  1.00  0.00    -0.237 OA
ATOM     69  O   UNL A   1      44.347  39.301  28.045  1.00  0.00    -0.744 OA
ENDBRANCH  62  66
ENDBRANCH  36  59
ENDBRANCH  10  11
ENDBRANCH   3   5
ENDBRANCH   2   3
ENDBRANCH   1   2
BRANCH   1  70
ATOM     70  C   UNL A   1      37.026  22.046  24.086  1.00  0.00     0.275 C 
BRANCH  70  71
ATOM     71  O   UNL A   1      36.136  22.979  24.739  1.00  0.00    -0.458 OA
BRANCH  71  72
ATOM     72  C   UNL A   1      35.240  23.642  23.966  1.00  0.00     0.339 C 
ATOM     73  O   UNL A   1      35.399  23.999  22.813  1.00  0.00    -0.246 OA
BRANCH  72  74
ATOM     74  C   UNL A   1      34.042  23.985  24.772  1.00  0.00     0.072 A 
ATOM     75  C   UNL A   1      34.025  25.237  25.407  1.00  0.00     0.057 A 
ATOM     76  C   UNL A   1      32.894  23.174  24.778  1.00  0.00     0.015 A 
ATOM     77  C   UNL A   1      32.850  25.638  26.012  1.00  0.00     0.129 A 
ATOM     78  C   UNL A   1      31.797  23.676  25.487  1.00  0.00     0.122 A 
ATOM     79  Cl  UNL A   1      32.661  27.232  26.612  1.00  0.00    -0.062 Cl
ATOM     80  N   UNL A   1      31.740  24.887  26.080  1.00  0.00    -0.244 NA
BRANCH  76  81
ATOM     81  C   UNL A   1      32.755  21.867  24.120  1.00  0.00    -0.015 A 
ATOM     82  C   UNL A   1      32.266  21.771  22.809  1.00  0.00     0.009 A 
ATOM     83  C   UNL A   1      32.986  20.676  24.816  1.00  0.00     0.021 A 
ATOM     84  C   UNL A   1      31.993  20.528  22.233  1.00  0.00     0.001 A 
ATOM     85  C   UNL A   1      32.669  19.420  24.278  1.00  0.00     0.056 A 
ATOM     86  C   UNL A   1      32.180  19.358  22.969  1.00  0.00     0.013 A 
BRANCH  85  87
ATOM     87  C   UNL A   1      32.827  18.166  25.104  1.00  0.00     0.416 C 
ATOM     88  F   UNL A   1      31.869  17.239  24.812  1.00  0.00    -0.166 F 
ATOM     89  F   UNL A   1      34.018  17.542  24.892  1.00  0.00    -0.166 F 
ATOM     90  F   UNL A   1      32.730  18.375  26.445  1.00  0.00    -0.166 F 
ENDBRANCH  85  87
ENDBRANCH  76  81
ENDBRANCH  72  74
ENDBRANCH  71  72
ENDBRANCH  70  71
ENDBRANCH   1  70
TORSDOF 16
ENDMDL
