MODEL 1
REMARK VINA RESULT:     -11.6      0.000      0.000
REMARK SMILES Nc1ccc(O)c(C(=O)OCCOC(=O)c2ccc(-c3c4nc(c(-c5cc(S(=O)(=O)[O-])ccc5F)c5ccc([nH]5)c(-c5cc(S(=O)(=O)[O-])ccc5F)c5nc(c(-c6cc(S(=O)(=O)[O-])ccc6F)c6ccc3[nH]6)C=C5)C=C4)cc2)c1
REMARK SMILES IDX 12 1 11 2 10 3 8 4 9 5 7 6 2 7 3 8 79 9 4 10 5 11 1 12 6 15
REMARK SMILES IDX 13 17 14 18 15 19 16 20 17 21 78 22 18 23 77 24 19 25 20 26
REMARK SMILES IDX 21 27 71 28 22 29 76 30 70 31 72 32 23 33 75 34 69 35 68 36
REMARK SMILES IDX 24 38 56 39 36 40 55 41 37 42 40 43 54 44 73 45 38 46 39 47
REMARK SMILES IDX 53 49 74 50 41 51 25 52 26 53 34 54 27 55 33 56 35 57 32 58
REMARK SMILES IDX 28 59 29 60 30 61 31 62 57 63 58 64 66 65 59 66 65 67 67 68
REMARK SMILES IDX 64 69 60 70 61 71 62 72 63 73 42 74 43 75 51 76 44 77 50 78
REMARK SMILES IDX 52 79 49 80 45 81 46 82 47 83 48 84
REMARK H PARENT 1 13 1 14 6 16 72 37 40 48
REMARK Flexibility Score: inf
ROOT
ATOM      1  C   UNL A   1      31.917  30.278  25.885  1.00  0.00     0.275 C 
ENDROOT
BRANCH   1   2
ATOM      2  C   UNL A   1      32.394  28.918  25.367  1.00  0.00     0.275 C 
BRANCH   2   3
ATOM      3  O   UNL A   1      31.300  28.103  24.891  1.00  0.00    -0.458 OA
BRANCH   3   4
ATOM      4  C   UNL A   1      31.278  27.879  23.554  1.00  0.00     0.342 C 
ATOM      5  O   UNL A   1      32.133  27.284  22.914  1.00  0.00    -0.246 OA
BRANCH   4   6
ATOM      6  C   UNL A   1      30.078  28.480  22.938  1.00  0.00     0.103 A 
ATOM      7  C   UNL A   1      27.659  28.701  22.893  1.00  0.00     0.032 A 
ATOM      8  C   UNL A   1      27.793  29.872  22.142  1.00  0.00     0.029 A 
ATOM      9  C   UNL A   1      28.810  28.038  23.335  1.00  0.00     0.045 A 
ATOM     10  C   UNL A   1      29.048  30.308  21.726  1.00  0.00     0.049 A 
ATOM     11  C   UNL A   1      30.176  29.587  22.092  1.00  0.00     0.130 A 
BRANCH   7  12
ATOM     12  N   UNL A   1      26.401  28.297  23.320  1.00  0.00    -0.399 N 
ATOM     13  H   UNL A   1      25.797  28.943  23.752  1.00  0.00     0.156 HD
ATOM     14  H   UNL A   1      26.114  27.365  23.190  1.00  0.00     0.156 HD
ENDBRANCH   7  12
BRANCH  11  15
ATOM     15  O   UNL A   1      31.342  30.009  21.537  1.00  0.00    -0.507 OA
ATOM     16  H   UNL A   1      31.591  29.708  20.685  1.00  0.00     0.293 HD
ENDBRANCH  11  15
ENDBRANCH   4   6
ENDBRANCH   3   4
ENDBRANCH   2   3
ENDBRANCH   1   2
BRANCH   1  17
ATOM     17  O   UNL A   1      32.374  30.529  27.228  1.00  0.00    -0.458 OA
BRANCH  17  18
ATOM     18  C   UNL A   1      33.132  31.638  27.366  1.00  0.00     0.338 C 
ATOM     19  O   UNL A   1      32.750  32.796  27.393  1.00  0.00    -0.246 OA
BRANCH  18  20
ATOM     20  C   UNL A   1      34.538  31.295  27.620  1.00  0.00     0.060 A 
ATOM     21  C   UNL A   1      34.814  29.976  27.954  1.00  0.00     0.016 A 
ATOM     22  C   UNL A   1      35.493  32.288  27.838  1.00  0.00     0.016 A 
ATOM     23  C   UNL A   1      35.966  29.676  28.670  1.00  0.00     0.010 A 
ATOM     24  C   UNL A   1      36.724  31.946  28.420  1.00  0.00     0.010 A 
ATOM     25  C   UNL A   1      36.956  30.642  28.896  1.00  0.00    -0.014 A 
BRANCH  25  26
ATOM     26  C   UNL A   1      38.196  30.279  29.655  1.00  0.00     0.031 A 
ATOM     27  C   UNL A   1      39.242  29.374  29.045  1.00  0.00     0.074 A 
ATOM     28  C   UNL A   1      38.412  30.797  30.883  1.00  0.00     0.049 A 
ATOM     29  N   UNL A   1      40.271  28.798  29.613  1.00  0.00    -0.248 NA
ATOM     30  C   UNL A   1      39.105  29.066  27.613  1.00  0.00     0.031 C 
ATOM     31  C   UNL A   1      37.523  31.732  31.578  1.00  0.00     0.029 A 
ATOM     32  N   UNL A   1      39.458  30.634  31.760  1.00  0.00    -0.354 N 
ATOM     33  C   UNL A   1      40.864  28.007  28.631  1.00  0.00     0.074 A 
ATOM     34  C   UNL A   1      40.075  28.180  27.428  1.00  0.00     0.031 C 
ATOM     35  C   UNL A   1      38.089  32.112  32.730  1.00  0.00     0.029 A 
ATOM     36  C   UNL A   1      39.313  31.348  32.929  1.00  0.00     0.049 A 
ATOM     37  H   UNL A   1      40.236  30.060  31.572  1.00  0.00     0.167 HD
ATOM     38  C   UNL A   1      41.958  27.208  28.730  1.00  0.00     0.034 A 
ATOM     39  C   UNL A   1      40.037  31.348  34.066  1.00  0.00     0.034 A 
ATOM     40  C   UNL A   1      42.769  27.098  29.922  1.00  0.00     0.049 A 
ATOM     41  C   UNL A   1      41.222  30.429  34.165  1.00  0.00     0.074 A 
ATOM     42  C   UNL A   1      43.895  26.319  30.131  1.00  0.00     0.029 A 
ATOM     43  N   UNL A   1      42.552  27.799  31.101  1.00  0.00    -0.354 N 
ATOM     44  N   UNL A   1      41.701  29.603  33.264  1.00  0.00    -0.248 NA
ATOM     45  C   UNL A   1      41.947  30.422  35.440  1.00  0.00     0.031 C 
ATOM     46  C   UNL A   1      44.325  26.509  31.450  1.00  0.00     0.029 A 
ATOM     47  C   UNL A   1      43.511  27.456  32.045  1.00  0.00     0.049 A 
ATOM     48  H   UNL A   1      41.824  28.445  31.247  1.00  0.00     0.167 HD
ATOM     49  C   UNL A   1      42.788  28.980  33.866  1.00  0.00     0.074 A 
ATOM     50  C   UNL A   1      42.911  29.549  35.193  1.00  0.00     0.031 C 
ATOM     51  C   UNL A   1      43.607  28.018  33.372  1.00  0.00     0.034 A 
BRANCH  38  52
ATOM     52  C   UNL A   1      42.304  26.337  27.544  1.00  0.00     0.023 A 
ATOM     53  C   UNL A   1      41.876  25.002  27.435  1.00  0.00     0.031 A 
ATOM     54  C   UNL A   1      43.088  26.860  26.498  1.00  0.00     0.131 A 
ATOM     55  C   UNL A   1      42.281  24.224  26.337  1.00  0.00     0.055 A 
ATOM     56  C   UNL A   1      43.425  26.105  25.373  1.00  0.00     0.041 A 
ATOM     57  F   UNL A   1      43.543  28.123  26.553  1.00  0.00    -0.206 F 
ATOM     58  C   UNL A   1      43.031  24.774  25.294  1.00  0.00     0.022 A 
BRANCH  55  59
ATOM     59  S   UNL A   1      41.915  22.447  26.342  1.00  0.00     0.124 S 
ATOM     60  O   UNL A   1      42.408  22.048  27.658  1.00  0.00    -0.237 OA
ATOM     61  O   UNL A   1      40.468  22.421  26.167  1.00  0.00    -0.237 OA
ATOM     62  O   UNL A   1      42.689  21.932  25.214  1.00  0.00    -0.744 OA
ENDBRANCH  55  59
ENDBRANCH  38  52
BRANCH  39  63
ATOM     63  C   UNL A   1      39.603  32.172  35.233  1.00  0.00     0.023 A 
ATOM     64  C   UNL A   1      38.853  31.616  36.280  1.00  0.00     0.031 A 
ATOM     65  C   UNL A   1      39.912  33.544  35.300  1.00  0.00     0.131 A 
ATOM     66  C   UNL A   1      38.414  32.433  37.334  1.00  0.00     0.055 A 
ATOM     67  C   UNL A   1      39.528  34.337  36.381  1.00  0.00     0.041 A 
ATOM     68  F   UNL A   1      40.619  34.131  34.321  1.00  0.00    -0.206 F 
ATOM     69  C   UNL A   1      38.763  33.784  37.402  1.00  0.00     0.022 A 
BRANCH  66  70
ATOM     70  S   UNL A   1      37.296  31.726  38.576  1.00  0.00     0.124 S 
ATOM     71  O   UNL A   1      36.147  32.621  38.486  1.00  0.00    -0.237 OA
ATOM     72  O   UNL A   1      37.097  30.373  38.071  1.00  0.00    -0.237 OA
ATOM     73  O   UNL A   1      38.064  31.820  39.816  1.00  0.00    -0.744 OA
ENDBRANCH  66  70
ENDBRANCH  39  63
BRANCH  51  74
ATOM     74  C   UNL A   1      44.721  27.556  34.273  1.00  0.00     0.023 A 
ATOM     75  C   UNL A   1      44.548  26.482  35.164  1.00  0.00     0.031 A 
ATOM     76  C   UNL A   1      45.957  28.225  34.272  1.00  0.00     0.131 A 
ATOM     77  C   UNL A   1      45.574  26.148  36.061  1.00  0.00     0.055 A 
ATOM     78  C   UNL A   1      46.993  27.852  35.127  1.00  0.00     0.041 A 
ATOM     79  F   UNL A   1      46.173  29.258  33.442  1.00  0.00    -0.206 F 
ATOM     80  C   UNL A   1      46.800  26.818  36.039  1.00  0.00     0.022 A 
BRANCH  77  81
ATOM     81  S   UNL A   1      45.250  24.887  37.325  1.00  0.00     0.124 S 
ATOM     82  O   UNL A   1      44.939  23.716  36.511  1.00  0.00    -0.237 OA
ATOM     83  O   UNL A   1      46.514  24.841  38.052  1.00  0.00    -0.237 OA
ATOM     84  O   UNL A   1      44.123  25.436  38.077  1.00  0.00    -0.744 OA
ENDBRANCH  77  81
ENDBRANCH  51  74
ENDBRANCH  25  26
ENDBRANCH  18  20
ENDBRANCH  17  18
ENDBRANCH   1  17
TORSDOF 16
ENDMDL
MODEL 2
REMARK VINA RESULT:     -11.5      1.431      1.763
REMARK SMILES Nc1ccc(O)c(C(=O)OCCOC(=O)c2ccc(-c3c4nc(c(-c5cc(S(=O)(=O)[O-])ccc5F)c5ccc([nH]5)c(-c5cc(S(=O)(=O)[O-])ccc5F)c5nc(c(-c6cc(S(=O)(=O)[O-])ccc6F)c6ccc3[nH]6)C=C5)C=C4)cc2)c1
REMARK SMILES IDX 12 1 11 2 10 3 8 4 9 5 7 6 2 7 3 8 79 9 4 10 5 11 1 12 6 15
REMARK SMILES IDX 13 17 14 18 15 19 16 20 17 21 78 22 18 23 77 24 19 25 20 26
REMARK SMILES IDX 21 27 71 28 22 29 76 30 70 31 72 32 23 33 75 34 69 35 68 36
REMARK SMILES IDX 24 38 56 39 36 40 55 41 37 42 40 43 54 44 73 45 38 46 39 47
REMARK SMILES IDX 53 49 74 50 41 51 25 52 26 53 34 54 27 55 33 56 35 57 32 58
REMARK SMILES IDX 28 59 29 60 30 61 31 62 57 63 58 64 66 65 59 66 65 67 67 68
REMARK SMILES IDX 64 69 60 70 61 71 62 72 63 73 42 74 43 75 51 76 44 77 50 78
REMARK SMILES IDX 52 79 49 80 45 81 46 82 47 83 48 84
REMARK H PARENT 1 13 1 14 6 16 72 37 40 48
REMARK Flexibility Score: inf
ROOT
ATOM      1  C   UNL A   1      31.845  30.198  25.773  1.00  0.00     0.275 C 
ENDROOT
BRANCH   1   2
ATOM      2  C   UNL A   1      32.786  29.513  24.777  1.00  0.00     0.275 C 
BRANCH   2   3
ATOM      3  O   UNL A   1      32.386  28.154  24.496  1.00  0.00    -0.458 OA
BRANCH   3   4
ATOM      4  C   UNL A   1      32.066  27.895  23.204  1.00  0.00     0.342 C 
ATOM      5  O   UNL A   1      32.854  27.603  22.317  1.00  0.00    -0.246 OA
BRANCH   4   6
ATOM      6  C   UNL A   1      30.613  28.040  22.981  1.00  0.00     0.103 A 
ATOM      7  C   UNL A   1      28.353  27.316  23.501  1.00  0.00     0.032 A 
ATOM      8  C   UNL A   1      27.861  28.509  22.962  1.00  0.00     0.029 A 
ATOM      9  C   UNL A   1      29.736  27.111  23.556  1.00  0.00     0.045 A 
ATOM     10  C   UNL A   1      28.723  29.427  22.370  1.00  0.00     0.049 A 
ATOM     11  C   UNL A   1      30.086  29.167  22.348  1.00  0.00     0.130 A 
BRANCH   7  12
ATOM     12  N   UNL A   1      27.480  26.424  24.109  1.00  0.00    -0.399 N 
ATOM     13  H   UNL A   1      26.702  26.760  24.610  1.00  0.00     0.156 HD
ATOM     14  H   UNL A   1      27.639  25.455  24.039  1.00  0.00     0.156 HD
ENDBRANCH   7  12
BRANCH  11  15
ATOM     15  O   UNL A   1      30.836  30.052  21.639  1.00  0.00    -0.507 OA
ATOM     16  H   UNL A   1      31.551  29.745  21.117  1.00  0.00     0.293 HD
ENDBRANCH  11  15
ENDBRANCH   4   6
ENDBRANCH   3   4
ENDBRANCH   2   3
ENDBRANCH   1   2
BRANCH   1  17
ATOM     17  O   UNL A   1      32.437  30.304  27.081  1.00  0.00    -0.458 OA
BRANCH  17  18
ATOM     18  C   UNL A   1      33.146  31.435  27.288  1.00  0.00     0.338 C 
ATOM     19  O   UNL A   1      32.717  32.575  27.349  1.00  0.00    -0.246 OA
BRANCH  18  20
ATOM     20  C   UNL A   1      34.556  31.137  27.572  1.00  0.00     0.060 A 
ATOM     21  C   UNL A   1      34.869  29.823  27.895  1.00  0.00     0.016 A 
ATOM     22  C   UNL A   1      35.471  32.159  27.825  1.00  0.00     0.016 A 
ATOM     23  C   UNL A   1      36.013  29.553  28.635  1.00  0.00     0.010 A 
ATOM     24  C   UNL A   1      36.699  31.851  28.432  1.00  0.00     0.010 A 
ATOM     25  C   UNL A   1      36.964  30.550  28.897  1.00  0.00    -0.014 A 
BRANCH  25  26
ATOM     26  C   UNL A   1      38.197  30.219  29.681  1.00  0.00     0.031 A 
ATOM     27  C   UNL A   1      39.279  29.343  29.093  1.00  0.00     0.074 A 
ATOM     28  C   UNL A   1      38.374  30.740  30.914  1.00  0.00     0.049 A 
ATOM     29  N   UNL A   1      40.312  28.794  29.681  1.00  0.00    -0.248 NA
ATOM     30  C   UNL A   1      39.181  29.034  27.658  1.00  0.00     0.031 C 
ATOM     31  C   UNL A   1      37.445  31.649  31.592  1.00  0.00     0.029 A 
ATOM     32  N   UNL A   1      39.405  30.603  31.814  1.00  0.00    -0.354 N 
ATOM     33  C   UNL A   1      40.946  28.021  28.711  1.00  0.00     0.074 A 
ATOM     34  C   UNL A   1      40.178  28.175  27.492  1.00  0.00     0.031 C 
ATOM     35  C   UNL A   1      37.976  32.042  32.756  1.00  0.00     0.029 A 
ATOM     36  C   UNL A   1      39.216  31.311  32.980  1.00  0.00     0.049 A 
ATOM     37  H   UNL A   1      40.202  30.051  31.641  1.00  0.00     0.167 HD
ATOM     38  C   UNL A   1      42.059  27.252  28.831  1.00  0.00     0.034 A 
ATOM     39  C   UNL A   1      39.916  31.329  34.131  1.00  0.00     0.034 A 
ATOM     40  C   UNL A   1      42.847  27.161  30.040  1.00  0.00     0.049 A 
ATOM     41  C   UNL A   1      41.123  30.441  34.254  1.00  0.00     0.074 A 
ATOM     42  C   UNL A   1      43.989  26.412  30.272  1.00  0.00     0.029 A 
ATOM     43  N   UNL A   1      42.587  27.854  31.216  1.00  0.00    -0.354 N 
ATOM     44  N   UNL A   1      41.643  29.631  33.363  1.00  0.00    -0.248 NA
ATOM     45  C   UNL A   1      41.821  30.451  35.544  1.00  0.00     0.031 C 
ATOM     46  C   UNL A   1      44.387  26.611  31.600  1.00  0.00     0.029 A 
ATOM     47  C   UNL A   1      43.535  27.535  32.179  1.00  0.00     0.049 A 
ATOM     48  H   UNL A   1      41.839  28.480  31.347  1.00  0.00     0.167 HD
ATOM     49  C   UNL A   1      42.734  29.036  33.987  1.00  0.00     0.074 A 
ATOM     50  C   UNL A   1      42.813  29.605  35.316  1.00  0.00     0.031 C 
ATOM     51  C   UNL A   1      43.588  28.097  33.508  1.00  0.00     0.034 A 
BRANCH  38  52
ATOM     52  C   UNL A   1      42.453  26.392  27.652  1.00  0.00     0.023 A 
ATOM     53  C   UNL A   1      42.000  25.071  27.493  1.00  0.00     0.031 A 
ATOM     54  C   UNL A   1      43.310  26.914  26.664  1.00  0.00     0.131 A 
ATOM     55  C   UNL A   1      42.450  24.302  26.406  1.00  0.00     0.055 A 
ATOM     56  C   UNL A   1      43.695  26.169  25.547  1.00  0.00     0.041 A 
ATOM     57  F   UNL A   1      43.793  28.163  26.769  1.00  0.00    -0.206 F 
ATOM     58  C   UNL A   1      43.274  24.850  25.420  1.00  0.00     0.022 A 
BRANCH  55  59
ATOM     59  S   UNL A   1      42.041  22.535  26.357  1.00  0.00     0.124 S 
ATOM     60  O   UNL A   1      42.714  22.109  25.133  1.00  0.00    -0.237 OA
ATOM     61  O   UNL A   1      42.614  22.043  27.605  1.00  0.00    -0.237 OA
ATOM     62  O   UNL A   1      40.581  22.520  26.294  1.00  0.00    -0.744 OA
ENDBRANCH  55  59
ENDBRANCH  38  52
BRANCH  39  63
ATOM     63  C   UNL A   1      39.436  32.138  35.290  1.00  0.00     0.023 A 
ATOM     64  C   UNL A   1      39.876  33.454  35.492  1.00  0.00     0.031 A 
ATOM     65  C   UNL A   1      38.545  31.589  36.233  1.00  0.00     0.131 A 
ATOM     66  C   UNL A   1      39.448  34.168  36.625  1.00  0.00     0.055 A 
ATOM     67  C   UNL A   1      38.072  32.323  37.319  1.00  0.00     0.041 A 
ATOM     68  F   UNL A   1      38.098  30.331  36.094  1.00  0.00    -0.206 F 
ATOM     69  C   UNL A   1      38.534  33.619  37.527  1.00  0.00     0.022 A 
BRANCH  66  70
ATOM     70  S   UNL A   1      40.175  35.796  36.954  1.00  0.00     0.124 S 
ATOM     71  O   UNL A   1      39.653  36.586  35.843  1.00  0.00    -0.237 OA
ATOM     72  O   UNL A   1      39.637  36.109  38.272  1.00  0.00    -0.237 OA
ATOM     73  O   UNL A   1      41.614  35.539  36.915  1.00  0.00    -0.744 OA
ENDBRANCH  66  70
ENDBRANCH  39  63
BRANCH  51  74
ATOM     74  C   UNL A   1      44.695  27.663  34.432  1.00  0.00     0.023 A 
ATOM     75  C   UNL A   1      44.563  26.533  35.258  1.00  0.00     0.031 A 
ATOM     76  C   UNL A   1      45.880  28.415  34.519  1.00  0.00     0.131 A 
ATOM     77  C   UNL A   1      45.573  26.221  36.180  1.00  0.00     0.055 A 
ATOM     78  C   UNL A   1      46.905  28.067  35.399  1.00  0.00     0.041 A 
ATOM     79  F   UNL A   1      46.055  29.504  33.754  1.00  0.00    -0.206 F 
ATOM     80  C   UNL A   1      46.749  26.974  36.246  1.00  0.00     0.022 A 
BRANCH  77  81
ATOM     81  S   UNL A   1      45.289  24.873  37.361  1.00  0.00     0.124 S 
ATOM     82  O   UNL A   1      44.575  25.557  38.435  1.00  0.00    -0.237 OA
ATOM     83  O   UNL A   1      44.505  23.928  36.574  1.00  0.00    -0.237 OA
ATOM     84  O   UNL A   1      46.638  24.425  37.701  1.00  0.00    -0.744 OA
ENDBRANCH  77  81
ENDBRANCH  51  74
ENDBRANCH  25  26
ENDBRANCH  18  20
ENDBRANCH  17  18
ENDBRANCH   1  17
TORSDOF 16
ENDMDL
MODEL 3
REMARK VINA RESULT:     -11.5      5.898     10.670
REMARK SMILES Nc1ccc(O)c(C(=O)OCCOC(=O)c2ccc(-c3c4nc(c(-c5cc(S(=O)(=O)[O-])ccc5F)c5ccc([nH]5)c(-c5cc(S(=O)(=O)[O-])ccc5F)c5nc(c(-c6cc(S(=O)(=O)[O-])ccc6F)c6ccc3[nH]6)C=C5)C=C4)cc2)c1
REMARK SMILES IDX 12 1 11 2 10 3 8 4 9 5 7 6 2 7 3 8 79 9 4 10 5 11 1 12 6 15
REMARK SMILES IDX 13 17 14 18 15 19 16 20 17 21 78 22 18 23 77 24 19 25 20 26
REMARK SMILES IDX 21 27 71 28 22 29 76 30 70 31 72 32 23 33 75 34 69 35 68 36
REMARK SMILES IDX 24 38 56 39 36 40 55 41 37 42 40 43 54 44 73 45 38 46 39 47
REMARK SMILES IDX 53 49 74 50 41 51 25 52 26 53 34 54 27 55 33 56 35 57 32 58
REMARK SMILES IDX 28 59 29 60 30 61 31 62 57 63 58 64 66 65 59 66 65 67 67 68
REMARK SMILES IDX 64 69 60 70 61 71 62 72 63 73 42 74 43 75 51 76 44 77 50 78
REMARK SMILES IDX 52 79 49 80 45 81 46 82 47 83 48 84
REMARK H PARENT 1 13 1 14 6 16 72 37 40 48
REMARK Flexibility Score: inf
ROOT
ATOM      1  C   UNL A   1      36.577  20.859  25.120  1.00  0.00     0.275 C 
ENDROOT
BRANCH   1   2
ATOM      2  C   UNL A   1      35.511  21.812  25.670  1.00  0.00     0.275 C 
BRANCH   2   3
ATOM      3  O   UNL A   1      34.526  21.123  26.471  1.00  0.00    -0.458 OA
BRANCH   3   4
ATOM      4  C   UNL A   1      33.233  21.403  26.173  1.00  0.00     0.342 C 
ATOM      5  O   UNL A   1      32.541  22.250  26.717  1.00  0.00    -0.246 OA
BRANCH   4   6
ATOM      6  C   UNL A   1      32.735  20.516  25.102  1.00  0.00     0.103 A 
ATOM      7  C   UNL A   1      32.089  20.233  22.777  1.00  0.00     0.032 A 
ATOM      8  C   UNL A   1      32.215  18.848  22.925  1.00  0.00     0.029 A 
ATOM      9  C   UNL A   1      32.404  21.065  23.857  1.00  0.00     0.045 A 
ATOM     10  C   UNL A   1      32.523  18.292  24.163  1.00  0.00     0.049 A 
ATOM     11  C   UNL A   1      32.741  19.127  25.250  1.00  0.00     0.130 A 
BRANCH   7  12
ATOM     12  N   UNL A   1      31.806  20.769  21.528  1.00  0.00    -0.399 N 
ATOM     13  H   UNL A   1      32.016  21.711  21.337  1.00  0.00     0.156 HD
ATOM     14  H   UNL A   1      31.394  20.206  20.834  1.00  0.00     0.156 HD
ENDBRANCH   7  12
BRANCH  11  15
ATOM     15  O   UNL A   1      32.908  18.498  26.443  1.00  0.00    -0.507 OA
ATOM     16  H   UNL A   1      33.746  18.143  26.670  1.00  0.00     0.293 HD
ENDBRANCH  11  15
ENDBRANCH   4   6
ENDBRANCH   3   4
ENDBRANCH   2   3
ENDBRANCH   1   2
BRANCH   1  17
ATOM     17  O   UNL A   1      37.825  21.535  24.877  1.00  0.00    -0.458 OA
BRANCH  17  18
ATOM     18  C   UNL A   1      38.826  21.186  25.713  1.00  0.00     0.338 C 
ATOM     19  O   UNL A   1      39.405  20.114  25.766  1.00  0.00    -0.246 OA
BRANCH  18  20
ATOM     20  C   UNL A   1      39.267  22.329  26.524  1.00  0.00     0.060 A 
ATOM     21  C   UNL A   1      38.770  23.578  26.175  1.00  0.00     0.016 A 
ATOM     22  C   UNL A   1      40.365  22.224  27.378  1.00  0.00     0.016 A 
ATOM     23  C   UNL A   1      39.476  24.721  26.529  1.00  0.00     0.010 A 
ATOM     24  C   UNL A   1      40.978  23.392  27.860  1.00  0.00     0.010 A 
ATOM     25  C   UNL A   1      40.575  24.658  27.398  1.00  0.00    -0.014 A 
BRANCH  25  26
ATOM     26  C   UNL A   1      41.302  25.913  27.774  1.00  0.00     0.031 A 
ATOM     27  C   UNL A   1      40.638  26.967  28.630  1.00  0.00     0.074 A 
ATOM     28  C   UNL A   1      42.583  26.095  27.386  1.00  0.00     0.049 A 
ATOM     29  N   UNL A   1      41.030  28.189  28.893  1.00  0.00    -0.248 NA
ATOM     30  C   UNL A   1      39.360  26.606  29.262  1.00  0.00     0.031 C 
ATOM     31  C   UNL A   1      43.377  25.140  26.606  1.00  0.00     0.029 A 
ATOM     32  N   UNL A   1      43.456  27.133  27.610  1.00  0.00    -0.354 N 
ATOM     33  C   UNL A   1      40.019  28.764  29.661  1.00  0.00     0.074 A 
ATOM     34  C   UNL A   1      38.995  27.752  29.821  1.00  0.00     0.031 C 
ATOM     35  C   UNL A   1      44.628  25.599  26.482  1.00  0.00     0.029 A 
ATOM     36  C   UNL A   1      44.697  26.940  27.046  1.00  0.00     0.049 A 
ATOM     37  H   UNL A   1      43.216  27.938  28.124  1.00  0.00     0.167 HD
ATOM     38  C   UNL A   1      39.954  30.019  30.175  1.00  0.00     0.034 A 
ATOM     39  C   UNL A   1      45.758  27.763  26.930  1.00  0.00     0.034 A 
ATOM     40  C   UNL A   1      41.016  30.994  30.057  1.00  0.00     0.049 A 
ATOM     41  C   UNL A   1      45.648  29.160  27.475  1.00  0.00     0.074 A 
ATOM     42  C   UNL A   1      41.053  32.292  30.537  1.00  0.00     0.029 A 
ATOM     43  N   UNL A   1      42.235  30.772  29.429  1.00  0.00    -0.354 N 
ATOM     44  N   UNL A   1      44.641  29.724  28.099  1.00  0.00    -0.248 NA
ATOM     45  C   UNL A   1      46.807  30.038  27.277  1.00  0.00     0.031 C 
ATOM     46  C   UNL A   1      42.269  32.871  30.154  1.00  0.00     0.029 A 
ATOM     47  C   UNL A   1      43.021  31.914  29.494  1.00  0.00     0.049 A 
ATOM     48  H   UNL A   1      42.503  29.928  29.000  1.00  0.00     0.167 HD
ATOM     49  C   UNL A   1      45.048  31.025  28.371  1.00  0.00     0.074 A 
ATOM     50  C   UNL A   1      46.402  31.150  27.871  1.00  0.00     0.031 C 
ATOM     51  C   UNL A   1      44.362  32.030  28.971  1.00  0.00     0.034 A 
BRANCH  38  52
ATOM     52  C   UNL A   1      38.668  30.438  30.851  1.00  0.00     0.023 A 
ATOM     53  C   UNL A   1      37.618  31.065  30.157  1.00  0.00     0.031 A 
ATOM     54  C   UNL A   1      38.496  30.204  32.229  1.00  0.00     0.131 A 
ATOM     55  C   UNL A   1      36.472  31.485  30.853  1.00  0.00     0.055 A 
ATOM     56  C   UNL A   1      37.323  30.557  32.900  1.00  0.00     0.041 A 
ATOM     57  F   UNL A   1      39.470  29.627  32.950  1.00  0.00    -0.206 F 
ATOM     58  C   UNL A   1      36.307  31.213  32.214  1.00  0.00     0.022 A 
BRANCH  55  59
ATOM     59  S   UNL A   1      35.245  32.500  29.983  1.00  0.00     0.124 S 
ATOM     60  O   UNL A   1      34.794  31.586  28.936  1.00  0.00    -0.237 OA
ATOM     61  O   UNL A   1      34.277  32.795  31.034  1.00  0.00    -0.237 OA
ATOM     62  O   UNL A   1      36.018  33.646  29.509  1.00  0.00    -0.744 OA
ENDBRANCH  55  59
ENDBRANCH  38  52
BRANCH  39  63
ATOM     63  C   UNL A   1      46.974  27.322  26.185  1.00  0.00     0.023 A 
ATOM     64  C   UNL A   1      47.190  27.702  24.852  1.00  0.00     0.031 A 
ATOM     65  C   UNL A   1      47.927  26.483  26.794  1.00  0.00     0.131 A 
ATOM     66  C   UNL A   1      48.317  27.221  24.163  1.00  0.00     0.055 A 
ATOM     67  C   UNL A   1      49.076  26.062  26.127  1.00  0.00     0.041 A 
ATOM     68  F   UNL A   1      47.766  26.081  28.065  1.00  0.00    -0.206 F 
ATOM     69  C   UNL A   1      49.271  26.422  24.797  1.00  0.00     0.022 A 
BRANCH  66  70
ATOM     70  S   UNL A   1      48.473  27.582  22.392  1.00  0.00     0.124 S 
ATOM     71  O   UNL A   1      47.243  28.321  22.129  1.00  0.00    -0.237 OA
ATOM     72  O   UNL A   1      49.709  28.354  22.347  1.00  0.00    -0.237 OA
ATOM     73  O   UNL A   1      48.546  26.255  21.782  1.00  0.00    -0.744 OA
ENDBRANCH  66  70
ENDBRANCH  39  63
BRANCH  51  74
ATOM     74  C   UNL A   1      45.094  33.335  29.140  1.00  0.00     0.023 A 
ATOM     75  C   UNL A   1      45.859  33.605  30.289  1.00  0.00     0.031 A 
ATOM     76  C   UNL A   1      44.989  34.338  28.161  1.00  0.00     0.131 A 
ATOM     77  C   UNL A   1      46.439  34.871  30.458  1.00  0.00     0.055 A 
ATOM     78  C   UNL A   1      45.615  35.575  28.309  1.00  0.00     0.041 A 
ATOM     79  F   UNL A   1      44.269  34.131  27.047  1.00  0.00    -0.206 F 
ATOM     80  C   UNL A   1      46.334  35.853  29.469  1.00  0.00     0.022 A 
BRANCH  77  81
ATOM     81  S   UNL A   1      47.257  35.251  32.032  1.00  0.00     0.124 S 
ATOM     82  O   UNL A   1      48.461  34.429  31.955  1.00  0.00    -0.237 OA
ATOM     83  O   UNL A   1      47.461  36.692  31.939  1.00  0.00    -0.237 OA
ATOM     84  O   UNL A   1      46.283  34.828  33.036  1.00  0.00    -0.744 OA
ENDBRANCH  77  81
ENDBRANCH  51  74
ENDBRANCH  25  26
ENDBRANCH  18  20
ENDBRANCH  17  18
ENDBRANCH   1  17
TORSDOF 16
ENDMDL
