MODEL 1
REMARK VINA RESULT:     -11.9      0.000      0.000
REMARK SMILES COC(=O)c1ccc(Cl)c(-c2ccc(C(=O)OCCOC(=O)c3ccc(-c4c5nc(c(-c6cc(S(=O)(=O)[O-])ccc6F)c6ccc([nH]6)c(-c6cc(S(=O)(=O)[O-])ccc6F)c6nc(c(-c7cc(S(=O)(=O)[O-])ccc7F)c7ccc4[nH]7)C=C6)C=C5)cc3)nc2)c1
REMARK SMILES IDX 18 1 17 2 15 3 16 4 14 5 11 6 12 7 87 8 13 9 86 10 10 11
REMARK SMILES IDX 5 12 6 13 88 14 7 15 8 16 9 17 3 18 4 19 2 20 1 21 19 22
REMARK SMILES IDX 20 23 21 24 22 25 23 26 24 27 85 28 25 29 84 30 26 31 27 32
REMARK SMILES IDX 28 33 78 34 29 35 83 36 77 37 79 38 30 39 82 40 76 41 75 42
REMARK SMILES IDX 31 44 63 45 43 46 62 47 44 48 47 49 61 50 80 51 45 52 46 53
REMARK SMILES IDX 60 55 81 56 48 57 32 58 33 59 41 60 34 61 40 62 42 63 39 64
REMARK SMILES IDX 35 65 36 66 37 67 38 68 64 69 65 70 73 71 66 72 72 73 74 74
REMARK SMILES IDX 71 75 67 76 68 77 69 78 70 79 49 80 50 81 58 82 51 83 57 84
REMARK SMILES IDX 59 85 56 86 52 87 53 88 54 89 55 90
REMARK H PARENT 79 43 47 54
REMARK Flexibility Score: inf
ROOT
ATOM      1  C   UNL A   1      34.980  21.113  25.430  1.00  0.00     0.275 C 
ENDROOT
BRANCH   1   2
ATOM      2  O   UNL A   1      34.001  20.901  24.393  1.00  0.00    -0.457 OA
BRANCH   2   3
ATOM      3  C   UNL A   1      32.704  21.043  24.782  1.00  0.00     0.357 C 
ATOM      4  O   UNL A   1      31.967  20.125  25.110  1.00  0.00    -0.244 OA
BRANCH   3   5
ATOM      5  C   UNL A   1      32.311  22.488  24.853  1.00  0.00     0.148 A 
ATOM      6  C   UNL A   1      31.594  25.160  24.748  1.00  0.00     0.002 A 
ATOM      7  C   UNL A   1      31.320  24.404  25.896  1.00  0.00     0.013 A 
ATOM      8  C   UNL A   1      32.233  24.500  23.704  1.00  0.00     0.120 A 
ATOM      9  C   UNL A   1      31.670  23.049  25.950  1.00  0.00     0.037 A 
ATOM     10  N   UNL A   1      32.622  23.209  23.746  1.00  0.00    -0.249 NA
BRANCH   6  11
ATOM     11  C   UNL A   1      31.293  26.592  24.634  1.00  0.00     0.003 A 
ATOM     12  C   UNL A   1      29.974  28.381  23.612  1.00  0.00     0.060 A 
ATOM     13  C   UNL A   1      30.820  29.342  24.173  1.00  0.00     0.017 A 
ATOM     14  C   UNL A   1      30.199  27.018  23.853  1.00  0.00     0.026 A 
ATOM     15  C   UNL A   1      31.891  28.939  24.970  1.00  0.00     0.022 A 
ATOM     16  C   UNL A   1      32.127  27.579  25.197  1.00  0.00     0.048 A 
ATOM     17  Cl  UNL A   1      33.505  27.165  26.162  1.00  0.00    -0.084 Cl
BRANCH  12  18
ATOM     18  C   UNL A   1      28.827  28.775  22.759  1.00  0.00     0.337 C 
ATOM     19  O   UNL A   1      27.672  28.540  23.047  1.00  0.00    -0.246 OA
BRANCH  18  20
ATOM     20  O   UNL A   1      29.291  29.371  21.631  1.00  0.00    -0.465 OA
ATOM     21  C   UNL A   1      28.754  30.676  21.402  1.00  0.00     0.282 C 
ENDBRANCH  18  20
ENDBRANCH  12  18
ENDBRANCH   6  11
ENDBRANCH   3   5
ENDBRANCH   2   3
ENDBRANCH   1   2
BRANCH   1  22
ATOM     22  C   UNL A   1      36.343  20.524  25.052  1.00  0.00     0.275 C 
BRANCH  22  23
ATOM     23  O   UNL A   1      37.377  21.528  25.004  1.00  0.00    -0.458 OA
BRANCH  23  24
ATOM     24  C   UNL A   1      38.515  21.201  25.661  1.00  0.00     0.338 C 
ATOM     25  O   UNL A   1      39.042  20.102  25.711  1.00  0.00    -0.246 OA
BRANCH  24  26
ATOM     26  C   UNL A   1      39.128  22.405  26.245  1.00  0.00     0.060 A 
ATOM     27  C   UNL A   1      38.496  23.623  26.016  1.00  0.00     0.016 A 
ATOM     28  C   UNL A   1      40.363  22.371  26.894  1.00  0.00     0.016 A 
ATOM     29  C   UNL A   1      39.103  24.819  26.377  1.00  0.00     0.010 A 
ATOM     30  C   UNL A   1      40.955  23.576  27.305  1.00  0.00     0.010 A 
ATOM     31  C   UNL A   1      40.340  24.812  27.031  1.00  0.00    -0.014 A 
BRANCH  31  32
ATOM     32  C   UNL A   1      40.988  26.108  27.378  1.00  0.00     0.031 A 
ATOM     33  C   UNL A   1      42.376  26.415  26.884  1.00  0.00     0.074 A 
ATOM     34  C   UNL A   1      40.312  27.030  28.093  1.00  0.00     0.049 A 
ATOM     35  N   UNL A   1      43.145  27.439  27.151  1.00  0.00    -0.248 NA
ATOM     36  C   UNL A   1      42.980  25.432  25.972  1.00  0.00     0.031 C 
ATOM     37  C   UNL A   1      38.936  26.879  28.575  1.00  0.00     0.029 A 
ATOM     38  N   UNL A   1      40.679  28.277  28.532  1.00  0.00    -0.354 N 
ATOM     39  C   UNL A   1      44.335  27.213  26.467  1.00  0.00     0.074 A 
ATOM     40  C   UNL A   1      44.192  25.939  25.794  1.00  0.00     0.031 C 
ATOM     41  C   UNL A   1      38.572  27.997  29.221  1.00  0.00     0.029 A 
ATOM     42  C   UNL A   1      39.707  28.913  29.271  1.00  0.00     0.049 A 
ATOM     43  H   UNL A   1      41.556  28.680  28.336  1.00  0.00     0.167 HD
ATOM     44  C   UNL A   1      45.441  27.998  26.406  1.00  0.00     0.034 A 
ATOM     45  C   UNL A   1      39.736  30.078  29.947  1.00  0.00     0.034 A 
ATOM     46  C   UNL A   1      45.557  29.275  27.071  1.00  0.00     0.049 A 
ATOM     47  C   UNL A   1      41.004  30.893  29.932  1.00  0.00     0.074 A 
ATOM     48  C   UNL A   1      46.626  30.155  27.067  1.00  0.00     0.029 A 
ATOM     49  N   UNL A   1      44.572  29.855  27.863  1.00  0.00    -0.354 N 
ATOM     50  N   UNL A   1      42.135  30.649  29.310  1.00  0.00    -0.248 NA
ATOM     51  C   UNL A   1      41.002  32.135  30.714  1.00  0.00     0.031 C 
ATOM     52  C   UNL A   1      46.316  31.229  27.910  1.00  0.00     0.029 A 
ATOM     53  C   UNL A   1      45.023  31.062  28.378  1.00  0.00     0.049 A 
ATOM     54  H   UNL A   1      43.685  29.466  28.033  1.00  0.00     0.167 HD
ATOM     55  C   UNL A   1      42.971  31.721  29.612  1.00  0.00     0.074 A 
ATOM     56  C   UNL A   1      42.206  32.620  30.451  1.00  0.00     0.031 C 
ATOM     57  C   UNL A   1      44.254  31.943  29.228  1.00  0.00     0.034 A 
BRANCH  44  58
ATOM     58  C   UNL A   1      46.633  27.464  25.646  1.00  0.00     0.023 A 
ATOM     59  C   UNL A   1      46.961  27.916  24.356  1.00  0.00     0.031 A 
ATOM     60  C   UNL A   1      47.440  26.462  26.215  1.00  0.00     0.131 A 
ATOM     61  C   UNL A   1      48.020  27.319  23.653  1.00  0.00     0.055 A 
ATOM     62  C   UNL A   1      48.541  25.928  25.542  1.00  0.00     0.041 A 
ATOM     63  F   UNL A   1      47.165  25.974  27.435  1.00  0.00    -0.206 F 
ATOM     64  C   UNL A   1      48.827  26.345  24.246  1.00  0.00     0.022 A 
BRANCH  61  65
ATOM     65  S   UNL A   1      48.241  27.732  21.900  1.00  0.00     0.124 S 
ATOM     66  O   UNL A   1      48.529  26.420  21.324  1.00  0.00    -0.237 OA
ATOM     67  O   UNL A   1      46.954  28.318  21.548  1.00  0.00    -0.237 OA
ATOM     68  O   UNL A   1      49.370  28.662  21.907  1.00  0.00    -0.744 OA
ENDBRANCH  61  65
ENDBRANCH  44  58
BRANCH  45  69
ATOM     69  C   UNL A   1      38.557  30.516  30.750  1.00  0.00     0.023 A 
ATOM     70  C   UNL A   1      37.518  31.263  30.172  1.00  0.00     0.031 A 
ATOM     71  C   UNL A   1      38.478  30.233  32.126  1.00  0.00     0.131 A 
ATOM     72  C   UNL A   1      36.466  31.734  30.975  1.00  0.00     0.055 A 
ATOM     73  C   UNL A   1      37.400  30.652  32.907  1.00  0.00     0.041 A 
ATOM     74  F   UNL A   1      39.447  29.530  32.733  1.00  0.00    -0.206 F 
ATOM     75  C   UNL A   1      36.391  31.420  32.334  1.00  0.00     0.022 A 
BRANCH  72  76
ATOM     76  S   UNL A   1      35.239  32.847  30.235  1.00  0.00     0.124 S 
ATOM     77  O   UNL A   1      34.502  33.299  31.408  1.00  0.00    -0.237 OA
ATOM     78  O   UNL A   1      36.085  33.842  29.585  1.00  0.00    -0.237 OA
ATOM     79  O   UNL A   1      34.494  31.976  29.327  1.00  0.00    -0.744 OA
ENDBRANCH  72  76
ENDBRANCH  45  69
BRANCH  57  80
ATOM     80  C   UNL A   1      44.891  33.233  29.685  1.00  0.00     0.023 A 
ATOM     81  C   UNL A   1      44.850  34.399  28.899  1.00  0.00     0.031 A 
ATOM     82  C   UNL A   1      45.565  33.290  30.917  1.00  0.00     0.131 A 
ATOM     83  C   UNL A   1      45.520  35.554  29.328  1.00  0.00     0.055 A 
ATOM     84  C   UNL A   1      46.177  34.461  31.368  1.00  0.00     0.041 A 
ATOM     85  F   UNL A   1      45.639  32.207  31.707  1.00  0.00    -0.206 F 
ATOM     86  C   UNL A   1      46.167  35.598  30.566  1.00  0.00     0.022 A 
BRANCH  83  87
ATOM     87  S   UNL A   1      45.612  36.976  28.205  1.00  0.00     0.124 S 
ATOM     88  O   UNL A   1      46.795  37.675  28.696  1.00  0.00    -0.237 OA
ATOM     89  O   UNL A   1      45.745  36.337  26.900  1.00  0.00    -0.237 OA
ATOM     90  O   UNL A   1      44.345  37.671  28.427  1.00  0.00    -0.744 OA
ENDBRANCH  83  87
ENDBRANCH  57  80
ENDBRANCH  31  32
ENDBRANCH  24  26
ENDBRANCH  23  24
ENDBRANCH  22  23
ENDBRANCH   1  22
TORSDOF 17
ENDMDL
MODEL 2
REMARK VINA RESULT:     -11.8      0.561      7.562
REMARK SMILES COC(=O)c1ccc(Cl)c(-c2ccc(C(=O)OCCOC(=O)c3ccc(-c4c5nc(c(-c6cc(S(=O)(=O)[O-])ccc6F)c6ccc([nH]6)c(-c6cc(S(=O)(=O)[O-])ccc6F)c6nc(c(-c7cc(S(=O)(=O)[O-])ccc7F)c7ccc4[nH]7)C=C6)C=C5)cc3)nc2)c1
REMARK SMILES IDX 18 1 17 2 15 3 16 4 14 5 11 6 12 7 87 8 13 9 86 10 10 11
REMARK SMILES IDX 5 12 6 13 88 14 7 15 8 16 9 17 3 18 4 19 2 20 1 21 19 22
REMARK SMILES IDX 20 23 21 24 22 25 23 26 24 27 85 28 25 29 84 30 26 31 27 32
REMARK SMILES IDX 28 33 78 34 29 35 83 36 77 37 79 38 30 39 82 40 76 41 75 42
REMARK SMILES IDX 31 44 63 45 43 46 62 47 44 48 47 49 61 50 80 51 45 52 46 53
REMARK SMILES IDX 60 55 81 56 48 57 32 58 33 59 41 60 34 61 40 62 42 63 39 64
REMARK SMILES IDX 35 65 36 66 37 67 38 68 64 69 65 70 73 71 66 72 72 73 74 74
REMARK SMILES IDX 71 75 67 76 68 77 69 78 70 79 49 80 50 81 58 82 51 83 57 84
REMARK SMILES IDX 59 85 56 86 52 87 53 88 54 89 55 90
REMARK H PARENT 79 43 47 54
REMARK Flexibility Score: inf
ROOT
ATOM      1  C   UNL A   1      34.971  20.404  25.140  1.00  0.00     0.275 C 
ENDROOT
BRANCH   1   2
ATOM      2  O   UNL A   1      34.019  21.041  24.265  1.00  0.00    -0.457 OA
BRANCH   2   3
ATOM      3  C   UNL A   1      32.796  21.281  24.813  1.00  0.00     0.357 C 
ATOM      4  O   UNL A   1      32.072  20.432  25.309  1.00  0.00    -0.244 OA
BRANCH   3   5
ATOM      5  C   UNL A   1      32.481  22.747  24.822  1.00  0.00     0.148 A 
ATOM      6  C   UNL A   1      31.729  25.408  24.680  1.00  0.00     0.002 A 
ATOM      7  C   UNL A   1      32.455  24.941  25.785  1.00  0.00     0.013 A 
ATOM      8  C   UNL A   1      31.428  24.477  23.692  1.00  0.00     0.120 A 
ATOM      9  C   UNL A   1      32.828  23.593  25.867  1.00  0.00     0.037 A 
ATOM     10  N   UNL A   1      31.813  23.184  23.724  1.00  0.00    -0.249 NA
BRANCH   6  11
ATOM     11  C   UNL A   1      31.338  26.812  24.506  1.00  0.00     0.003 A 
ATOM     12  C   UNL A   1      29.826  28.459  23.513  1.00  0.00     0.060 A 
ATOM     13  C   UNL A   1      30.668  29.497  23.921  1.00  0.00     0.017 A 
ATOM     14  C   UNL A   1      30.150  27.128  23.816  1.00  0.00     0.026 A 
ATOM     15  C   UNL A   1      31.834  29.204  24.628  1.00  0.00     0.022 A 
ATOM     16  C   UNL A   1      32.168  27.876  24.916  1.00  0.00     0.048 A 
ATOM     17  Cl  UNL A   1      33.655  27.598  25.758  1.00  0.00    -0.084 Cl
BRANCH  12  18
ATOM     18  C   UNL A   1      28.579  28.734  22.759  1.00  0.00     0.337 C 
ATOM     19  O   UNL A   1      27.485  28.357  23.121  1.00  0.00    -0.246 OA
BRANCH  18  20
ATOM     20  O   UNL A   1      28.883  29.411  21.622  1.00  0.00    -0.465 OA
ATOM     21  C   UNL A   1      28.040  30.539  21.375  1.00  0.00     0.282 C 
ENDBRANCH  18  20
ENDBRANCH  12  18
ENDBRANCH   6  11
ENDBRANCH   3   5
ENDBRANCH   2   3
ENDBRANCH   1   2
BRANCH   1  22
ATOM     22  C   UNL A   1      35.879  21.425  25.832  1.00  0.00     0.275 C 
BRANCH  22  23
ATOM     23  O   UNL A   1      37.028  21.765  25.031  1.00  0.00    -0.458 OA
BRANCH  23  24
ATOM     24  C   UNL A   1      38.215  21.355  25.539  1.00  0.00     0.338 C 
ATOM     25  O   UNL A   1      38.700  20.238  25.456  1.00  0.00    -0.246 OA
BRANCH  24  26
ATOM     26  C   UNL A   1      38.934  22.493  26.135  1.00  0.00     0.060 A 
ATOM     27  C   UNL A   1      38.415  23.765  25.915  1.00  0.00     0.016 A 
ATOM     28  C   UNL A   1      40.158  22.340  26.785  1.00  0.00     0.016 A 
ATOM     29  C   UNL A   1      39.128  24.897  26.289  1.00  0.00     0.010 A 
ATOM     30  C   UNL A   1      40.856  23.482  27.208  1.00  0.00     0.010 A 
ATOM     31  C   UNL A   1      40.357  24.772  26.945  1.00  0.00    -0.014 A 
BRANCH  31  32
ATOM     32  C   UNL A   1      41.120  26.000  27.305  1.00  0.00     0.031 A 
ATOM     33  C   UNL A   1      40.492  27.050  28.180  1.00  0.00     0.074 A 
ATOM     34  C   UNL A   1      42.394  26.149  26.889  1.00  0.00     0.049 A 
ATOM     35  N   UNL A   1      40.952  28.225  28.530  1.00  0.00    -0.248 NA
ATOM     36  C   UNL A   1      39.164  26.738  28.731  1.00  0.00     0.031 C 
ATOM     37  C   UNL A   1      43.139  25.171  26.090  1.00  0.00     0.029 A 
ATOM     38  N   UNL A   1      43.293  27.167  27.084  1.00  0.00    -0.354 N 
ATOM     39  C   UNL A   1      39.961  28.806  29.315  1.00  0.00     0.074 A 
ATOM     40  C   UNL A   1      38.865  27.862  29.367  1.00  0.00     0.031 C 
ATOM     41  C   UNL A   1      44.383  25.629  25.884  1.00  0.00     0.029 A 
ATOM     42  C   UNL A   1      44.505  26.962  26.464  1.00  0.00     0.049 A 
ATOM     43  H   UNL A   1      43.091  27.969  27.618  1.00  0.00     0.167 HD
ATOM     44  C   UNL A   1      39.970  30.013  29.934  1.00  0.00     0.034 A 
ATOM     45  C   UNL A   1      45.577  27.768  26.339  1.00  0.00     0.034 A 
ATOM     46  C   UNL A   1      41.082  30.934  29.884  1.00  0.00     0.049 A 
ATOM     47  C   UNL A   1      45.531  29.138  26.967  1.00  0.00     0.074 A 
ATOM     48  C   UNL A   1      41.200  32.177  30.483  1.00  0.00     0.029 A 
ATOM     49  N   UNL A   1      42.268  30.716  29.192  1.00  0.00    -0.354 N 
ATOM     50  N   UNL A   1      44.573  29.689  27.677  1.00  0.00    -0.248 NA
ATOM     51  C   UNL A   1      46.707  29.995  26.772  1.00  0.00     0.031 C 
ATOM     52  C   UNL A   1      42.423  32.738  30.097  1.00  0.00     0.029 A 
ATOM     53  C   UNL A   1      43.106  31.814  29.322  1.00  0.00     0.049 A 
ATOM     54  H   UNL A   1      42.482  29.901  28.684  1.00  0.00     0.167 HD
ATOM     55  C   UNL A   1      45.042  30.952  28.029  1.00  0.00     0.074 A 
ATOM     56  C   UNL A   1      46.375  31.069  27.473  1.00  0.00     0.031 C 
ATOM     57  C   UNL A   1      44.428  31.925  28.749  1.00  0.00     0.034 A 
BRANCH  44  58
ATOM     58  C   UNL A   1      38.714  30.432  30.663  1.00  0.00     0.023 A 
ATOM     59  C   UNL A   1      37.671  31.121  30.021  1.00  0.00     0.031 A 
ATOM     60  C   UNL A   1      38.573  30.159  32.036  1.00  0.00     0.131 A 
ATOM     61  C   UNL A   1      36.569  31.575  30.765  1.00  0.00     0.055 A 
ATOM     62  C   UNL A   1      37.438  30.543  32.753  1.00  0.00     0.041 A 
ATOM     63  F   UNL A   1      39.544  29.523  32.710  1.00  0.00    -0.206 F 
ATOM     64  C   UNL A   1      36.434  31.269  32.121  1.00  0.00     0.022 A 
BRANCH  61  65
ATOM     65  S   UNL A   1      35.382  32.691  29.966  1.00  0.00     0.124 S 
ATOM     66  O   UNL A   1      34.425  32.922  31.046  1.00  0.00    -0.237 OA
ATOM     67  O   UNL A   1      36.216  33.827  29.595  1.00  0.00    -0.237 OA
ATOM     68  O   UNL A   1      34.868  31.901  28.847  1.00  0.00    -0.744 OA
ENDBRANCH  61  65
ENDBRANCH  44  58
BRANCH  45  69
ATOM     69  C   UNL A   1      46.759  27.336  25.537  1.00  0.00     0.023 A 
ATOM     70  C   UNL A   1      46.972  27.817  24.235  1.00  0.00     0.031 A 
ATOM     71  C   UNL A   1      47.670  26.392  26.047  1.00  0.00     0.131 A 
ATOM     72  C   UNL A   1      48.044  27.323  23.474  1.00  0.00     0.055 A 
ATOM     73  C   UNL A   1      48.769  25.950  25.309  1.00  0.00     0.041 A 
ATOM     74  F   UNL A   1      47.510  25.892  27.283  1.00  0.00    -0.206 F 
ATOM     75  C   UNL A   1      48.953  26.406  24.008  1.00  0.00     0.022 A 
BRANCH  72  76
ATOM     76  S   UNL A   1      48.183  27.828  21.737  1.00  0.00     0.124 S 
ATOM     77  O   UNL A   1      46.939  28.564  21.541  1.00  0.00    -0.237 OA
ATOM     78  O   UNL A   1      49.405  28.624  21.749  1.00  0.00    -0.237 OA
ATOM     79  O   UNL A   1      48.276  26.557  21.020  1.00  0.00    -0.744 OA
ENDBRANCH  72  76
ENDBRANCH  45  69
BRANCH  57  80
ATOM     80  C   UNL A   1      45.217  33.186  29.006  1.00  0.00     0.023 A 
ATOM     81  C   UNL A   1      45.091  34.320  28.183  1.00  0.00     0.031 A 
ATOM     82  C   UNL A   1      46.124  33.246  30.079  1.00  0.00     0.131 A 
ATOM     83  C   UNL A   1      45.899  35.444  28.414  1.00  0.00     0.055 A 
ATOM     84  C   UNL A   1      46.880  34.390  30.341  1.00  0.00     0.041 A 
ATOM     85  F   UNL A   1      46.288  32.192  30.895  1.00  0.00    -0.206 F 
ATOM     86  C   UNL A   1      46.779  35.492  29.498  1.00  0.00     0.022 A 
BRANCH  83  87
ATOM     87  S   UNL A   1      45.851  36.810  27.222  1.00  0.00     0.124 S 
ATOM     88  O   UNL A   1      44.433  36.870  26.884  1.00  0.00    -0.237 OA
ATOM     89  O   UNL A   1      46.368  37.928  28.005  1.00  0.00    -0.237 OA
ATOM     90  O   UNL A   1      46.727  36.354  26.143  1.00  0.00    -0.744 OA
ENDBRANCH  83  87
ENDBRANCH  57  80
ENDBRANCH  31  32
ENDBRANCH  24  26
ENDBRANCH  23  24
ENDBRANCH  22  23
ENDBRANCH   1  22
TORSDOF 17
ENDMDL
MODEL 3
REMARK VINA RESULT:     -11.8      1.650      2.231
REMARK SMILES COC(=O)c1ccc(Cl)c(-c2ccc(C(=O)OCCOC(=O)c3ccc(-c4c5nc(c(-c6cc(S(=O)(=O)[O-])ccc6F)c6ccc([nH]6)c(-c6cc(S(=O)(=O)[O-])ccc6F)c6nc(c(-c7cc(S(=O)(=O)[O-])ccc7F)c7ccc4[nH]7)C=C6)C=C5)cc3)nc2)c1
REMARK SMILES IDX 18 1 17 2 15 3 16 4 14 5 11 6 12 7 87 8 13 9 86 10 10 11
REMARK SMILES IDX 5 12 6 13 88 14 7 15 8 16 9 17 3 18 4 19 2 20 1 21 19 22
REMARK SMILES IDX 20 23 21 24 22 25 23 26 24 27 85 28 25 29 84 30 26 31 27 32
REMARK SMILES IDX 28 33 78 34 29 35 83 36 77 37 79 38 30 39 82 40 76 41 75 42
REMARK SMILES IDX 31 44 63 45 43 46 62 47 44 48 47 49 61 50 80 51 45 52 46 53
REMARK SMILES IDX 60 55 81 56 48 57 32 58 33 59 41 60 34 61 40 62 42 63 39 64
REMARK SMILES IDX 35 65 36 66 37 67 38 68 64 69 65 70 73 71 66 72 72 73 74 74
REMARK SMILES IDX 71 75 67 76 68 77 69 78 70 79 49 80 50 81 58 82 51 83 57 84
REMARK SMILES IDX 59 85 56 86 52 87 53 88 54 89 55 90
REMARK H PARENT 79 43 47 54
REMARK Flexibility Score: inf
ROOT
ATOM      1  C   UNL A   1      35.785  20.339  25.000  1.00  0.00     0.275 C 
ENDROOT
BRANCH   1   2
ATOM      2  O   UNL A   1      35.390  21.638  24.516  1.00  0.00    -0.457 OA
BRANCH   2   3
ATOM      3  C   UNL A   1      34.051  21.886  24.543  1.00  0.00     0.357 C 
ATOM      4  O   UNL A   1      33.182  21.030  24.600  1.00  0.00    -0.244 OA
BRANCH   3   5
ATOM      5  C   UNL A   1      33.770  23.357  24.592  1.00  0.00     0.148 A 
ATOM      6  C   UNL A   1      33.218  26.051  24.914  1.00  0.00     0.002 A 
ATOM      7  C   UNL A   1      33.911  25.608  23.779  1.00  0.00     0.013 A 
ATOM      8  C   UNL A   1      32.834  25.079  25.831  1.00  0.00     0.120 A 
ATOM      9  C   UNL A   1      34.203  24.248  23.617  1.00  0.00     0.037 A 
ATOM     10  N   UNL A   1      33.063  23.758  25.679  1.00  0.00    -0.249 NA
BRANCH   6  11
ATOM     11  C   UNL A   1      32.841  27.453  25.133  1.00  0.00     0.003 A 
ATOM     12  C   UNL A   1      33.214  29.563  26.313  1.00  0.00     0.060 A 
ATOM     13  C   UNL A   1      32.025  30.080  25.792  1.00  0.00     0.017 A 
ATOM     14  C   UNL A   1      33.628  28.266  25.975  1.00  0.00     0.026 A 
ATOM     15  C   UNL A   1      31.249  29.299  24.936  1.00  0.00     0.022 A 
ATOM     16  C   UNL A   1      31.650  27.998  24.612  1.00  0.00     0.048 A 
ATOM     17  Cl  UNL A   1      30.605  27.082  23.578  1.00  0.00    -0.084 Cl
BRANCH  12  18
ATOM     18  C   UNL A   1      34.064  30.366  27.227  1.00  0.00     0.337 C 
ATOM     19  O   UNL A   1      33.658  31.335  27.833  1.00  0.00    -0.246 OA
BRANCH  18  20
ATOM     20  O   UNL A   1      35.326  29.867  27.219  1.00  0.00    -0.465 OA
ATOM     21  C   UNL A   1      35.889  29.693  28.522  1.00  0.00     0.282 C 
ENDBRANCH  18  20
ENDBRANCH  12  18
ENDBRANCH   6  11
ENDBRANCH   3   5
ENDBRANCH   2   3
ENDBRANCH   1   2
BRANCH   1  22
ATOM     22  C   UNL A   1      37.307  20.166  24.986  1.00  0.00     0.275 C 
BRANCH  22  23
ATOM     23  O   UNL A   1      37.996  21.352  25.426  1.00  0.00    -0.458 OA
BRANCH  23  24
ATOM     24  C   UNL A   1      39.132  21.122  26.127  1.00  0.00     0.338 C 
ATOM     25  O   UNL A   1      39.703  20.052  26.263  1.00  0.00    -0.246 OA
BRANCH  24  26
ATOM     26  C   UNL A   1      39.680  22.388  26.637  1.00  0.00     0.060 A 
ATOM     27  C   UNL A   1      39.120  23.569  26.159  1.00  0.00     0.016 A 
ATOM     28  C   UNL A   1      40.803  22.433  27.465  1.00  0.00     0.016 A 
ATOM     29  C   UNL A   1      39.697  24.799  26.452  1.00  0.00     0.010 A 
ATOM     30  C   UNL A   1      41.357  23.678  27.802  1.00  0.00     0.010 A 
ATOM     31  C   UNL A   1      40.821  24.871  27.281  1.00  0.00    -0.014 A 
BRANCH  31  32
ATOM     32  C   UNL A   1      41.442  26.198  27.553  1.00  0.00     0.031 A 
ATOM     33  C   UNL A   1      42.787  26.536  26.968  1.00  0.00     0.074 A 
ATOM     34  C   UNL A   1      40.778  27.117  28.282  1.00  0.00     0.049 A 
ATOM     35  N   UNL A   1      43.534  27.593  27.160  1.00  0.00    -0.248 NA
ATOM     36  C   UNL A   1      43.370  25.548  26.048  1.00  0.00     0.031 C 
ATOM     37  C   UNL A   1      39.438  26.934  28.850  1.00  0.00     0.029 A 
ATOM     38  N   UNL A   1      41.126  28.388  28.663  1.00  0.00    -0.354 N 
ATOM     39  C   UNL A   1      44.688  27.387  26.412  1.00  0.00     0.074 A 
ATOM     40  C   UNL A   1      44.551  26.090  25.784  1.00  0.00     0.031 C 
ATOM     41  C   UNL A   1      39.074  28.058  29.486  1.00  0.00     0.029 A 
ATOM     42  C   UNL A   1      40.177  29.012  29.442  1.00  0.00     0.049 A 
ATOM     43  H   UNL A   1      41.974  28.815  28.405  1.00  0.00     0.167 HD
ATOM     44  C   UNL A   1      45.760  28.207  26.263  1.00  0.00     0.034 A 
ATOM     45  C   UNL A   1      40.205  30.197  30.083  1.00  0.00     0.034 A 
ATOM     46  C   UNL A   1      45.870  29.506  26.885  1.00  0.00     0.049 A 
ATOM     47  C   UNL A   1      41.441  31.053  29.970  1.00  0.00     0.074 A 
ATOM     48  C   UNL A   1      46.905  30.421  26.792  1.00  0.00     0.029 A 
ATOM     49  N   UNL A   1      44.915  30.075  27.719  1.00  0.00    -0.354 N 
ATOM     50  N   UNL A   1      42.541  30.830  29.287  1.00  0.00    -0.248 NA
ATOM     51  C   UNL A   1      41.441  32.317  30.716  1.00  0.00     0.031 C 
ATOM     52  C   UNL A   1      46.608  31.509  27.623  1.00  0.00     0.029 A 
ATOM     53  C   UNL A   1      45.351  31.312  28.173  1.00  0.00     0.049 A 
ATOM     54  H   UNL A   1      44.053  29.662  27.952  1.00  0.00     0.167 HD
ATOM     55  C   UNL A   1      43.355  31.938  29.509  1.00  0.00     0.074 A 
ATOM     56  C   UNL A   1      42.609  32.835  30.367  1.00  0.00     0.031 C 
ATOM     57  C   UNL A   1      44.604  32.191  29.042  1.00  0.00     0.034 A 
BRANCH  44  58
ATOM     58  C   UNL A   1      46.923  27.692  25.448  1.00  0.00     0.023 A 
ATOM     59  C   UNL A   1      47.132  28.080  24.113  1.00  0.00     0.031 A 
ATOM     60  C   UNL A   1      47.826  26.770  26.011  1.00  0.00     0.131 A 
ATOM     61  C   UNL A   1      48.170  27.497  23.368  1.00  0.00     0.055 A 
ATOM     62  C   UNL A   1      48.903  26.255  25.289  1.00  0.00     0.041 A 
ATOM     63  F   UNL A   1      47.667  26.344  27.274  1.00  0.00    -0.206 F 
ATOM     64  C   UNL A   1      49.072  26.606  23.954  1.00  0.00     0.022 A 
BRANCH  61  65
ATOM     65  S   UNL A   1      48.241  27.813  21.583  1.00  0.00     0.124 S 
ATOM     66  O   UNL A   1      48.651  26.508  21.070  1.00  0.00    -0.237 OA
ATOM     67  O   UNL A   1      46.874  28.220  21.279  1.00  0.00    -0.237 OA
ATOM     68  O   UNL A   1      49.248  28.867  21.460  1.00  0.00    -0.744 OA
ENDBRANCH  61  65
ENDBRANCH  44  58
BRANCH  45  69
ATOM     69  C   UNL A   1      39.061  30.618  30.943  1.00  0.00     0.023 A 
ATOM     70  C   UNL A   1      38.029  31.426  30.440  1.00  0.00     0.031 A 
ATOM     71  C   UNL A   1      39.010  30.256  32.302  1.00  0.00     0.131 A 
ATOM     72  C   UNL A   1      37.013  31.878  31.298  1.00  0.00     0.055 A 
ATOM     73  C   UNL A   1      37.966  30.658  33.137  1.00  0.00     0.041 A 
ATOM     74  F   UNL A   1      39.975  29.492  32.839  1.00  0.00    -0.206 F 
ATOM     75  C   UNL A   1      36.965  31.485  32.638  1.00  0.00     0.022 A 
BRANCH  72  76
ATOM     76  S   UNL A   1      35.799  33.065  30.659  1.00  0.00     0.124 S 
ATOM     77  O   UNL A   1      36.039  34.223  31.512  1.00  0.00    -0.237 OA
ATOM     78  O   UNL A   1      36.209  33.199  29.266  1.00  0.00    -0.237 OA
ATOM     79  O   UNL A   1      34.520  32.390  30.869  1.00  0.00    -0.744 OA
ENDBRANCH  72  76
ENDBRANCH  45  69
BRANCH  57  80
ATOM     80  C   UNL A   1      45.221  33.515  29.425  1.00  0.00     0.023 A 
ATOM     81  C   UNL A   1      45.130  34.643  28.590  1.00  0.00     0.031 A 
ATOM     82  C   UNL A   1      45.927  33.642  30.634  1.00  0.00     0.131 A 
ATOM     83  C   UNL A   1      45.782  35.832  28.950  1.00  0.00     0.055 A 
ATOM     84  C   UNL A   1      46.521  34.846  31.016  1.00  0.00     0.041 A 
ATOM     85  F   UNL A   1      46.049  32.597  31.467  1.00  0.00    -0.206 F 
ATOM     86  C   UNL A   1      46.462  35.946  30.165  1.00  0.00     0.022 A 
BRANCH  83  87
ATOM     87  S   UNL A   1      45.808  37.204  27.764  1.00  0.00     0.124 S 
ATOM     88  O   UNL A   1      44.912  38.168  28.394  1.00  0.00    -0.237 OA
ATOM     89  O   UNL A   1      47.221  37.570  27.738  1.00  0.00    -0.237 OA
ATOM     90  O   UNL A   1      45.302  36.602  26.531  1.00  0.00    -0.744 OA
ENDBRANCH  83  87
ENDBRANCH  57  80
ENDBRANCH  31  32
ENDBRANCH  24  26
ENDBRANCH  23  24
ENDBRANCH  22  23
ENDBRANCH   1  22
TORSDOF 17
ENDMDL
