MODEL 1
REMARK VINA RESULT:     -11.2      0.000      0.000
REMARK SMILES CCOC(=O)c1sc(NC(=O)CCC(=O)OCCOC(=O)c2ccc(-c3c4nc(c(-c5cc(S(=O)(=O)[O-])ccc5F)c5ccc([nH]5)c(-c5cc(S(=O)(=O)[O-])ccc5F)c5nc(c(-c6cc(S(=O)(=O)[O-])ccc6F)c6ccc3[nH]6)C=C5)C=C4)cc2)c(C#N)c1C
REMARK SMILES IDX 16 1 14 2 15 3 13 4 12 5 10 6 9 7 11 9 8 10 6 11 7 12 88 13
REMARK SMILES IDX 85 14 89 15 4 16 5 17 3 18 2 19 1 20 86 21 87 22 17 23 18 24
REMARK SMILES IDX 19 25 20 26 21 27 22 28 23 29 84 30 24 31 83 32 25 33 26 34
REMARK SMILES IDX 27 35 77 36 28 37 82 38 76 39 78 40 29 41 81 42 75 43 74 44
REMARK SMILES IDX 30 46 62 47 42 48 61 49 43 50 46 51 60 52 79 53 44 54 45 55
REMARK SMILES IDX 59 57 80 58 47 59 31 60 32 61 40 62 33 63 39 64 41 65 38 66
REMARK SMILES IDX 34 67 35 68 36 69 37 70 63 71 64 72 72 73 65 74 71 75 73 76
REMARK SMILES IDX 70 77 66 78 67 79 68 80 69 81 48 82 49 83 57 84 50 85 56 86
REMARK SMILES IDX 58 87 55 88 51 89 52 90 53 91 54 92
REMARK H PARENT 9 8 78 45 46 56
REMARK Flexibility Score: inf
ROOT
ATOM      1  O   UNL A   1      32.564  26.113  25.876  1.00  0.00    -0.462 OA
ENDROOT
BRANCH   1   2
ATOM      2  C   UNL A   1      31.611  25.198  26.158  1.00  0.00     0.306 C 
ATOM      3  O   UNL A   1      31.560  24.562  27.207  1.00  0.00    -0.252 OA
BRANCH   2   4
ATOM      4  C   UNL A   1      30.603  25.062  25.033  1.00  0.00     0.132 C 
BRANCH   4   5
ATOM      5  C   UNL A   1      31.084  25.075  23.546  1.00  0.00     0.112 C 
BRANCH   5   6
ATOM      6  C   UNL A   1      32.540  24.776  23.293  1.00  0.00     0.225 C 
ATOM      7  N   UNL A   1      33.349  23.760  23.694  1.00  0.00    -0.317 N 
ATOM      8  H   UNL A   1      34.267  23.977  23.411  1.00  0.00     0.170 HD
ATOM      9  O   UNL A   1      33.124  25.587  22.544  1.00  0.00    -0.275 OA
BRANCH   7  10
ATOM     10  C   UNL A   1      33.386  22.525  24.355  1.00  0.00     0.114 A 
ATOM     11  C   UNL A   1      33.017  20.133  25.053  1.00  0.00     0.118 A 
ATOM     12  S   UNL A   1      32.088  21.630  25.026  1.00  0.00    -0.109 S 
ATOM     13  C   UNL A   1      34.364  20.428  24.905  1.00  0.00    -0.006 A 
ATOM     14  C   UNL A   1      34.568  21.814  24.567  1.00  0.00     0.091 A 
ATOM     15  C   UNL A   1      35.416  19.356  24.803  1.00  0.00     0.048 C 
BRANCH  11  16
ATOM     16  C   UNL A   1      32.529  18.780  24.702  1.00  0.00     0.348 C 
ATOM     17  O   UNL A   1      32.366  18.464  23.525  1.00  0.00    -0.245 OA
BRANCH  16  18
ATOM     18  O   UNL A   1      32.348  17.881  25.717  1.00  0.00    -0.462 OA
BRANCH  18  19
ATOM     19  C   UNL A   1      32.540  16.487  25.313  1.00  0.00     0.230 C 
ATOM     20  C   UNL A   1      33.991  16.050  25.291  1.00  0.00     0.049 C 
ENDBRANCH  18  19
ENDBRANCH  16  18
ENDBRANCH  11  16
BRANCH  14  21
ATOM     21  C   UNL A   1      35.863  22.320  24.184  1.00  0.00     0.103 C 
ATOM     22  N   UNL A   1      36.869  22.774  23.864  1.00  0.00    -0.192 NA
ENDBRANCH  14  21
ENDBRANCH   7  10
ENDBRANCH   5   6
ENDBRANCH   4   5
ENDBRANCH   2   4
ENDBRANCH   1   2
BRANCH   1  23
ATOM     23  C   UNL A   1      32.158  27.453  26.149  1.00  0.00     0.274 C 
BRANCH  23  24
ATOM     24  C   UNL A   1      32.620  28.397  25.036  1.00  0.00     0.275 C 
BRANCH  24  25
ATOM     25  O   UNL A   1      33.180  29.731  25.250  1.00  0.00    -0.458 OA
BRANCH  25  26
ATOM     26  C   UNL A   1      32.709  30.482  26.292  1.00  0.00     0.338 C 
ATOM     27  O   UNL A   1      31.673  31.104  26.270  1.00  0.00    -0.246 OA
BRANCH  26  28
ATOM     28  C   UNL A   1      33.614  30.847  27.405  1.00  0.00     0.060 A 
ATOM     29  C   UNL A   1      34.056  32.160  27.654  1.00  0.00     0.016 A 
ATOM     30  C   UNL A   1      34.482  29.866  27.758  1.00  0.00     0.016 A 
ATOM     31  C   UNL A   1      35.404  32.410  28.084  1.00  0.00     0.010 A 
ATOM     32  C   UNL A   1      35.591  30.153  28.517  1.00  0.00     0.010 A 
ATOM     33  C   UNL A   1      36.272  31.348  28.362  1.00  0.00    -0.014 A 
BRANCH  33  34
ATOM     34  C   UNL A   1      37.590  31.392  29.076  1.00  0.00     0.031 A 
ATOM     35  C   UNL A   1      38.280  30.062  28.896  1.00  0.00     0.074 A 
ATOM     36  C   UNL A   1      38.290  32.480  29.531  1.00  0.00     0.049 A 
ATOM     37  N   UNL A   1      38.090  28.990  29.607  1.00  0.00    -0.248 NA
ATOM     38  C   UNL A   1      38.910  29.751  27.589  1.00  0.00     0.031 C 
ATOM     39  C   UNL A   1      37.939  33.908  29.576  1.00  0.00     0.029 A 
ATOM     40  N   UNL A   1      39.564  32.518  30.073  1.00  0.00    -0.354 N 
ATOM     41  C   UNL A   1      38.826  28.011  28.943  1.00  0.00     0.074 A 
ATOM     42  C   UNL A   1      38.846  28.419  27.581  1.00  0.00     0.031 C 
ATOM     43  C   UNL A   1      39.023  34.664  29.921  1.00  0.00     0.029 A 
ATOM     44  C   UNL A   1      40.147  33.799  30.252  1.00  0.00     0.049 A 
ATOM     45  H   UNL A   1      40.043  31.695  30.322  1.00  0.00     0.167 HD
ATOM     46  C   UNL A   1      39.758  27.244  29.575  1.00  0.00     0.034 A 
ATOM     47  C   UNL A   1      41.429  34.101  30.683  1.00  0.00     0.034 A 
ATOM     48  C   UNL A   1      39.611  27.375  31.006  1.00  0.00     0.049 A 
ATOM     49  C   UNL A   1      41.907  32.879  31.384  1.00  0.00     0.074 A 
ATOM     50  C   UNL A   1      38.554  27.192  31.876  1.00  0.00     0.029 A 
ATOM     51  N   UNL A   1      40.489  28.220  31.649  1.00  0.00    -0.354 N 
ATOM     52  N   UNL A   1      41.353  32.439  32.482  1.00  0.00    -0.248 NA
ATOM     53  C   UNL A   1      42.574  31.876  30.567  1.00  0.00     0.031 C 
ATOM     54  C   UNL A   1      38.597  28.329  32.734  1.00  0.00     0.029 A 
ATOM     55  C   UNL A   1      39.758  29.056  32.461  1.00  0.00     0.049 A 
ATOM     56  H   UNL A   1      41.468  28.224  31.545  1.00  0.00     0.167 HD
ATOM     57  C   UNL A   1      41.203  31.077  32.275  1.00  0.00     0.074 A 
ATOM     58  C   UNL A   1      42.004  30.781  31.083  1.00  0.00     0.031 C 
ATOM     59  C   UNL A   1      40.194  30.377  32.873  1.00  0.00     0.034 A 
BRANCH  46  60
ATOM     60  C   UNL A   1      41.042  26.729  28.941  1.00  0.00     0.023 A 
ATOM     61  C   UNL A   1      42.032  27.690  28.676  1.00  0.00     0.031 A 
ATOM     62  C   UNL A   1      41.272  25.451  28.368  1.00  0.00     0.131 A 
ATOM     63  C   UNL A   1      43.107  27.405  27.817  1.00  0.00     0.055 A 
ATOM     64  C   UNL A   1      42.378  25.155  27.566  1.00  0.00     0.041 A 
ATOM     65  F   UNL A   1      40.418  24.428  28.461  1.00  0.00    -0.206 F 
ATOM     66  C   UNL A   1      43.290  26.143  27.260  1.00  0.00     0.022 A 
BRANCH  63  67
ATOM     67  S   UNL A   1      44.171  28.775  27.304  1.00  0.00     0.124 S 
ATOM     68  O   UNL A   1      44.327  28.504  25.879  1.00  0.00    -0.237 OA
ATOM     69  O   UNL A   1      43.355  29.932  27.656  1.00  0.00    -0.237 OA
ATOM     70  O   UNL A   1      45.372  28.588  28.112  1.00  0.00    -0.744 OA
ENDBRANCH  63  67
ENDBRANCH  46  60
BRANCH  47  71
ATOM     71  C   UNL A   1      42.427  35.154  30.209  1.00  0.00     0.023 A 
ATOM     72  C   UNL A   1      42.557  35.662  28.872  1.00  0.00     0.031 A 
ATOM     73  C   UNL A   1      43.088  35.908  31.200  1.00  0.00     0.131 A 
ATOM     74  C   UNL A   1      43.318  36.848  28.601  1.00  0.00     0.055 A 
ATOM     75  C   UNL A   1      43.807  37.081  30.930  1.00  0.00     0.041 A 
ATOM     76  F   UNL A   1      42.980  35.575  32.495  1.00  0.00    -0.206 F 
ATOM     77  C   UNL A   1      43.921  37.560  29.636  1.00  0.00     0.022 A 
BRANCH  74  78
ATOM     78  S   UNL A   1      43.528  37.548  26.906  1.00  0.00     0.124 S 
ATOM     79  O   UNL A   1      44.974  37.714  26.809  1.00  0.00    -0.237 OA
ATOM     80  O   UNL A   1      42.931  36.525  26.057  1.00  0.00    -0.237 OA
ATOM     81  O   UNL A   1      42.778  38.807  26.954  1.00  0.00    -0.744 OA
ENDBRANCH  74  78
ENDBRANCH  47  71
BRANCH  59  82
ATOM     82  C   UNL A   1      39.379  31.046  33.967  1.00  0.00     0.023 A 
ATOM     83  C   UNL A   1      38.337  31.991  33.788  1.00  0.00     0.031 A 
ATOM     84  C   UNL A   1      39.591  30.550  35.266  1.00  0.00     0.131 A 
ATOM     85  C   UNL A   1      37.555  32.390  34.897  1.00  0.00     0.055 A 
ATOM     86  C   UNL A   1      38.794  30.919  36.345  1.00  0.00     0.041 A 
ATOM     87  F   UNL A   1      40.555  29.643  35.494  1.00  0.00    -0.206 F 
ATOM     88  C   UNL A   1      37.773  31.842  36.166  1.00  0.00     0.022 A 
BRANCH  85  89
ATOM     89  S   UNL A   1      36.239  33.650  34.730  1.00  0.00     0.124 S 
ATOM     90  O   UNL A   1      35.830  33.891  36.109  1.00  0.00    -0.237 OA
ATOM     91  O   UNL A   1      36.932  34.751  34.067  1.00  0.00    -0.237 OA
ATOM     92  O   UNL A   1      35.230  32.982  33.904  1.00  0.00    -0.744 OA
ENDBRANCH  85  89
ENDBRANCH  59  82
ENDBRANCH  33  34
ENDBRANCH  26  28
ENDBRANCH  25  26
ENDBRANCH  24  25
ENDBRANCH  23  24
ENDBRANCH   1  23
TORSDOF 21
ENDMDL
MODEL 2
REMARK VINA RESULT:     -10.2      3.444      7.460
REMARK SMILES CCOC(=O)c1sc(NC(=O)CCC(=O)OCCOC(=O)c2ccc(-c3c4nc(c(-c5cc(S(=O)(=O)[O-])ccc5F)c5ccc([nH]5)c(-c5cc(S(=O)(=O)[O-])ccc5F)c5nc(c(-c6cc(S(=O)(=O)[O-])ccc6F)c6ccc3[nH]6)C=C5)C=C4)cc2)c(C#N)c1C
REMARK SMILES IDX 16 1 14 2 15 3 13 4 12 5 10 6 9 7 11 9 8 10 6 11 7 12 88 13
REMARK SMILES IDX 85 14 89 15 4 16 5 17 3 18 2 19 1 20 86 21 87 22 17 23 18 24
REMARK SMILES IDX 19 25 20 26 21 27 22 28 23 29 84 30 24 31 83 32 25 33 26 34
REMARK SMILES IDX 27 35 77 36 28 37 82 38 76 39 78 40 29 41 81 42 75 43 74 44
REMARK SMILES IDX 30 46 62 47 42 48 61 49 43 50 46 51 60 52 79 53 44 54 45 55
REMARK SMILES IDX 59 57 80 58 47 59 31 60 32 61 40 62 33 63 39 64 41 65 38 66
REMARK SMILES IDX 34 67 35 68 36 69 37 70 63 71 64 72 72 73 65 74 71 75 73 76
REMARK SMILES IDX 70 77 66 78 67 79 68 80 69 81 48 82 49 83 57 84 50 85 56 86
REMARK SMILES IDX 58 87 55 88 51 89 52 90 53 91 54 92
REMARK H PARENT 9 8 78 45 46 56
REMARK Flexibility Score: inf
ROOT
ATOM      1  O   UNL A   1      38.614  21.165  25.372  1.00  0.00    -0.462 OA
ENDROOT
BRANCH   1   2
ATOM      2  C   UNL A   1      37.395  21.688  25.120  1.00  0.00     0.306 C 
ATOM      3  O   UNL A   1      36.522  21.112  24.476  1.00  0.00    -0.252 OA
BRANCH   2   4
ATOM      4  C   UNL A   1      37.226  23.062  25.738  1.00  0.00     0.132 C 
BRANCH   4   5
ATOM      5  C   UNL A   1      35.918  23.879  25.482  1.00  0.00     0.112 C 
BRANCH   5   6
ATOM      6  C   UNL A   1      34.674  23.430  26.207  1.00  0.00     0.225 C 
ATOM      7  N   UNL A   1      33.383  23.851  26.157  1.00  0.00    -0.317 N 
ATOM      8  H   UNL A   1      32.886  23.379  26.863  1.00  0.00     0.170 HD
ATOM      9  O   UNL A   1      34.834  22.464  26.982  1.00  0.00    -0.275 OA
BRANCH   7  10
ATOM     10  C   UNL A   1      32.484  24.695  25.491  1.00  0.00     0.114 A 
ATOM     11  C   UNL A   1      31.279  26.690  24.538  1.00  0.00     0.118 A 
ATOM     12  S   UNL A   1      31.553  25.984  26.129  1.00  0.00    -0.109 S 
ATOM     13  C   UNL A   1      31.579  25.752  23.562  1.00  0.00    -0.006 A 
ATOM     14  C   UNL A   1      32.211  24.587  24.127  1.00  0.00     0.091 A 
ATOM     15  C   UNL A   1      31.528  26.075  22.094  1.00  0.00     0.048 C 
BRANCH  11  16
ATOM     16  C   UNL A   1      31.305  28.130  24.191  1.00  0.00     0.348 C 
ATOM     17  O   UNL A   1      30.316  28.669  23.698  1.00  0.00    -0.245 OA
BRANCH  16  18
ATOM     18  O   UNL A   1      32.425  28.846  24.513  1.00  0.00    -0.462 OA
BRANCH  18  19
ATOM     19  C   UNL A   1      33.674  28.220  24.075  1.00  0.00     0.230 C 
ATOM     20  C   UNL A   1      34.148  28.688  22.714  1.00  0.00     0.049 C 
ENDBRANCH  18  19
ENDBRANCH  16  18
ENDBRANCH  11  16
BRANCH  14  21
ATOM     21  C   UNL A   1      32.780  23.554  23.295  1.00  0.00     0.103 C 
ATOM     22  N   UNL A   1      33.204  22.692  22.665  1.00  0.00    -0.192 NA
ENDBRANCH  14  21
ENDBRANCH   7  10
ENDBRANCH   5   6
ENDBRANCH   4   5
ENDBRANCH   2   4
ENDBRANCH   1   2
BRANCH   1  23
ATOM     23  C   UNL A   1      39.309  21.835  26.423  1.00  0.00     0.274 C 
BRANCH  23  24
ATOM     24  C   UNL A   1      40.823  21.712  26.236  1.00  0.00     0.275 C 
BRANCH  24  25
ATOM     25  O   UNL A   1      41.757  22.839  26.218  1.00  0.00    -0.458 OA
BRANCH  25  26
ATOM     26  C   UNL A   1      42.364  23.209  27.387  1.00  0.00     0.338 C 
ATOM     27  O   UNL A   1      43.246  22.581  27.926  1.00  0.00    -0.246 OA
BRANCH  26  28
ATOM     28  C   UNL A   1      41.741  24.241  28.245  1.00  0.00     0.060 A 
ATOM     29  C   UNL A   1      40.439  24.739  28.048  1.00  0.00     0.016 A 
ATOM     30  C   UNL A   1      42.623  25.119  28.784  1.00  0.00     0.016 A 
ATOM     31  C   UNL A   1      40.150  26.132  28.248  1.00  0.00     0.010 A 
ATOM     32  C   UNL A   1      42.189  26.313  29.309  1.00  0.00     0.010 A 
ATOM     33  C   UNL A   1      41.131  27.000  28.739  1.00  0.00    -0.014 A 
BRANCH  33  34
ATOM     34  C   UNL A   1      40.955  28.391  29.273  1.00  0.00     0.031 A 
ATOM     35  C   UNL A   1      42.018  29.276  28.671  1.00  0.00     0.074 A 
ATOM     36  C   UNL A   1      39.869  28.943  29.904  1.00  0.00     0.049 A 
ATOM     37  N   UNL A   1      43.238  29.420  29.097  1.00  0.00    -0.248 NA
ATOM     38  C   UNL A   1      41.873  29.715  27.261  1.00  0.00     0.031 C 
ATOM     39  C   UNL A   1      38.606  28.343  30.360  1.00  0.00     0.029 A 
ATOM     40  N   UNL A   1      39.669  30.262  30.276  1.00  0.00    -0.354 N 
ATOM     41  C   UNL A   1      43.848  30.199  28.118  1.00  0.00     0.074 A 
ATOM     42  C   UNL A   1      43.148  29.903  26.916  1.00  0.00     0.031 C 
ATOM     43  C   UNL A   1      37.723  29.308  30.754  1.00  0.00     0.029 A 
ATOM     44  C   UNL A   1      38.364  30.614  30.708  1.00  0.00     0.049 A 
ATOM     45  H   UNL A   1      40.397  30.923  30.243  1.00  0.00     0.167 HD
ATOM     46  C   UNL A   1      44.508  31.354  28.409  1.00  0.00     0.034 A 
ATOM     47  C   UNL A   1      37.887  31.872  31.041  1.00  0.00     0.034 A 
ATOM     48  C   UNL A   1      44.742  31.438  29.832  1.00  0.00     0.049 A 
ATOM     49  C   UNL A   1      39.096  32.687  31.337  1.00  0.00     0.074 A 
ATOM     50  C   UNL A   1      45.352  30.604  30.749  1.00  0.00     0.029 A 
ATOM     51  N   UNL A   1      43.889  32.240  30.559  1.00  0.00    -0.354 N 
ATOM     52  N   UNL A   1      39.887  32.427  32.343  1.00  0.00    -0.248 NA
ATOM     53  C   UNL A   1      39.710  33.377  30.212  1.00  0.00     0.031 C 
ATOM     54  C   UNL A   1      44.459  30.581  31.860  1.00  0.00     0.029 A 
ATOM     55  C   UNL A   1      43.447  31.519  31.643  1.00  0.00     0.049 A 
ATOM     56  H   UNL A   1      43.641  33.167  30.340  1.00  0.00     0.167 HD
ATOM     57  C   UNL A   1      41.164  32.502  31.811  1.00  0.00     0.074 A 
ATOM     58  C   UNL A   1      40.993  33.123  30.493  1.00  0.00     0.031 C 
ATOM     59  C   UNL A   1      42.191  31.764  32.327  1.00  0.00     0.034 A 
BRANCH  46  60
ATOM     60  C   UNL A   1      44.562  32.582  27.511  1.00  0.00     0.023 A 
ATOM     61  C   UNL A   1      43.940  33.740  28.005  1.00  0.00     0.031 A 
ATOM     62  C   UNL A   1      44.947  32.638  26.146  1.00  0.00     0.131 A 
ATOM     63  C   UNL A   1      43.643  34.821  27.157  1.00  0.00     0.055 A 
ATOM     64  C   UNL A   1      44.706  33.742  25.324  1.00  0.00     0.041 A 
ATOM     65  F   UNL A   1      45.498  31.616  25.484  1.00  0.00    -0.206 F 
ATOM     66  C   UNL A   1      44.022  34.833  25.819  1.00  0.00     0.022 A 
BRANCH  63  67
ATOM     67  S   UNL A   1      42.593  36.143  27.804  1.00  0.00     0.124 S 
ATOM     68  O   UNL A   1      43.037  37.283  27.008  1.00  0.00    -0.237 OA
ATOM     69  O   UNL A   1      41.257  35.633  27.511  1.00  0.00    -0.237 OA
ATOM     70  O   UNL A   1      42.947  36.192  29.220  1.00  0.00    -0.744 OA
ENDBRANCH  63  67
ENDBRANCH  46  60
BRANCH  47  71
ATOM     71  C   UNL A   1      36.556  32.556  30.736  1.00  0.00     0.023 A 
ATOM     72  C   UNL A   1      35.874  33.503  31.574  1.00  0.00     0.031 A 
ATOM     73  C   UNL A   1      36.086  32.488  29.409  1.00  0.00     0.131 A 
ATOM     74  C   UNL A   1      34.793  34.297  31.066  1.00  0.00     0.055 A 
ATOM     75  C   UNL A   1      35.047  33.287  28.913  1.00  0.00     0.041 A 
ATOM     76  F   UNL A   1      36.690  31.695  28.512  1.00  0.00    -0.206 F 
ATOM     77  C   UNL A   1      34.401  34.198  29.733  1.00  0.00     0.022 A 
BRANCH  74  78
ATOM     78  S   UNL A   1      33.872  35.525  32.093  1.00  0.00     0.124 S 
ATOM     79  O   UNL A   1      33.390  36.473  31.096  1.00  0.00    -0.237 OA
ATOM     80  O   UNL A   1      32.865  34.704  32.753  1.00  0.00    -0.237 OA
ATOM     81  O   UNL A   1      34.898  36.063  32.992  1.00  0.00    -0.744 OA
ENDBRANCH  74  78
ENDBRANCH  47  71
BRANCH  59  82
ATOM     82  C   UNL A   1      41.990  31.042  33.649  1.00  0.00     0.023 A 
ATOM     83  C   UNL A   1      41.881  29.641  33.839  1.00  0.00     0.031 A 
ATOM     84  C   UNL A   1      42.077  31.849  34.796  1.00  0.00     0.131 A 
ATOM     85  C   UNL A   1      41.872  29.110  35.151  1.00  0.00     0.055 A 
ATOM     86  C   UNL A   1      42.105  31.318  36.082  1.00  0.00     0.041 A 
ATOM     87  F   UNL A   1      42.194  33.182  34.678  1.00  0.00    -0.206 F 
ATOM     88  C   UNL A   1      42.001  29.946  36.265  1.00  0.00     0.022 A 
BRANCH  85  89
ATOM     89  S   UNL A   1      41.674  27.317  35.452  1.00  0.00     0.124 S 
ATOM     90  O   UNL A   1      43.031  26.803  35.314  1.00  0.00    -0.237 OA
ATOM     91  O   UNL A   1      41.110  27.279  36.798  1.00  0.00    -0.237 OA
ATOM     92  O   UNL A   1      40.752  26.893  34.395  1.00  0.00    -0.744 OA
ENDBRANCH  85  89
ENDBRANCH  59  82
ENDBRANCH  33  34
ENDBRANCH  26  28
ENDBRANCH  25  26
ENDBRANCH  24  25
ENDBRANCH  23  24
ENDBRANCH   1  23
TORSDOF 21
ENDMDL
MODEL 3
REMARK VINA RESULT:     -10.2      5.345      8.423
REMARK SMILES CCOC(=O)c1sc(NC(=O)CCC(=O)OCCOC(=O)c2ccc(-c3c4nc(c(-c5cc(S(=O)(=O)[O-])ccc5F)c5ccc([nH]5)c(-c5cc(S(=O)(=O)[O-])ccc5F)c5nc(c(-c6cc(S(=O)(=O)[O-])ccc6F)c6ccc3[nH]6)C=C5)C=C4)cc2)c(C#N)c1C
REMARK SMILES IDX 16 1 14 2 15 3 13 4 12 5 10 6 9 7 11 9 8 10 6 11 7 12 88 13
REMARK SMILES IDX 85 14 89 15 4 16 5 17 3 18 2 19 1 20 86 21 87 22 17 23 18 24
REMARK SMILES IDX 19 25 20 26 21 27 22 28 23 29 84 30 24 31 83 32 25 33 26 34
REMARK SMILES IDX 27 35 77 36 28 37 82 38 76 39 78 40 29 41 81 42 75 43 74 44
REMARK SMILES IDX 30 46 62 47 42 48 61 49 43 50 46 51 60 52 79 53 44 54 45 55
REMARK SMILES IDX 59 57 80 58 47 59 31 60 32 61 40 62 33 63 39 64 41 65 38 66
REMARK SMILES IDX 34 67 35 68 36 69 37 70 63 71 64 72 72 73 65 74 71 75 73 76
REMARK SMILES IDX 70 77 66 78 67 79 68 80 69 81 48 82 49 83 57 84 50 85 56 86
REMARK SMILES IDX 58 87 55 88 51 89 52 90 53 91 54 92
REMARK H PARENT 9 8 78 45 46 56
REMARK Flexibility Score: inf
ROOT
ATOM      1  O   UNL A   1      34.442  28.958  25.996  1.00  0.00    -0.462 OA
ENDROOT
BRANCH   1   2
ATOM      2  C   UNL A   1      33.668  27.938  25.565  1.00  0.00     0.306 C 
ATOM      3  O   UNL A   1      33.755  26.787  25.983  1.00  0.00    -0.252 OA
BRANCH   2   4
ATOM      4  C   UNL A   1      32.670  28.386  24.515  1.00  0.00     0.132 C 
BRANCH   4   5
ATOM      5  C   UNL A   1      32.749  27.809  23.064  1.00  0.00     0.112 C 
BRANCH   5   6
ATOM      6  C   UNL A   1      31.627  26.902  22.624  1.00  0.00     0.225 C 
ATOM      7  N   UNL A   1      31.411  25.570  22.784  1.00  0.00    -0.317 N 
ATOM      8  H   UNL A   1      30.615  25.329  22.258  1.00  0.00     0.170 HD
ATOM      9  O   UNL A   1      30.691  27.471  22.026  1.00  0.00    -0.275 OA
BRANCH   7  10
ATOM     10  C   UNL A   1      31.880  24.405  23.407  1.00  0.00     0.114 A 
ATOM     11  C   UNL A   1      33.318  22.539  24.298  1.00  0.00     0.118 A 
ATOM     12  S   UNL A   1      32.769  23.109  22.724  1.00  0.00    -0.109 S 
ATOM     13  C   UNL A   1      32.533  23.107  25.290  1.00  0.00    -0.006 A 
ATOM     14  C   UNL A   1      31.669  24.130  24.759  1.00  0.00     0.091 A 
ATOM     15  C   UNL A   1      32.802  22.886  26.754  1.00  0.00     0.048 C 
BRANCH  11  16
ATOM     16  C   UNL A   1      34.672  22.046  24.640  1.00  0.00     0.348 C 
ATOM     17  O   UNL A   1      34.811  21.007  25.283  1.00  0.00    -0.245 OA
BRANCH  16  18
ATOM     18  O   UNL A   1      35.747  22.733  24.148  1.00  0.00    -0.462 OA
BRANCH  18  19
ATOM     19  C   UNL A   1      36.083  23.934  24.915  1.00  0.00     0.230 C 
ATOM     20  C   UNL A   1      37.059  23.684  26.047  1.00  0.00     0.049 C 
ENDBRANCH  18  19
ENDBRANCH  16  18
ENDBRANCH  11  16
BRANCH  14  21
ATOM     21  C   UNL A   1      30.892  24.990  25.618  1.00  0.00     0.103 C 
ATOM     22  N   UNL A   1      30.235  25.682  26.258  1.00  0.00    -0.192 NA
ENDBRANCH  14  21
ENDBRANCH   7  10
ENDBRANCH   5   6
ENDBRANCH   4   5
ENDBRANCH   2   4
ENDBRANCH   1   2
BRANCH   1  23
ATOM     23  C   UNL A   1      34.251  29.266  27.376  1.00  0.00     0.274 C 
BRANCH  23  24
ATOM     24  C   UNL A   1      35.332  30.231  27.870  1.00  0.00     0.275 C 
BRANCH  24  25
ATOM     25  O   UNL A   1      36.652  30.391  27.260  1.00  0.00    -0.458 OA
BRANCH  25  26
ATOM     26  C   UNL A   1      37.761  30.262  28.052  1.00  0.00     0.338 C 
ATOM     27  O   UNL A   1      38.241  31.161  28.704  1.00  0.00    -0.246 OA
BRANCH  26  28
ATOM     28  C   UNL A   1      38.644  29.085  27.899  1.00  0.00     0.060 A 
ATOM     29  C   UNL A   1      38.976  28.215  28.955  1.00  0.00     0.016 A 
ATOM     30  C   UNL A   1      39.594  29.225  26.942  1.00  0.00     0.016 A 
ATOM     31  C   UNL A   1      40.303  27.674  29.068  1.00  0.00     0.010 A 
ATOM     32  C   UNL A   1      40.684  28.388  26.909  1.00  0.00     0.010 A 
ATOM     33  C   UNL A   1      41.260  27.921  28.077  1.00  0.00    -0.014 A 
BRANCH  33  34
ATOM     34  C   UNL A   1      42.577  27.234  27.870  1.00  0.00     0.031 A 
ATOM     35  C   UNL A   1      42.345  25.743  27.849  1.00  0.00     0.074 A 
ATOM     36  C   UNL A   1      43.764  27.757  27.424  1.00  0.00     0.049 A 
ATOM     37  N   UNL A   1      42.257  24.959  28.882  1.00  0.00    -0.248 NA
ATOM     38  C   UNL A   1      41.746  25.128  26.638  1.00  0.00     0.031 C 
ATOM     39  C   UNL A   1      44.159  29.141  27.122  1.00  0.00     0.029 A 
ATOM     40  N   UNL A   1      44.937  27.088  27.115  1.00  0.00    -0.354 N 
ATOM     41  C   UNL A   1      41.877  23.732  28.342  1.00  0.00     0.074 A 
ATOM     42  C   UNL A   1      41.154  24.052  27.160  1.00  0.00     0.031 C 
ATOM     43  C   UNL A   1      45.377  29.176  26.505  1.00  0.00     0.029 A 
ATOM     44  C   UNL A   1      45.945  27.836  26.454  1.00  0.00     0.049 A 
ATOM     45  H   UNL A   1      45.064  26.139  27.343  1.00  0.00     0.167 HD
ATOM     46  C   UNL A   1      42.565  22.582  28.586  1.00  0.00     0.034 A 
ATOM     47  C   UNL A   1      47.158  27.382  25.961  1.00  0.00     0.034 A 
ATOM     48  C   UNL A   1      43.475  22.781  29.690  1.00  0.00     0.049 A 
ATOM     49  C   UNL A   1      47.422  26.103  26.674  1.00  0.00     0.074 A 
ATOM     50  C   UNL A   1      43.315  23.218  30.991  1.00  0.00     0.029 A 
ATOM     51  N   UNL A   1      44.798  23.005  29.376  1.00  0.00    -0.354 N 
ATOM     52  N   UNL A   1      47.621  26.049  27.964  1.00  0.00    -0.248 NA
ATOM     53  C   UNL A   1      46.886  24.894  26.067  1.00  0.00     0.031 C 
ATOM     54  C   UNL A   1      44.376  24.148  31.189  1.00  0.00     0.029 A 
ATOM     55  C   UNL A   1      45.221  24.110  30.077  1.00  0.00     0.049 A 
ATOM     56  H   UNL A   1      45.344  22.467  28.758  1.00  0.00     0.167 HD
ATOM     57  C   UNL A   1      46.832  24.996  28.396  1.00  0.00     0.074 A 
ATOM     58  C   UNL A   1      46.422  24.299  27.172  1.00  0.00     0.031 C 
ATOM     59  C   UNL A   1      46.309  24.973  29.657  1.00  0.00     0.034 A 
BRANCH  46  60
ATOM     60  C   UNL A   1      42.739  21.439  27.596  1.00  0.00     0.023 A 
ATOM     61  C   UNL A   1      43.796  21.567  26.681  1.00  0.00     0.031 A 
ATOM     62  C   UNL A   1      41.829  20.384  27.325  1.00  0.00     0.131 A 
ATOM     63  C   UNL A   1      43.863  20.759  25.533  1.00  0.00     0.055 A 
ATOM     64  C   UNL A   1      41.937  19.541  26.215  1.00  0.00     0.041 A 
ATOM     65  F   UNL A   1      40.731  20.142  28.047  1.00  0.00    -0.206 F 
ATOM     66  C   UNL A   1      42.943  19.744  25.293  1.00  0.00     0.022 A 
BRANCH  63  67
ATOM     67  S   UNL A   1      45.087  21.177  24.269  1.00  0.00     0.124 S 
ATOM     68  O   UNL A   1      44.412  22.255  23.556  1.00  0.00    -0.237 OA
ATOM     69  O   UNL A   1      46.235  21.561  25.084  1.00  0.00    -0.237 OA
ATOM     70  O   UNL A   1      45.240  19.931  23.523  1.00  0.00    -0.744 OA
ENDBRANCH  63  67
ENDBRANCH  46  60
BRANCH  47  71
ATOM     71  C   UNL A   1      47.901  27.705  24.667  1.00  0.00     0.023 A 
ATOM     72  C   UNL A   1      49.306  27.524  24.424  1.00  0.00     0.031 A 
ATOM     73  C   UNL A   1      47.121  27.928  23.514  1.00  0.00     0.131 A 
ATOM     74  C   UNL A   1      49.840  27.581  23.093  1.00  0.00     0.055 A 
ATOM     75  C   UNL A   1      47.647  27.955  22.215  1.00  0.00     0.041 A 
ATOM     76  F   UNL A   1      45.787  28.038  23.605  1.00  0.00    -0.206 F 
ATOM     77  C   UNL A   1      49.003  27.776  21.996  1.00  0.00     0.022 A 
BRANCH  74  78
ATOM     78  S   UNL A   1      51.634  27.365  22.716  1.00  0.00     0.124 S 
ATOM     79  O   UNL A   1      52.110  26.606  23.867  1.00  0.00    -0.237 OA
ATOM     80  O   UNL A   1      51.614  26.666  21.438  1.00  0.00    -0.237 OA
ATOM     81  O   UNL A   1      52.143  28.738  22.647  1.00  0.00    -0.744 OA
ENDBRANCH  74  78
ENDBRANCH  47  71
BRANCH  59  82
ATOM     82  C   UNL A   1      46.798  25.988  30.677  1.00  0.00     0.023 A 
ATOM     83  C   UNL A   1      48.032  25.959  31.374  1.00  0.00     0.031 A 
ATOM     84  C   UNL A   1      46.001  27.138  30.813  1.00  0.00     0.131 A 
ATOM     85  C   UNL A   1      48.418  27.070  32.161  1.00  0.00     0.055 A 
ATOM     86  C   UNL A   1      46.403  28.241  31.559  1.00  0.00     0.041 A 
ATOM     87  F   UNL A   1      44.827  27.227  30.166  1.00  0.00    -0.206 F 
ATOM     88  C   UNL A   1      47.614  28.212  32.238  1.00  0.00     0.022 A 
BRANCH  85  89
ATOM     89  S   UNL A   1      49.972  27.059  33.127  1.00  0.00     0.124 S 
ATOM     90  O   UNL A   1      50.048  25.689  33.622  1.00  0.00    -0.237 OA
ATOM     91  O   UNL A   1      50.971  27.435  32.130  1.00  0.00    -0.237 OA
ATOM     92  O   UNL A   1      49.738  28.068  34.163  1.00  0.00    -0.744 OA
ENDBRANCH  85  89
ENDBRANCH  59  82
ENDBRANCH  33  34
ENDBRANCH  26  28
ENDBRANCH  25  26
ENDBRANCH  24  25
ENDBRANCH  23  24
ENDBRANCH   1  23
TORSDOF 21
ENDMDL
