MODEL 1
REMARK VINA RESULT:     -10.6      0.000      0.000
REMARK SMILES C#CCN(CC(=O)OCCOC(=O)c1ccc(-c2c3nc(c(-c4cc(S(=O)(=O)[O-])ccc4F)c4ccc([nH]4)c(-c4cc(S(=O)(=O)[O-])ccc4F)c4nc(c(-c5cc(S(=O)(=O)[O-])ccc5F)c5ccc2[nH]5)C=C4)C=C3)cc1)C(=O)c1c[nH]c(=O)[nH]1
REMARK SMILES IDX 9 1 8 2 6 3 7 4 5 5 4 6 3 7 2 8 1 9 77 10 78 11 79 12 80 13
REMARK SMILES IDX 84 14 81 15 82 16 83 19 10 20 11 21 12 22 13 23 14 24 15 25
REMARK SMILES IDX 76 26 16 27 75 28 17 29 18 30 19 31 69 32 20 33 74 34 68 35
REMARK SMILES IDX 70 36 21 37 73 38 67 39 66 40 22 42 54 43 34 44 53 45 35 46
REMARK SMILES IDX 38 47 52 48 71 49 36 50 37 51 51 53 72 54 39 55 23 56 24 57
REMARK SMILES IDX 32 58 25 59 31 60 33 61 30 62 26 63 27 64 28 65 29 66 55 67
REMARK SMILES IDX 56 68 64 69 57 70 63 71 65 72 62 73 58 74 59 75 60 76 61 77
REMARK SMILES IDX 40 78 41 79 49 80 42 81 48 82 50 83 47 84 43 85 44 86 45 87
REMARK SMILES IDX 46 88
REMARK H PARENT 84 17 81 18 70 41 38 52
REMARK Flexibility Score: inf
ROOT
ATOM      1  C   UNL A   1      35.724  22.292  25.622  1.00  0.00     0.274 C 
ENDROOT
BRANCH   1   2
ATOM      2  O   UNL A   1      35.930  23.291  24.586  1.00  0.00    -0.461 OA
BRANCH   2   3
ATOM      3  C   UNL A   1      34.799  23.849  24.064  1.00  0.00     0.325 C 
ATOM      4  O   UNL A   1      34.483  25.023  24.240  1.00  0.00    -0.250 OA
BRANCH   3   5
ATOM      5  C   UNL A   1      34.054  22.957  23.044  1.00  0.00     0.243 C 
BRANCH   5   6
ATOM      6  N   UNL A   1      32.608  22.787  23.142  1.00  0.00    -0.315 N 
BRANCH   6   7
ATOM      7  C   UNL A   1      32.116  21.485  22.769  1.00  0.00     0.210 C 
BRANCH   7   8
ATOM      8  C   UNL A   1      32.598  20.437  23.759  1.00  0.00    -0.085 C 
ATOM      9  C   UNL A   1      33.011  19.537  24.608  1.00  0.00     0.006 C 
ENDBRANCH   7   8
ENDBRANCH   6   7
BRANCH   6  10
ATOM     10  C   UNL A   1      31.653  23.711  23.536  1.00  0.00     0.273 C 
ATOM     11  O   UNL A   1      31.179  24.532  22.745  1.00  0.00    -0.267 OA
BRANCH  10  12
ATOM     12  C   UNL A   1      31.172  23.765  24.926  1.00  0.00     0.125 A 
ATOM     13  C   UNL A   1      31.439  24.792  25.749  1.00  0.00     0.119 A 
ATOM     14  N   UNL A   1      30.345  22.876  25.572  1.00  0.00    -0.302 N 
ATOM     15  N   UNL A   1      30.822  24.556  26.950  1.00  0.00    -0.312 N 
ATOM     16  C   UNL A   1      30.120  23.343  26.879  1.00  0.00     0.323 A 
ATOM     17  H   UNL A   1      29.972  22.051  25.183  1.00  0.00     0.172 HD
ATOM     18  H   UNL A   1      30.866  25.144  27.738  1.00  0.00     0.171 HD
ATOM     19  O   UNL A   1      29.482  22.833  27.769  1.00  0.00    -0.248 OA
ENDBRANCH  10  12
ENDBRANCH   6  10
ENDBRANCH   5   6
ENDBRANCH   3   5
ENDBRANCH   2   3
ENDBRANCH   1   2
BRANCH   1  20
ATOM     20  C   UNL A   1      36.676  21.077  25.502  1.00  0.00     0.275 C 
BRANCH  20  21
ATOM     21  O   UNL A   1      37.982  21.396  24.949  1.00  0.00    -0.458 OA
BRANCH  21  22
ATOM     22  C   UNL A   1      38.937  21.298  25.891  1.00  0.00     0.338 C 
ATOM     23  O   UNL A   1      39.557  20.273  26.111  1.00  0.00    -0.246 OA
BRANCH  22  24
ATOM     24  C   UNL A   1      39.339  22.467  26.664  1.00  0.00     0.060 A 
ATOM     25  C   UNL A   1      38.934  23.701  26.145  1.00  0.00     0.016 A 
ATOM     26  C   UNL A   1      40.465  22.380  27.483  1.00  0.00     0.016 A 
ATOM     27  C   UNL A   1      39.705  24.833  26.372  1.00  0.00     0.010 A 
ATOM     28  C   UNL A   1      41.178  23.544  27.798  1.00  0.00     0.010 A 
ATOM     29  C   UNL A   1      40.813  24.776  27.232  1.00  0.00    -0.014 A 
BRANCH  29  30
ATOM     30  C   UNL A   1      41.473  26.043  27.637  1.00  0.00     0.031 A 
ATOM     31  C   UNL A   1      40.786  27.086  28.471  1.00  0.00     0.074 A 
ATOM     32  C   UNL A   1      42.742  26.224  27.223  1.00  0.00     0.049 A 
ATOM     33  N   UNL A   1      41.204  28.278  28.816  1.00  0.00    -0.248 NA
ATOM     34  C   UNL A   1      39.457  26.749  28.989  1.00  0.00     0.031 C 
ATOM     35  C   UNL A   1      43.512  25.254  26.434  1.00  0.00     0.029 A 
ATOM     36  N   UNL A   1      43.611  27.264  27.404  1.00  0.00    -0.354 N 
ATOM     37  C   UNL A   1      40.178  28.844  29.569  1.00  0.00     0.074 A 
ATOM     38  C   UNL A   1      39.115  27.863  29.624  1.00  0.00     0.031 C 
ATOM     39  C   UNL A   1      44.744  25.731  26.229  1.00  0.00     0.029 A 
ATOM     40  C   UNL A   1      44.819  27.076  26.777  1.00  0.00     0.049 A 
ATOM     41  H   UNL A   1      43.391  28.068  27.929  1.00  0.00     0.167 HD
ATOM     42  C   UNL A   1      40.133  30.074  30.146  1.00  0.00     0.034 A 
ATOM     43  C   UNL A   1      45.859  27.912  26.613  1.00  0.00     0.034 A 
ATOM     44  C   UNL A   1      41.215  31.033  30.059  1.00  0.00     0.049 A 
ATOM     45  C   UNL A   1      45.766  29.282  27.215  1.00  0.00     0.074 A 
ATOM     46  C   UNL A   1      41.287  32.310  30.588  1.00  0.00     0.029 A 
ATOM     47  N   UNL A   1      42.416  30.818  29.389  1.00  0.00    -0.354 N 
ATOM     48  N   UNL A   1      44.777  29.819  27.890  1.00  0.00    -0.248 NA
ATOM     49  C   UNL A   1      46.930  30.153  27.037  1.00  0.00     0.031 C 
ATOM     50  C   UNL A   1      42.498  32.888  30.187  1.00  0.00     0.029 A 
ATOM     51  C   UNL A   1      43.222  31.945  29.472  1.00  0.00     0.049 A 
ATOM     52  H   UNL A   1      42.659  29.986  28.923  1.00  0.00     0.167 HD
ATOM     53  C   UNL A   1      45.208  31.093  28.237  1.00  0.00     0.074 A 
ATOM     54  C   UNL A   1      46.556  31.228  27.715  1.00  0.00     0.031 C 
ATOM     55  C   UNL A   1      44.553  32.064  28.924  1.00  0.00     0.034 A 
BRANCH  42  56
ATOM     56  C   UNL A   1      38.856  30.477  30.854  1.00  0.00     0.023 A 
ATOM     57  C   UNL A   1      37.777  31.075  30.178  1.00  0.00     0.031 A 
ATOM     58  C   UNL A   1      38.722  30.266  32.239  1.00  0.00     0.131 A 
ATOM     59  C   UNL A   1      36.639  31.488  30.894  1.00  0.00     0.055 A 
ATOM     60  C   UNL A   1      37.561  30.617  32.934  1.00  0.00     0.041 A 
ATOM     61  F   UNL A   1      39.721  29.716  32.947  1.00  0.00    -0.206 F 
ATOM     62  C   UNL A   1      36.516  31.245  32.264  1.00  0.00     0.022 A 
BRANCH  59  63
ATOM     63  S   UNL A   1      35.364  32.455  30.036  1.00  0.00     0.124 S 
ATOM     64  O   UNL A   1      34.360  32.623  31.081  1.00  0.00    -0.237 OA
ATOM     65  O   UNL A   1      36.090  33.660  29.648  1.00  0.00    -0.237 OA
ATOM     66  O   UNL A   1      34.962  31.588  28.929  1.00  0.00    -0.744 OA
ENDBRANCH  59  63
ENDBRANCH  42  56
BRANCH  43  67
ATOM     67  C   UNL A   1      47.034  27.478  25.811  1.00  0.00     0.023 A 
ATOM     68  C   UNL A   1      47.147  27.814  24.455  1.00  0.00     0.031 A 
ATOM     69  C   UNL A   1      48.074  26.733  26.400  1.00  0.00     0.131 A 
ATOM     70  C   UNL A   1      48.262  27.381  23.722  1.00  0.00     0.055 A 
ATOM     71  C   UNL A   1      49.207  26.354  25.680  1.00  0.00     0.041 A 
ATOM     72  F   UNL A   1      48.021  26.398  27.698  1.00  0.00    -0.206 F 
ATOM     73  C   UNL A   1      49.300  26.667  24.329  1.00  0.00     0.022 A 
BRANCH  70  74
ATOM     74  S   UNL A   1      48.304  27.707  21.941  1.00  0.00     0.124 S 
ATOM     75  O   UNL A   1      46.985  28.287  21.712  1.00  0.00    -0.237 OA
ATOM     76  O   UNL A   1      49.435  28.621  21.828  1.00  0.00    -0.237 OA
ATOM     77  O   UNL A   1      48.514  26.383  21.359  1.00  0.00    -0.744 OA
ENDBRANCH  70  74
ENDBRANCH  43  67
BRANCH  55  78
ATOM     78  C   UNL A   1      45.325  33.334  29.175  1.00  0.00     0.023 A 
ATOM     79  C   UNL A   1      45.412  34.348  28.205  1.00  0.00     0.031 A 
ATOM     80  C   UNL A   1      46.033  33.504  30.378  1.00  0.00     0.131 A 
ATOM     81  C   UNL A   1      46.252  35.450  28.420  1.00  0.00     0.055 A 
ATOM     82  C   UNL A   1      46.815  34.634  30.614  1.00  0.00     0.041 A 
ATOM     83  F   UNL A   1      45.990  32.563  31.335  1.00  0.00    -0.206 F 
ATOM     84  C   UNL A   1      46.943  35.606  29.625  1.00  0.00     0.022 A 
BRANCH  81  85
ATOM     85  S   UNL A   1      46.531  36.609  27.054  1.00  0.00     0.124 S 
ATOM     86  O   UNL A   1      47.702  37.348  27.517  1.00  0.00    -0.237 OA
ATOM     87  O   UNL A   1      46.749  35.712  25.924  1.00  0.00    -0.237 OA
ATOM     88  O   UNL A   1      45.291  37.382  27.002  1.00  0.00    -0.744 OA
ENDBRANCH  81  85
ENDBRANCH  55  78
ENDBRANCH  29  30
ENDBRANCH  22  24
ENDBRANCH  21  22
ENDBRANCH  20  21
ENDBRANCH   1  20
TORSDOF 19
ENDMDL
MODEL 2
REMARK VINA RESULT:     -10.3      1.273      2.062
REMARK SMILES C#CCN(CC(=O)OCCOC(=O)c1ccc(-c2c3nc(c(-c4cc(S(=O)(=O)[O-])ccc4F)c4ccc([nH]4)c(-c4cc(S(=O)(=O)[O-])ccc4F)c4nc(c(-c5cc(S(=O)(=O)[O-])ccc5F)c5ccc2[nH]5)C=C4)C=C3)cc1)C(=O)c1c[nH]c(=O)[nH]1
REMARK SMILES IDX 9 1 8 2 6 3 7 4 5 5 4 6 3 7 2 8 1 9 77 10 78 11 79 12 80 13
REMARK SMILES IDX 84 14 81 15 82 16 83 19 10 20 11 21 12 22 13 23 14 24 15 25
REMARK SMILES IDX 76 26 16 27 75 28 17 29 18 30 19 31 69 32 20 33 74 34 68 35
REMARK SMILES IDX 70 36 21 37 73 38 67 39 66 40 22 42 54 43 34 44 53 45 35 46
REMARK SMILES IDX 38 47 52 48 71 49 36 50 37 51 51 53 72 54 39 55 23 56 24 57
REMARK SMILES IDX 32 58 25 59 31 60 33 61 30 62 26 63 27 64 28 65 29 66 55 67
REMARK SMILES IDX 56 68 64 69 57 70 63 71 65 72 62 73 58 74 59 75 60 76 61 77
REMARK SMILES IDX 40 78 41 79 49 80 42 81 48 82 50 83 47 84 43 85 44 86 45 87
REMARK SMILES IDX 46 88
REMARK H PARENT 84 17 81 18 70 41 38 52
REMARK Flexibility Score: inf
ROOT
ATOM      1  C   UNL A   1      35.778  20.942  25.184  1.00  0.00     0.274 C 
ENDROOT
BRANCH   1   2
ATOM      2  O   UNL A   1      35.536  21.439  26.529  1.00  0.00    -0.461 OA
BRANCH   2   3
ATOM      3  C   UNL A   1      34.687  22.503  26.627  1.00  0.00     0.325 C 
ATOM      4  O   UNL A   1      34.301  22.961  27.700  1.00  0.00    -0.250 OA
BRANCH   3   5
ATOM      5  C   UNL A   1      34.423  23.239  25.294  1.00  0.00     0.243 C 
BRANCH   5   6
ATOM      6  N   UNL A   1      33.064  23.632  24.934  1.00  0.00    -0.315 N 
BRANCH   6   7
ATOM      7  C   UNL A   1      32.824  25.052  24.900  1.00  0.00     0.210 C 
BRANCH   7   8
ATOM      8  C   UNL A   1      33.216  25.620  23.545  1.00  0.00    -0.085 C 
ATOM      9  C   UNL A   1      33.552  26.107  22.384  1.00  0.00     0.006 C 
ENDBRANCH   7   8
ENDBRANCH   6   7
BRANCH   6  10
ATOM     10  C   UNL A   1      31.981  22.821  24.631  1.00  0.00     0.273 C 
ATOM     11  O   UNL A   1      30.853  23.288  24.445  1.00  0.00    -0.267 OA
BRANCH  10  12
ATOM     12  C   UNL A   1      32.125  21.360  24.536  1.00  0.00     0.125 A 
ATOM     13  C   UNL A   1      32.351  20.724  23.375  1.00  0.00     0.119 A 
ATOM     14  N   UNL A   1      32.138  20.442  25.561  1.00  0.00    -0.302 N 
ATOM     15  N   UNL A   1      32.469  19.383  23.632  1.00  0.00    -0.312 N 
ATOM     16  C   UNL A   1      32.335  19.162  25.011  1.00  0.00     0.323 A 
ATOM     17  H   UNL A   1      32.029  20.646  26.517  1.00  0.00     0.172 HD
ATOM     18  H   UNL A   1      32.624  18.685  22.955  1.00  0.00     0.171 HD
ATOM     19  O   UNL A   1      32.371  18.092  25.570  1.00  0.00    -0.248 OA
ENDBRANCH  10  12
ENDBRANCH   6  10
ENDBRANCH   5   6
ENDBRANCH   3   5
ENDBRANCH   2   3
ENDBRANCH   1   2
BRANCH   1  20
ATOM     20  C   UNL A   1      37.237  20.480  24.953  1.00  0.00     0.275 C 
BRANCH  20  21
ATOM     21  O   UNL A   1      38.208  21.561  24.932  1.00  0.00    -0.458 OA
BRANCH  21  22
ATOM     22  C   UNL A   1      39.069  21.451  25.959  1.00  0.00     0.338 C 
ATOM     23  O   UNL A   1      39.647  20.417  26.240  1.00  0.00    -0.246 OA
BRANCH  22  24
ATOM     24  C   UNL A   1      39.418  22.617  26.762  1.00  0.00     0.060 A 
ATOM     25  C   UNL A   1      38.968  23.845  26.269  1.00  0.00     0.016 A 
ATOM     26  C   UNL A   1      40.541  22.555  27.589  1.00  0.00     0.016 A 
ATOM     27  C   UNL A   1      39.692  25.002  26.528  1.00  0.00     0.010 A 
ATOM     28  C   UNL A   1      41.205  23.739  27.936  1.00  0.00     0.010 A 
ATOM     29  C   UNL A   1      40.795  24.969  27.395  1.00  0.00    -0.014 A 
BRANCH  29  30
ATOM     30  C   UNL A   1      41.401  26.251  27.835  1.00  0.00     0.031 A 
ATOM     31  C   UNL A   1      40.632  27.295  28.593  1.00  0.00     0.074 A 
ATOM     32  C   UNL A   1      42.698  26.445  27.526  1.00  0.00     0.049 A 
ATOM     33  N   UNL A   1      41.003  28.498  28.953  1.00  0.00    -0.248 NA
ATOM     34  C   UNL A   1      39.268  26.946  29.002  1.00  0.00     0.031 C 
ATOM     35  C   UNL A   1      43.545  25.476  26.820  1.00  0.00     0.029 A 
ATOM     36  N   UNL A   1      43.534  27.501  27.763  1.00  0.00    -0.354 N 
ATOM     37  C   UNL A   1      39.910  29.059  29.609  1.00  0.00     0.074 A 
ATOM     38  C   UNL A   1      38.859  28.063  29.589  1.00  0.00     0.031 C 
ATOM     39  C   UNL A   1      44.783  25.969  26.712  1.00  0.00     0.029 A 
ATOM     40  C   UNL A   1      44.793  27.322  27.244  1.00  0.00     0.049 A 
ATOM     41  H   UNL A   1      43.260  28.308  28.256  1.00  0.00     0.167 HD
ATOM     42  C   UNL A   1      39.799  30.296  30.161  1.00  0.00     0.034 A 
ATOM     43  C   UNL A   1      45.831  28.171  27.154  1.00  0.00     0.034 A 
ATOM     44  C   UNL A   1      40.871  31.270  30.150  1.00  0.00     0.049 A 
ATOM     45  C   UNL A   1      45.669  29.548  27.725  1.00  0.00     0.074 A 
ATOM     46  C   UNL A   1      40.881  32.555  30.664  1.00  0.00     0.029 A 
ATOM     47  N   UNL A   1      42.127  31.064  29.587  1.00  0.00    -0.354 N 
ATOM     48  N   UNL A   1      44.619  30.080  28.307  1.00  0.00    -0.248 NA
ATOM     49  C   UNL A   1      46.832  30.434  27.632  1.00  0.00     0.031 C 
ATOM     50  C   UNL A   1      42.113  33.146  30.357  1.00  0.00     0.029 A 
ATOM     51  C   UNL A   1      42.908  32.204  29.720  1.00  0.00     0.049 A 
ATOM     52  H   UNL A   1      42.420  30.229  29.156  1.00  0.00     0.167 HD
ATOM     53  C   UNL A   1      45.002  31.365  28.669  1.00  0.00     0.074 A 
ATOM     54  C   UNL A   1      46.387  31.513  28.260  1.00  0.00     0.031 C 
ATOM     55  C   UNL A   1      44.278  32.335  29.284  1.00  0.00     0.034 A 
BRANCH  42  56
ATOM     56  C   UNL A   1      38.462  30.690  30.753  1.00  0.00     0.023 A 
ATOM     57  C   UNL A   1      37.461  31.325  29.996  1.00  0.00     0.031 A 
ATOM     58  C   UNL A   1      38.188  30.431  32.110  1.00  0.00     0.131 A 
ATOM     59  C   UNL A   1      36.261  31.727  30.610  1.00  0.00     0.055 A 
ATOM     60  C   UNL A   1      36.967  30.772  32.699  1.00  0.00     0.041 A 
ATOM     61  F   UNL A   1      39.107  29.843  32.892  1.00  0.00    -0.206 F 
ATOM     62  C   UNL A   1      36.000  31.436  31.951  1.00  0.00     0.022 A 
BRANCH  59  63
ATOM     63  S   UNL A   1      35.086  32.740  29.666  1.00  0.00     0.124 S 
ATOM     64  O   UNL A   1      34.440  31.740  28.821  1.00  0.00    -0.237 OA
ATOM     65  O   UNL A   1      34.258  33.322  30.716  1.00  0.00    -0.237 OA
ATOM     66  O   UNL A   1      35.944  33.686  28.953  1.00  0.00    -0.744 OA
ENDBRANCH  59  63
ENDBRANCH  42  56
BRANCH  43  67
ATOM     67  C   UNL A   1      47.075  27.744  26.460  1.00  0.00     0.023 A 
ATOM     68  C   UNL A   1      47.223  27.907  25.076  1.00  0.00     0.031 A 
ATOM     69  C   UNL A   1      48.147  27.181  27.181  1.00  0.00     0.131 A 
ATOM     70  C   UNL A   1      48.404  27.484  24.448  1.00  0.00     0.055 A 
ATOM     71  C   UNL A   1      49.340  26.815  26.559  1.00  0.00     0.041 A 
ATOM     72  F   UNL A   1      48.061  27.017  28.510  1.00  0.00    -0.206 F 
ATOM     73  C   UNL A   1      49.469  26.954  25.183  1.00  0.00     0.022 A 
BRANCH  70  74
ATOM     74  S   UNL A   1      48.502  27.574  22.642  1.00  0.00     0.124 S 
ATOM     75  O   UNL A   1      48.533  26.162  22.274  1.00  0.00    -0.237 OA
ATOM     76  O   UNL A   1      47.278  28.296  22.309  1.00  0.00    -0.237 OA
ATOM     77  O   UNL A   1      49.742  28.310  22.406  1.00  0.00    -0.744 OA
ENDBRANCH  70  74
ENDBRANCH  43  67
BRANCH  55  78
ATOM     78  C   UNL A   1      45.009  33.620  29.580  1.00  0.00     0.023 A 
ATOM     79  C   UNL A   1      45.059  34.671  28.647  1.00  0.00     0.031 A 
ATOM     80  C   UNL A   1      45.715  33.770  30.786  1.00  0.00     0.131 A 
ATOM     81  C   UNL A   1      45.863  35.792  28.900  1.00  0.00     0.055 A 
ATOM     82  C   UNL A   1      46.460  34.916  31.061  1.00  0.00     0.041 A 
ATOM     83  F   UNL A   1      45.706  32.794  31.708  1.00  0.00    -0.206 F 
ATOM     84  C   UNL A   1      46.552  35.927  30.109  1.00  0.00     0.022 A 
BRANCH  81  85
ATOM     85  S   UNL A   1      46.098  37.008  27.576  1.00  0.00     0.124 S 
ATOM     86  O   UNL A   1      44.846  37.756  27.626  1.00  0.00    -0.237 OA
ATOM     87  O   UNL A   1      47.288  37.726  28.021  1.00  0.00    -0.237 OA
ATOM     88  O   UNL A   1      46.281  36.184  26.383  1.00  0.00    -0.744 OA
ENDBRANCH  81  85
ENDBRANCH  55  78
ENDBRANCH  29  30
ENDBRANCH  22  24
ENDBRANCH  21  22
ENDBRANCH  20  21
ENDBRANCH   1  20
TORSDOF 19
ENDMDL
MODEL 3
REMARK VINA RESULT:     -10.2      1.557      2.177
REMARK SMILES C#CCN(CC(=O)OCCOC(=O)c1ccc(-c2c3nc(c(-c4cc(S(=O)(=O)[O-])ccc4F)c4ccc([nH]4)c(-c4cc(S(=O)(=O)[O-])ccc4F)c4nc(c(-c5cc(S(=O)(=O)[O-])ccc5F)c5ccc2[nH]5)C=C4)C=C3)cc1)C(=O)c1c[nH]c(=O)[nH]1
REMARK SMILES IDX 9 1 8 2 6 3 7 4 5 5 4 6 3 7 2 8 1 9 77 10 78 11 79 12 80 13
REMARK SMILES IDX 84 14 81 15 82 16 83 19 10 20 11 21 12 22 13 23 14 24 15 25
REMARK SMILES IDX 76 26 16 27 75 28 17 29 18 30 19 31 69 32 20 33 74 34 68 35
REMARK SMILES IDX 70 36 21 37 73 38 67 39 66 40 22 42 54 43 34 44 53 45 35 46
REMARK SMILES IDX 38 47 52 48 71 49 36 50 37 51 51 53 72 54 39 55 23 56 24 57
REMARK SMILES IDX 32 58 25 59 31 60 33 61 30 62 26 63 27 64 28 65 29 66 55 67
REMARK SMILES IDX 56 68 64 69 57 70 63 71 65 72 62 73 58 74 59 75 60 76 61 77
REMARK SMILES IDX 40 78 41 79 49 80 42 81 48 82 50 83 47 84 43 85 44 86 45 87
REMARK SMILES IDX 46 88
REMARK H PARENT 84 17 81 18 70 41 38 52
REMARK Flexibility Score: inf
ROOT
ATOM      1  C   UNL A   1      35.449  22.627  25.634  1.00  0.00     0.274 C 
ENDROOT
BRANCH   1   2
ATOM      2  O   UNL A   1      34.492  22.502  24.546  1.00  0.00    -0.461 OA
BRANCH   2   3
ATOM      3  C   UNL A   1      34.740  23.269  23.445  1.00  0.00     0.325 C 
ATOM      4  O   UNL A   1      35.757  23.163  22.764  1.00  0.00    -0.250 OA
BRANCH   3   5
ATOM      5  C   UNL A   1      33.542  24.128  22.978  1.00  0.00     0.243 C 
BRANCH   5   6
ATOM      6  N   UNL A   1      33.549  25.571  23.198  1.00  0.00    -0.315 N 
BRANCH   6   7
ATOM      7  C   UNL A   1      34.014  25.992  24.495  1.00  0.00     0.210 C 
BRANCH   7   8
ATOM      8  C   UNL A   1      32.863  26.008  25.488  1.00  0.00    -0.085 C 
ATOM      9  C   UNL A   1      31.876  26.021  26.339  1.00  0.00     0.006 C 
ENDBRANCH   7   8
ENDBRANCH   6   7
BRANCH   6  10
ATOM     10  C   UNL A   1      33.162  26.580  22.331  1.00  0.00     0.273 C 
ATOM     11  O   UNL A   1      33.772  26.803  21.280  1.00  0.00    -0.267 OA
BRANCH  10  12
ATOM     12  C   UNL A   1      32.011  27.446  22.634  1.00  0.00     0.125 A 
ATOM     13  C   UNL A   1      32.130  28.765  22.855  1.00  0.00     0.119 A 
ATOM     14  N   UNL A   1      30.678  27.105  22.662  1.00  0.00    -0.302 N 
ATOM     15  N   UNL A   1      30.880  29.282  23.071  1.00  0.00    -0.312 N 
ATOM     16  C   UNL A   1      29.929  28.256  22.961  1.00  0.00     0.323 A 
ATOM     17  H   UNL A   1      30.312  26.206  22.498  1.00  0.00     0.172 HD
ATOM     18  H   UNL A   1      30.680  30.225  23.272  1.00  0.00     0.171 HD
ATOM     19  O   UNL A   1      28.735  28.369  23.112  1.00  0.00    -0.248 OA
ENDBRANCH  10  12
ENDBRANCH   6  10
ENDBRANCH   5   6
ENDBRANCH   3   5
ENDBRANCH   2   3
ENDBRANCH   1   2
BRANCH   1  20
ATOM     20  C   UNL A   1      36.457  21.454  25.704  1.00  0.00     0.275 C 
BRANCH  20  21
ATOM     21  O   UNL A   1      37.708  21.701  25.007  1.00  0.00    -0.458 OA
BRANCH  21  22
ATOM     22  C   UNL A   1      38.751  21.612  25.850  1.00  0.00     0.338 C 
ATOM     23  O   UNL A   1      39.429  20.608  25.972  1.00  0.00    -0.246 OA
BRANCH  22  24
ATOM     24  C   UNL A   1      39.180  22.770  26.625  1.00  0.00     0.060 A 
ATOM     25  C   UNL A   1      38.855  24.015  26.077  1.00  0.00     0.016 A 
ATOM     26  C   UNL A   1      40.269  22.640  27.488  1.00  0.00     0.016 A 
ATOM     27  C   UNL A   1      39.671  25.113  26.321  1.00  0.00     0.010 A 
ATOM     28  C   UNL A   1      41.025  23.772  27.817  1.00  0.00     0.010 A 
ATOM     29  C   UNL A   1      40.741  25.014  27.223  1.00  0.00    -0.014 A 
BRANCH  29  30
ATOM     30  C   UNL A   1      41.446  26.253  27.639  1.00  0.00     0.031 A 
ATOM     31  C   UNL A   1      40.794  27.316  28.477  1.00  0.00     0.074 A 
ATOM     32  C   UNL A   1      42.723  26.388  27.233  1.00  0.00     0.049 A 
ATOM     33  N   UNL A   1      41.255  28.489  28.831  1.00  0.00    -0.248 NA
ATOM     34  C   UNL A   1      39.450  27.026  28.985  1.00  0.00     0.031 C 
ATOM     35  C   UNL A   1      43.461  25.395  26.443  1.00  0.00     0.029 A 
ATOM     36  N   UNL A   1      43.629  27.394  27.425  1.00  0.00    -0.354 N 
ATOM     37  C   UNL A   1      40.246  29.089  29.582  1.00  0.00     0.074 A 
ATOM     38  C   UNL A   1      39.147  28.148  29.625  1.00  0.00     0.031 C 
ATOM     39  C   UNL A   1      44.711  25.827  26.247  1.00  0.00     0.029 A 
ATOM     40  C   UNL A   1      44.833  27.165  26.803  1.00  0.00     0.049 A 
ATOM     41  H   UNL A   1      43.437  28.203  27.954  1.00  0.00     0.167 HD
ATOM     42  C   UNL A   1      40.244  30.316  30.166  1.00  0.00     0.034 A 
ATOM     43  C   UNL A   1      45.904  27.962  26.650  1.00  0.00     0.034 A 
ATOM     44  C   UNL A   1      41.361  31.234  30.090  1.00  0.00     0.049 A 
ATOM     45  C   UNL A   1      45.860  29.331  27.259  1.00  0.00     0.074 A 
ATOM     46  C   UNL A   1      41.479  32.505  30.627  1.00  0.00     0.029 A 
ATOM     47  N   UNL A   1      42.557  30.979  29.425  1.00  0.00    -0.354 N 
ATOM     48  N   UNL A   1      44.887  29.901  27.932  1.00  0.00    -0.248 NA
ATOM     49  C   UNL A   1      47.056  30.160  27.093  1.00  0.00     0.031 C 
ATOM     50  C   UNL A   1      42.712  33.039  30.236  1.00  0.00     0.029 A 
ATOM     51  C   UNL A   1      43.404  32.074  29.519  1.00  0.00     0.049 A 
ATOM     52  H   UNL A   1      42.771  30.141  28.955  1.00  0.00     0.167 HD
ATOM     53  C   UNL A   1      45.364  31.156  28.289  1.00  0.00     0.074 A 
ATOM     54  C   UNL A   1      46.718  31.244  27.775  1.00  0.00     0.031 C 
ATOM     55  C   UNL A   1      44.742  32.147  28.979  1.00  0.00     0.034 A 
BRANCH  42  56
ATOM     56  C   UNL A   1      38.979  30.762  30.870  1.00  0.00     0.023 A 
ATOM     57  C   UNL A   1      37.992  31.532  30.228  1.00  0.00     0.031 A 
ATOM     58  C   UNL A   1      38.763  30.417  32.217  1.00  0.00     0.131 A 
ATOM     59  C   UNL A   1      36.866  31.974  30.946  1.00  0.00     0.055 A 
ATOM     60  C   UNL A   1      37.610  30.802  32.906  1.00  0.00     0.041 A 
ATOM     61  F   UNL A   1      39.674  29.699  32.893  1.00  0.00    -0.206 F 
ATOM     62  C   UNL A   1      36.659  31.597  32.275  1.00  0.00     0.022 A 
BRANCH  59  63
ATOM     63  S   UNL A   1      35.726  33.147  30.157  1.00  0.00     0.124 S 
ATOM     64  O   UNL A   1      35.216  33.889  31.306  1.00  0.00    -0.237 OA
ATOM     65  O   UNL A   1      36.607  33.887  29.259  1.00  0.00    -0.237 OA
ATOM     66  O   UNL A   1      34.747  32.285  29.497  1.00  0.00    -0.744 OA
ENDBRANCH  59  63
ENDBRANCH  42  56
BRANCH  43  67
ATOM     67  C   UNL A   1      47.066  27.490  25.851  1.00  0.00     0.023 A 
ATOM     68  C   UNL A   1      47.189  27.812  24.492  1.00  0.00     0.031 A 
ATOM     69  C   UNL A   1      48.085  26.720  26.445  1.00  0.00     0.131 A 
ATOM     70  C   UNL A   1      48.291  27.343  23.763  1.00  0.00     0.055 A 
ATOM     71  C   UNL A   1      49.207  26.304  25.728  1.00  0.00     0.041 A 
ATOM     72  F   UNL A   1      48.022  26.396  27.746  1.00  0.00    -0.206 F 
ATOM     73  C   UNL A   1      49.308  26.604  24.375  1.00  0.00     0.022 A 
BRANCH  70  74
ATOM     74  S   UNL A   1      48.342  27.654  21.979  1.00  0.00     0.124 S 
ATOM     75  O   UNL A   1      48.430  26.299  21.443  1.00  0.00    -0.237 OA
ATOM     76  O   UNL A   1      47.080  28.350  21.758  1.00  0.00    -0.237 OA
ATOM     77  O   UNL A   1      49.541  28.472  21.812  1.00  0.00    -0.744 OA
ENDBRANCH  70  74
ENDBRANCH  43  67
BRANCH  55  78
ATOM     78  C   UNL A   1      45.560  33.386  29.242  1.00  0.00     0.023 A 
ATOM     79  C   UNL A   1      45.572  34.465  28.341  1.00  0.00     0.031 A 
ATOM     80  C   UNL A   1      46.384  33.460  30.377  1.00  0.00     0.131 A 
ATOM     81  C   UNL A   1      46.450  35.538  28.550  1.00  0.00     0.055 A 
ATOM     82  C   UNL A   1      47.207  34.560  30.615  1.00  0.00     0.041 A 
ATOM     83  F   UNL A   1      46.415  32.453  31.266  1.00  0.00    -0.206 F 
ATOM     84  C   UNL A   1      47.257  35.599  29.689  1.00  0.00     0.022 A 
BRANCH  81  85
ATOM     85  S   UNL A   1      46.618  36.789  27.247  1.00  0.00     0.124 S 
ATOM     86  O   UNL A   1      46.935  35.971  26.080  1.00  0.00    -0.237 OA
ATOM     87  O   UNL A   1      45.301  37.417  27.247  1.00  0.00    -0.237 OA
ATOM     88  O   UNL A   1      47.709  37.636  27.725  1.00  0.00    -0.744 OA
ENDBRANCH  81  85
ENDBRANCH  55  78
ENDBRANCH  29  30
ENDBRANCH  22  24
ENDBRANCH  21  22
ENDBRANCH  20  21
ENDBRANCH   1  20
TORSDOF 19
ENDMDL
