MODEL 1
REMARK VINA RESULT:     -12.1      0.000      0.000
REMARK SMILES NC(=O)c1cc(NC(=O)/C=C\C(=O)OCCOC(=O)c2ccc(-c3c4nc(c(-c5cc(S(=O)(=O)[O-])ccc5F)c5ccc([nH]5)c(-c5cc(S(=O)(=O)[O-])ccc5F)c5nc(c(-c6cc(S(=O)(=O)[O-])ccc6F)c6ccc3[nH]6)C=C5)C=C4)cc2)ccc1N1CCOCC1
REMARK SMILES IDX 15 1 14 2 12 3 13 4 11 5 10 6 8 7 7 8 9 10 6 11 4 12 5 13
REMARK SMILES IDX 85 14 84 15 83 16 2 17 1 18 3 21 86 22 87 23 91 24 88 25
REMARK SMILES IDX 90 26 89 27 16 28 17 29 18 30 19 31 20 32 21 33 82 34 22 35
REMARK SMILES IDX 81 36 23 37 24 38 25 39 75 40 26 41 80 42 74 43 76 44 27 45
REMARK SMILES IDX 79 46 73 47 72 48 28 50 60 51 40 52 59 53 41 54 44 55 58 56
REMARK SMILES IDX 77 57 42 58 43 59 57 61 78 62 45 63 29 64 30 65 38 66 31 67
REMARK SMILES IDX 37 68 39 69 36 70 32 71 33 72 34 73 35 74 61 75 62 76 70 77
REMARK SMILES IDX 63 78 69 79 71 80 68 81 64 82 65 83 66 84 67 85 46 86 47 87
REMARK SMILES IDX 55 88 48 89 54 90 56 91 53 92 49 93 50 94 51 95 52 96
REMARK H PARENT 7 9 1 19 1 20 76 49 44 60
REMARK Flexibility Score: inf
ROOT
ATOM      1  C   UNL A   1      37.839  20.404  25.011  1.00  0.00     0.275 C 
ENDROOT
BRANCH   1   2
ATOM      2  O   UNL A   1      37.913  21.840  24.923  1.00  0.00    -0.459 OA
BRANCH   2   3
ATOM      3  C   UNL A   1      36.818  22.413  24.382  1.00  0.00     0.331 C 
ATOM      4  O   UNL A   1      36.630  22.607  23.191  1.00  0.00    -0.247 OA
BRANCH   3   5
ATOM      5  C   UNL A   1      35.803  22.791  25.366  1.00  0.00     0.099 C 
ATOM      6  C   UNL A   1      34.601  22.218  25.514  1.00  0.00     0.079 C 
BRANCH   6   7
ATOM      7  C   UNL A   1      33.926  21.229  24.640  1.00  0.00     0.248 C 
ATOM      8  N   UNL A   1      32.818  21.503  23.893  1.00  0.00    -0.322 N 
ATOM      9  H   UNL A   1      32.394  20.705  23.503  1.00  0.00     0.170 HD
ATOM     10  O   UNL A   1      34.381  20.083  24.627  1.00  0.00    -0.270 OA
BRANCH   8  11
ATOM     11  C   UNL A   1      32.169  22.704  23.574  1.00  0.00     0.042 A 
ATOM     12  C   UNL A   1      32.088  24.833  22.433  1.00  0.00     0.064 A 
ATOM     13  C   UNL A   1      32.496  23.486  22.479  1.00  0.00     0.042 A 
ATOM     14  C   UNL A   1      31.300  25.402  23.461  1.00  0.00     0.050 A 
ATOM     15  C   UNL A   1      30.807  24.513  24.430  1.00  0.00     0.029 A 
ATOM     16  C   UNL A   1      31.220  23.175  24.479  1.00  0.00     0.028 A 
BRANCH  12  17
ATOM     17  C   UNL A   1      32.803  25.622  21.403  1.00  0.00     0.250 C 
ATOM     18  N   UNL A   1      32.232  25.633  20.171  1.00  0.00    -0.366 N 
ATOM     19  H   UNL A   1      32.654  26.137  19.437  1.00  0.00     0.159 HD
ATOM     20  H   UNL A   1      31.397  25.137  20.010  1.00  0.00     0.159 HD
ATOM     21  O   UNL A   1      33.768  26.318  21.685  1.00  0.00    -0.269 OA
ENDBRANCH  12  17
BRANCH  14  22
ATOM     22  N   UNL A   1      31.092  26.766  23.600  1.00  0.00    -0.366 N 
ATOM     23  C   UNL A   1      29.921  27.414  22.987  1.00  0.00     0.145 C 
ATOM     24  C   UNL A   1      31.749  27.529  24.671  1.00  0.00     0.145 C 
ATOM     25  C   UNL A   1      30.248  28.876  22.631  1.00  0.00     0.181 C 
ATOM     26  C   UNL A   1      31.987  28.976  24.210  1.00  0.00     0.181 C 
ATOM     27  O   UNL A   1      30.768  29.591  23.770  1.00  0.00    -0.378 OA
ENDBRANCH  14  22
ENDBRANCH   8  11
ENDBRANCH   6   7
ENDBRANCH   3   5
ENDBRANCH   2   3
ENDBRANCH   1   2
BRANCH   1  28
ATOM     28  C   UNL A   1      39.112  19.675  25.475  1.00  0.00     0.275 C 
BRANCH  28  29
ATOM     29  O   UNL A   1      40.268  20.528  25.580  1.00  0.00    -0.458 OA
BRANCH  29  30
ATOM     30  C   UNL A   1      40.850  20.543  26.812  1.00  0.00     0.338 C 
ATOM     31  O   UNL A   1      41.345  19.590  27.381  1.00  0.00    -0.246 OA
BRANCH  30  32
ATOM     32  C   UNL A   1      40.975  21.939  27.299  1.00  0.00     0.060 A 
ATOM     33  C   UNL A   1      40.262  22.936  26.618  1.00  0.00     0.016 A 
ATOM     34  C   UNL A   1      41.786  22.278  28.383  1.00  0.00     0.016 A 
ATOM     35  C   UNL A   1      40.363  24.271  27.009  1.00  0.00     0.010 A 
ATOM     36  C   UNL A   1      41.901  23.620  28.767  1.00  0.00     0.010 A 
ATOM     37  C   UNL A   1      41.209  24.625  28.066  1.00  0.00    -0.014 A 
BRANCH  37  38
ATOM     38  C   UNL A   1      41.588  26.048  28.247  1.00  0.00     0.031 A 
ATOM     39  C   UNL A   1      42.946  26.460  27.750  1.00  0.00     0.074 A 
ATOM     40  C   UNL A   1      40.762  26.949  28.810  1.00  0.00     0.049 A 
ATOM     41  N   UNL A   1      43.546  27.618  27.825  1.00  0.00    -0.248 NA
ATOM     42  C   UNL A   1      43.739  25.410  27.088  1.00  0.00     0.031 C 
ATOM     43  C   UNL A   1      39.415  26.673  29.295  1.00  0.00     0.029 A 
ATOM     44  N   UNL A   1      40.941  28.285  29.074  1.00  0.00    -0.354 N 
ATOM     45  C   UNL A   1      44.786  27.435  27.222  1.00  0.00     0.074 A 
ATOM     46  C   UNL A   1      44.866  26.047  26.825  1.00  0.00     0.031 C 
ATOM     47  C   UNL A   1      38.879  27.803  29.787  1.00  0.00     0.029 A 
ATOM     48  C   UNL A   1      39.872  28.871  29.716  1.00  0.00     0.049 A 
ATOM     49  H   UNL A   1      41.756  28.778  28.828  1.00  0.00     0.167 HD
ATOM     50  C   UNL A   1      45.766  28.346  27.016  1.00  0.00     0.034 A 
ATOM     51  C   UNL A   1      39.729  30.113  30.221  1.00  0.00     0.034 A 
ATOM     52  C   UNL A   1      45.681  29.715  27.458  1.00  0.00     0.049 A 
ATOM     53  C   UNL A   1      40.877  31.083  30.074  1.00  0.00     0.074 A 
ATOM     54  C   UNL A   1      46.613  30.725  27.319  1.00  0.00     0.029 A 
ATOM     55  N   UNL A   1      44.603  30.258  28.148  1.00  0.00    -0.354 N 
ATOM     56  N   UNL A   1      42.043  30.905  29.493  1.00  0.00    -0.248 NA
ATOM     57  C   UNL A   1      40.692  32.422  30.647  1.00  0.00     0.031 C 
ATOM     58  C   UNL A   1      46.135  31.854  27.992  1.00  0.00     0.029 A 
ATOM     59  C   UNL A   1      44.864  31.579  28.473  1.00  0.00     0.049 A 
ATOM     60  H   UNL A   1      43.775  29.775  28.372  1.00  0.00     0.167 HD
ATOM     61  C   UNL A   1      42.714  32.120  29.602  1.00  0.00     0.074 A 
ATOM     62  C   UNL A   1      41.815  33.026  30.289  1.00  0.00     0.031 C 
ATOM     63  C   UNL A   1      43.956  32.461  29.170  1.00  0.00     0.034 A 
BRANCH  50  64
ATOM     64  C   UNL A   1      47.027  27.854  26.349  1.00  0.00     0.023 A 
ATOM     65  C   UNL A   1      47.273  28.071  24.980  1.00  0.00     0.031 A 
ATOM     66  C   UNL A   1      47.964  27.097  27.074  1.00  0.00     0.131 A 
ATOM     67  C   UNL A   1      48.379  27.467  24.364  1.00  0.00     0.055 A 
ATOM     68  C   UNL A   1      49.110  26.573  26.472  1.00  0.00     0.041 A 
ATOM     69  F   UNL A   1      47.767  26.830  28.374  1.00  0.00    -0.206 F 
ATOM     70  C   UNL A   1      49.314  26.742  25.106  1.00  0.00     0.022 A 
BRANCH  67  71
ATOM     71  S   UNL A   1      48.487  27.502  22.553  1.00  0.00     0.124 S 
ATOM     72  O   UNL A   1      47.260  28.211  22.198  1.00  0.00    -0.237 OA
ATOM     73  O   UNL A   1      49.733  28.226  22.326  1.00  0.00    -0.237 OA
ATOM     74  O   UNL A   1      48.511  26.088  22.185  1.00  0.00    -0.744 OA
ENDBRANCH  67  71
ENDBRANCH  50  64
BRANCH  51  75
ATOM     75  C   UNL A   1      38.489  30.502  30.961  1.00  0.00     0.023 A 
ATOM     76  C   UNL A   1      37.455  31.217  30.333  1.00  0.00     0.031 A 
ATOM     77  C   UNL A   1      38.349  30.219  32.333  1.00  0.00     0.131 A 
ATOM     78  C   UNL A   1      36.355  31.665  31.083  1.00  0.00     0.055 A 
ATOM     79  C   UNL A   1      37.224  30.614  33.060  1.00  0.00     0.041 A 
ATOM     80  F   UNL A   1      39.307  29.545  32.989  1.00  0.00    -0.206 F 
ATOM     81  C   UNL A   1      36.225  31.354  32.439  1.00  0.00     0.022 A 
BRANCH  78  82
ATOM     82  S   UNL A   1      35.138  32.748  30.284  1.00  0.00     0.124 S 
ATOM     83  O   UNL A   1      34.259  33.080  31.400  1.00  0.00    -0.237 OA
ATOM     84  O   UNL A   1      35.976  33.831  29.782  1.00  0.00    -0.237 OA
ATOM     85  O   UNL A   1      34.544  31.894  29.257  1.00  0.00    -0.744 OA
ENDBRANCH  78  82
ENDBRANCH  51  75
BRANCH  63  86
ATOM     86  C   UNL A   1      44.388  33.891  29.388  1.00  0.00     0.023 A 
ATOM     87  C   UNL A   1      44.024  34.920  28.503  1.00  0.00     0.031 A 
ATOM     88  C   UNL A   1      45.186  34.224  30.497  1.00  0.00     0.131 A 
ATOM     89  C   UNL A   1      44.506  36.221  28.709  1.00  0.00     0.055 A 
ATOM     90  C   UNL A   1      45.605  35.533  30.735  1.00  0.00     0.041 A 
ATOM     91  F   UNL A   1      45.569  33.280  31.373  1.00  0.00    -0.206 F 
ATOM     92  C   UNL A   1      45.278  36.538  29.830  1.00  0.00     0.022 A 
BRANCH  89  93
ATOM     93  S   UNL A   1      44.202  37.473  27.432  1.00  0.00     0.124 S 
ATOM     94  O   UNL A   1      43.786  38.623  28.229  1.00  0.00    -0.237 OA
ATOM     95  O   UNL A   1      45.506  37.583  26.786  1.00  0.00    -0.237 OA
ATOM     96  O   UNL A   1      43.152  36.875  26.610  1.00  0.00    -0.744 OA
ENDBRANCH  89  93
ENDBRANCH  63  86
ENDBRANCH  37  38
ENDBRANCH  30  32
ENDBRANCH  29  30
ENDBRANCH  28  29
ENDBRANCH   1  28
TORSDOF 18
ENDMDL
MODEL 2
REMARK VINA RESULT:     -12.0      4.800      8.284
REMARK SMILES NC(=O)c1cc(NC(=O)/C=C\C(=O)OCCOC(=O)c2ccc(-c3c4nc(c(-c5cc(S(=O)(=O)[O-])ccc5F)c5ccc([nH]5)c(-c5cc(S(=O)(=O)[O-])ccc5F)c5nc(c(-c6cc(S(=O)(=O)[O-])ccc6F)c6ccc3[nH]6)C=C5)C=C4)cc2)ccc1N1CCOCC1
REMARK SMILES IDX 15 1 14 2 12 3 13 4 11 5 10 6 8 7 7 8 9 10 6 11 4 12 5 13
REMARK SMILES IDX 85 14 84 15 83 16 2 17 1 18 3 21 86 22 87 23 91 24 88 25
REMARK SMILES IDX 90 26 89 27 16 28 17 29 18 30 19 31 20 32 21 33 82 34 22 35
REMARK SMILES IDX 81 36 23 37 24 38 25 39 75 40 26 41 80 42 74 43 76 44 27 45
REMARK SMILES IDX 79 46 73 47 72 48 28 50 60 51 40 52 59 53 41 54 44 55 58 56
REMARK SMILES IDX 77 57 42 58 43 59 57 61 78 62 45 63 29 64 30 65 38 66 31 67
REMARK SMILES IDX 37 68 39 69 36 70 32 71 33 72 34 73 35 74 61 75 62 76 70 77
REMARK SMILES IDX 63 78 69 79 71 80 68 81 64 82 65 83 66 84 67 85 46 86 47 87
REMARK SMILES IDX 55 88 48 89 54 90 56 91 53 92 49 93 50 94 51 95 52 96
REMARK H PARENT 7 9 1 19 1 20 76 49 44 60
REMARK Flexibility Score: inf
ROOT
ATOM      1  C   UNL A   1      31.257  29.516  24.583  1.00  0.00     0.275 C 
ENDROOT
BRANCH   1   2
ATOM      2  O   UNL A   1      32.364  28.648  24.271  1.00  0.00    -0.459 OA
BRANCH   2   3
ATOM      3  C   UNL A   1      32.060  27.334  24.317  1.00  0.00     0.331 C 
ATOM      4  O   UNL A   1      30.974  26.845  24.048  1.00  0.00    -0.247 OA
BRANCH   3   5
ATOM      5  C   UNL A   1      33.182  26.483  24.713  1.00  0.00     0.099 C 
ATOM      6  C   UNL A   1      33.870  25.665  23.904  1.00  0.00     0.079 C 
BRANCH   6   7
ATOM      7  C   UNL A   1      33.573  25.268  22.507  1.00  0.00     0.248 C 
ATOM      8  N   UNL A   1      33.294  23.991  22.120  1.00  0.00    -0.322 N 
ATOM      9  H   UNL A   1      33.287  23.864  21.144  1.00  0.00     0.170 HD
ATOM     10  O   UNL A   1      33.622  26.151  21.647  1.00  0.00    -0.270 OA
BRANCH   8  11
ATOM     11  C   UNL A   1      33.016  22.825  22.846  1.00  0.00     0.042 A 
ATOM     12  C   UNL A   1      33.649  21.107  24.424  1.00  0.00     0.064 A 
ATOM     13  C   UNL A   1      33.713  22.442  23.980  1.00  0.00     0.042 A 
ATOM     14  C   UNL A   1      32.842  20.148  23.769  1.00  0.00     0.050 A 
ATOM     15  C   UNL A   1      31.984  20.636  22.770  1.00  0.00     0.029 A 
ATOM     16  C   UNL A   1      32.053  21.963  22.323  1.00  0.00     0.028 A 
BRANCH  12  17
ATOM     17  C   UNL A   1      34.706  20.770  25.405  1.00  0.00     0.250 C 
ATOM     18  N   UNL A   1      34.307  20.713  26.703  1.00  0.00    -0.366 N 
ATOM     19  H   UNL A   1      34.958  20.495  27.409  1.00  0.00     0.159 HD
ATOM     20  H   UNL A   1      33.368  20.891  26.937  1.00  0.00     0.159 HD
ATOM     21  O   UNL A   1      35.828  20.440  25.049  1.00  0.00    -0.269 OA
ENDBRANCH  12  17
BRANCH  14  22
ATOM     22  N   UNL A   1      32.939  18.784  23.995  1.00  0.00    -0.366 N 
ATOM     23  C   UNL A   1      32.318  18.172  25.182  1.00  0.00     0.145 C 
ATOM     24  C   UNL A   1      33.268  17.854  22.904  1.00  0.00     0.145 C 
ATOM     25  C   UNL A   1      33.111  16.925  25.614  1.00  0.00     0.181 C 
ATOM     26  C   UNL A   1      34.022  16.638  23.465  1.00  0.00     0.181 C 
ATOM     27  O   UNL A   1      33.281  16.004  24.517  1.00  0.00    -0.378 OA
ENDBRANCH  14  22
ENDBRANCH   8  11
ENDBRANCH   6   7
ENDBRANCH   3   5
ENDBRANCH   2   3
ENDBRANCH   1   2
BRANCH   1  28
ATOM     28  C   UNL A   1      31.450  30.481  25.766  1.00  0.00     0.275 C 
BRANCH  28  29
ATOM     29  O   UNL A   1      32.681  30.284  26.486  1.00  0.00    -0.458 OA
BRANCH  29  30
ATOM     30  C   UNL A   1      33.183  31.409  27.068  1.00  0.00     0.338 C 
ATOM     31  O   UNL A   1      32.580  32.448  27.254  1.00  0.00    -0.246 OA
BRANCH  30  32
ATOM     32  C   UNL A   1      34.530  31.136  27.627  1.00  0.00     0.060 A 
ATOM     33  C   UNL A   1      34.907  29.797  27.800  1.00  0.00     0.016 A 
ATOM     34  C   UNL A   1      35.402  32.160  27.999  1.00  0.00     0.016 A 
ATOM     35  C   UNL A   1      36.148  29.476  28.351  1.00  0.00     0.010 A 
ATOM     36  C   UNL A   1      36.642  31.840  28.567  1.00  0.00     0.010 A 
ATOM     37  C   UNL A   1      37.010  30.497  28.768  1.00  0.00    -0.014 A 
BRANCH  37  38
ATOM     38  C   UNL A   1      38.147  30.167  29.662  1.00  0.00     0.031 A 
ATOM     39  C   UNL A   1      39.162  29.188  29.139  1.00  0.00     0.074 A 
ATOM     40  C   UNL A   1      38.292  30.719  30.880  1.00  0.00     0.049 A 
ATOM     41  N   UNL A   1      40.217  28.688  29.725  1.00  0.00    -0.248 NA
ATOM     42  C   UNL A   1      38.942  28.699  27.767  1.00  0.00     0.031 C 
ATOM     43  C   UNL A   1      37.393  31.702  31.475  1.00  0.00     0.029 A 
ATOM     44  N   UNL A   1      39.253  30.526  31.842  1.00  0.00    -0.354 N 
ATOM     45  C   UNL A   1      40.786  27.826  28.794  1.00  0.00     0.074 A 
ATOM     46  C   UNL A   1      39.936  27.840  27.624  1.00  0.00     0.031 C 
ATOM     47  C   UNL A   1      37.847  32.038  32.695  1.00  0.00     0.029 A 
ATOM     48  C   UNL A   1      39.032  31.244  32.997  1.00  0.00     0.049 A 
ATOM     49  H   UNL A   1      40.027  29.931  31.718  1.00  0.00     0.167 HD
ATOM     50  C   UNL A   1      41.918  27.091  28.906  1.00  0.00     0.034 A 
ATOM     51  C   UNL A   1      39.690  31.229  34.175  1.00  0.00     0.034 A 
ATOM     52  C   UNL A   1      42.726  27.060  30.098  1.00  0.00     0.049 A 
ATOM     53  C   UNL A   1      40.890  30.321  34.315  1.00  0.00     0.074 A 
ATOM     54  C   UNL A   1      43.886  26.346  30.335  1.00  0.00     0.029 A 
ATOM     55  N   UNL A   1      42.444  27.761  31.264  1.00  0.00    -0.354 N 
ATOM     56  N   UNL A   1      41.427  29.516  33.425  1.00  0.00    -0.248 NA
ATOM     57  C   UNL A   1      41.574  30.322  35.614  1.00  0.00     0.031 C 
ATOM     58  C   UNL A   1      44.259  26.552  31.668  1.00  0.00     0.029 A 
ATOM     59  C   UNL A   1      43.386  27.467  32.236  1.00  0.00     0.049 A 
ATOM     60  H   UNL A   1      41.686  28.377  31.383  1.00  0.00     0.167 HD
ATOM     61  C   UNL A   1      42.531  28.941  34.049  1.00  0.00     0.074 A 
ATOM     62  C   UNL A   1      42.590  29.505  35.383  1.00  0.00     0.031 C 
ATOM     63  C   UNL A   1      43.420  28.034  33.565  1.00  0.00     0.034 A 
BRANCH  50  64
ATOM     64  C   UNL A   1      42.285  26.217  27.732  1.00  0.00     0.023 A 
ATOM     65  C   UNL A   1      41.793  24.905  27.604  1.00  0.00     0.031 A 
ATOM     66  C   UNL A   1      43.196  26.675  26.765  1.00  0.00     0.131 A 
ATOM     67  C   UNL A   1      42.277  24.073  26.584  1.00  0.00     0.055 A 
ATOM     68  C   UNL A   1      43.607  25.870  25.701  1.00  0.00     0.041 A 
ATOM     69  F   UNL A   1      43.725  27.906  26.853  1.00  0.00    -0.206 F 
ATOM     70  C   UNL A   1      43.161  24.554  25.616  1.00  0.00     0.022 A 
BRANCH  67  71
ATOM     71  S   UNL A   1      41.867  22.306  26.640  1.00  0.00     0.124 S 
ATOM     72  O   UNL A   1      42.559  21.882  27.855  1.00  0.00    -0.237 OA
ATOM     73  O   UNL A   1      40.410  22.322  26.707  1.00  0.00    -0.237 OA
ATOM     74  O   UNL A   1      42.429  21.785  25.396  1.00  0.00    -0.744 OA
ENDBRANCH  67  71
ENDBRANCH  50  64
BRANCH  51  75
ATOM     75  C   UNL A   1      39.209  32.044  35.332  1.00  0.00     0.023 A 
ATOM     76  C   UNL A   1      39.644  33.367  35.527  1.00  0.00     0.031 A 
ATOM     77  C   UNL A   1      38.354  31.487  36.301  1.00  0.00     0.131 A 
ATOM     78  C   UNL A   1      39.262  34.069  36.683  1.00  0.00     0.055 A 
ATOM     79  C   UNL A   1      37.930  32.210  37.419  1.00  0.00     0.041 A 
ATOM     80  F   UNL A   1      37.912  30.226  36.174  1.00  0.00    -0.206 F 
ATOM     81  C   UNL A   1      38.395  33.504  37.622  1.00  0.00     0.022 A 
BRANCH  78  82
ATOM     82  S   UNL A   1      39.995  35.699  36.995  1.00  0.00     0.124 S 
ATOM     83  O   UNL A   1      39.299  36.108  38.210  1.00  0.00    -0.237 OA
ATOM     84  O   UNL A   1      41.409  35.374  37.144  1.00  0.00    -0.237 OA
ATOM     85  O   UNL A   1      39.654  36.461  35.795  1.00  0.00    -0.744 OA
ENDBRANCH  78  82
ENDBRANCH  51  75
BRANCH  63  86
ATOM     86  C   UNL A   1      44.559  27.640  34.473  1.00  0.00     0.023 A 
ATOM     87  C   UNL A   1      44.494  26.500  35.293  1.00  0.00     0.031 A 
ATOM     88  C   UNL A   1      45.725  28.424  34.523  1.00  0.00     0.131 A 
ATOM     89  C   UNL A   1      45.550  26.211  36.171  1.00  0.00     0.055 A 
ATOM     90  C   UNL A   1      46.801  28.093  35.346  1.00  0.00     0.041 A 
ATOM     91  F   UNL A   1      45.840  29.527  33.764  1.00  0.00    -0.206 F 
ATOM     92  C   UNL A   1      46.710  26.989  36.189  1.00  0.00     0.022 A 
BRANCH  89  93
ATOM     93  S   UNL A   1      45.339  24.867  37.371  1.00  0.00     0.124 S 
ATOM     94  O   UNL A   1      44.576  25.522  38.428  1.00  0.00    -0.237 OA
ATOM     95  O   UNL A   1      44.620  23.864  36.592  1.00  0.00    -0.237 OA
ATOM     96  O   UNL A   1      46.711  24.508  37.726  1.00  0.00    -0.744 OA
ENDBRANCH  89  93
ENDBRANCH  63  86
ENDBRANCH  37  38
ENDBRANCH  30  32
ENDBRANCH  29  30
ENDBRANCH  28  29
ENDBRANCH   1  28
TORSDOF 18
ENDMDL
MODEL 3
REMARK VINA RESULT:     -11.8      5.037     10.247
REMARK SMILES NC(=O)c1cc(NC(=O)/C=C\C(=O)OCCOC(=O)c2ccc(-c3c4nc(c(-c5cc(S(=O)(=O)[O-])ccc5F)c5ccc([nH]5)c(-c5cc(S(=O)(=O)[O-])ccc5F)c5nc(c(-c6cc(S(=O)(=O)[O-])ccc6F)c6ccc3[nH]6)C=C5)C=C4)cc2)ccc1N1CCOCC1
REMARK SMILES IDX 15 1 14 2 12 3 13 4 11 5 10 6 8 7 7 8 9 10 6 11 4 12 5 13
REMARK SMILES IDX 85 14 84 15 83 16 2 17 1 18 3 21 86 22 87 23 91 24 88 25
REMARK SMILES IDX 90 26 89 27 16 28 17 29 18 30 19 31 20 32 21 33 82 34 22 35
REMARK SMILES IDX 81 36 23 37 24 38 25 39 75 40 26 41 80 42 74 43 76 44 27 45
REMARK SMILES IDX 79 46 73 47 72 48 28 50 60 51 40 52 59 53 41 54 44 55 58 56
REMARK SMILES IDX 77 57 42 58 43 59 57 61 78 62 45 63 29 64 30 65 38 66 31 67
REMARK SMILES IDX 37 68 39 69 36 70 32 71 33 72 34 73 35 74 61 75 62 76 70 77
REMARK SMILES IDX 63 78 69 79 71 80 68 81 64 82 65 83 66 84 67 85 46 86 47 87
REMARK SMILES IDX 55 88 48 89 54 90 56 91 53 92 49 93 50 94 51 95 52 96
REMARK H PARENT 7 9 1 19 1 20 76 49 44 60
REMARK Flexibility Score: inf
ROOT
ATOM      1  C   UNL A   1      31.788  29.775  26.855  1.00  0.00     0.275 C 
ENDROOT
BRANCH   1   2
ATOM      2  O   UNL A   1      32.651  28.623  26.920  1.00  0.00    -0.459 OA
BRANCH   2   3
ATOM      3  C   UNL A   1      31.998  27.445  26.840  1.00  0.00     0.331 C 
ATOM      4  O   UNL A   1      30.946  27.175  27.396  1.00  0.00    -0.247 OA
BRANCH   3   5
ATOM      5  C   UNL A   1      32.658  26.463  25.980  1.00  0.00     0.099 C 
ATOM      6  C   UNL A   1      32.073  25.398  25.412  1.00  0.00     0.079 C 
BRANCH   6   7
ATOM      7  C   UNL A   1      30.720  24.842  25.647  1.00  0.00     0.248 C 
ATOM      8  N   UNL A   1      29.573  25.391  25.154  1.00  0.00    -0.322 N 
ATOM      9  H   UNL A   1      28.752  25.005  25.536  1.00  0.00     0.170 HD
ATOM     10  O   UNL A   1      30.637  23.842  26.365  1.00  0.00    -0.270 OA
BRANCH   8  11
ATOM     11  C   UNL A   1      29.342  26.399  24.208  1.00  0.00     0.042 A 
ATOM     12  C   UNL A   1      30.057  28.341  22.959  1.00  0.00     0.064 A 
ATOM     13  C   UNL A   1      30.351  27.114  23.585  1.00  0.00     0.042 A 
ATOM     14  C   UNL A   1      28.736  28.844  22.902  1.00  0.00     0.050 A 
ATOM     15  C   UNL A   1      27.722  27.979  23.345  1.00  0.00     0.029 A 
ATOM     16  C   UNL A   1      28.016  26.761  23.975  1.00  0.00     0.028 A 
BRANCH  12  17
ATOM     17  C   UNL A   1      31.264  29.146  22.664  1.00  0.00     0.250 C 
ATOM     18  N   UNL A   1      31.168  29.979  21.595  1.00  0.00    -0.366 N 
ATOM     19  H   UNL A   1      31.934  30.545  21.342  1.00  0.00     0.159 HD
ATOM     20  H   UNL A   1      30.334  30.018  21.075  1.00  0.00     0.159 HD
ATOM     21  O   UNL A   1      32.230  29.150  23.414  1.00  0.00    -0.269 OA
ENDBRANCH  12  17
BRANCH  14  22
ATOM     22  N   UNL A   1      28.428  30.145  22.538  1.00  0.00    -0.366 N 
ATOM     23  C   UNL A   1      27.915  30.448  21.192  1.00  0.00     0.145 C 
ATOM     24  C   UNL A   1      28.190  31.182  23.553  1.00  0.00     0.145 C 
ATOM     25  C   UNL A   1      28.331  31.870  20.772  1.00  0.00     0.181 C 
ATOM     26  C   UNL A   1      28.607  32.555  23.004  1.00  0.00     0.181 C 
ATOM     27  O   UNL A   1      27.947  32.844  21.764  1.00  0.00    -0.378 OA
ENDBRANCH  14  22
ENDBRANCH   8  11
ENDBRANCH   6   7
ENDBRANCH   3   5
ENDBRANCH   2   3
ENDBRANCH   1   2
BRANCH   1  28
ATOM     28  C   UNL A   1      32.474  31.141  26.677  1.00  0.00     0.275 C 
BRANCH  28  29
ATOM     29  O   UNL A   1      33.083  31.651  27.878  1.00  0.00    -0.458 OA
BRANCH  29  30
ATOM     30  C   UNL A   1      34.110  32.521  27.667  1.00  0.00     0.338 C 
ATOM     31  O   UNL A   1      34.007  33.671  27.288  1.00  0.00    -0.246 OA
BRANCH  30  32
ATOM     32  C   UNL A   1      35.383  31.933  28.153  1.00  0.00     0.060 A 
ATOM     33  C   UNL A   1      35.412  30.554  28.408  1.00  0.00     0.016 A 
ATOM     34  C   UNL A   1      36.521  32.709  28.378  1.00  0.00     0.016 A 
ATOM     35  C   UNL A   1      36.570  29.949  28.896  1.00  0.00     0.010 A 
ATOM     36  C   UNL A   1      37.680  32.104  28.882  1.00  0.00     0.010 A 
ATOM     37  C   UNL A   1      37.702  30.727  29.166  1.00  0.00    -0.014 A 
BRANCH  37  38
ATOM     38  C   UNL A   1      38.788  30.160  30.003  1.00  0.00     0.031 A 
ATOM     39  C   UNL A   1      38.879  30.649  31.423  1.00  0.00     0.074 A 
ATOM     40  C   UNL A   1      39.650  29.237  29.540  1.00  0.00     0.049 A 
ATOM     41  N   UNL A   1      39.754  30.361  32.349  1.00  0.00    -0.248 NA
ATOM     42  C   UNL A   1      37.842  31.606  31.845  1.00  0.00     0.031 C 
ATOM     43  C   UNL A   1      39.637  28.667  28.198  1.00  0.00     0.029 A 
ATOM     44  N   UNL A   1      40.714  28.620  30.150  1.00  0.00    -0.354 N 
ATOM     45  C   UNL A   1      39.374  31.102  33.463  1.00  0.00     0.074 A 
ATOM     46  C   UNL A   1      38.217  31.881  33.082  1.00  0.00     0.031 C 
ATOM     47  C   UNL A   1      40.634  27.773  28.084  1.00  0.00     0.029 A 
ATOM     48  C   UNL A   1      41.402  27.757  29.324  1.00  0.00     0.049 A 
ATOM     49  H   UNL A   1      40.963  28.778  31.089  1.00  0.00     0.167 HD
ATOM     50  C   UNL A   1      39.939  31.126  34.693  1.00  0.00     0.034 A 
ATOM     51  C   UNL A   1      42.541  27.067  29.536  1.00  0.00     0.034 A 
ATOM     52  C   UNL A   1      41.118  30.373  35.037  1.00  0.00     0.049 A 
ATOM     53  C   UNL A   1      43.216  27.191  30.882  1.00  0.00     0.074 A 
ATOM     54  C   UNL A   1      41.790  30.326  36.244  1.00  0.00     0.029 A 
ATOM     55  N   UNL A   1      41.815  29.549  34.161  1.00  0.00    -0.354 N 
ATOM     56  N   UNL A   1      42.843  27.886  31.933  1.00  0.00    -0.248 NA
ATOM     57  C   UNL A   1      44.460  26.435  31.072  1.00  0.00     0.031 C 
ATOM     58  C   UNL A   1      42.934  29.539  36.076  1.00  0.00     0.029 A 
ATOM     59  C   UNL A   1      42.929  29.019  34.790  1.00  0.00     0.049 A 
ATOM     60  H   UNL A   1      41.555  29.367  33.229  1.00  0.00     0.167 HD
ATOM     61  C   UNL A   1      43.791  27.624  32.919  1.00  0.00     0.074 A 
ATOM     62  C   UNL A   1      44.741  26.694  32.340  1.00  0.00     0.031 C 
ATOM     63  C   UNL A   1      43.870  28.101  34.189  1.00  0.00     0.034 A 
BRANCH  50  64
ATOM     64  C   UNL A   1      39.322  32.052  35.712  1.00  0.00     0.023 A 
ATOM     65  C   UNL A   1      39.705  33.403  35.811  1.00  0.00     0.031 A 
ATOM     66  C   UNL A   1      38.390  31.563  36.642  1.00  0.00     0.131 A 
ATOM     67  C   UNL A   1      39.224  34.190  36.867  1.00  0.00     0.055 A 
ATOM     68  C   UNL A   1      37.848  32.377  37.639  1.00  0.00     0.041 A 
ATOM     69  F   UNL A   1      38.012  30.275  36.619  1.00  0.00    -0.206 F 
ATOM     70  C   UNL A   1      38.277  33.695  37.766  1.00  0.00     0.022 A 
BRANCH  67  71
ATOM     71  S   UNL A   1      39.979  35.816  37.149  1.00  0.00     0.124 S 
ATOM     72  O   UNL A   1      39.258  36.274  38.335  1.00  0.00    -0.237 OA
ATOM     73  O   UNL A   1      41.384  35.482  37.344  1.00  0.00    -0.237 OA
ATOM     74  O   UNL A   1      39.676  36.551  35.922  1.00  0.00    -0.744 OA
ENDBRANCH  67  71
ENDBRANCH  50  64
BRANCH  51  75
ATOM     75  C   UNL A   1      43.155  26.247  28.446  1.00  0.00     0.023 A 
ATOM     76  C   UNL A   1      44.196  26.752  27.648  1.00  0.00     0.031 A 
ATOM     77  C   UNL A   1      42.662  24.965  28.143  1.00  0.00     0.131 A 
ATOM     78  C   UNL A   1      44.676  26.002  26.561  1.00  0.00     0.055 A 
ATOM     79  C   UNL A   1      43.183  24.198  27.098  1.00  0.00     0.041 A 
ATOM     80  F   UNL A   1      41.663  24.432  28.864  1.00  0.00    -0.206 F 
ATOM     81  C   UNL A   1      44.187  24.721  26.291  1.00  0.00     0.022 A 
BRANCH  78  82
ATOM     82  S   UNL A   1      45.882  26.763  25.441  1.00  0.00     0.124 S 
ATOM     83  O   UNL A   1      46.908  27.217  26.373  1.00  0.00    -0.237 OA
ATOM     84  O   UNL A   1      46.248  25.644  24.580  1.00  0.00    -0.237 OA
ATOM     85  O   UNL A   1      45.119  27.825  24.788  1.00  0.00    -0.744 OA
ENDBRANCH  78  82
ENDBRANCH  51  75
BRANCH  63  86
ATOM     86  C   UNL A   1      44.997  27.581  35.048  1.00  0.00     0.023 A 
ATOM     87  C   UNL A   1      44.876  26.396  35.793  1.00  0.00     0.031 A 
ATOM     88  C   UNL A   1      46.208  28.291  35.126  1.00  0.00     0.131 A 
ATOM     89  C   UNL A   1      45.926  25.988  36.630  1.00  0.00     0.055 A 
ATOM     90  C   UNL A   1      47.274  27.844  35.906  1.00  0.00     0.041 A 
ATOM     91  F   UNL A   1      46.377  29.433  34.439  1.00  0.00    -0.206 F 
ATOM     92  C   UNL A   1      47.131  26.694  36.676  1.00  0.00     0.022 A 
BRANCH  89  93
ATOM     93  S   UNL A   1      45.654  24.582  37.744  1.00  0.00     0.124 S 
ATOM     94  O   UNL A   1      47.013  24.272  38.177  1.00  0.00    -0.237 OA
ATOM     95  O   UNL A   1      44.776  25.154  38.759  1.00  0.00    -0.237 OA
ATOM     96  O   UNL A   1      45.033  23.578  36.881  1.00  0.00    -0.744 OA
ENDBRANCH  89  93
ENDBRANCH  63  86
ENDBRANCH  37  38
ENDBRANCH  30  32
ENDBRANCH  29  30
ENDBRANCH  28  29
ENDBRANCH   1  28
TORSDOF 18
ENDMDL
