MODEL 1
REMARK VINA RESULT:     -10.8      0.000      0.000
REMARK SMILES CC(C)[C@H](NC(N)=O)C(=O)N[C@H](C)C(=O)OCCOC(=O)c1ccc(-c2c3nc(c(-c4cc(S(=O)(=O)[O-])ccc4F)c4ccc([nH]4)c(-c4cc(S(=O)(=O)[O-])ccc4F)c4nc(c(-c5cc(S(=O)(=O)[O-])ccc5F)c5ccc2[nH]5)C=C4)C=C3)cc1
REMARK SMILES IDX 17 1 16 2 14 3 15 4 12 5 13 6 11 7 9 8 10 9 4 11 2 12 1 13
REMARK SMILES IDX 3 14 5 15 6 16 7 18 8 19 18 22 19 23 20 24 21 25 22 26 23 27
REMARK SMILES IDX 84 28 24 29 83 30 25 31 26 32 27 33 77 34 28 35 82 36 76 37
REMARK SMILES IDX 78 38 29 39 81 40 75 41 74 42 30 44 62 45 42 46 61 47 43 48
REMARK SMILES IDX 46 49 60 50 79 51 44 52 45 53 59 55 80 56 47 57 31 58 32 59
REMARK SMILES IDX 40 60 33 61 39 62 41 63 38 64 34 65 35 66 36 67 37 68 63 69
REMARK SMILES IDX 64 70 72 71 65 72 71 73 73 74 70 75 66 76 67 77 68 78 69 79
REMARK SMILES IDX 48 80 49 81 57 82 50 83 56 84 58 85 55 86 51 87 52 88 53 89
REMARK SMILES IDX 54 90
REMARK H PARENT 11 10 5 17 7 20 7 21 78 43 46 54
REMARK Flexibility Score: inf
ROOT
ATOM      1  C   UNL A   1      36.211  20.650  25.058  1.00  0.00     0.274 C 
ENDROOT
BRANCH   1   2
ATOM      2  O   UNL A   1      36.216  22.040  25.452  1.00  0.00    -0.461 OA
BRANCH   2   3
ATOM      3  C   UNL A   1      35.513  22.914  24.697  1.00  0.00     0.328 C 
ATOM      4  O   UNL A   1      35.461  22.884  23.471  1.00  0.00    -0.250 OA
BRANCH   3   5
ATOM      5  C   UNL A   1      34.862  24.033  25.532  1.00  0.00     0.189 C 
ATOM      6  C   UNL A   1      34.103  25.164  24.842  1.00  0.00     0.043 C 
BRANCH   5   7
ATOM      7  N   UNL A   1      34.177  23.535  26.736  1.00  0.00    -0.341 N 
ATOM      8  C   UNL A   1      32.994  22.913  26.970  1.00  0.00     0.243 C 
ATOM      9  O   UNL A   1      32.661  22.828  28.161  1.00  0.00    -0.273 OA
ATOM     10  H   UNL A   1      34.695  23.690  27.559  1.00  0.00     0.164 HD
BRANCH   8  11
ATOM     11  C   UNL A   1      32.036  22.329  25.892  1.00  0.00     0.175 C 
BRANCH  11  12
ATOM     12  C   UNL A   1      30.636  22.973  25.852  1.00  0.00     0.015 C 
ATOM     13  C   UNL A   1      29.752  22.517  27.022  1.00  0.00     0.010 C 
ATOM     14  C   UNL A   1      30.634  24.505  25.828  1.00  0.00     0.010 C 
ENDBRANCH  11  12
BRANCH  11  15
ATOM     15  N   UNL A   1      32.181  20.871  25.860  1.00  0.00    -0.326 N 
ATOM     16  C   UNL A   1      32.485  20.067  24.814  1.00  0.00     0.312 C 
ATOM     17  H   UNL A   1      32.038  20.412  26.720  1.00  0.00     0.166 HD
ATOM     18  N   UNL A   1      32.361  18.751  25.109  1.00  0.00    -0.352 N 
ATOM     19  O   UNL A   1      32.826  20.420  23.699  1.00  0.00    -0.249 OA
ATOM     20  H   UNL A   1      32.085  18.473  26.012  1.00  0.00     0.161 HD
ATOM     21  H   UNL A   1      32.549  18.072  24.421  1.00  0.00     0.161 HD
ENDBRANCH  11  15
ENDBRANCH   8  11
ENDBRANCH   5   7
ENDBRANCH   3   5
ENDBRANCH   2   3
ENDBRANCH   1   2
BRANCH   1  22
ATOM     22  C   UNL A   1      37.647  20.141  24.964  1.00  0.00     0.275 C 
BRANCH  22  23
ATOM     23  O   UNL A   1      38.528  21.236  25.234  1.00  0.00    -0.458 OA
BRANCH  23  24
ATOM     24  C   UNL A   1      39.512  20.928  26.116  1.00  0.00     0.338 C 
ATOM     25  O   UNL A   1      40.076  19.863  26.268  1.00  0.00    -0.246 OA
BRANCH  24  26
ATOM     26  C   UNL A   1      39.981  22.192  26.695  1.00  0.00     0.060 A 
ATOM     27  C   UNL A   1      39.442  23.380  26.189  1.00  0.00     0.016 A 
ATOM     28  C   UNL A   1      40.937  22.202  27.709  1.00  0.00     0.016 A 
ATOM     29  C   UNL A   1      39.901  24.598  26.660  1.00  0.00     0.010 A 
ATOM     30  C   UNL A   1      41.404  23.422  28.177  1.00  0.00     0.010 A 
ATOM     31  C   UNL A   1      40.916  24.618  27.623  1.00  0.00    -0.014 A 
BRANCH  31  32
ATOM     32  C   UNL A   1      41.600  25.887  27.922  1.00  0.00     0.031 A 
ATOM     33  C   UNL A   1      40.841  26.930  28.687  1.00  0.00     0.074 A 
ATOM     34  C   UNL A   1      42.868  26.068  27.523  1.00  0.00     0.049 A 
ATOM     35  N   UNL A   1      41.177  28.156  28.974  1.00  0.00    -0.248 NA
ATOM     36  C   UNL A   1      39.510  26.537  29.184  1.00  0.00     0.031 C 
ATOM     37  C   UNL A   1      43.680  25.069  26.824  1.00  0.00     0.029 A 
ATOM     38  N   UNL A   1      43.692  27.153  27.639  1.00  0.00    -0.354 N 
ATOM     39  C   UNL A   1      40.094  28.692  29.661  1.00  0.00     0.074 A 
ATOM     40  C   UNL A   1      39.077  27.666  29.724  1.00  0.00     0.031 C 
ATOM     41  C   UNL A   1      44.889  25.596  26.567  1.00  0.00     0.029 A 
ATOM     42  C   UNL A   1      44.911  26.980  27.029  1.00  0.00     0.049 A 
ATOM     43  H   UNL A   1      43.437  27.977  28.115  1.00  0.00     0.167 HD
ATOM     44  C   UNL A   1      39.971  29.934  30.189  1.00  0.00     0.034 A 
ATOM     45  C   UNL A   1      45.908  27.864  26.835  1.00  0.00     0.034 A 
ATOM     46  C   UNL A   1      41.016  30.924  30.093  1.00  0.00     0.049 A 
ATOM     47  C   UNL A   1      45.721  29.258  27.378  1.00  0.00     0.074 A 
ATOM     48  C   UNL A   1      41.031  32.215  30.586  1.00  0.00     0.029 A 
ATOM     49  N   UNL A   1      42.234  30.729  29.449  1.00  0.00    -0.354 N 
ATOM     50  N   UNL A   1      44.692  29.765  28.023  1.00  0.00    -0.248 NA
ATOM     51  C   UNL A   1      46.829  30.197  27.176  1.00  0.00     0.031 C 
ATOM     52  C   UNL A   1      42.221  32.823  30.172  1.00  0.00     0.029 A 
ATOM     53  C   UNL A   1      42.993  31.885  29.501  1.00  0.00     0.049 A 
ATOM     54  H   UNL A   1      42.515  29.889  29.018  1.00  0.00     0.167 HD
ATOM     55  C   UNL A   1      45.042  31.076  28.327  1.00  0.00     0.074 A 
ATOM     56  C   UNL A   1      46.387  31.268  27.818  1.00  0.00     0.031 C 
ATOM     57  C   UNL A   1      44.326  32.040  28.965  1.00  0.00     0.034 A 
BRANCH  44  58
ATOM     58  C   UNL A   1      38.656  30.295  30.837  1.00  0.00     0.023 A 
ATOM     59  C   UNL A   1      37.624  30.940  30.130  1.00  0.00     0.031 A 
ATOM     60  C   UNL A   1      38.444  30.020  32.199  1.00  0.00     0.131 A 
ATOM     61  C   UNL A   1      36.459  31.344  30.803  1.00  0.00     0.055 A 
ATOM     62  C   UNL A   1      37.250  30.353  32.843  1.00  0.00     0.041 A 
ATOM     63  F   UNL A   1      39.402  29.436  32.935  1.00  0.00    -0.206 F 
ATOM     64  C   UNL A   1      36.254  31.031  32.148  1.00  0.00     0.022 A 
BRANCH  61  65
ATOM     65  S   UNL A   1      35.276  32.410  29.932  1.00  0.00     0.124 S 
ATOM     66  O   UNL A   1      34.318  32.716  30.992  1.00  0.00    -0.237 OA
ATOM     67  O   UNL A   1      36.114  33.518  29.489  1.00  0.00    -0.237 OA
ATOM     68  O   UNL A   1      34.761  31.552  28.866  1.00  0.00    -0.744 OA
ENDBRANCH  61  65
ENDBRANCH  44  58
BRANCH  45  69
ATOM     69  C   UNL A   1      47.128  27.476  26.073  1.00  0.00     0.023 A 
ATOM     70  C   UNL A   1      47.259  27.778  24.710  1.00  0.00     0.031 A 
ATOM     71  C   UNL A   1      48.172  26.760  26.690  1.00  0.00     0.131 A 
ATOM     72  C   UNL A   1      48.381  27.327  23.996  1.00  0.00     0.055 A 
ATOM     73  C   UNL A   1      49.315  26.369  25.992  1.00  0.00     0.041 A 
ATOM     74  F   UNL A   1      48.100  26.440  27.992  1.00  0.00    -0.206 F 
ATOM     75  C   UNL A   1      49.418  26.639  24.632  1.00  0.00     0.022 A 
BRANCH  72  76
ATOM     76  S   UNL A   1      48.416  27.564  22.199  1.00  0.00     0.124 S 
ATOM     77  O   UNL A   1      47.099  28.140  21.949  1.00  0.00    -0.237 OA
ATOM     78  O   UNL A   1      49.552  28.464  22.034  1.00  0.00    -0.237 OA
ATOM     79  O   UNL A   1      48.614  26.212  21.682  1.00  0.00    -0.744 OA
ENDBRANCH  72  76
ENDBRANCH  45  69
BRANCH  57  80
ATOM     80  C   UNL A   1      45.017  33.365  29.170  1.00  0.00     0.023 A 
ATOM     81  C   UNL A   1      45.025  34.353  28.171  1.00  0.00     0.031 A 
ATOM     82  C   UNL A   1      45.703  33.627  30.368  1.00  0.00     0.131 A 
ATOM     83  C   UNL A   1      45.776  35.522  28.356  1.00  0.00     0.055 A 
ATOM     84  C   UNL A   1      46.378  34.829  30.579  1.00  0.00     0.041 A 
ATOM     85  F   UNL A   1      45.730  32.717  31.356  1.00  0.00    -0.206 F 
ATOM     86  C   UNL A   1      46.434  35.777  29.561  1.00  0.00     0.022 A 
BRANCH  83  87
ATOM     87  S   UNL A   1      45.991  36.641  26.946  1.00  0.00     0.124 S 
ATOM     88  O   UNL A   1      47.219  37.344  27.304  1.00  0.00    -0.237 OA
ATOM     89  O   UNL A   1      46.090  35.714  25.824  1.00  0.00    -0.237 OA
ATOM     90  O   UNL A   1      44.778  37.458  26.970  1.00  0.00    -0.744 OA
ENDBRANCH  83  87
ENDBRANCH  57  80
ENDBRANCH  31  32
ENDBRANCH  24  26
ENDBRANCH  23  24
ENDBRANCH  22  23
ENDBRANCH   1  22
TORSDOF 18
ENDMDL
MODEL 2
REMARK VINA RESULT:     -10.6      1.557      7.996
REMARK SMILES CC(C)[C@H](NC(N)=O)C(=O)N[C@H](C)C(=O)OCCOC(=O)c1ccc(-c2c3nc(c(-c4cc(S(=O)(=O)[O-])ccc4F)c4ccc([nH]4)c(-c4cc(S(=O)(=O)[O-])ccc4F)c4nc(c(-c5cc(S(=O)(=O)[O-])ccc5F)c5ccc2[nH]5)C=C4)C=C3)cc1
REMARK SMILES IDX 17 1 16 2 14 3 15 4 12 5 13 6 11 7 9 8 10 9 4 11 2 12 1 13
REMARK SMILES IDX 3 14 5 15 6 16 7 18 8 19 18 22 19 23 20 24 21 25 22 26 23 27
REMARK SMILES IDX 84 28 24 29 83 30 25 31 26 32 27 33 77 34 28 35 82 36 76 37
REMARK SMILES IDX 78 38 29 39 81 40 75 41 74 42 30 44 62 45 42 46 61 47 43 48
REMARK SMILES IDX 46 49 60 50 79 51 44 52 45 53 59 55 80 56 47 57 31 58 32 59
REMARK SMILES IDX 40 60 33 61 39 62 41 63 38 64 34 65 35 66 36 67 37 68 63 69
REMARK SMILES IDX 64 70 72 71 65 72 71 73 73 74 70 75 66 76 67 77 68 78 69 79
REMARK SMILES IDX 48 80 49 81 57 82 50 83 56 84 58 85 55 86 51 87 52 88 53 89
REMARK SMILES IDX 54 90
REMARK H PARENT 11 10 5 17 7 20 7 21 78 43 46 54
REMARK Flexibility Score: inf
ROOT
ATOM      1  C   UNL A   1      36.125  21.080  24.628  1.00  0.00     0.274 C 
ENDROOT
BRANCH   1   2
ATOM      2  O   UNL A   1      36.198  22.520  24.701  1.00  0.00    -0.461 OA
BRANCH   2   3
ATOM      3  C   UNL A   1      35.210  23.235  24.117  1.00  0.00     0.328 C 
ATOM      4  O   UNL A   1      35.184  23.537  22.929  1.00  0.00    -0.250 OA
BRANCH   3   5
ATOM      5  C   UNL A   1      34.160  23.733  25.127  1.00  0.00     0.189 C 
ATOM      6  C   UNL A   1      34.255  25.144  25.704  1.00  0.00     0.043 C 
BRANCH   5   7
ATOM      7  N   UNL A   1      32.783  23.354  24.768  1.00  0.00    -0.341 N 
ATOM      8  C   UNL A   1      31.733  24.003  24.205  1.00  0.00     0.243 C 
ATOM      9  O   UNL A   1      30.649  23.402  24.245  1.00  0.00    -0.273 OA
ATOM     10  H   UNL A   1      32.578  22.417  24.989  1.00  0.00     0.164 HD
BRANCH   8  11
ATOM     11  C   UNL A   1      31.773  25.411  23.544  1.00  0.00     0.175 C 
BRANCH  11  12
ATOM     12  C   UNL A   1      30.929  26.485  24.259  1.00  0.00     0.015 C 
ATOM     13  C   UNL A   1      29.481  26.523  23.747  1.00  0.00     0.010 C 
ATOM     14  C   UNL A   1      30.887  26.360  25.785  1.00  0.00     0.010 C 
ENDBRANCH  11  12
BRANCH  11  15
ATOM     15  N   UNL A   1      31.701  25.261  22.088  1.00  0.00    -0.326 N 
ATOM     16  C   UNL A   1      32.553  25.719  21.141  1.00  0.00     0.312 C 
ATOM     17  H   UNL A   1      30.925  24.756  21.753  1.00  0.00     0.166 HD
ATOM     18  N   UNL A   1      32.082  25.547  19.883  1.00  0.00    -0.352 N 
ATOM     19  O   UNL A   1      33.634  26.250  21.328  1.00  0.00    -0.249 OA
ATOM     20  H   UNL A   1      31.208  25.118  19.739  1.00  0.00     0.161 HD
ATOM     21  H   UNL A   1      32.614  25.850  19.112  1.00  0.00     0.161 HD
ENDBRANCH  11  15
ENDBRANCH   8  11
ENDBRANCH   5   7
ENDBRANCH   3   5
ENDBRANCH   2   3
ENDBRANCH   1   2
BRANCH   1  22
ATOM     22  C   UNL A   1      37.370  20.472  25.268  1.00  0.00     0.275 C 
BRANCH  22  23
ATOM     23  O   UNL A   1      38.426  21.435  25.196  1.00  0.00    -0.458 OA
BRANCH  23  24
ATOM     24  C   UNL A   1      39.418  21.211  26.094  1.00  0.00     0.338 C 
ATOM     25  O   UNL A   1      40.049  20.190  26.274  1.00  0.00    -0.246 OA
BRANCH  24  26
ATOM     26  C   UNL A   1      39.797  22.516  26.649  1.00  0.00     0.060 A 
ATOM     27  C   UNL A   1      39.109  23.644  26.189  1.00  0.00     0.016 A 
ATOM     28  C   UNL A   1      40.814  22.621  27.596  1.00  0.00     0.016 A 
ATOM     29  C   UNL A   1      39.475  24.903  26.638  1.00  0.00     0.010 A 
ATOM     30  C   UNL A   1      41.188  23.882  28.041  1.00  0.00     0.010 A 
ATOM     31  C   UNL A   1      40.546  25.023  27.530  1.00  0.00    -0.014 A 
BRANCH  31  32
ATOM     32  C   UNL A   1      41.118  26.353  27.791  1.00  0.00     0.031 A 
ATOM     33  C   UNL A   1      42.503  26.634  27.287  1.00  0.00     0.074 A 
ATOM     34  C   UNL A   1      40.392  27.272  28.448  1.00  0.00     0.049 A 
ATOM     35  N   UNL A   1      43.262  27.676  27.483  1.00  0.00    -0.248 NA
ATOM     36  C   UNL A   1      43.122  25.583  26.458  1.00  0.00     0.031 C 
ATOM     37  C   UNL A   1      39.018  27.079  28.915  1.00  0.00     0.029 A 
ATOM     38  N   UNL A   1      40.710  28.541  28.843  1.00  0.00    -0.354 N 
ATOM     39  C   UNL A   1      44.455  27.399  26.826  1.00  0.00     0.074 A 
ATOM     40  C   UNL A   1      44.331  26.079  26.250  1.00  0.00     0.031 C 
ATOM     41  C   UNL A   1      38.613  28.196  29.542  1.00  0.00     0.029 A 
ATOM     42  C   UNL A   1      39.715  29.150  29.571  1.00  0.00     0.049 A 
ATOM     43  H   UNL A   1      41.566  28.977  28.626  1.00  0.00     0.167 HD
ATOM     44  C   UNL A   1      45.553  28.188  26.722  1.00  0.00     0.034 A 
ATOM     45  C   UNL A   1      39.726  30.330  30.219  1.00  0.00     0.034 A 
ATOM     46  C   UNL A   1      45.627  29.498  27.321  1.00  0.00     0.049 A 
ATOM     47  C   UNL A   1      40.981  31.162  30.139  1.00  0.00     0.074 A 
ATOM     48  C   UNL A   1      46.668  30.405  27.290  1.00  0.00     0.029 A 
ATOM     49  N   UNL A   1      44.611  30.081  28.074  1.00  0.00    -0.354 N 
ATOM     50  N   UNL A   1      42.112  30.895  29.521  1.00  0.00    -0.248 NA
ATOM     51  C   UNL A   1      40.961  32.454  30.832  1.00  0.00     0.031 C 
ATOM     52  C   UNL A   1      46.314  31.500  28.086  1.00  0.00     0.029 A 
ATOM     53  C   UNL A   1      45.015  31.320  28.540  1.00  0.00     0.049 A 
ATOM     54  H   UNL A   1      43.733  29.671  28.249  1.00  0.00     0.167 HD
ATOM     55  C   UNL A   1      42.930  32.001  29.732  1.00  0.00     0.074 A 
ATOM     56  C   UNL A   1      42.147  32.945  30.508  1.00  0.00     0.031 C 
ATOM     57  C   UNL A   1      44.208  32.226  29.327  1.00  0.00     0.034 A 
BRANCH  44  58
ATOM     58  C   UNL A   1      46.755  27.625  26.003  1.00  0.00     0.023 A 
ATOM     59  C   UNL A   1      47.068  27.977  24.677  1.00  0.00     0.031 A 
ATOM     60  C   UNL A   1      47.585  26.690  26.645  1.00  0.00     0.131 A 
ATOM     61  C   UNL A   1      48.139  27.350  24.018  1.00  0.00     0.055 A 
ATOM     62  C   UNL A   1      48.697  26.131  26.012  1.00  0.00     0.041 A 
ATOM     63  F   UNL A   1      47.321  26.289  27.898  1.00  0.00    -0.206 F 
ATOM     64  C   UNL A   1      48.972  26.450  24.686  1.00  0.00     0.022 A 
BRANCH  61  65
ATOM     65  S   UNL A   1      48.344  27.621  22.236  1.00  0.00     0.124 S 
ATOM     66  O   UNL A   1      47.094  28.294  21.893  1.00  0.00    -0.237 OA
ATOM     67  O   UNL A   1      49.548  28.442  22.177  1.00  0.00    -0.237 OA
ATOM     68  O   UNL A   1      48.484  26.270  21.696  1.00  0.00    -0.744 OA
ENDBRANCH  61  65
ENDBRANCH  44  58
BRANCH  45  69
ATOM     69  C   UNL A   1      38.545  30.767  31.017  1.00  0.00     0.023 A 
ATOM     70  C   UNL A   1      37.454  31.405  30.410  1.00  0.00     0.031 A 
ATOM     71  C   UNL A   1      38.507  30.586  32.413  1.00  0.00     0.131 A 
ATOM     72  C   UNL A   1      36.393  31.881  31.197  1.00  0.00     0.055 A 
ATOM     73  C   UNL A   1      37.421  31.005  33.184  1.00  0.00     0.041 A 
ATOM     74  F   UNL A   1      39.525  29.985  33.049  1.00  0.00    -0.206 F 
ATOM     75  C   UNL A   1      36.362  31.671  32.578  1.00  0.00     0.022 A 
BRANCH  72  76
ATOM     76  S   UNL A   1      35.103  32.875  30.400  1.00  0.00     0.124 S 
ATOM     77  O   UNL A   1      34.192  33.126  31.511  1.00  0.00    -0.237 OA
ATOM     78  O   UNL A   1      35.860  34.025  29.918  1.00  0.00    -0.237 OA
ATOM     79  O   UNL A   1      34.588  31.989  29.358  1.00  0.00    -0.744 OA
ENDBRANCH  72  76
ENDBRANCH  45  69
BRANCH  57  80
ATOM     80  C   UNL A   1      44.805  33.561  29.694  1.00  0.00     0.023 A 
ATOM     81  C   UNL A   1      44.612  34.698  28.892  1.00  0.00     0.031 A 
ATOM     82  C   UNL A   1      45.602  33.688  30.845  1.00  0.00     0.131 A 
ATOM     83  C   UNL A   1      45.279  35.891  29.206  1.00  0.00     0.055 A 
ATOM     84  C   UNL A   1      46.194  34.900  31.197  1.00  0.00     0.041 A 
ATOM     85  F   UNL A   1      45.822  32.632  31.646  1.00  0.00    -0.206 F 
ATOM     86  C   UNL A   1      46.051  36.006  30.364  1.00  0.00     0.022 A 
BRANCH  83  87
ATOM     87  S   UNL A   1      45.231  37.247  28.004  1.00  0.00     0.124 S 
ATOM     88  O   UNL A   1      44.502  36.641  26.894  1.00  0.00    -0.237 OA
ATOM     89  O   UNL A   1      44.523  38.291  28.738  1.00  0.00    -0.237 OA
ATOM     90  O   UNL A   1      46.644  37.522  27.743  1.00  0.00    -0.744 OA
ENDBRANCH  83  87
ENDBRANCH  57  80
ENDBRANCH  31  32
ENDBRANCH  24  26
ENDBRANCH  23  24
ENDBRANCH  22  23
ENDBRANCH   1  22
TORSDOF 18
ENDMDL
MODEL 3
REMARK VINA RESULT:     -10.5      5.189     10.196
REMARK SMILES CC(C)[C@H](NC(N)=O)C(=O)N[C@H](C)C(=O)OCCOC(=O)c1ccc(-c2c3nc(c(-c4cc(S(=O)(=O)[O-])ccc4F)c4ccc([nH]4)c(-c4cc(S(=O)(=O)[O-])ccc4F)c4nc(c(-c5cc(S(=O)(=O)[O-])ccc5F)c5ccc2[nH]5)C=C4)C=C3)cc1
REMARK SMILES IDX 17 1 16 2 14 3 15 4 12 5 13 6 11 7 9 8 10 9 4 11 2 12 1 13
REMARK SMILES IDX 3 14 5 15 6 16 7 18 8 19 18 22 19 23 20 24 21 25 22 26 23 27
REMARK SMILES IDX 84 28 24 29 83 30 25 31 26 32 27 33 77 34 28 35 82 36 76 37
REMARK SMILES IDX 78 38 29 39 81 40 75 41 74 42 30 44 62 45 42 46 61 47 43 48
REMARK SMILES IDX 46 49 60 50 79 51 44 52 45 53 59 55 80 56 47 57 31 58 32 59
REMARK SMILES IDX 40 60 33 61 39 62 41 63 38 64 34 65 35 66 36 67 37 68 63 69
REMARK SMILES IDX 64 70 72 71 65 72 71 73 73 74 70 75 66 76 67 77 68 78 69 79
REMARK SMILES IDX 48 80 49 81 57 82 50 83 56 84 58 85 55 86 51 87 52 88 53 89
REMARK SMILES IDX 54 90
REMARK H PARENT 11 10 5 17 7 20 7 21 78 43 46 54
REMARK Flexibility Score: inf
ROOT
ATOM      1  C   UNL A   1      31.414  29.883  25.542  1.00  0.00     0.274 C 
ENDROOT
BRANCH   1   2
ATOM      2  O   UNL A   1      32.319  28.904  26.098  1.00  0.00    -0.461 OA
BRANCH   2   3
ATOM      3  C   UNL A   1      31.785  27.849  26.754  1.00  0.00     0.328 C 
ATOM      4  O   UNL A   1      31.116  27.937  27.778  1.00  0.00    -0.250 OA
BRANCH   3   5
ATOM      5  C   UNL A   1      32.196  26.497  26.141  1.00  0.00     0.189 C 
ATOM      6  C   UNL A   1      33.616  26.291  25.617  1.00  0.00     0.043 C 
BRANCH   5   7
ATOM      7  N   UNL A   1      31.691  25.339  26.896  1.00  0.00    -0.341 N 
ATOM      8  C   UNL A   1      31.742  23.994  26.724  1.00  0.00     0.243 C 
ATOM      9  O   UNL A   1      31.014  23.331  27.478  1.00  0.00    -0.273 OA
ATOM     10  H   UNL A   1      31.205  25.600  27.712  1.00  0.00     0.164 HD
BRANCH   8  11
ATOM     11  C   UNL A   1      32.602  23.236  25.673  1.00  0.00     0.175 C 
BRANCH  11  12
ATOM     12  C   UNL A   1      31.814  22.272  24.764  1.00  0.00     0.015 C 
ATOM     13  C   UNL A   1      32.016  22.582  23.273  1.00  0.00     0.010 C 
ATOM     14  C   UNL A   1      32.122  20.787  24.983  1.00  0.00     0.010 C 
ENDBRANCH  11  12
BRANCH  11  15
ATOM     15  N   UNL A   1      33.855  22.805  26.299  1.00  0.00    -0.326 N 
ATOM     16  C   UNL A   1      35.118  22.872  25.814  1.00  0.00     0.312 C 
ATOM     17  H   UNL A   1      33.767  22.413  27.198  1.00  0.00     0.166 HD
ATOM     18  N   UNL A   1      36.015  22.218  26.591  1.00  0.00    -0.352 N 
ATOM     19  O   UNL A   1      35.477  23.430  24.792  1.00  0.00    -0.249 OA
ATOM     20  H   UNL A   1      35.717  21.770  27.414  1.00  0.00     0.161 HD
ATOM     21  H   UNL A   1      36.964  22.193  26.332  1.00  0.00     0.161 HD
ENDBRANCH  11  15
ENDBRANCH   8  11
ENDBRANCH   5   7
ENDBRANCH   3   5
ENDBRANCH   2   3
ENDBRANCH   1   2
BRANCH   1  22
ATOM     22  C   UNL A   1      31.598  31.216  26.262  1.00  0.00     0.275 C 
BRANCH  22  23
ATOM     23  O   UNL A   1      32.630  31.057  27.241  1.00  0.00    -0.458 OA
BRANCH  23  24
ATOM     24  C   UNL A   1      33.357  32.185  27.442  1.00  0.00     0.338 C 
ATOM     25  O   UNL A   1      32.968  33.334  27.456  1.00  0.00    -0.246 OA
BRANCH  24  26
ATOM     26  C   UNL A   1      34.681  31.763  27.915  1.00  0.00     0.060 A 
ATOM     27  C   UNL A   1      34.879  30.401  28.166  1.00  0.00     0.016 A 
ATOM     28  C   UNL A   1      35.699  32.694  28.110  1.00  0.00     0.016 A 
ATOM     29  C   UNL A   1      36.093  29.966  28.674  1.00  0.00     0.010 A 
ATOM     30  C   UNL A   1      36.913  32.261  28.626  1.00  0.00     0.010 A 
ATOM     31  C   UNL A   1      37.094  30.905  28.945  1.00  0.00    -0.014 A 
BRANCH  31  32
ATOM     32  C   UNL A   1      38.266  30.497  29.736  1.00  0.00     0.031 A 
ATOM     33  C   UNL A   1      39.221  29.517  29.121  1.00  0.00     0.074 A 
ATOM     34  C   UNL A   1      38.457  31.017  30.959  1.00  0.00     0.049 A 
ATOM     35  N   UNL A   1      40.255  28.923  29.649  1.00  0.00    -0.248 NA
ATOM     36  C   UNL A   1      38.962  29.144  27.719  1.00  0.00     0.031 C 
ATOM     37  C   UNL A   1      37.595  32.018  31.590  1.00  0.00     0.029 A 
ATOM     38  N   UNL A   1      39.428  30.771  31.889  1.00  0.00    -0.354 N 
ATOM     39  C   UNL A   1      40.755  28.088  28.657  1.00  0.00     0.074 A 
ATOM     40  C   UNL A   1      39.895  28.230  27.504  1.00  0.00     0.031 C 
ATOM     41  C   UNL A   1      38.076  32.296  32.813  1.00  0.00     0.029 A 
ATOM     42  C   UNL A   1      39.237  31.451  33.068  1.00  0.00     0.049 A 
ATOM     43  H   UNL A   1      40.189  30.167  31.730  1.00  0.00     0.167 HD
ATOM     44  C   UNL A   1      41.840  27.278  28.718  1.00  0.00     0.034 A 
ATOM     45  C   UNL A   1      39.910  31.359  34.230  1.00  0.00     0.034 A 
ATOM     46  C   UNL A   1      42.663  27.170  29.897  1.00  0.00     0.049 A 
ATOM     47  C   UNL A   1      41.076  30.404  34.291  1.00  0.00     0.074 A 
ATOM     48  C   UNL A   1      43.792  26.398  30.096  1.00  0.00     0.029 A 
ATOM     49  N   UNL A   1      42.434  27.854  31.087  1.00  0.00    -0.354 N 
ATOM     50  N   UNL A   1      41.545  29.610  33.352  1.00  0.00    -0.248 NA
ATOM     51  C   UNL A   1      41.808  30.338  35.559  1.00  0.00     0.031 C 
ATOM     52  C   UNL A   1      44.196  26.555  31.426  1.00  0.00     0.029 A 
ATOM     53  C   UNL A   1      43.378  27.496  32.034  1.00  0.00     0.049 A 
ATOM     54  H   UNL A   1      41.704  28.500  31.234  1.00  0.00     0.167 HD
ATOM     55  C   UNL A   1      42.644  28.968  33.912  1.00  0.00     0.074 A 
ATOM     56  C   UNL A   1      42.781  29.493  35.257  1.00  0.00     0.031 C 
ATOM     57  C   UNL A   1      43.470  28.031  33.373  1.00  0.00     0.034 A 
BRANCH  44  58
ATOM     58  C   UNL A   1      42.139  26.415  27.515  1.00  0.00     0.023 A 
ATOM     59  C   UNL A   1      41.704  25.079  27.424  1.00  0.00     0.031 A 
ATOM     60  C   UNL A   1      42.905  26.927  26.454  1.00  0.00     0.131 A 
ATOM     61  C   UNL A   1      42.094  24.288  26.331  1.00  0.00     0.055 A 
ATOM     62  C   UNL A   1      43.221  26.159  25.331  1.00  0.00     0.041 A 
ATOM     63  F   UNL A   1      43.377  28.183  26.496  1.00  0.00    -0.206 F 
ATOM     64  C   UNL A   1      42.826  24.826  25.271  1.00  0.00     0.022 A 
BRANCH  61  65
ATOM     65  S   UNL A   1      41.750  22.506  26.380  1.00  0.00     0.124 S 
ATOM     66  O   UNL A   1      40.305  22.478  26.167  1.00  0.00    -0.237 OA
ATOM     67  O   UNL A   1      42.567  21.997  25.284  1.00  0.00    -0.237 OA
ATOM     68  O   UNL A   1      42.183  22.109  27.718  1.00  0.00    -0.744 OA
ENDBRANCH  61  65
ENDBRANCH  44  58
BRANCH  45  69
ATOM     69  C   UNL A   1      39.481  32.148  35.420  1.00  0.00     0.023 A 
ATOM     70  C   UNL A   1      39.969  33.443  35.646  1.00  0.00     0.031 A 
ATOM     71  C   UNL A   1      38.600  31.602  36.373  1.00  0.00     0.131 A 
ATOM     72  C   UNL A   1      39.613  34.132  36.817  1.00  0.00     0.055 A 
ATOM     73  C   UNL A   1      38.200  32.315  37.505  1.00  0.00     0.041 A 
ATOM     74  F   UNL A   1      38.104  30.365  36.211  1.00  0.00    -0.206 F 
ATOM     75  C   UNL A   1      38.719  33.583  37.739  1.00  0.00     0.022 A 
BRANCH  72  76
ATOM     76  S   UNL A   1      40.422  35.716  37.168  1.00  0.00     0.124 S 
ATOM     77  O   UNL A   1      40.195  35.856  38.602  1.00  0.00    -0.237 OA
ATOM     78  O   UNL A   1      41.797  35.452  36.758  1.00  0.00    -0.237 OA
ATOM     79  O   UNL A   1      39.694  36.663  36.326  1.00  0.00    -0.744 OA
ENDBRANCH  72  76
ENDBRANCH  45  69
BRANCH  57  80
ATOM     80  C   UNL A   1      44.607  27.558  34.243  1.00  0.00     0.023 A 
ATOM     81  C   UNL A   1      44.478  26.434  35.076  1.00  0.00     0.031 A 
ATOM     82  C   UNL A   1      45.824  28.262  34.263  1.00  0.00     0.131 A 
ATOM     83  C   UNL A   1      45.516  26.096  35.955  1.00  0.00     0.055 A 
ATOM     84  C   UNL A   1      46.885  27.870  35.078  1.00  0.00     0.041 A 
ATOM     85  F   UNL A   1      46.001  29.345  33.489  1.00  0.00    -0.206 F 
ATOM     86  C   UNL A   1      46.727  26.793  35.946  1.00  0.00     0.022 A 
BRANCH  83  87
ATOM     87  S   UNL A   1      45.209  24.819  37.204  1.00  0.00     0.124 S 
ATOM     88  O   UNL A   1      46.563  24.493  37.641  1.00  0.00    -0.237 OA
ATOM     89  O   UNL A   1      44.378  25.525  38.174  1.00  0.00    -0.237 OA
ATOM     90  O   UNL A   1      44.528  23.765  36.454  1.00  0.00    -0.744 OA
ENDBRANCH  83  87
ENDBRANCH  57  80
ENDBRANCH  31  32
ENDBRANCH  24  26
ENDBRANCH  23  24
ENDBRANCH  22  23
ENDBRANCH   1  22
TORSDOF 18
ENDMDL
