MODEL 1
REMARK VINA RESULT:     -12.6      0.000      0.000
REMARK SMILES CS(=O)(=O)c1ccc(/C=C(/C(=O)OCCOC(=O)c2ccc(-c3c4nc(c(-c5cc(S(=O)(=O)[O-])ccc5F)c5ccc([nH]5)c(-c5cc(S(=O)(=O)[O-])ccc5F)c5nc(c(-c6cc(S(=O)(=O)[O-])ccc6F)c6ccc3[nH]6)C=C5)C=C4)cc2)c2ccccc2)cc1
REMARK SMILES IDX 15 1 14 2 13 3 11 4 12 5 10 6 9 7 8 8 5 9 6 10 89 11 7 12
REMARK SMILES IDX 88 13 2 14 1 15 3 16 4 17 82 18 83 19 87 20 84 21 86 22
REMARK SMILES IDX 85 23 16 24 17 25 18 26 19 27 20 28 81 29 21 30 80 31 22 32
REMARK SMILES IDX 23 33 24 34 74 35 25 36 79 37 73 38 75 39 26 40 78 41 72 42
REMARK SMILES IDX 71 43 27 45 59 46 39 47 58 48 40 49 43 50 57 51 76 52 41 53
REMARK SMILES IDX 42 54 56 56 77 57 44 58 28 59 29 60 37 61 30 62 36 63 38 64
REMARK SMILES IDX 35 65 31 66 32 67 33 68 34 69 60 70 61 71 69 72 62 73 68 74
REMARK SMILES IDX 70 75 67 76 63 77 64 78 65 79 66 80 45 81 46 82 54 83 47 84
REMARK SMILES IDX 53 85 55 86 52 87 48 88 49 89 50 90 51 91
REMARK H PARENT 75 44 43 55
REMARK Flexibility Score: inf
ROOT
ATOM      1  C   UNL A   1      35.895  21.599  25.411  1.00  0.00     0.275 C 
ENDROOT
BRANCH   1   2
ATOM      2  C   UNL A   1      34.754  22.334  24.711  1.00  0.00     0.275 C 
BRANCH   2   3
ATOM      3  O   UNL A   1      34.482  23.593  25.359  1.00  0.00    -0.458 OA
BRANCH   3   4
ATOM      4  C   UNL A   1      33.185  23.782  25.723  1.00  0.00     0.338 C 
ATOM      5  O   UNL A   1      32.542  23.040  26.449  1.00  0.00    -0.246 OA
BRANCH   4   6
ATOM      6  C   UNL A   1      32.614  25.033  25.136  1.00  0.00     0.067 C 
ATOM      7  C   UNL A   1      31.875  24.938  24.005  1.00  0.00     0.024 C 
BRANCH   7   8
ATOM      8  C   UNL A   1      30.958  25.966  23.461  1.00  0.00    -0.025 A 
ATOM      9  C   UNL A   1      29.226  28.103  22.889  1.00  0.00     0.067 A 
ATOM     10  C   UNL A   1      30.508  28.083  22.345  1.00  0.00     0.021 A 
ATOM     11  C   UNL A   1      28.761  27.014  23.627  1.00  0.00     0.021 A 
ATOM     12  C   UNL A   1      31.352  27.001  22.604  1.00  0.00     0.009 A 
ATOM     13  C   UNL A   1      29.629  25.952  23.909  1.00  0.00     0.009 A 
BRANCH   9  14
ATOM     14  S   UNL A   1      28.245  29.564  22.665  1.00  0.00     0.175 S 
ATOM     15  C   UNL A   1      29.050  30.855  23.564  1.00  0.00     0.163 C 
ATOM     16  O   UNL A   1      26.973  29.333  23.333  1.00  0.00    -0.224 OA
ATOM     17  O   UNL A   1      28.312  29.903  21.263  1.00  0.00    -0.224 OA
ENDBRANCH   9  14
ENDBRANCH   7   8
BRANCH   6  18
ATOM     18  C   UNL A   1      32.725  26.277  25.921  1.00  0.00    -0.011 A 
ATOM     19  C   UNL A   1      33.867  27.081  25.774  1.00  0.00     0.009 A 
ATOM     20  C   UNL A   1      31.688  26.707  26.757  1.00  0.00     0.009 A 
ATOM     21  C   UNL A   1      33.948  28.319  26.416  1.00  0.00     0.001 A 
ATOM     22  C   UNL A   1      31.782  27.937  27.414  1.00  0.00     0.001 A 
ATOM     23  C   UNL A   1      32.905  28.744  27.236  1.00  0.00     0.000 A 
ENDBRANCH   6  18
ENDBRANCH   4   6
ENDBRANCH   3   4
ENDBRANCH   2   3
ENDBRANCH   1   2
BRANCH   1  24
ATOM     24  O   UNL A   1      37.154  21.969  24.822  1.00  0.00    -0.458 OA
BRANCH  24  25
ATOM     25  C   UNL A   1      38.256  21.577  25.502  1.00  0.00     0.338 C 
ATOM     26  O   UNL A   1      38.789  20.475  25.456  1.00  0.00    -0.246 OA
BRANCH  25  27
ATOM     27  C   UNL A   1      38.781  22.676  26.335  1.00  0.00     0.060 A 
ATOM     28  C   UNL A   1      38.225  23.949  26.253  1.00  0.00     0.016 A 
ATOM     29  C   UNL A   1      39.951  22.482  27.070  1.00  0.00     0.016 A 
ATOM     30  C   UNL A   1      38.927  25.042  26.766  1.00  0.00     0.010 A 
ATOM     31  C   UNL A   1      40.587  23.573  27.680  1.00  0.00     0.010 A 
ATOM     32  C   UNL A   1      40.131  24.886  27.469  1.00  0.00    -0.014 A 
BRANCH  32  33
ATOM     33  C   UNL A   1      40.958  26.075  27.880  1.00  0.00     0.031 A 
ATOM     34  C   UNL A   1      40.360  27.151  28.769  1.00  0.00     0.074 A 
ATOM     35  C   UNL A   1      42.253  26.202  27.519  1.00  0.00     0.049 A 
ATOM     36  N   UNL A   1      40.803  28.357  29.033  1.00  0.00    -0.248 NA
ATOM     37  C   UNL A   1      39.083  26.836  29.427  1.00  0.00     0.031 C 
ATOM     38  C   UNL A   1      43.015  25.238  26.723  1.00  0.00     0.029 A 
ATOM     39  N   UNL A   1      43.170  27.193  27.791  1.00  0.00    -0.354 N 
ATOM     40  C   UNL A   1      39.816  28.975  29.800  1.00  0.00     0.074 A 
ATOM     41  C   UNL A   1      38.754  28.002  29.964  1.00  0.00     0.031 C 
ATOM     42  C   UNL A   1      44.290  25.643  26.639  1.00  0.00     0.029 A 
ATOM     43  C   UNL A   1      44.415  26.958  27.254  1.00  0.00     0.049 A 
ATOM     44  H   UNL A   1      42.954  27.994  28.321  1.00  0.00     0.167 HD
ATOM     45  C   UNL A   1      39.794  30.232  30.313  1.00  0.00     0.034 A 
ATOM     46  C   UNL A   1      45.523  27.727  27.200  1.00  0.00     0.034 A 
ATOM     47  C   UNL A   1      40.900  31.159  30.233  1.00  0.00     0.049 A 
ATOM     48  C   UNL A   1      45.482  29.117  27.776  1.00  0.00     0.074 A 
ATOM     49  C   UNL A   1      40.986  32.448  30.736  1.00  0.00     0.029 A 
ATOM     50  N   UNL A   1      42.126  30.889  29.640  1.00  0.00    -0.354 N 
ATOM     51  N   UNL A   1      44.491  29.734  28.375  1.00  0.00    -0.248 NA
ATOM     52  C   UNL A   1      46.703  29.923  27.642  1.00  0.00     0.031 C 
ATOM     53  C   UNL A   1      42.240  32.972  30.405  1.00  0.00     0.029 A 
ATOM     54  C   UNL A   1      42.966  31.989  29.756  1.00  0.00     0.049 A 
ATOM     55  H   UNL A   1      42.364  30.041  29.200  1.00  0.00     0.167 HD
ATOM     56  C   UNL A   1      44.972  31.002  28.691  1.00  0.00     0.074 A 
ATOM     57  C   UNL A   1      46.350  31.048  28.245  1.00  0.00     0.031 C 
ATOM     58  C   UNL A   1      44.330  32.037  29.288  1.00  0.00     0.034 A 
BRANCH  45  59
ATOM     59  C   UNL A   1      38.507  30.710  30.950  1.00  0.00     0.023 A 
ATOM     60  C   UNL A   1      37.469  31.306  30.215  1.00  0.00     0.031 A 
ATOM     61  C   UNL A   1      38.327  30.571  32.341  1.00  0.00     0.131 A 
ATOM     62  C   UNL A   1      36.333  31.799  30.879  1.00  0.00     0.055 A 
ATOM     63  C   UNL A   1      37.162  30.990  32.984  1.00  0.00     0.041 A 
ATOM     64  F   UNL A   1      39.291  30.027  33.102  1.00  0.00    -0.206 F 
ATOM     65  C   UNL A   1      36.162  31.623  32.255  1.00  0.00     0.022 A 
BRANCH  62  66
ATOM     66  S   UNL A   1      35.146  32.802  29.944  1.00  0.00     0.124 S 
ATOM     67  O   UNL A   1      36.015  33.817  29.354  1.00  0.00    -0.237 OA
ATOM     68  O   UNL A   1      34.576  31.832  29.017  1.00  0.00    -0.237 OA
ATOM     69  O   UNL A   1      34.230  33.298  30.971  1.00  0.00    -0.744 OA
ENDBRANCH  62  66
ENDBRANCH  45  59
BRANCH  46  70
ATOM     70  C   UNL A   1      46.743  27.236  26.495  1.00  0.00     0.023 A 
ATOM     71  C   UNL A   1      47.021  27.612  25.172  1.00  0.00     0.031 A 
ATOM     72  C   UNL A   1      47.635  26.352  27.131  1.00  0.00     0.131 A 
ATOM     73  C   UNL A   1      48.147  27.086  24.519  1.00  0.00     0.055 A 
ATOM     74  C   UNL A   1      48.785  25.881  26.498  1.00  0.00     0.041 A 
ATOM     75  F   UNL A   1      47.411  25.953  28.393  1.00  0.00    -0.206 F 
ATOM     76  C   UNL A   1      49.040  26.239  25.180  1.00  0.00     0.022 A 
BRANCH  73  77
ATOM     77  S   UNL A   1      48.391  27.464  22.761  1.00  0.00     0.124 S 
ATOM     78  O   UNL A   1      49.671  28.164  22.782  1.00  0.00    -0.237 OA
ATOM     79  O   UNL A   1      48.399  26.133  22.163  1.00  0.00    -0.237 OA
ATOM     80  O   UNL A   1      47.233  28.288  22.426  1.00  0.00    -0.744 OA
ENDBRANCH  73  77
ENDBRANCH  46  70
BRANCH  58  81
ATOM     81  C   UNL A   1      45.133  33.293  29.518  1.00  0.00     0.023 A 
ATOM     82  C   UNL A   1      45.123  34.355  28.597  1.00  0.00     0.031 A 
ATOM     83  C   UNL A   1      45.954  33.410  30.654  1.00  0.00     0.131 A 
ATOM     84  C   UNL A   1      45.965  35.460  28.794  1.00  0.00     0.055 A 
ATOM     85  C   UNL A   1      46.747  34.537  30.874  1.00  0.00     0.041 A 
ATOM     86  F   UNL A   1      46.004  32.425  31.565  1.00  0.00    -0.206 F 
ATOM     87  C   UNL A   1      46.768  35.564  29.933  1.00  0.00     0.022 A 
BRANCH  84  88
ATOM     88  S   UNL A   1      46.076  36.717  27.490  1.00  0.00     0.124 S 
ATOM     89  O   UNL A   1      46.377  37.924  28.254  1.00  0.00    -0.237 OA
ATOM     90  O   UNL A   1      47.158  36.205  26.654  1.00  0.00    -0.237 OA
ATOM     91  O   UNL A   1      44.752  36.690  26.873  1.00  0.00    -0.744 OA
ENDBRANCH  84  88
ENDBRANCH  58  81
ENDBRANCH  32  33
ENDBRANCH  25  27
ENDBRANCH  24  25
ENDBRANCH   1  24
TORSDOF 17
ENDMDL
MODEL 2
REMARK VINA RESULT:     -12.2      1.676      2.209
REMARK SMILES CS(=O)(=O)c1ccc(/C=C(/C(=O)OCCOC(=O)c2ccc(-c3c4nc(c(-c5cc(S(=O)(=O)[O-])ccc5F)c5ccc([nH]5)c(-c5cc(S(=O)(=O)[O-])ccc5F)c5nc(c(-c6cc(S(=O)(=O)[O-])ccc6F)c6ccc3[nH]6)C=C5)C=C4)cc2)c2ccccc2)cc1
REMARK SMILES IDX 15 1 14 2 13 3 11 4 12 5 10 6 9 7 8 8 5 9 6 10 89 11 7 12
REMARK SMILES IDX 88 13 2 14 1 15 3 16 4 17 82 18 83 19 87 20 84 21 86 22
REMARK SMILES IDX 85 23 16 24 17 25 18 26 19 27 20 28 81 29 21 30 80 31 22 32
REMARK SMILES IDX 23 33 24 34 74 35 25 36 79 37 73 38 75 39 26 40 78 41 72 42
REMARK SMILES IDX 71 43 27 45 59 46 39 47 58 48 40 49 43 50 57 51 76 52 41 53
REMARK SMILES IDX 42 54 56 56 77 57 44 58 28 59 29 60 37 61 30 62 36 63 38 64
REMARK SMILES IDX 35 65 31 66 32 67 33 68 34 69 60 70 61 71 69 72 62 73 68 74
REMARK SMILES IDX 70 75 67 76 63 77 64 78 65 79 66 80 45 81 46 82 54 83 47 84
REMARK SMILES IDX 53 85 55 86 52 87 48 88 49 89 50 90 51 91
REMARK H PARENT 75 44 43 55
REMARK Flexibility Score: inf
ROOT
ATOM      1  C   UNL A   1      36.386  20.611  25.178  1.00  0.00     0.275 C 
ENDROOT
BRANCH   1   2
ATOM      2  C   UNL A   1      35.155  21.347  24.654  1.00  0.00     0.275 C 
BRANCH   2   3
ATOM      3  O   UNL A   1      35.329  22.775  24.758  1.00  0.00    -0.458 OA
BRANCH   3   4
ATOM      4  C   UNL A   1      35.072  23.469  23.618  1.00  0.00     0.338 C 
ATOM      5  O   UNL A   1      35.564  23.234  22.524  1.00  0.00    -0.246 OA
BRANCH   4   6
ATOM      6  C   UNL A   1      34.091  24.574  23.841  1.00  0.00     0.067 C 
ATOM      7  C   UNL A   1      34.204  25.700  23.098  1.00  0.00     0.024 C 
BRANCH   7   8
ATOM      8  C   UNL A   1      33.171  26.746  22.916  1.00  0.00    -0.025 A 
ATOM      9  C   UNL A   1      30.929  28.438  22.858  1.00  0.00     0.067 A 
ATOM     10  C   UNL A   1      32.079  28.832  23.537  1.00  0.00     0.021 A 
ATOM     11  C   UNL A   1      30.924  27.256  22.115  1.00  0.00     0.021 A 
ATOM     12  C   UNL A   1      33.202  28.003  23.533  1.00  0.00     0.009 A 
ATOM     13  C   UNL A   1      32.044  26.417  22.148  1.00  0.00     0.009 A 
BRANCH   9  14
ATOM     14  S   UNL A   1      29.476  29.444  23.018  1.00  0.00     0.175 S 
ATOM     15  C   UNL A   1      29.290  30.308  21.489  1.00  0.00     0.163 C 
ATOM     16  O   UNL A   1      29.763  30.454  24.026  1.00  0.00    -0.224 OA
ATOM     17  O   UNL A   1      28.355  28.543  23.149  1.00  0.00    -0.224 OA
ENDBRANCH   9  14
ENDBRANCH   7   8
BRANCH   6  18
ATOM     18  C   UNL A   1      32.939  24.306  24.723  1.00  0.00    -0.011 A 
ATOM     19  C   UNL A   1      32.777  25.070  25.891  1.00  0.00     0.009 A 
ATOM     20  C   UNL A   1      31.968  23.356  24.387  1.00  0.00     0.009 A 
ATOM     21  C   UNL A   1      31.637  24.917  26.684  1.00  0.00     0.001 A 
ATOM     22  C   UNL A   1      30.839  23.192  25.193  1.00  0.00     0.001 A 
ATOM     23  C   UNL A   1      30.670  23.977  26.334  1.00  0.00     0.000 A 
ENDBRANCH   6  18
ENDBRANCH   4   6
ENDBRANCH   3   4
ENDBRANCH   2   3
ENDBRANCH   1   2
BRANCH   1  24
ATOM     24  O   UNL A   1      37.577  21.353  24.859  1.00  0.00    -0.458 OA
BRANCH  24  25
ATOM     25  C   UNL A   1      38.668  21.054  25.599  1.00  0.00     0.338 C 
ATOM     26  O   UNL A   1      39.243  19.973  25.651  1.00  0.00    -0.246 OA
BRANCH  25  27
ATOM     27  C   UNL A   1      39.124  22.229  26.366  1.00  0.00     0.060 A 
ATOM     28  C   UNL A   1      38.581  23.485  26.117  1.00  0.00     0.016 A 
ATOM     29  C   UNL A   1      40.227  22.112  27.212  1.00  0.00     0.016 A 
ATOM     30  C   UNL A   1      39.240  24.627  26.582  1.00  0.00     0.010 A 
ATOM     31  C   UNL A   1      40.813  23.258  27.768  1.00  0.00     0.010 A 
ATOM     32  C   UNL A   1      40.380  24.544  27.396  1.00  0.00    -0.014 A 
BRANCH  32  33
ATOM     33  C   UNL A   1      41.172  25.770  27.761  1.00  0.00     0.031 A 
ATOM     34  C   UNL A   1      40.558  26.842  28.643  1.00  0.00     0.074 A 
ATOM     35  C   UNL A   1      42.452  25.937  27.363  1.00  0.00     0.049 A 
ATOM     36  N   UNL A   1      40.963  28.069  28.871  1.00  0.00    -0.248 NA
ATOM     37  C   UNL A   1      39.311  26.495  29.340  1.00  0.00     0.031 C 
ATOM     38  C   UNL A   1      43.229  24.984  26.568  1.00  0.00     0.029 A 
ATOM     39  N   UNL A   1      43.339  26.966  27.591  1.00  0.00    -0.354 N 
ATOM     40  C   UNL A   1      39.974  28.667  29.651  1.00  0.00     0.074 A 
ATOM     41  C   UNL A   1      38.953  27.660  29.862  1.00  0.00     0.031 C 
ATOM     42  C   UNL A   1      44.486  25.433  26.441  1.00  0.00     0.029 A 
ATOM     43  C   UNL A   1      44.578  26.765  27.026  1.00  0.00     0.049 A 
ATOM     44  H   UNL A   1      43.107  27.769  28.110  1.00  0.00     0.167 HD
ATOM     45  C   UNL A   1      39.918  29.933  30.138  1.00  0.00     0.034 A 
ATOM     46  C   UNL A   1      45.655  27.572  26.927  1.00  0.00     0.034 A 
ATOM     47  C   UNL A   1      40.987  30.898  30.010  1.00  0.00     0.049 A 
ATOM     48  C   UNL A   1      45.577  28.971  27.476  1.00  0.00     0.074 A 
ATOM     49  C   UNL A   1      41.038  32.199  30.485  1.00  0.00     0.029 A 
ATOM     50  N   UNL A   1      42.206  30.660  29.391  1.00  0.00    -0.354 N 
ATOM     51  N   UNL A   1      44.580  29.565  28.088  1.00  0.00    -0.248 NA
ATOM     52  C   UNL A   1      46.764  29.818  27.294  1.00  0.00     0.031 C 
ATOM     53  C   UNL A   1      42.263  32.761  30.110  1.00  0.00     0.029 A 
ATOM     54  C   UNL A   1      43.008  31.792  29.462  1.00  0.00     0.049 A 
ATOM     55  H   UNL A   1      42.465  29.812  28.963  1.00  0.00     0.167 HD
ATOM     56  C   UNL A   1      45.022  30.856  28.365  1.00  0.00     0.074 A 
ATOM     57  C   UNL A   1      46.385  30.942  27.883  1.00  0.00     0.031 C 
ATOM     58  C   UNL A   1      44.358  31.880  28.958  1.00  0.00     0.034 A 
BRANCH  45  59
ATOM     59  C   UNL A   1      38.631  30.378  30.799  1.00  0.00     0.023 A 
ATOM     60  C   UNL A   1      37.586  30.994  30.091  1.00  0.00     0.031 A 
ATOM     61  C   UNL A   1      38.459  30.184  32.184  1.00  0.00     0.131 A 
ATOM     62  C   UNL A   1      36.450  31.453  30.779  1.00  0.00     0.055 A 
ATOM     63  C   UNL A   1      37.294  30.570  32.848  1.00  0.00     0.041 A 
ATOM     64  F   UNL A   1      39.430  29.617  32.920  1.00  0.00    -0.206 F 
ATOM     65  C   UNL A   1      36.286  31.224  32.148  1.00  0.00     0.022 A 
BRANCH  62  66
ATOM     66  S   UNL A   1      35.252  32.484  29.889  1.00  0.00     0.124 S 
ATOM     67  O   UNL A   1      34.837  31.591  28.810  1.00  0.00    -0.237 OA
ATOM     68  O   UNL A   1      34.251  32.757  30.913  1.00  0.00    -0.237 OA
ATOM     69  O   UNL A   1      36.041  33.639  29.463  1.00  0.00    -0.744 OA
ENDBRANCH  62  66
ENDBRANCH  45  59
BRANCH  46  70
ATOM     70  C   UNL A   1      46.874  27.111  26.201  1.00  0.00     0.023 A 
ATOM     71  C   UNL A   1      47.927  26.475  26.877  1.00  0.00     0.031 A 
ATOM     72  C   UNL A   1      47.014  27.329  24.818  1.00  0.00     0.131 A 
ATOM     73  C   UNL A   1      49.085  26.106  26.173  1.00  0.00     0.055 A 
ATOM     74  C   UNL A   1      48.140  26.905  24.113  1.00  0.00     0.041 A 
ATOM     75  F   UNL A   1      46.040  27.941  24.125  1.00  0.00    -0.206 F 
ATOM     76  C   UNL A   1      49.189  26.298  24.794  1.00  0.00     0.022 A 
BRANCH  73  77
ATOM     77  S   UNL A   1      50.491  25.434  27.101  1.00  0.00     0.124 S 
ATOM     78  O   UNL A   1      51.454  25.174  26.036  1.00  0.00    -0.237 OA
ATOM     79  O   UNL A   1      50.815  26.535  28.003  1.00  0.00    -0.237 OA
ATOM     80  O   UNL A   1      49.938  24.247  27.747  1.00  0.00    -0.744 OA
ENDBRANCH  73  77
ENDBRANCH  46  70
BRANCH  58  81
ATOM     81  C   UNL A   1      45.119  33.168  29.142  1.00  0.00     0.023 A 
ATOM     82  C   UNL A   1      45.079  34.193  28.180  1.00  0.00     0.031 A 
ATOM     83  C   UNL A   1      45.931  33.355  30.274  1.00  0.00     0.131 A 
ATOM     84  C   UNL A   1      45.884  35.332  28.336  1.00  0.00     0.055 A 
ATOM     85  C   UNL A   1      46.688  34.515  30.452  1.00  0.00     0.041 A 
ATOM     86  F   UNL A   1      46.010  32.408  31.223  1.00  0.00    -0.206 F 
ATOM     87  C   UNL A   1      46.679  35.505  29.473  1.00  0.00     0.022 A 
BRANCH  84  88
ATOM     88  S   UNL A   1      45.960  36.540  26.985  1.00  0.00     0.124 S 
ATOM     89  O   UNL A   1      44.574  36.987  26.897  1.00  0.00    -0.237 OA
ATOM     90  O   UNL A   1      46.915  37.520  27.495  1.00  0.00    -0.237 OA
ATOM     91  O   UNL A   1      46.430  35.754  25.846  1.00  0.00    -0.744 OA
ENDBRANCH  84  88
ENDBRANCH  58  81
ENDBRANCH  32  33
ENDBRANCH  25  27
ENDBRANCH  24  25
ENDBRANCH   1  24
TORSDOF 17
ENDMDL
MODEL 3
REMARK VINA RESULT:     -12.2      1.839      2.081
REMARK SMILES CS(=O)(=O)c1ccc(/C=C(/C(=O)OCCOC(=O)c2ccc(-c3c4nc(c(-c5cc(S(=O)(=O)[O-])ccc5F)c5ccc([nH]5)c(-c5cc(S(=O)(=O)[O-])ccc5F)c5nc(c(-c6cc(S(=O)(=O)[O-])ccc6F)c6ccc3[nH]6)C=C5)C=C4)cc2)c2ccccc2)cc1
REMARK SMILES IDX 15 1 14 2 13 3 11 4 12 5 10 6 9 7 8 8 5 9 6 10 89 11 7 12
REMARK SMILES IDX 88 13 2 14 1 15 3 16 4 17 82 18 83 19 87 20 84 21 86 22
REMARK SMILES IDX 85 23 16 24 17 25 18 26 19 27 20 28 81 29 21 30 80 31 22 32
REMARK SMILES IDX 23 33 24 34 74 35 25 36 79 37 73 38 75 39 26 40 78 41 72 42
REMARK SMILES IDX 71 43 27 45 59 46 39 47 58 48 40 49 43 50 57 51 76 52 41 53
REMARK SMILES IDX 42 54 56 56 77 57 44 58 28 59 29 60 37 61 30 62 36 63 38 64
REMARK SMILES IDX 35 65 31 66 32 67 33 68 34 69 60 70 61 71 69 72 62 73 68 74
REMARK SMILES IDX 70 75 67 76 63 77 64 78 65 79 66 80 45 81 46 82 54 83 47 84
REMARK SMILES IDX 53 85 55 86 52 87 48 88 49 89 50 90 51 91
REMARK H PARENT 75 44 43 55
REMARK Flexibility Score: inf
ROOT
ATOM      1  C   UNL A   1      36.002  21.989  26.047  1.00  0.00     0.275 C 
ENDROOT
BRANCH   1   2
ATOM      2  C   UNL A   1      34.668  22.295  25.371  1.00  0.00     0.275 C 
BRANCH   2   3
ATOM      3  O   UNL A   1      34.292  23.672  25.580  1.00  0.00    -0.458 OA
BRANCH   3   4
ATOM      4  C   UNL A   1      32.975  23.872  25.854  1.00  0.00     0.338 C 
ATOM      5  O   UNL A   1      32.277  23.134  26.535  1.00  0.00    -0.246 OA
BRANCH   4   6
ATOM      6  C   UNL A   1      32.455  25.127  25.231  1.00  0.00     0.067 C 
ATOM      7  C   UNL A   1      31.722  25.030  24.097  1.00  0.00     0.024 C 
BRANCH   7   8
ATOM      8  C   UNL A   1      30.848  26.078  23.518  1.00  0.00    -0.025 A 
ATOM      9  C   UNL A   1      29.167  28.238  22.886  1.00  0.00     0.067 A 
ATOM     10  C   UNL A   1      30.483  28.225  22.431  1.00  0.00     0.021 A 
ATOM     11  C   UNL A   1      28.648  27.131  23.561  1.00  0.00     0.021 A 
ATOM     12  C   UNL A   1      31.303  27.132  22.718  1.00  0.00     0.009 A 
ATOM     13  C   UNL A   1      29.491  26.058  23.873  1.00  0.00     0.009 A 
BRANCH   9  14
ATOM     14  S   UNL A   1      28.209  29.709  22.634  1.00  0.00     0.175 S 
ATOM     15  C   UNL A   1      29.025  31.001  23.521  1.00  0.00     0.163 C 
ATOM     16  O   UNL A   1      26.928  29.506  23.296  1.00  0.00    -0.224 OA
ATOM     17  O   UNL A   1      28.291  30.027  21.228  1.00  0.00    -0.224 OA
ENDBRANCH   9  14
ENDBRANCH   7   8
BRANCH   6  18
ATOM     18  C   UNL A   1      32.607  26.386  25.985  1.00  0.00    -0.011 A 
ATOM     19  C   UNL A   1      33.745  27.180  25.771  1.00  0.00     0.009 A 
ATOM     20  C   UNL A   1      31.610  26.839  26.856  1.00  0.00     0.009 A 
ATOM     21  C   UNL A   1      33.861  28.430  26.384  1.00  0.00     0.001 A 
ATOM     22  C   UNL A   1      31.738  28.082  27.482  1.00  0.00     0.001 A 
ATOM     23  C   UNL A   1      32.857  28.878  27.240  1.00  0.00     0.000 A 
ENDBRANCH   6  18
ENDBRANCH   4   6
ENDBRANCH   3   4
ENDBRANCH   2   3
ENDBRANCH   1   2
BRANCH   1  24
ATOM     24  O   UNL A   1      37.010  21.735  25.052  1.00  0.00    -0.458 OA
BRANCH  24  25
ATOM     25  C   UNL A   1      38.241  21.440  25.529  1.00  0.00     0.338 C 
ATOM     26  O   UNL A   1      38.872  20.408  25.334  1.00  0.00    -0.246 OA
BRANCH  25  27
ATOM     27  C   UNL A   1      38.775  22.551  26.339  1.00  0.00     0.060 A 
ATOM     28  C   UNL A   1      38.261  23.836  26.196  1.00  0.00     0.016 A 
ATOM     29  C   UNL A   1      39.918  22.349  27.114  1.00  0.00     0.016 A 
ATOM     30  C   UNL A   1      38.981  24.926  26.691  1.00  0.00     0.010 A 
ATOM     31  C   UNL A   1      40.569  23.442  27.704  1.00  0.00     0.010 A 
ATOM     32  C   UNL A   1      40.159  24.760  27.435  1.00  0.00    -0.014 A 
BRANCH  32  33
ATOM     33  C   UNL A   1      41.009  25.938  27.829  1.00  0.00     0.031 A 
ATOM     34  C   UNL A   1      40.448  27.015  28.739  1.00  0.00     0.074 A 
ATOM     35  C   UNL A   1      42.295  26.054  27.432  1.00  0.00     0.049 A 
ATOM     36  N   UNL A   1      40.911  28.215  28.997  1.00  0.00    -0.248 NA
ATOM     37  C   UNL A   1      39.187  26.710  29.431  1.00  0.00     0.031 C 
ATOM     38  C   UNL A   1      43.024  25.086  26.610  1.00  0.00     0.029 A 
ATOM     39  N   UNL A   1      43.230  27.034  27.683  1.00  0.00    -0.354 N 
ATOM     40  C   UNL A   1      39.952  28.839  29.794  1.00  0.00     0.074 A 
ATOM     41  C   UNL A   1      38.886  27.877  29.983  1.00  0.00     0.031 C 
ATOM     42  C   UNL A   1      44.301  25.477  26.492  1.00  0.00     0.029 A 
ATOM     43  C   UNL A   1      44.457  26.788  27.110  1.00  0.00     0.049 A 
ATOM     44  H   UNL A   1      43.038  27.834  28.222  1.00  0.00     0.167 HD
ATOM     45  C   UNL A   1      39.958  30.094  30.313  1.00  0.00     0.034 A 
ATOM     46  C   UNL A   1      45.571  27.546  27.029  1.00  0.00     0.034 A 
ATOM     47  C   UNL A   1      41.071  31.010  30.207  1.00  0.00     0.049 A 
ATOM     48  C   UNL A   1      45.561  28.933  27.613  1.00  0.00     0.074 A 
ATOM     49  C   UNL A   1      41.184  32.295  30.714  1.00  0.00     0.029 A 
ATOM     50  N   UNL A   1      42.277  30.730  29.578  1.00  0.00    -0.354 N 
ATOM     51  N   UNL A   1      44.594  29.557  28.243  1.00  0.00    -0.248 NA
ATOM     52  C   UNL A   1      46.786  29.726  27.449  1.00  0.00     0.031 C 
ATOM     53  C   UNL A   1      42.434  32.807  30.351  1.00  0.00     0.029 A 
ATOM     54  C   UNL A   1      43.131  31.820  29.676  1.00  0.00     0.049 A 
ATOM     55  H   UNL A   1      42.494  29.882  29.128  1.00  0.00     0.167 HD
ATOM     56  C   UNL A   1      45.097  30.819  28.551  1.00  0.00     0.074 A 
ATOM     57  C   UNL A   1      46.462  30.852  28.067  1.00  0.00     0.031 C 
ATOM     58  C   UNL A   1      44.483  31.857  29.170  1.00  0.00     0.034 A 
BRANCH  45  59
ATOM     59  C   UNL A   1      38.695  30.582  30.989  1.00  0.00     0.023 A 
ATOM     60  C   UNL A   1      37.626  31.156  30.280  1.00  0.00     0.031 A 
ATOM     61  C   UNL A   1      38.569  30.475  32.388  1.00  0.00     0.131 A 
ATOM     62  C   UNL A   1      36.515  31.661  30.977  1.00  0.00     0.055 A 
ATOM     63  C   UNL A   1      37.428  30.904  33.066  1.00  0.00     0.041 A 
ATOM     64  F   UNL A   1      39.564  29.952  33.124  1.00  0.00    -0.206 F 
ATOM     65  C   UNL A   1      36.398  31.516  32.362  1.00  0.00     0.022 A 
BRANCH  62  66
ATOM     66  S   UNL A   1      35.287  32.638  30.065  1.00  0.00     0.124 S 
ATOM     67  O   UNL A   1      36.084  33.783  29.633  1.00  0.00    -0.237 OA
ATOM     68  O   UNL A   1      34.870  31.717  29.016  1.00  0.00    -0.237 OA
ATOM     69  O   UNL A   1      34.271  32.940  31.072  1.00  0.00    -0.744 OA
ENDBRANCH  62  66
ENDBRANCH  45  59
BRANCH  46  70
ATOM     70  C   UNL A   1      46.765  27.045  26.288  1.00  0.00     0.023 A 
ATOM     71  C   UNL A   1      47.828  26.419  26.957  1.00  0.00     0.031 A 
ATOM     72  C   UNL A   1      46.873  27.217  24.895  1.00  0.00     0.131 A 
ATOM     73  C   UNL A   1      48.963  26.012  26.237  1.00  0.00     0.055 A 
ATOM     74  C   UNL A   1      47.976  26.756  24.177  1.00  0.00     0.041 A 
ATOM     75  F   UNL A   1      45.889  27.818  24.207  1.00  0.00    -0.206 F 
ATOM     76  C   UNL A   1      49.035  26.159  24.850  1.00  0.00     0.022 A 
BRANCH  73  77
ATOM     77  S   UNL A   1      50.385  25.354  27.152  1.00  0.00     0.124 S 
ATOM     78  O   UNL A   1      49.754  24.351  28.002  1.00  0.00    -0.237 OA
ATOM     79  O   UNL A   1      51.228  24.844  26.076  1.00  0.00    -0.237 OA
ATOM     80  O   UNL A   1      50.912  26.523  27.850  1.00  0.00    -0.744 OA
ENDBRANCH  73  77
ENDBRANCH  46  70
BRANCH  58  81
ATOM     81  C   UNL A   1      45.305  33.103  29.385  1.00  0.00     0.023 A 
ATOM     82  C   UNL A   1      46.154  33.244  30.497  1.00  0.00     0.031 A 
ATOM     83  C   UNL A   1      45.205  34.181  28.488  1.00  0.00     0.131 A 
ATOM     84  C   UNL A   1      46.821  34.459  30.718  1.00  0.00     0.055 A 
ATOM     85  C   UNL A   1      45.914  35.367  28.683  1.00  0.00     0.041 A 
ATOM     86  F   UNL A   1      44.407  34.102  27.411  1.00  0.00    -0.206 F 
ATOM     87  C   UNL A   1      46.717  35.517  29.811  1.00  0.00     0.022 A 
BRANCH  84  88
ATOM     88  S   UNL A   1      47.749  34.677  32.262  1.00  0.00     0.124 S 
ATOM     89  O   UNL A   1      46.682  34.933  33.225  1.00  0.00    -0.237 OA
ATOM     90  O   UNL A   1      48.436  33.396  32.398  1.00  0.00    -0.237 OA
ATOM     91  O   UNL A   1      48.618  35.818  31.983  1.00  0.00    -0.744 OA
ENDBRANCH  84  88
ENDBRANCH  58  81
ENDBRANCH  32  33
ENDBRANCH  25  27
ENDBRANCH  24  25
ENDBRANCH   1  24
TORSDOF 17
ENDMDL
