MODEL 1
REMARK VINA RESULT:     -10.5      0.000      0.000
REMARK SMILES N#Cc1ccc2c(c1)C=C(C(=O)OCCOC(=O)c1ccc(-c3c4nc(c(-c5cc(S(=O)(=O)[O-])ccc5F)c5ccc([nH]5)c(-c5cc(S(=O)(=O)[O-])ccc5F)c5nc(c(-c6cc(S(=O)(=O)[O-])ccc6F)c6ccc3[nH]6)C=C5)C=C4)cc1)[C@@H](C(F)(F)F)O2
REMARK SMILES IDX 15 1 14 2 13 3 11 4 12 5 10 6 3 7 4 8 8 9 5 10 7 11 6 12
REMARK SMILES IDX 9 13 87 14 82 15 2 16 1 17 83 18 84 19 85 20 86 21 16 22
REMARK SMILES IDX 17 23 18 24 19 25 20 26 81 27 21 28 80 29 22 30 23 31 24 32
REMARK SMILES IDX 74 33 25 34 79 35 73 36 75 37 26 38 78 39 72 40 71 41 27 43
REMARK SMILES IDX 59 44 39 45 58 46 40 47 43 48 57 49 76 50 41 51 42 52 56 54
REMARK SMILES IDX 77 55 44 56 28 57 29 58 37 59 30 60 36 61 38 62 35 63 31 64
REMARK SMILES IDX 32 65 33 66 34 67 60 68 61 69 69 70 62 71 68 72 70 73 67 74
REMARK SMILES IDX 63 75 64 76 65 77 66 78 45 79 46 80 54 81 47 82 53 83 55 84
REMARK SMILES IDX 52 85 48 86 49 87 50 88 51 89
REMARK H PARENT 75 42 43 53
REMARK Flexibility Score: inf
ROOT
ATOM      1  C   UNL A   1      40.864  19.932  26.261  1.00  0.00     0.275 C 
ENDROOT
BRANCH   1   2
ATOM      2  C   UNL A   1      42.281  19.818  26.832  1.00  0.00     0.275 C 
BRANCH   2   3
ATOM      3  O   UNL A   1      43.269  20.356  25.924  1.00  0.00    -0.459 OA
BRANCH   3   4
ATOM      4  C   UNL A   1      43.211  21.694  25.720  1.00  0.00     0.338 C 
ATOM      5  O   UNL A   1      42.367  22.287  25.068  1.00  0.00    -0.246 OA
BRANCH   4   6
ATOM      6  C   UNL A   1      44.325  22.384  26.404  1.00  0.00     0.087 C 
ATOM      7  C   UNL A   1      45.784  25.344  29.921  1.00  0.00     0.053 A 
ATOM      8  C   UNL A   1      47.024  25.476  29.287  1.00  0.00     0.023 A 
ATOM      9  C   UNL A   1      44.825  24.490  29.374  1.00  0.00     0.031 A 
ATOM     10  C   UNL A   1      47.303  24.756  28.117  1.00  0.00     0.048 A 
ATOM     11  C   UNL A   1      45.103  23.795  28.187  1.00  0.00     0.019 A 
ATOM     12  C   UNL A   1      46.339  23.918  27.561  1.00  0.00     0.128 A 
ATOM     13  C   UNL A   1      44.079  22.981  27.576  1.00  0.00     0.027 C 
ATOM     14  O   UNL A   1      46.673  23.253  26.414  1.00  0.00    -0.475 OA
ATOM     15  C   UNL A   1      45.634  22.529  25.686  1.00  0.00     0.316 C 
BRANCH   7  16
ATOM     16  C   UNL A   1      45.489  26.102  31.099  1.00  0.00     0.099 C 
ATOM     17  N   UNL A   1      45.277  26.736  32.050  1.00  0.00    -0.192 NA
ENDBRANCH   7  16
BRANCH  15  18
ATOM     18  C   UNL A   1      45.433  23.197  24.316  1.00  0.00     0.430 C 
ATOM     19  F   UNL A   1      46.612  23.616  23.794  1.00  0.00    -0.167 F 
ATOM     20  F   UNL A   1      44.899  22.341  23.412  1.00  0.00    -0.167 F 
ATOM     21  F   UNL A   1      44.616  24.273  24.384  1.00  0.00    -0.167 F 
ENDBRANCH  15  18
ENDBRANCH   4   6
ENDBRANCH   3   4
ENDBRANCH   2   3
ENDBRANCH   1   2
BRANCH   1  22
ATOM     22  O   UNL A   1      40.027  20.744  27.100  1.00  0.00    -0.458 OA
BRANCH  22  23
ATOM     23  C   UNL A   1      39.336  21.703  26.443  1.00  0.00     0.338 C 
ATOM     24  O   UNL A   1      38.438  21.544  25.633  1.00  0.00    -0.246 OA
BRANCH  23  25
ATOM     25  C   UNL A   1      39.713  23.021  26.960  1.00  0.00     0.060 A 
ATOM     26  C   UNL A   1      40.571  23.179  28.038  1.00  0.00     0.016 A 
ATOM     27  C   UNL A   1      39.317  24.127  26.222  1.00  0.00     0.016 A 
ATOM     28  C   UNL A   1      41.004  24.469  28.364  1.00  0.00     0.010 A 
ATOM     29  C   UNL A   1      39.913  25.361  26.415  1.00  0.00     0.010 A 
ATOM     30  C   UNL A   1      40.717  25.574  27.532  1.00  0.00    -0.014 A 
BRANCH  30  31
ATOM     31  C   UNL A   1      41.219  26.945  27.831  1.00  0.00     0.031 A 
ATOM     32  C   UNL A   1      40.332  27.967  28.514  1.00  0.00     0.074 A 
ATOM     33  C   UNL A   1      42.472  27.283  27.464  1.00  0.00     0.049 A 
ATOM     34  N   UNL A   1      40.628  29.185  28.893  1.00  0.00    -0.248 NA
ATOM     35  C   UNL A   1      38.926  27.603  28.769  1.00  0.00     0.031 C 
ATOM     36  C   UNL A   1      43.379  26.427  26.698  1.00  0.00     0.029 A 
ATOM     37  N   UNL A   1      43.210  28.417  27.697  1.00  0.00    -0.354 N 
ATOM     38  C   UNL A   1      39.452  29.720  29.412  1.00  0.00     0.074 A 
ATOM     39  C   UNL A   1      38.414  28.743  29.208  1.00  0.00     0.031 C 
ATOM     40  C   UNL A   1      44.576  27.022  26.608  1.00  0.00     0.029 A 
ATOM     41  C   UNL A   1      44.509  28.333  27.246  1.00  0.00     0.049 A 
ATOM     42  H   UNL A   1      42.846  29.214  28.145  1.00  0.00     0.167 HD
ATOM     43  C   UNL A   1      39.267  30.895  30.057  1.00  0.00     0.034 A 
ATOM     44  C   UNL A   1      45.535  29.203  27.344  1.00  0.00     0.034 A 
ATOM     45  C   UNL A   1      40.328  31.834  30.304  1.00  0.00     0.049 A 
ATOM     46  C   UNL A   1      45.316  30.491  28.095  1.00  0.00     0.074 A 
ATOM     47  C   UNL A   1      40.269  33.014  31.022  1.00  0.00     0.029 A 
ATOM     48  N   UNL A   1      41.632  31.700  29.852  1.00  0.00    -0.354 N 
ATOM     49  N   UNL A   1      44.230  30.918  28.697  1.00  0.00    -0.248 NA
ATOM     50  C   UNL A   1      46.457  31.410  28.200  1.00  0.00     0.031 C 
ATOM     51  C   UNL A   1      41.512  33.634  30.933  1.00  0.00     0.029 A 
ATOM     52  C   UNL A   1      42.379  32.795  30.249  1.00  0.00     0.049 A 
ATOM     53  H   UNL A   1      41.975  30.940  29.329  1.00  0.00     0.167 HD
ATOM     54  C   UNL A   1      44.564  32.140  29.273  1.00  0.00     0.074 A 
ATOM     55  C   UNL A   1      45.963  32.367  28.975  1.00  0.00     0.031 C 
ATOM     56  C   UNL A   1      43.782  32.998  29.973  1.00  0.00     0.034 A 
BRANCH  43  57
ATOM     57  C   UNL A   1      37.897  31.229  30.604  1.00  0.00     0.023 A 
ATOM     58  C   UNL A   1      36.965  31.911  29.798  1.00  0.00     0.031 A 
ATOM     59  C   UNL A   1      37.576  31.030  31.960  1.00  0.00     0.131 A 
ATOM     60  C   UNL A   1      35.792  32.420  30.367  1.00  0.00     0.055 A 
ATOM     61  C   UNL A   1      36.375  31.483  32.507  1.00  0.00     0.041 A 
ATOM     62  F   UNL A   1      38.428  30.390  32.778  1.00  0.00    -0.206 F 
ATOM     63  C   UNL A   1      35.486  32.201  31.713  1.00  0.00     0.022 A 
BRANCH  60  64
ATOM     64  S   UNL A   1      34.665  33.472  29.409  1.00  0.00     0.124 S 
ATOM     65  O   UNL A   1      33.785  33.996  30.451  1.00  0.00    -0.237 OA
ATOM     66  O   UNL A   1      35.584  34.443  28.823  1.00  0.00    -0.237 OA
ATOM     67  O   UNL A   1      34.036  32.549  28.471  1.00  0.00    -0.744 OA
ENDBRANCH  60  64
ENDBRANCH  43  57
BRANCH  44  68
ATOM     68  C   UNL A   1      46.868  28.825  26.783  1.00  0.00     0.023 A 
ATOM     69  C   UNL A   1      47.043  28.642  25.399  1.00  0.00     0.031 A 
ATOM     70  C   UNL A   1      47.950  28.520  27.627  1.00  0.00     0.131 A 
ATOM     71  C   UNL A   1      48.237  28.093  24.912  1.00  0.00     0.055 A 
ATOM     72  C   UNL A   1      49.169  28.056  27.128  1.00  0.00     0.041 A 
ATOM     73  F   UNL A   1      47.830  28.656  28.958  1.00  0.00    -0.206 F 
ATOM     74  C   UNL A   1      49.309  27.819  25.764  1.00  0.00     0.022 A 
BRANCH  71  75
ATOM     75  S   UNL A   1      48.376  27.566  23.180  1.00  0.00     0.124 S 
ATOM     76  O   UNL A   1      49.700  28.059  22.816  1.00  0.00    -0.237 OA
ATOM     77  O   UNL A   1      48.254  26.115  23.302  1.00  0.00    -0.237 OA
ATOM     78  O   UNL A   1      47.251  28.227  22.527  1.00  0.00    -0.744 OA
ENDBRANCH  71  75
ENDBRANCH  44  68
BRANCH  56  79
ATOM     79  C   UNL A   1      44.389  34.275  30.504  1.00  0.00     0.023 A 
ATOM     80  C   UNL A   1      44.432  35.419  29.683  1.00  0.00     0.031 A 
ATOM     81  C   UNL A   1      45.086  34.306  31.723  1.00  0.00     0.131 A 
ATOM     82  C   UNL A   1      45.210  36.519  30.060  1.00  0.00     0.055 A 
ATOM     83  C   UNL A   1      45.805  35.432  32.127  1.00  0.00     0.041 A 
ATOM     84  F   UNL A   1      45.091  33.235  32.534  1.00  0.00    -0.206 F 
ATOM     85  C   UNL A   1      45.885  36.537  31.284  1.00  0.00     0.022 A 
BRANCH  82  86
ATOM     86  S   UNL A   1      45.472  37.911  28.926  1.00  0.00     0.124 S 
ATOM     87  O   UNL A   1      46.395  37.335  27.950  1.00  0.00    -0.237 OA
ATOM     88  O   UNL A   1      44.121  38.162  28.433  1.00  0.00    -0.237 OA
ATOM     89  O   UNL A   1      46.038  38.955  29.772  1.00  0.00    -0.744 OA
ENDBRANCH  82  86
ENDBRANCH  56  79
ENDBRANCH  30  31
ENDBRANCH  23  25
ENDBRANCH  22  23
ENDBRANCH   1  22
TORSDOF 16
ENDMDL
MODEL 2
REMARK VINA RESULT:     -10.4      0.716      7.643
REMARK SMILES N#Cc1ccc2c(c1)C=C(C(=O)OCCOC(=O)c1ccc(-c3c4nc(c(-c5cc(S(=O)(=O)[O-])ccc5F)c5ccc([nH]5)c(-c5cc(S(=O)(=O)[O-])ccc5F)c5nc(c(-c6cc(S(=O)(=O)[O-])ccc6F)c6ccc3[nH]6)C=C5)C=C4)cc1)[C@@H](C(F)(F)F)O2
REMARK SMILES IDX 15 1 14 2 13 3 11 4 12 5 10 6 3 7 4 8 8 9 5 10 7 11 6 12
REMARK SMILES IDX 9 13 87 14 82 15 2 16 1 17 83 18 84 19 85 20 86 21 16 22
REMARK SMILES IDX 17 23 18 24 19 25 20 26 81 27 21 28 80 29 22 30 23 31 24 32
REMARK SMILES IDX 74 33 25 34 79 35 73 36 75 37 26 38 78 39 72 40 71 41 27 43
REMARK SMILES IDX 59 44 39 45 58 46 40 47 43 48 57 49 76 50 41 51 42 52 56 54
REMARK SMILES IDX 77 55 44 56 28 57 29 58 37 59 30 60 36 61 38 62 35 63 31 64
REMARK SMILES IDX 32 65 33 66 34 67 60 68 61 69 69 70 62 71 68 72 70 73 67 74
REMARK SMILES IDX 63 75 64 76 65 77 66 78 45 79 46 80 54 81 47 82 53 83 55 84
REMARK SMILES IDX 52 85 48 86 49 87 50 88 51 89
REMARK H PARENT 75 42 43 53
REMARK Flexibility Score: inf
ROOT
ATOM      1  C   UNL A   1      40.784  20.103  26.165  1.00  0.00     0.275 C 
ENDROOT
BRANCH   1   2
ATOM      2  C   UNL A   1      42.144  19.941  26.852  1.00  0.00     0.275 C 
BRANCH   2   3
ATOM      3  O   UNL A   1      43.227  20.398  26.010  1.00  0.00    -0.459 OA
BRANCH   3   4
ATOM      4  C   UNL A   1      43.246  21.727  25.749  1.00  0.00     0.338 C 
ATOM      5  O   UNL A   1      42.447  22.337  25.057  1.00  0.00    -0.246 OA
BRANCH   4   6
ATOM      6  C   UNL A   1      44.384  22.384  26.426  1.00  0.00     0.087 C 
ATOM      7  C   UNL A   1      45.960  25.241  29.977  1.00  0.00     0.053 A 
ATOM      8  C   UNL A   1      47.189  25.368  29.322  1.00  0.00     0.023 A 
ATOM      9  C   UNL A   1      44.977  24.415  29.431  1.00  0.00     0.031 A 
ATOM     10  C   UNL A   1      47.433  24.671  28.131  1.00  0.00     0.048 A 
ATOM     11  C   UNL A   1      45.220  23.742  28.224  1.00  0.00     0.019 A 
ATOM     12  C   UNL A   1      46.445  23.861  27.575  1.00  0.00     0.128 A 
ATOM     13  C   UNL A   1      44.171  22.958  27.616  1.00  0.00     0.027 C 
ATOM     14  O   UNL A   1      46.745  23.217  26.407  1.00  0.00    -0.475 OA
ATOM     15  C   UNL A   1      45.681  22.526  25.685  1.00  0.00     0.316 C 
BRANCH   7  16
ATOM     16  C   UNL A   1      45.701  25.977  31.179  1.00  0.00     0.099 C 
ATOM     17  N   UNL A   1      45.466  26.588  32.138  1.00  0.00    -0.192 NA
ENDBRANCH   7  16
BRANCH  15  18
ATOM     18  C   UNL A   1      45.463  23.227  24.335  1.00  0.00     0.430 C 
ATOM     19  F   UNL A   1      44.925  22.382  23.421  1.00  0.00    -0.167 F 
ATOM     20  F   UNL A   1      44.602  24.268  24.442  1.00  0.00    -0.167 F 
ATOM     21  F   UNL A   1      46.614  23.708  23.813  1.00  0.00    -0.167 F 
ENDBRANCH  15  18
ENDBRANCH   4   6
ENDBRANCH   3   4
ENDBRANCH   2   3
ENDBRANCH   1   2
BRANCH   1  22
ATOM     22  O   UNL A   1      39.883  20.883  26.968  1.00  0.00    -0.458 OA
BRANCH  22  23
ATOM     23  C   UNL A   1      39.311  21.923  26.319  1.00  0.00     0.338 C 
ATOM     24  O   UNL A   1      38.480  21.872  25.429  1.00  0.00    -0.246 OA
BRANCH  23  25
ATOM     25  C   UNL A   1      39.720  23.180  26.952  1.00  0.00     0.060 A 
ATOM     26  C   UNL A   1      40.570  23.219  28.047  1.00  0.00     0.016 A 
ATOM     27  C   UNL A   1      39.364  24.357  26.309  1.00  0.00     0.016 A 
ATOM     28  C   UNL A   1      41.036  24.464  28.487  1.00  0.00     0.010 A 
ATOM     29  C   UNL A   1      39.993  25.552  26.613  1.00  0.00     0.010 A 
ATOM     30  C   UNL A   1      40.789  25.644  27.751  1.00  0.00    -0.014 A 
BRANCH  30  31
ATOM     31  C   UNL A   1      41.327  26.969  28.172  1.00  0.00     0.031 A 
ATOM     32  C   UNL A   1      42.738  27.387  27.810  1.00  0.00     0.074 A 
ATOM     33  C   UNL A   1      40.551  27.792  28.907  1.00  0.00     0.049 A 
ATOM     34  N   UNL A   1      43.343  28.523  28.052  1.00  0.00    -0.248 NA
ATOM     35  C   UNL A   1      43.599  26.402  27.130  1.00  0.00     0.031 C 
ATOM     36  C   UNL A   1      39.221  27.454  29.416  1.00  0.00     0.029 A 
ATOM     37  N   UNL A   1      40.749  29.081  29.337  1.00  0.00    -0.354 N 
ATOM     38  C   UNL A   1      44.639  28.376  27.567  1.00  0.00     0.074 A 
ATOM     39  C   UNL A   1      44.772  27.017  27.113  1.00  0.00     0.031 C 
ATOM     40  C   UNL A   1      38.686  28.533  30.003  1.00  0.00     0.029 A 
ATOM     41  C   UNL A   1      39.657  29.623  29.977  1.00  0.00     0.049 A 
ATOM     42  H   UNL A   1      41.592  29.570  29.199  1.00  0.00     0.167 HD
ATOM     43  C   UNL A   1      45.613  29.308  27.453  1.00  0.00     0.034 A 
ATOM     44  C   UNL A   1      39.452  30.859  30.477  1.00  0.00     0.034 A 
ATOM     45  C   UNL A   1      45.444  30.678  27.859  1.00  0.00     0.049 A 
ATOM     46  C   UNL A   1      40.537  31.892  30.311  1.00  0.00     0.074 A 
ATOM     47  C   UNL A   1      46.334  31.725  27.710  1.00  0.00     0.029 A 
ATOM     48  N   UNL A   1      44.316  31.192  28.480  1.00  0.00    -0.354 N 
ATOM     49  N   UNL A   1      41.707  31.769  29.727  1.00  0.00    -0.248 NA
ATOM     50  C   UNL A   1      40.277  33.233  30.849  1.00  0.00     0.031 C 
ATOM     51  C   UNL A   1      45.782  32.849  28.316  1.00  0.00     0.029 A 
ATOM     52  C   UNL A   1      44.503  32.536  28.752  1.00  0.00     0.049 A 
ATOM     53  H   UNL A   1      43.504  30.678  28.695  1.00  0.00     0.167 HD
ATOM     54  C   UNL A   1      42.310  33.021  29.805  1.00  0.00     0.074 A 
ATOM     55  C   UNL A   1      41.361  33.894  30.463  1.00  0.00     0.031 C 
ATOM     56  C   UNL A   1      43.538  33.407  29.381  1.00  0.00     0.034 A 
BRANCH  43  57
ATOM     57  C   UNL A   1      46.932  28.926  26.818  1.00  0.00     0.023 A 
ATOM     58  C   UNL A   1      47.000  28.687  25.432  1.00  0.00     0.031 A 
ATOM     59  C   UNL A   1      48.068  28.634  27.596  1.00  0.00     0.131 A 
ATOM     60  C   UNL A   1      48.153  28.116  24.879  1.00  0.00     0.055 A 
ATOM     61  C   UNL A   1      49.237  28.126  27.029  1.00  0.00     0.041 A 
ATOM     62  F   UNL A   1      48.059  28.837  28.923  1.00  0.00    -0.206 F 
ATOM     63  C   UNL A   1      49.275  27.845  25.667  1.00  0.00     0.022 A 
BRANCH  60  64
ATOM     64  S   UNL A   1      48.206  27.611  23.137  1.00  0.00     0.124 S 
ATOM     65  O   UNL A   1      49.487  28.162  22.703  1.00  0.00    -0.237 OA
ATOM     66  O   UNL A   1      48.157  26.155  23.243  1.00  0.00    -0.237 OA
ATOM     67  O   UNL A   1      47.029  28.243  22.552  1.00  0.00    -0.744 OA
ENDBRANCH  60  64
ENDBRANCH  43  57
BRANCH  44  68
ATOM     68  C   UNL A   1      38.132  31.184  31.098  1.00  0.00     0.023 A 
ATOM     69  C   UNL A   1      37.092  31.745  30.334  1.00  0.00     0.031 A 
ATOM     70  C   UNL A   1      37.931  31.056  32.484  1.00  0.00     0.131 A 
ATOM     71  C   UNL A   1      35.940  32.230  30.968  1.00  0.00     0.055 A 
ATOM     72  C   UNL A   1      36.744  31.460  33.100  1.00  0.00     0.041 A 
ATOM     73  F   UNL A   1      38.898  30.546  33.264  1.00  0.00    -0.206 F 
ATOM     74  C   UNL A   1      35.750  32.071  32.343  1.00  0.00     0.022 A 
BRANCH  71  75
ATOM     75  S   UNL A   1      34.728  33.225  30.054  1.00  0.00     0.124 S 
ATOM     76  O   UNL A   1      34.113  32.231  29.181  1.00  0.00    -0.237 OA
ATOM     77  O   UNL A   1      33.883  33.727  31.134  1.00  0.00    -0.237 OA
ATOM     78  O   UNL A   1      35.544  34.235  29.388  1.00  0.00    -0.744 OA
ENDBRANCH  71  75
ENDBRANCH  44  68
BRANCH  56  79
ATOM     79  C   UNL A   1      43.964  34.842  29.581  1.00  0.00     0.023 A 
ATOM     80  C   UNL A   1      43.589  35.817  28.637  1.00  0.00     0.031 A 
ATOM     81  C   UNL A   1      44.884  35.203  30.580  1.00  0.00     0.131 A 
ATOM     82  C   UNL A   1      44.181  37.084  28.670  1.00  0.00     0.055 A 
ATOM     83  C   UNL A   1      45.420  36.489  30.649  1.00  0.00     0.041 A 
ATOM     84  F   UNL A   1      45.288  34.305  31.493  1.00  0.00    -0.206 F 
ATOM     85  C   UNL A   1      45.084  37.430  29.679  1.00  0.00     0.022 A 
BRANCH  82  86
ATOM     86  S   UNL A   1      43.895  38.284  27.339  1.00  0.00     0.124 S 
ATOM     87  O   UNL A   1      45.222  38.387  26.736  1.00  0.00    -0.237 OA
ATOM     88  O   UNL A   1      42.892  37.604  26.525  1.00  0.00    -0.237 OA
ATOM     89  O   UNL A   1      43.436  39.481  28.035  1.00  0.00    -0.744 OA
ENDBRANCH  82  86
ENDBRANCH  56  79
ENDBRANCH  30  31
ENDBRANCH  23  25
ENDBRANCH  22  23
ENDBRANCH   1  22
TORSDOF 16
ENDMDL
MODEL 3
REMARK VINA RESULT:     -10.4      4.008     10.044
REMARK SMILES N#Cc1ccc2c(c1)C=C(C(=O)OCCOC(=O)c1ccc(-c3c4nc(c(-c5cc(S(=O)(=O)[O-])ccc5F)c5ccc([nH]5)c(-c5cc(S(=O)(=O)[O-])ccc5F)c5nc(c(-c6cc(S(=O)(=O)[O-])ccc6F)c6ccc3[nH]6)C=C5)C=C4)cc1)[C@@H](C(F)(F)F)O2
REMARK SMILES IDX 15 1 14 2 13 3 11 4 12 5 10 6 3 7 4 8 8 9 5 10 7 11 6 12
REMARK SMILES IDX 9 13 87 14 82 15 2 16 1 17 83 18 84 19 85 20 86 21 16 22
REMARK SMILES IDX 17 23 18 24 19 25 20 26 81 27 21 28 80 29 22 30 23 31 24 32
REMARK SMILES IDX 74 33 25 34 79 35 73 36 75 37 26 38 78 39 72 40 71 41 27 43
REMARK SMILES IDX 59 44 39 45 58 46 40 47 43 48 57 49 76 50 41 51 42 52 56 54
REMARK SMILES IDX 77 55 44 56 28 57 29 58 37 59 30 60 36 61 38 62 35 63 31 64
REMARK SMILES IDX 32 65 33 66 34 67 60 68 61 69 69 70 62 71 68 72 70 73 67 74
REMARK SMILES IDX 63 75 64 76 65 77 66 78 45 79 46 80 54 81 47 82 53 83 55 84
REMARK SMILES IDX 52 85 48 86 49 87 50 88 51 89
REMARK H PARENT 75 42 43 53
REMARK Flexibility Score: inf
ROOT
ATOM      1  C   UNL A   1      36.144  20.673  25.012  1.00  0.00     0.275 C 
ENDROOT
BRANCH   1   2
ATOM      2  C   UNL A   1      34.660  21.016  25.171  1.00  0.00     0.275 C 
BRANCH   2   3
ATOM      3  O   UNL A   1      34.437  22.444  25.166  1.00  0.00    -0.459 OA
BRANCH   3   4
ATOM      4  C   UNL A   1      33.394  22.872  24.414  1.00  0.00     0.338 C 
ATOM      5  O   UNL A   1      32.956  22.328  23.414  1.00  0.00    -0.246 OA
BRANCH   4   6
ATOM      6  C   UNL A   1      32.819  24.118  24.964  1.00  0.00     0.087 C 
ATOM      7  C   UNL A   1      33.549  28.467  26.917  1.00  0.00     0.053 A 
ATOM      8  C   UNL A   1      32.206  28.509  27.311  1.00  0.00     0.023 A 
ATOM      9  C   UNL A   1      34.011  27.374  26.184  1.00  0.00     0.031 A 
ATOM     10  C   UNL A   1      31.335  27.465  26.970  1.00  0.00     0.048 A 
ATOM     11  C   UNL A   1      33.138  26.321  25.871  1.00  0.00     0.019 A 
ATOM     12  C   UNL A   1      31.801  26.365  26.254  1.00  0.00     0.128 A 
ATOM     13  C   UNL A   1      33.640  25.151  25.189  1.00  0.00     0.027 C 
ATOM     14  O   UNL A   1      30.901  25.378  25.963  1.00  0.00    -0.475 OA
ATOM     15  C   UNL A   1      31.384  24.121  25.399  1.00  0.00     0.316 C 
BRANCH   7  16
ATOM     16  C   UNL A   1      34.445  29.519  27.291  1.00  0.00     0.099 C 
ATOM     17  N   UNL A   1      35.148  30.387  27.611  1.00  0.00    -0.192 NA
ENDBRANCH   7  16
BRANCH  15  18
ATOM     18  C   UNL A   1      31.118  22.991  26.408  1.00  0.00     0.430 C 
ATOM     19  F   UNL A   1      32.138  22.873  27.293  1.00  0.00    -0.167 F 
ATOM     20  F   UNL A   1      30.003  23.223  27.141  1.00  0.00    -0.167 F 
ATOM     21  F   UNL A   1      30.964  21.791  25.806  1.00  0.00    -0.167 F 
ENDBRANCH  15  18
ENDBRANCH   4   6
ENDBRANCH   3   4
ENDBRANCH   2   3
ENDBRANCH   1   2
BRANCH   1  22
ATOM     22  O   UNL A   1      36.980  21.716  25.540  1.00  0.00    -0.458 OA
BRANCH  22  23
ATOM     23  C   UNL A   1      38.254  21.339  25.793  1.00  0.00     0.338 C 
ATOM     24  O   UNL A   1      38.809  20.316  25.429  1.00  0.00    -0.246 OA
BRANCH  23  25
ATOM     25  C   UNL A   1      38.966  22.433  26.460  1.00  0.00     0.060 A 
ATOM     26  C   UNL A   1      40.130  22.230  27.184  1.00  0.00     0.016 A 
ATOM     27  C   UNL A   1      38.527  23.723  26.201  1.00  0.00     0.016 A 
ATOM     28  C   UNL A   1      40.830  23.349  27.651  1.00  0.00     0.010 A 
ATOM     29  C   UNL A   1      39.329  24.816  26.478  1.00  0.00     0.010 A 
ATOM     30  C   UNL A   1      40.463  24.658  27.269  1.00  0.00    -0.014 A 
BRANCH  30  31
ATOM     31  C   UNL A   1      41.231  25.858  27.709  1.00  0.00     0.031 A 
ATOM     32  C   UNL A   1      42.664  26.070  27.265  1.00  0.00     0.074 A 
ATOM     33  C   UNL A   1      40.646  26.749  28.535  1.00  0.00     0.049 A 
ATOM     34  N   UNL A   1      43.457  27.083  27.513  1.00  0.00    -0.248 NA
ATOM     35  C   UNL A   1      43.312  25.003  26.481  1.00  0.00     0.031 C 
ATOM     36  C   UNL A   1      39.314  26.594  29.124  1.00  0.00     0.029 A 
ATOM     37  N   UNL A   1      41.074  27.965  29.008  1.00  0.00    -0.354 N 
ATOM     38  C   UNL A   1      44.680  26.764  26.929  1.00  0.00     0.074 A 
ATOM     39  C   UNL A   1      44.564  25.428  26.406  1.00  0.00     0.031 C 
ATOM     40  C   UNL A   1      38.998  27.709  29.796  1.00  0.00     0.029 A 
ATOM     41  C   UNL A   1      40.126  28.634  29.750  1.00  0.00     0.049 A 
ATOM     42  H   UNL A   1      41.973  28.325  28.831  1.00  0.00     0.167 HD
ATOM     43  C   UNL A   1      45.780  27.538  26.787  1.00  0.00     0.034 A 
ATOM     44  C   UNL A   1      40.153  29.857  30.319  1.00  0.00     0.034 A 
ATOM     45  C   UNL A   1      45.858  28.892  27.265  1.00  0.00     0.049 A 
ATOM     46  C   UNL A   1      41.375  30.716  30.120  1.00  0.00     0.074 A 
ATOM     47  C   UNL A   1      46.892  29.794  27.099  1.00  0.00     0.029 A 
ATOM     48  N   UNL A   1      44.868  29.540  27.990  1.00  0.00    -0.354 N 
ATOM     49  N   UNL A   1      42.471  30.445  29.448  1.00  0.00    -0.248 NA
ATOM     50  C   UNL A   1      41.368  32.048  30.736  1.00  0.00     0.031 C 
ATOM     51  C   UNL A   1      46.565  30.955  27.794  1.00  0.00     0.029 A 
ATOM     52  C   UNL A   1      45.284  30.821  28.307  1.00  0.00     0.049 A 
ATOM     53  H   UNL A   1      44.001  29.148  28.240  1.00  0.00     0.167 HD
ATOM     54  C   UNL A   1      43.269  31.582  29.538  1.00  0.00     0.074 A 
ATOM     55  C   UNL A   1      42.516  32.554  30.303  1.00  0.00     0.031 C 
ATOM     56  C   UNL A   1      44.513  31.794  29.044  1.00  0.00     0.034 A 
BRANCH  43  57
ATOM     57  C   UNL A   1      46.977  26.991  26.041  1.00  0.00     0.023 A 
ATOM     58  C   UNL A   1      48.005  26.335  26.745  1.00  0.00     0.031 A 
ATOM     59  C   UNL A   1      47.181  27.264  24.675  1.00  0.00     0.131 A 
ATOM     60  C   UNL A   1      49.209  26.032  26.098  1.00  0.00     0.055 A 
ATOM     61  C   UNL A   1      48.359  26.902  24.020  1.00  0.00     0.041 A 
ATOM     62  F   UNL A   1      46.238  27.892  23.954  1.00  0.00    -0.206 F 
ATOM     63  C   UNL A   1      49.388  26.302  24.738  1.00  0.00     0.022 A 
BRANCH  60  64
ATOM     64  S   UNL A   1      50.626  25.370  27.018  1.00  0.00     0.124 S 
ATOM     65  O   UNL A   1      51.084  26.547  27.752  1.00  0.00    -0.237 OA
ATOM     66  O   UNL A   1      49.999  24.333  27.833  1.00  0.00    -0.237 OA
ATOM     67  O   UNL A   1      51.531  24.896  25.977  1.00  0.00    -0.744 OA
ENDBRANCH  60  64
ENDBRANCH  43  57
BRANCH  44  68
ATOM     68  C   UNL A   1      38.945  30.348  31.048  1.00  0.00     0.023 A 
ATOM     69  C   UNL A   1      37.999  31.170  30.408  1.00  0.00     0.031 A 
ATOM     70  C   UNL A   1      38.781  30.108  32.423  1.00  0.00     0.131 A 
ATOM     71  C   UNL A   1      36.986  31.786  31.156  1.00  0.00     0.055 A 
ATOM     72  C   UNL A   1      37.717  30.652  33.147  1.00  0.00     0.041 A 
ATOM     73  F   UNL A   1      39.665  29.347  33.088  1.00  0.00    -0.206 F 
ATOM     74  C   UNL A   1      36.826  31.515  32.517  1.00  0.00     0.022 A 
BRANCH  71  75
ATOM     75  S   UNL A   1      35.947  33.080  30.422  1.00  0.00     0.124 S 
ATOM     76  O   UNL A   1      36.611  33.317  29.145  1.00  0.00    -0.237 OA
ATOM     77  O   UNL A   1      34.651  32.412  30.346  1.00  0.00    -0.237 OA
ATOM     78  O   UNL A   1      36.023  34.172  31.387  1.00  0.00    -0.744 OA
ENDBRANCH  71  75
ENDBRANCH  44  68
BRANCH  56  79
ATOM     79  C   UNL A   1      45.174  33.132  29.277  1.00  0.00     0.023 A 
ATOM     80  C   UNL A   1      45.041  34.151  28.314  1.00  0.00     0.031 A 
ATOM     81  C   UNL A   1      46.077  33.332  30.335  1.00  0.00     0.131 A 
ATOM     82  C   UNL A   1      45.846  35.293  28.391  1.00  0.00     0.055 A 
ATOM     83  C   UNL A   1      46.828  34.502  30.445  1.00  0.00     0.041 A 
ATOM     84  F   UNL A   1      46.253  32.383  31.270  1.00  0.00    -0.206 F 
ATOM     85  C   UNL A   1      46.729  35.480  29.458  1.00  0.00     0.022 A 
BRANCH  82  86
ATOM     86  S   UNL A   1      45.866  36.514  27.049  1.00  0.00     0.124 S 
ATOM     87  O   UNL A   1      46.811  37.506  27.557  1.00  0.00    -0.237 OA
ATOM     88  O   UNL A   1      46.344  35.719  25.921  1.00  0.00    -0.237 OA
ATOM     89  O   UNL A   1      44.482  36.965  26.960  1.00  0.00    -0.744 OA
ENDBRANCH  82  86
ENDBRANCH  56  79
ENDBRANCH  30  31
ENDBRANCH  23  25
ENDBRANCH  22  23
ENDBRANCH   1  22
TORSDOF 16
ENDMDL
