MODEL 1
REMARK VINA RESULT:     -10.3      0.000      0.000
REMARK SMILES C[C@H](CSc1ccc(C(=O)N(C)C)cn1)C(=O)OCCOC(=O)c1ccc(-c2c3nc(c(-c4cc(S(=O)(=O)[O-])ccc4F)c4ccc([nH]4)c(-c4cc(S(=O)(=O)[O-])ccc4F)c4nc(c(-c5cc(S(=O)(=O)[O-])ccc5F)c5ccc2[nH]5)C=C4)C=C3)cc1
REMARK SMILES IDX 19 1 18 2 16 3 17 4 2 5 1 6 3 7 4 8 5 9 6 10 15 11 7 12
REMARK SMILES IDX 14 13 8 14 9 15 10 16 11 17 12 18 13 19 20 20 21 21 22 22
REMARK SMILES IDX 23 23 24 24 25 25 86 26 26 27 85 28 27 29 28 30 29 31 79 32
REMARK SMILES IDX 30 33 84 34 78 35 80 36 31 37 83 38 77 39 76 40 32 42 64 43
REMARK SMILES IDX 44 44 63 45 45 46 48 47 62 48 81 49 46 50 47 51 61 53 82 54
REMARK SMILES IDX 49 55 33 56 34 57 42 58 35 59 41 60 43 61 40 62 36 63 37 64
REMARK SMILES IDX 38 65 39 66 65 67 66 68 74 69 67 70 73 71 75 72 72 73 68 74
REMARK SMILES IDX 69 75 70 76 71 77 50 78 51 79 59 80 52 81 58 82 60 83 57 84
REMARK SMILES IDX 53 85 54 86 55 87 56 88
REMARK H PARENT 80 41 48 52
REMARK Flexibility Score: inf
ROOT
ATOM      1  C   UNL A   1      31.375  31.305  26.165  1.00  0.00     0.274 C 
ENDROOT
BRANCH   1   2
ATOM      2  O   UNL A   1      32.560  30.491  26.265  1.00  0.00    -0.462 OA
BRANCH   2   3
ATOM      3  C   UNL A   1      32.420  29.276  26.857  1.00  0.00     0.309 C 
ATOM      4  O   UNL A   1      31.440  28.948  27.517  1.00  0.00    -0.252 OA
BRANCH   3   5
ATOM      5  C   UNL A   1      33.543  28.298  26.520  1.00  0.00     0.106 C 
ATOM      6  C   UNL A   1      34.910  28.910  26.815  1.00  0.00     0.021 C 
BRANCH   5   7
ATOM      7  C   UNL A   1      33.411  27.531  25.193  1.00  0.00     0.091 C 
BRANCH   7   8
ATOM      8  S   UNL A   1      31.871  26.610  24.851  1.00  0.00    -0.106 SA
BRANCH   8   9
ATOM      9  C   UNL A   1      31.043  27.798  23.836  1.00  0.00     0.096 A 
ATOM     10  C   UNL A   1      31.758  28.739  23.108  1.00  0.00     0.036 A 
ATOM     11  N   UNL A   1      29.695  27.743  23.836  1.00  0.00    -0.249 NA
ATOM     12  C   UNL A   1      31.055  29.674  22.343  1.00  0.00     0.018 A 
ATOM     13  C   UNL A   1      29.035  28.657  23.091  1.00  0.00     0.126 A 
ATOM     14  C   UNL A   1      29.661  29.656  22.359  1.00  0.00     0.058 A 
BRANCH  14  15
ATOM     15  C   UNL A   1      28.798  30.579  21.596  1.00  0.00     0.254 C 
ATOM     16  O   UNL A   1      28.193  30.101  20.635  1.00  0.00    -0.269 OA
ATOM     17  N   UNL A   1      28.652  31.914  21.974  1.00  0.00    -0.345 N 
ATOM     18  C   UNL A   1      29.173  32.531  23.185  1.00  0.00     0.146 C 
ATOM     19  C   UNL A   1      27.770  32.739  21.164  1.00  0.00     0.146 C 
ENDBRANCH  14  15
ENDBRANCH   8   9
ENDBRANCH   7   8
ENDBRANCH   5   7
ENDBRANCH   3   5
ENDBRANCH   2   3
ENDBRANCH   1   2
BRANCH   1  20
ATOM     20  C   UNL A   1      31.556  32.628  26.917  1.00  0.00     0.275 C 
BRANCH  20  21
ATOM     21  O   UNL A   1      32.898  33.139  26.791  1.00  0.00    -0.458 OA
BRANCH  21  22
ATOM     22  C   UNL A   1      33.394  33.718  27.908  1.00  0.00     0.338 C 
ATOM     23  O   UNL A   1      32.887  34.625  28.554  1.00  0.00    -0.246 OA
BRANCH  22  24
ATOM     24  C   UNL A   1      34.606  33.013  28.350  1.00  0.00     0.060 A 
ATOM     25  C   UNL A   1      34.439  31.812  29.036  1.00  0.00     0.016 A 
ATOM     26  C   UNL A   1      35.877  33.570  28.202  1.00  0.00     0.016 A 
ATOM     27  C   UNL A   1      35.528  31.170  29.611  1.00  0.00     0.010 A 
ATOM     28  C   UNL A   1      36.980  32.910  28.762  1.00  0.00     0.010 A 
ATOM     29  C   UNL A   1      36.808  31.716  29.486  1.00  0.00    -0.014 A 
BRANCH  29  30
ATOM     30  C   UNL A   1      37.945  31.048  30.166  1.00  0.00     0.031 A 
ATOM     31  C   UNL A   1      38.272  31.392  31.592  1.00  0.00     0.074 A 
ATOM     32  C   UNL A   1      38.644  30.096  29.519  1.00  0.00     0.049 A 
ATOM     33  N   UNL A   1      39.264  30.983  32.337  1.00  0.00    -0.248 NA
ATOM     34  C   UNL A   1      37.358  32.326  32.265  1.00  0.00     0.031 C 
ATOM     35  C   UNL A   1      38.376  29.636  28.154  1.00  0.00     0.029 A 
ATOM     36  N   UNL A   1      39.715  29.340  29.921  1.00  0.00    -0.354 N 
ATOM     37  C   UNL A   1      39.114  31.628  33.559  1.00  0.00     0.074 A 
ATOM     38  C   UNL A   1      37.940  32.470  33.446  1.00  0.00     0.031 C 
ATOM     39  C   UNL A   1      39.257  28.674  27.836  1.00  0.00     0.029 A 
ATOM     40  C   UNL A   1      40.186  28.491  28.946  1.00  0.00     0.049 A 
ATOM     41  H   UNL A   1      40.110  29.399  30.820  1.00  0.00     0.167 HD
ATOM     42  C   UNL A   1      39.887  31.527  34.670  1.00  0.00     0.034 A 
ATOM     43  C   UNL A   1      41.266  27.685  28.936  1.00  0.00     0.034 A 
ATOM     44  C   UNL A   1      41.045  30.671  34.764  1.00  0.00     0.049 A 
ATOM     45  C   UNL A   1      42.141  27.630  30.160  1.00  0.00     0.074 A 
ATOM     46  C   UNL A   1      41.899  30.486  35.839  1.00  0.00     0.029 A 
ATOM     47  N   UNL A   1      41.517  29.854  33.742  1.00  0.00    -0.354 N 
ATOM     48  N   UNL A   1      42.011  28.278  31.295  1.00  0.00    -0.248 NA
ATOM     49  C   UNL A   1      43.306  26.740  30.101  1.00  0.00     0.031 C 
ATOM     50  C   UNL A   1      42.915  29.606  35.449  1.00  0.00     0.029 A 
ATOM     51  C   UNL A   1      42.661  29.186  34.152  1.00  0.00     0.049 A 
ATOM     52  H   UNL A   1      41.098  29.762  32.856  1.00  0.00     0.167 HD
ATOM     53  C   UNL A   1      43.073  27.860  32.092  1.00  0.00     0.074 A 
ATOM     54  C   UNL A   1      43.821  26.892  31.312  1.00  0.00     0.031 C 
ATOM     55  C   UNL A   1      43.403  28.241  33.353  1.00  0.00     0.034 A 
BRANCH  42  56
ATOM     56  C   UNL A   1      39.537  32.415  35.839  1.00  0.00     0.023 A 
ATOM     57  C   UNL A   1      38.702  31.981  36.882  1.00  0.00     0.031 A 
ATOM     58  C   UNL A   1      40.024  33.734  35.888  1.00  0.00     0.131 A 
ATOM     59  C   UNL A   1      38.324  32.880  37.894  1.00  0.00     0.055 A 
ATOM     60  C   UNL A   1      39.702  34.600  36.934  1.00  0.00     0.041 A 
ATOM     61  F   UNL A   1      40.807  34.210  34.906  1.00  0.00    -0.206 F 
ATOM     62  C   UNL A   1      38.837  34.179  37.938  1.00  0.00     0.022 A 
BRANCH  59  63
ATOM     63  S   UNL A   1      37.048  32.370  39.079  1.00  0.00     0.124 S 
ATOM     64  O   UNL A   1      37.410  33.153  40.259  1.00  0.00    -0.237 OA
ATOM     65  O   UNL A   1      35.816  32.762  38.404  1.00  0.00    -0.237 OA
ATOM     66  O   UNL A   1      37.257  30.929  39.209  1.00  0.00    -0.744 OA
ENDBRANCH  59  63
ENDBRANCH  42  56
BRANCH  43  67
ATOM     67  C   UNL A   1      41.616  26.920  27.707  1.00  0.00     0.023 A 
ATOM     68  C   UNL A   1      41.405  25.535  27.623  1.00  0.00     0.031 A 
ATOM     69  C   UNL A   1      42.202  27.567  26.603  1.00  0.00     0.131 A 
ATOM     70  C   UNL A   1      41.806  24.836  26.473  1.00  0.00     0.055 A 
ATOM     71  C   UNL A   1      42.554  26.877  25.443  1.00  0.00     0.041 A 
ATOM     72  F   UNL A   1      42.427  28.890  26.634  1.00  0.00    -0.206 F 
ATOM     73  C   UNL A   1      42.366  25.500  25.378  1.00  0.00     0.022 A 
BRANCH  70  74
ATOM     74  S   UNL A   1      41.648  23.029  26.453  1.00  0.00     0.124 S 
ATOM     75  O   UNL A   1      40.201  22.857  26.421  1.00  0.00    -0.237 OA
ATOM     76  O   UNL A   1      42.365  22.675  25.232  1.00  0.00    -0.237 OA
ATOM     77  O   UNL A   1      42.299  22.618  27.696  1.00  0.00    -0.744 OA
ENDBRANCH  70  74
ENDBRANCH  43  67
BRANCH  55  78
ATOM     78  C   UNL A   1      44.608  27.575  33.967  1.00  0.00     0.023 A 
ATOM     79  C   UNL A   1      44.499  26.372  34.685  1.00  0.00     0.031 A 
ATOM     80  C   UNL A   1      45.877  28.166  33.849  1.00  0.00     0.131 A 
ATOM     81  C   UNL A   1      45.632  25.824  35.304  1.00  0.00     0.055 A 
ATOM     82  C   UNL A   1      47.012  27.589  34.423  1.00  0.00     0.041 A 
ATOM     83  F   UNL A   1      46.036  29.316  33.175  1.00  0.00    -0.206 F 
ATOM     84  C   UNL A   1      46.890  26.418  35.165  1.00  0.00     0.022 A 
BRANCH  81  85
ATOM     85  S   UNL A   1      45.428  24.366  36.364  1.00  0.00     0.124 S 
ATOM     86  O   UNL A   1      44.259  23.722  35.774  1.00  0.00    -0.237 OA
ATOM     87  O   UNL A   1      46.698  23.670  36.186  1.00  0.00    -0.237 OA
ATOM     88  O   UNL A   1      45.216  24.937  37.694  1.00  0.00    -0.744 OA
ENDBRANCH  81  85
ENDBRANCH  55  78
ENDBRANCH  29  30
ENDBRANCH  22  24
ENDBRANCH  21  22
ENDBRANCH  20  21
ENDBRANCH   1  20
TORSDOF 18
ENDMDL
MODEL 2
REMARK VINA RESULT:     -10.3      5.448     10.772
REMARK SMILES C[C@H](CSc1ccc(C(=O)N(C)C)cn1)C(=O)OCCOC(=O)c1ccc(-c2c3nc(c(-c4cc(S(=O)(=O)[O-])ccc4F)c4ccc([nH]4)c(-c4cc(S(=O)(=O)[O-])ccc4F)c4nc(c(-c5cc(S(=O)(=O)[O-])ccc5F)c5ccc2[nH]5)C=C4)C=C3)cc1
REMARK SMILES IDX 19 1 18 2 16 3 17 4 2 5 1 6 3 7 4 8 5 9 6 10 15 11 7 12
REMARK SMILES IDX 14 13 8 14 9 15 10 16 11 17 12 18 13 19 20 20 21 21 22 22
REMARK SMILES IDX 23 23 24 24 25 25 86 26 26 27 85 28 27 29 28 30 29 31 79 32
REMARK SMILES IDX 30 33 84 34 78 35 80 36 31 37 83 38 77 39 76 40 32 42 64 43
REMARK SMILES IDX 44 44 63 45 45 46 48 47 62 48 81 49 46 50 47 51 61 53 82 54
REMARK SMILES IDX 49 55 33 56 34 57 42 58 35 59 41 60 43 61 40 62 36 63 37 64
REMARK SMILES IDX 38 65 39 66 65 67 66 68 74 69 67 70 73 71 75 72 72 73 68 74
REMARK SMILES IDX 69 75 70 76 71 77 50 78 51 79 59 80 52 81 58 82 60 83 57 84
REMARK SMILES IDX 53 85 54 86 55 87 56 88
REMARK H PARENT 80 41 48 52
REMARK Flexibility Score: inf
ROOT
ATOM      1  C   UNL A   1      36.410  19.507  24.849  1.00  0.00     0.274 C 
ENDROOT
BRANCH   1   2
ATOM      2  O   UNL A   1      35.477  20.552  25.188  1.00  0.00    -0.462 OA
BRANCH   2   3
ATOM      3  C   UNL A   1      34.189  20.375  24.791  1.00  0.00     0.309 C 
ATOM      4  O   UNL A   1      33.534  19.366  25.032  1.00  0.00    -0.252 OA
BRANCH   3   5
ATOM      5  C   UNL A   1      33.579  21.605  24.123  1.00  0.00     0.106 C 
ATOM      6  C   UNL A   1      34.628  22.696  23.922  1.00  0.00     0.021 C 
BRANCH   5   7
ATOM      7  C   UNL A   1      32.210  22.065  24.651  1.00  0.00     0.091 C 
BRANCH   7   8
ATOM      8  S   UNL A   1      31.154  23.107  23.585  1.00  0.00    -0.106 SA
BRANCH   8   9
ATOM      9  C   UNL A   1      31.210  24.614  24.508  1.00  0.00     0.096 A 
ATOM     10  C   UNL A   1      30.313  25.643  24.253  1.00  0.00     0.036 A 
ATOM     11  N   UNL A   1      32.180  24.704  25.441  1.00  0.00    -0.249 NA
ATOM     12  C   UNL A   1      30.417  26.825  24.991  1.00  0.00     0.018 A 
ATOM     13  C   UNL A   1      32.265  25.857  26.142  1.00  0.00     0.126 A 
ATOM     14  C   UNL A   1      31.436  26.950  25.934  1.00  0.00     0.058 A 
BRANCH  14  15
ATOM     15  C   UNL A   1      31.656  28.138  26.783  1.00  0.00     0.254 C 
ATOM     16  O   UNL A   1      31.175  28.103  27.917  1.00  0.00    -0.269 OA
ATOM     17  N   UNL A   1      32.404  29.225  26.329  1.00  0.00    -0.345 N 
ATOM     18  C   UNL A   1      33.161  29.295  25.088  1.00  0.00     0.146 C 
ATOM     19  C   UNL A   1      32.573  30.341  27.245  1.00  0.00     0.146 C 
ENDBRANCH  14  15
ENDBRANCH   8   9
ENDBRANCH   7   8
ENDBRANCH   5   7
ENDBRANCH   3   5
ENDBRANCH   2   3
ENDBRANCH   1   2
BRANCH   1  20
ATOM     20  C   UNL A   1      37.816  20.079  24.636  1.00  0.00     0.275 C 
BRANCH  20  21
ATOM     21  O   UNL A   1      38.138  21.093  25.608  1.00  0.00    -0.458 OA
BRANCH  21  22
ATOM     22  C   UNL A   1      39.334  20.936  26.219  1.00  0.00     0.338 C 
ATOM     23  O   UNL A   1      40.002  19.913  26.278  1.00  0.00    -0.246 OA
BRANCH  22  24
ATOM     24  C   UNL A   1      39.822  22.229  26.720  1.00  0.00     0.060 A 
ATOM     25  C   UNL A   1      39.259  23.383  26.178  1.00  0.00     0.016 A 
ATOM     26  C   UNL A   1      40.889  22.318  27.614  1.00  0.00     0.016 A 
ATOM     27  C   UNL A   1      39.773  24.634  26.492  1.00  0.00     0.010 A 
ATOM     28  C   UNL A   1      41.394  23.582  27.950  1.00  0.00     0.010 A 
ATOM     29  C   UNL A   1      40.850  24.746  27.377  1.00  0.00    -0.014 A 
BRANCH  29  30
ATOM     30  C   UNL A   1      41.425  26.088  27.645  1.00  0.00     0.031 A 
ATOM     31  C   UNL A   1      42.764  26.456  27.071  1.00  0.00     0.074 A 
ATOM     32  C   UNL A   1      40.717  26.987  28.355  1.00  0.00     0.049 A 
ATOM     33  N   UNL A   1      43.472  27.540  27.250  1.00  0.00    -0.248 NA
ATOM     34  C   UNL A   1      43.389  25.468  26.181  1.00  0.00     0.031 C 
ATOM     35  C   UNL A   1      39.380  26.760  28.907  1.00  0.00     0.029 A 
ATOM     36  N   UNL A   1      41.018  28.271  28.729  1.00  0.00    -0.354 N 
ATOM     37  C   UNL A   1      44.639  27.357  26.517  1.00  0.00     0.074 A 
ATOM     38  C   UNL A   1      44.548  26.047  25.906  1.00  0.00     0.031 C 
ATOM     39  C   UNL A   1      38.975  27.870  29.544  1.00  0.00     0.029 A 
ATOM     40  C   UNL A   1      40.043  28.863  29.498  1.00  0.00     0.049 A 
ATOM     41  H   UNL A   1      41.852  28.727  28.472  1.00  0.00     0.167 HD
ATOM     42  C   UNL A   1      45.688  28.206  26.373  1.00  0.00     0.034 A 
ATOM     43  C   UNL A   1      40.028  30.055  30.126  1.00  0.00     0.034 A 
ATOM     44  C   UNL A   1      45.752  29.513  26.982  1.00  0.00     0.049 A 
ATOM     45  C   UNL A   1      41.228  30.957  29.996  1.00  0.00     0.074 A 
ATOM     46  C   UNL A   1      46.763  30.456  26.902  1.00  0.00     0.029 A 
ATOM     47  N   UNL A   1      44.762  30.063  27.789  1.00  0.00    -0.354 N 
ATOM     48  N   UNL A   1      42.343  30.755  29.335  1.00  0.00    -0.248 NA
ATOM     49  C   UNL A   1      41.166  32.245  30.698  1.00  0.00     0.031 C 
ATOM     50  C   UNL A   1      46.410  31.548  27.703  1.00  0.00     0.029 A 
ATOM     51  C   UNL A   1      45.150  31.319  28.232  1.00  0.00     0.049 A 
ATOM     52  H   UNL A   1      43.909  29.626  28.012  1.00  0.00     0.167 HD
ATOM     53  C   UNL A   1      43.112  31.898  29.530  1.00  0.00     0.074 A 
ATOM     54  C   UNL A   1      42.323  32.791  30.357  1.00  0.00     0.031 C 
ATOM     55  C   UNL A   1      44.357  32.186  29.071  1.00  0.00     0.034 A 
BRANCH  42  56
ATOM     56  C   UNL A   1      46.874  27.710  25.581  1.00  0.00     0.023 A 
ATOM     57  C   UNL A   1      47.079  28.072  24.239  1.00  0.00     0.031 A 
ATOM     58  C   UNL A   1      47.795  26.828  26.175  1.00  0.00     0.131 A 
ATOM     59  C   UNL A   1      48.141  27.503  23.516  1.00  0.00     0.055 A 
ATOM     60  C   UNL A   1      48.889  26.322  25.471  1.00  0.00     0.041 A 
ATOM     61  F   UNL A   1      47.636  26.429  27.447  1.00  0.00    -0.206 F 
ATOM     62  C   UNL A   1      49.059  26.648  24.130  1.00  0.00     0.022 A 
BRANCH  59  63
ATOM     63  S   UNL A   1      48.228  27.790  21.727  1.00  0.00     0.124 S 
ATOM     64  O   UNL A   1      46.896  28.322  21.447  1.00  0.00    -0.237 OA
ATOM     65  O   UNL A   1      49.332  28.735  21.612  1.00  0.00    -0.237 OA
ATOM     66  O   UNL A   1      48.485  26.459  21.178  1.00  0.00    -0.744 OA
ENDBRANCH  59  63
ENDBRANCH  42  56
BRANCH  43  67
ATOM     67  C   UNL A   1      38.871  30.435  30.984  1.00  0.00     0.023 A 
ATOM     68  C   UNL A   1      37.816  31.214  30.485  1.00  0.00     0.031 A 
ATOM     69  C   UNL A   1      38.824  30.044  32.335  1.00  0.00     0.131 A 
ATOM     70  C   UNL A   1      36.774  31.606  31.341  1.00  0.00     0.055 A 
ATOM     71  C   UNL A   1      37.762  30.394  33.168  1.00  0.00     0.041 A 
ATOM     72  F   UNL A   1      39.810  29.299  32.860  1.00  0.00    -0.206 F 
ATOM     73  C   UNL A   1      36.733  31.190  32.674  1.00  0.00     0.022 A 
BRANCH  70  74
ATOM     74  S   UNL A   1      35.500  32.728  30.703  1.00  0.00     0.124 S 
ATOM     75  O   UNL A   1      36.152  34.026  30.835  1.00  0.00    -0.237 OA
ATOM     76  O   UNL A   1      35.316  32.237  29.341  1.00  0.00    -0.237 OA
ATOM     77  O   UNL A   1      34.368  32.504  31.601  1.00  0.00    -0.744 OA
ENDBRANCH  70  74
ENDBRANCH  43  67
BRANCH  55  78
ATOM     78  C   UNL A   1      44.915  33.539  29.432  1.00  0.00     0.023 A 
ATOM     79  C   UNL A   1      44.750  34.652  28.590  1.00  0.00     0.031 A 
ATOM     80  C   UNL A   1      45.640  33.708  30.624  1.00  0.00     0.131 A 
ATOM     81  C   UNL A   1      45.348  35.875  28.927  1.00  0.00     0.055 A 
ATOM     82  C   UNL A   1      46.189  34.941  30.980  1.00  0.00     0.041 A 
ATOM     83  F   UNL A   1      45.828  32.676  31.462  1.00  0.00    -0.206 F 
ATOM     84  C   UNL A   1      46.055  36.030  30.123  1.00  0.00     0.022 A 
BRANCH  81  85
ATOM     85  S   UNL A   1      45.262  37.244  27.740  1.00  0.00     0.124 S 
ATOM     86  O   UNL A   1      45.986  38.300  28.440  1.00  0.00    -0.237 OA
ATOM     87  O   UNL A   1      45.927  36.683  26.568  1.00  0.00    -0.237 OA
ATOM     88  O   UNL A   1      43.826  37.475  27.586  1.00  0.00    -0.744 OA
ENDBRANCH  81  85
ENDBRANCH  55  78
ENDBRANCH  29  30
ENDBRANCH  22  24
ENDBRANCH  21  22
ENDBRANCH  20  21
ENDBRANCH   1  20
TORSDOF 18
ENDMDL
MODEL 3
REMARK VINA RESULT:     -10.2      5.524      8.348
REMARK SMILES C[C@H](CSc1ccc(C(=O)N(C)C)cn1)C(=O)OCCOC(=O)c1ccc(-c2c3nc(c(-c4cc(S(=O)(=O)[O-])ccc4F)c4ccc([nH]4)c(-c4cc(S(=O)(=O)[O-])ccc4F)c4nc(c(-c5cc(S(=O)(=O)[O-])ccc5F)c5ccc2[nH]5)C=C4)C=C3)cc1
REMARK SMILES IDX 19 1 18 2 16 3 17 4 2 5 1 6 3 7 4 8 5 9 6 10 15 11 7 12
REMARK SMILES IDX 14 13 8 14 9 15 10 16 11 17 12 18 13 19 20 20 21 21 22 22
REMARK SMILES IDX 23 23 24 24 25 25 86 26 26 27 85 28 27 29 28 30 29 31 79 32
REMARK SMILES IDX 30 33 84 34 78 35 80 36 31 37 83 38 77 39 76 40 32 42 64 43
REMARK SMILES IDX 44 44 63 45 45 46 48 47 62 48 81 49 46 50 47 51 61 53 82 54
REMARK SMILES IDX 49 55 33 56 34 57 42 58 35 59 41 60 43 61 40 62 36 63 37 64
REMARK SMILES IDX 38 65 39 66 65 67 66 68 74 69 67 70 73 71 75 72 72 73 68 74
REMARK SMILES IDX 69 75 70 76 71 77 50 78 51 79 59 80 52 81 58 82 60 83 57 84
REMARK SMILES IDX 53 85 54 86 55 87 56 88
REMARK H PARENT 80 41 48 52
REMARK Flexibility Score: inf
ROOT
ATOM      1  C   UNL A   1      35.820  21.749  24.327  1.00  0.00     0.274 C 
ENDROOT
BRANCH   1   2
ATOM      2  O   UNL A   1      34.909  20.803  24.920  1.00  0.00    -0.462 OA
BRANCH   2   3
ATOM      3  C   UNL A   1      33.796  21.313  25.510  1.00  0.00     0.309 C 
ATOM      4  O   UNL A   1      33.815  21.986  26.536  1.00  0.00    -0.252 OA
BRANCH   3   5
ATOM      5  C   UNL A   1      32.517  21.082  24.709  1.00  0.00     0.106 C 
ATOM      6  C   UNL A   1      32.630  19.826  23.848  1.00  0.00     0.021 C 
BRANCH   5   7
ATOM      7  C   UNL A   1      31.896  22.317  24.036  1.00  0.00     0.091 C 
BRANCH   7   8
ATOM      8  S   UNL A   1      32.873  23.236  22.796  1.00  0.00    -0.106 SA
BRANCH   8   9
ATOM      9  C   UNL A   1      33.018  24.787  23.633  1.00  0.00     0.096 A 
ATOM     10  C   UNL A   1      33.583  25.889  23.005  1.00  0.00     0.036 A 
ATOM     11  N   UNL A   1      32.575  24.818  24.907  1.00  0.00    -0.249 NA
ATOM     12  C   UNL A   1      33.700  27.083  23.720  1.00  0.00     0.018 A 
ATOM     13  C   UNL A   1      32.700  25.983  25.581  1.00  0.00     0.126 A 
ATOM     14  C   UNL A   1      33.281  27.125  25.049  1.00  0.00     0.058 A 
BRANCH  14  15
ATOM     15  C   UNL A   1      33.343  28.320  25.915  1.00  0.00     0.254 C 
ATOM     16  O   UNL A   1      34.306  28.397  26.680  1.00  0.00    -0.269 OA
ATOM     17  N   UNL A   1      32.376  29.322  25.837  1.00  0.00    -0.345 N 
ATOM     18  C   UNL A   1      31.308  29.418  24.853  1.00  0.00     0.146 C 
ATOM     19  C   UNL A   1      32.533  30.463  26.724  1.00  0.00     0.146 C 
ENDBRANCH  14  15
ENDBRANCH   8   9
ENDBRANCH   7   8
ENDBRANCH   5   7
ENDBRANCH   3   5
ENDBRANCH   2   3
ENDBRANCH   1   2
BRANCH   1  20
ATOM     20  C   UNL A   1      37.273  21.302  24.519  1.00  0.00     0.275 C 
BRANCH  20  21
ATOM     21  O   UNL A   1      37.658  21.302  25.908  1.00  0.00    -0.458 OA
BRANCH  21  22
ATOM     22  C   UNL A   1      38.977  21.110  26.133  1.00  0.00     0.338 C 
ATOM     23  O   UNL A   1      39.637  20.120  25.845  1.00  0.00    -0.246 OA
BRANCH  22  24
ATOM     24  C   UNL A   1      39.583  22.334  26.676  1.00  0.00     0.060 A 
ATOM     25  C   UNL A   1      39.096  23.555  26.210  1.00  0.00     0.016 A 
ATOM     26  C   UNL A   1      40.683  22.295  27.532  1.00  0.00     0.016 A 
ATOM     27  C   UNL A   1      39.719  24.744  26.564  1.00  0.00     0.010 A 
ATOM     28  C   UNL A   1      41.298  23.498  27.909  1.00  0.00     0.010 A 
ATOM     29  C   UNL A   1      40.830  24.728  27.411  1.00  0.00    -0.014 A 
BRANCH  29  30
ATOM     30  C   UNL A   1      41.519  26.005  27.721  1.00  0.00     0.031 A 
ATOM     31  C   UNL A   1      40.821  27.052  28.542  1.00  0.00     0.074 A 
ATOM     32  C   UNL A   1      42.787  26.196  27.310  1.00  0.00     0.049 A 
ATOM     33  N   UNL A   1      41.215  28.258  28.856  1.00  0.00    -0.248 NA
ATOM     34  C   UNL A   1      39.501  26.690  29.078  1.00  0.00     0.031 C 
ATOM     35  C   UNL A   1      43.585  25.223  26.559  1.00  0.00     0.029 A 
ATOM     36  N   UNL A   1      43.629  27.266  27.468  1.00  0.00    -0.354 N 
ATOM     37  C   UNL A   1      40.182  28.813  29.603  1.00  0.00     0.074 A 
ATOM     38  C   UNL A   1      39.136  27.814  29.679  1.00  0.00     0.031 C 
ATOM     39  C   UNL A   1      44.801  25.740  26.328  1.00  0.00     0.029 A 
ATOM     40  C   UNL A   1      44.851  27.098  26.859  1.00  0.00     0.049 A 
ATOM     41  H   UNL A   1      43.384  28.076  27.970  1.00  0.00     0.167 HD
ATOM     42  C   UNL A   1      40.116  30.045  30.169  1.00  0.00     0.034 A 
ATOM     43  C   UNL A   1      45.880  27.956  26.712  1.00  0.00     0.034 A 
ATOM     44  C   UNL A   1      41.176  31.021  30.091  1.00  0.00     0.049 A 
ATOM     45  C   UNL A   1      45.762  29.337  27.302  1.00  0.00     0.074 A 
ATOM     46  C   UNL A   1      41.219  32.297  30.628  1.00  0.00     0.029 A 
ATOM     47  N   UNL A   1      42.385  30.831  29.430  1.00  0.00    -0.354 N 
ATOM     48  N   UNL A   1      44.762  29.865  27.970  1.00  0.00    -0.248 NA
ATOM     49  C   UNL A   1      46.907  30.236  27.116  1.00  0.00     0.031 C 
ATOM     50  C   UNL A   1      42.424  32.896  30.245  1.00  0.00     0.029 A 
ATOM     51  C   UNL A   1      43.166  31.973  29.525  1.00  0.00     0.049 A 
ATOM     52  H   UNL A   1      42.649  30.005  28.964  1.00  0.00     0.167 HD
ATOM     53  C   UNL A   1      45.165  31.156  28.297  1.00  0.00     0.074 A 
ATOM     54  C   UNL A   1      46.506  31.318  27.767  1.00  0.00     0.031 C 
ATOM     55  C   UNL A   1      44.491  32.122  28.972  1.00  0.00     0.034 A 
BRANCH  42  56
ATOM     56  C   UNL A   1      38.827  30.419  30.859  1.00  0.00     0.023 A 
ATOM     57  C   UNL A   1      37.761  31.026  30.173  1.00  0.00     0.031 A 
ATOM     58  C   UNL A   1      38.680  30.195  32.240  1.00  0.00     0.131 A 
ATOM     59  C   UNL A   1      36.624  31.448  30.882  1.00  0.00     0.055 A 
ATOM     60  C   UNL A   1      37.518  30.552  32.925  1.00  0.00     0.041 A 
ATOM     61  F   UNL A   1      39.674  29.639  32.951  1.00  0.00    -0.206 F 
ATOM     62  C   UNL A   1      36.487  31.194  32.249  1.00  0.00     0.022 A 
BRANCH  59  63
ATOM     63  S   UNL A   1      35.384  32.453  30.019  1.00  0.00     0.124 S 
ATOM     64  O   UNL A   1      35.037  31.590  28.892  1.00  0.00    -0.237 OA
ATOM     65  O   UNL A   1      34.353  32.624  31.036  1.00  0.00    -0.237 OA
ATOM     66  O   UNL A   1      36.115  33.667  29.661  1.00  0.00    -0.744 OA
ENDBRANCH  59  63
ENDBRANCH  42  56
BRANCH  43  67
ATOM     67  C   UNL A   1      47.079  27.559  25.922  1.00  0.00     0.023 A 
ATOM     68  C   UNL A   1      47.188  27.862  24.557  1.00  0.00     0.031 A 
ATOM     69  C   UNL A   1      48.126  26.838  26.525  1.00  0.00     0.131 A 
ATOM     70  C   UNL A   1      48.304  27.416  23.830  1.00  0.00     0.055 A 
ATOM     71  C   UNL A   1      49.256  26.440  25.810  1.00  0.00     0.041 A 
ATOM     72  F   UNL A   1      48.070  26.522  27.828  1.00  0.00    -0.206 F 
ATOM     73  C   UNL A   1      49.344  26.720  24.450  1.00  0.00     0.022 A 
BRANCH  70  74
ATOM     74  S   UNL A   1      48.346  27.702  22.039  1.00  0.00     0.124 S 
ATOM     75  O   UNL A   1      49.474  28.617  21.909  1.00  0.00    -0.237 OA
ATOM     76  O   UNL A   1      48.551  26.353  21.521  1.00  0.00    -0.237 OA
ATOM     77  O   UNL A   1      47.035  28.282  21.756  1.00  0.00    -0.744 OA
ENDBRANCH  70  74
ENDBRANCH  43  67
BRANCH  55  78
ATOM     78  C   UNL A   1      45.219  33.422  29.198  1.00  0.00     0.023 A 
ATOM     79  C   UNL A   1      45.239  34.434  28.223  1.00  0.00     0.031 A 
ATOM     80  C   UNL A   1      45.920  33.640  30.397  1.00  0.00     0.131 A 
ATOM     81  C   UNL A   1      45.990  35.599  28.442  1.00  0.00     0.055 A 
ATOM     82  C   UNL A   1      46.623  34.823  30.631  1.00  0.00     0.041 A 
ATOM     83  F   UNL A   1      45.935  32.705  31.359  1.00  0.00    -0.206 F 
ATOM     84  C   UNL A   1      46.671  35.805  29.645  1.00  0.00     0.022 A 
BRANCH  81  85
ATOM     85  S   UNL A   1      46.135  36.809  27.098  1.00  0.00     0.124 S 
ATOM     86  O   UNL A   1      47.375  37.497  27.440  1.00  0.00    -0.237 OA
ATOM     87  O   UNL A   1      46.183  35.957  25.915  1.00  0.00    -0.237 OA
ATOM     88  O   UNL A   1      44.922  37.616  27.231  1.00  0.00    -0.744 OA
ENDBRANCH  81  85
ENDBRANCH  55  78
ENDBRANCH  29  30
ENDBRANCH  22  24
ENDBRANCH  21  22
ENDBRANCH  20  21
ENDBRANCH   1  20
TORSDOF 18
ENDMDL
