MODEL 1
REMARK VINA RESULT:     -11.4      0.000      0.000
REMARK SMILES CCC[C@]1(C(=O)OCCOC(=O)c2ccc(-c3c4nc(c(-c5cc(S(=O)(=O)[O-])ccc5F)c5ccc([nH]5)c(-c5cc(S(=O)(=O)[O-])ccc5F)c5nc(c(-c6cc(S(=O)(=O)[O-])ccc6F)c6ccc3[nH]6)C=C5)C=C4)cc2)CCN(C(=O)N[C@H]2CCOC2)C1
REMARK SMILES IDX 9 1 8 2 7 3 5 4 6 5 4 6 76 7 87 8 77 9 78 10 3 11 2 12 1 13
REMARK SMILES IDX 79 14 80 15 81 16 82 18 83 19 86 20 84 21 85 22 10 23 11 24
REMARK SMILES IDX 12 25 13 26 14 27 75 28 15 29 74 30 16 31 17 32 18 33 68 34
REMARK SMILES IDX 19 35 73 36 67 37 69 38 20 39 72 40 66 41 65 42 21 44 53 45
REMARK SMILES IDX 33 46 52 47 34 48 37 49 51 50 70 51 35 52 36 53 50 55 71 56
REMARK SMILES IDX 38 57 22 58 23 59 31 60 24 61 30 62 32 63 29 64 25 65 26 66
REMARK SMILES IDX 27 67 28 68 54 69 55 70 63 71 56 72 62 73 64 74 61 75 57 76
REMARK SMILES IDX 58 77 59 78 60 79 39 80 40 81 48 82 41 83 47 84 49 85 46 86
REMARK SMILES IDX 42 87 43 88 44 89 45 90
REMARK H PARENT 81 17 69 43 37 54
REMARK Flexibility Score: inf
ROOT
ATOM      1  C   UNL A   1      37.633  19.749  24.961  1.00  0.00     0.275 C 
ENDROOT
BRANCH   1   2
ATOM      2  C   UNL A   1      36.115  19.868  24.907  1.00  0.00     0.274 C 
BRANCH   2   3
ATOM      3  O   UNL A   1      35.687  20.982  25.715  1.00  0.00    -0.462 OA
BRANCH   3   4
ATOM      4  C   UNL A   1      34.350  21.165  25.892  1.00  0.00     0.314 C 
ATOM      5  O   UNL A   1      33.602  20.321  26.370  1.00  0.00    -0.252 OA
BRANCH   4   6
ATOM      6  C   UNL A   1      33.868  22.503  25.328  1.00  0.00     0.087 C 
ATOM      7  C   UNL A   1      32.802  22.375  24.235  1.00  0.00     0.042 C 
ATOM      8  C   UNL A   1      33.047  23.148  26.469  1.00  0.00     0.140 C 
ATOM      9  C   UNL A   1      31.995  23.645  24.397  1.00  0.00     0.122 C 
ATOM     10  N   UNL A   1      31.948  23.868  25.823  1.00  0.00    -0.324 N 
BRANCH   6  11
ATOM     11  C   UNL A   1      35.057  23.439  24.941  1.00  0.00     0.020 C 
BRANCH  11  12
ATOM     12  C   UNL A   1      35.420  23.573  23.452  1.00  0.00    -0.002 C 
ATOM     13  C   UNL A   1      36.747  22.945  23.046  1.00  0.00     0.004 C 
ENDBRANCH  11  12
ENDBRANCH   6  11
BRANCH  10  14
ATOM     14  C   UNL A   1      31.049  24.524  26.590  1.00  0.00     0.317 C 
ATOM     15  O   UNL A   1      30.142  23.915  27.168  1.00  0.00    -0.249 OA
ATOM     16  N   UNL A   1      31.057  25.852  26.788  1.00  0.00    -0.333 N 
ATOM     17  H   UNL A   1      30.266  26.124  27.307  1.00  0.00     0.165 HD
BRANCH  16  18
ATOM     18  C   UNL A   1      31.880  27.016  26.469  1.00  0.00     0.112 C 
ATOM     19  C   UNL A   1      31.561  27.702  25.161  1.00  0.00     0.056 C 
ATOM     20  C   UNL A   1      31.967  28.112  27.521  1.00  0.00     0.185 C 
ATOM     21  C   UNL A   1      31.674  29.180  25.472  1.00  0.00     0.162 C 
ATOM     22  O   UNL A   1      31.600  29.346  26.892  1.00  0.00    -0.379 OA
ENDBRANCH  16  18
ENDBRANCH  10  14
ENDBRANCH   4   6
ENDBRANCH   3   4
ENDBRANCH   2   3
ENDBRANCH   1   2
BRANCH   1  23
ATOM     23  O   UNL A   1      38.176  21.001  25.410  1.00  0.00    -0.458 OA
BRANCH  23  24
ATOM     24  C   UNL A   1      39.356  20.928  26.064  1.00  0.00     0.338 C 
ATOM     25  O   UNL A   1      40.106  19.965  26.133  1.00  0.00    -0.246 OA
BRANCH  24  26
ATOM     26  C   UNL A   1      39.662  22.231  26.678  1.00  0.00     0.060 A 
ATOM     27  C   UNL A   1      38.923  23.351  26.311  1.00  0.00     0.016 A 
ATOM     28  C   UNL A   1      40.790  22.374  27.483  1.00  0.00     0.016 A 
ATOM     29  C   UNL A   1      39.399  24.624  26.623  1.00  0.00     0.010 A 
ATOM     30  C   UNL A   1      41.192  23.652  27.893  1.00  0.00     0.010 A 
ATOM     31  C   UNL A   1      40.547  24.805  27.409  1.00  0.00    -0.014 A 
BRANCH  31  32
ATOM     32  C   UNL A   1      41.123  26.174  27.630  1.00  0.00     0.031 A 
ATOM     33  C   UNL A   1      42.429  26.563  26.969  1.00  0.00     0.074 A 
ATOM     34  C   UNL A   1      40.481  27.100  28.374  1.00  0.00     0.049 A 
ATOM     35  N   UNL A   1      43.223  27.574  27.225  1.00  0.00    -0.248 NA
ATOM     36  C   UNL A   1      42.922  25.677  25.905  1.00  0.00     0.031 C 
ATOM     37  C   UNL A   1      39.186  26.920  29.032  1.00  0.00     0.029 A 
ATOM     38  N   UNL A   1      40.825  28.395  28.686  1.00  0.00    -0.354 N 
ATOM     39  C   UNL A   1      44.353  27.385  26.431  1.00  0.00     0.074 A 
ATOM     40  C   UNL A   1      44.132  26.168  25.679  1.00  0.00     0.031 C 
ATOM     41  C   UNL A   1      38.812  28.075  29.598  1.00  0.00     0.029 A 
ATOM     42  C   UNL A   1      39.893  29.043  29.464  1.00  0.00     0.049 A 
ATOM     43  H   UNL A   1      41.660  28.819  28.381  1.00  0.00     0.167 HD
ATOM     44  C   UNL A   1      45.473  28.149  26.351  1.00  0.00     0.034 A 
ATOM     45  C   UNL A   1      39.918  30.253  30.059  1.00  0.00     0.034 A 
ATOM     46  C   UNL A   1      45.633  29.416  27.027  1.00  0.00     0.049 A 
ATOM     47  C   UNL A   1      41.153  31.103  29.934  1.00  0.00     0.074 A 
ATOM     48  C   UNL A   1      46.716  30.280  27.000  1.00  0.00     0.029 A 
ATOM     49  N   UNL A   1      44.669  30.020  27.824  1.00  0.00    -0.354 N 
ATOM     50  N   UNL A   1      42.270  30.845  29.294  1.00  0.00    -0.248 NA
ATOM     51  C   UNL A   1      41.140  32.393  30.635  1.00  0.00     0.031 C 
ATOM     52  C   UNL A   1      46.424  31.382  27.813  1.00  0.00     0.029 A 
ATOM     53  C   UNL A   1      45.134  31.237  28.299  1.00  0.00     0.049 A 
ATOM     54  H   UNL A   1      43.783  29.638  28.023  1.00  0.00     0.167 HD
ATOM     55  C   UNL A   1      43.098  31.939  29.527  1.00  0.00     0.074 A 
ATOM     56  C   UNL A   1      42.336  32.874  30.331  1.00  0.00     0.031 C 
ATOM     57  C   UNL A   1      44.375  32.148  29.122  1.00  0.00     0.034 A 
BRANCH  44  58
ATOM     58  C   UNL A   1      46.642  27.597  25.566  1.00  0.00     0.023 A 
ATOM     59  C   UNL A   1      46.960  28.033  24.269  1.00  0.00     0.031 A 
ATOM     60  C   UNL A   1      47.437  26.581  26.130  1.00  0.00     0.131 A 
ATOM     61  C   UNL A   1      47.992  27.405  23.553  1.00  0.00     0.055 A 
ATOM     62  C   UNL A   1      48.513  26.016  25.443  1.00  0.00     0.041 A 
ATOM     63  F   UNL A   1      47.172  26.108  27.358  1.00  0.00    -0.206 F 
ATOM     64  C   UNL A   1      48.786  26.416  24.139  1.00  0.00     0.022 A 
BRANCH  61  65
ATOM     65  S   UNL A   1      48.187  27.792  21.791  1.00  0.00     0.124 S 
ATOM     66  O   UNL A   1      46.891  28.388  21.474  1.00  0.00    -0.237 OA
ATOM     67  O   UNL A   1      49.326  28.702  21.793  1.00  0.00    -0.237 OA
ATOM     68  O   UNL A   1      48.431  26.487  21.177  1.00  0.00    -0.744 OA
ENDBRANCH  61  65
ENDBRANCH  44  58
BRANCH  45  69
ATOM     69  C   UNL A   1      38.772  30.694  30.907  1.00  0.00     0.023 A 
ATOM     70  C   UNL A   1      37.656  31.333  30.347  1.00  0.00     0.031 A 
ATOM     71  C   UNL A   1      38.790  30.491  32.299  1.00  0.00     0.131 A 
ATOM     72  C   UNL A   1      36.612  31.767  31.180  1.00  0.00     0.055 A 
ATOM     73  C   UNL A   1      37.726  30.875  33.115  1.00  0.00     0.041 A 
ATOM     74  F   UNL A   1      39.837  29.888  32.885  1.00  0.00    -0.206 F 
ATOM     75  C   UNL A   1      36.630  31.525  32.556  1.00  0.00     0.022 A 
BRANCH  72  76
ATOM     76  S   UNL A   1      35.247  32.709  30.445  1.00  0.00     0.124 S 
ATOM     77  O   UNL A   1      34.288  32.749  31.543  1.00  0.00    -0.237 OA
ATOM     78  O   UNL A   1      35.893  33.973  30.111  1.00  0.00    -0.237 OA
ATOM     79  O   UNL A   1      34.850  31.894  29.299  1.00  0.00    -0.744 OA
ENDBRANCH  72  76
ENDBRANCH  45  69
BRANCH  57  80
ATOM     80  C   UNL A   1      45.009  33.452  29.534  1.00  0.00     0.023 A 
ATOM     81  C   UNL A   1      44.922  34.598  28.723  1.00  0.00     0.031 A 
ATOM     82  C   UNL A   1      45.741  33.538  30.731  1.00  0.00     0.131 A 
ATOM     83  C   UNL A   1      45.608  35.765  29.090  1.00  0.00     0.055 A 
ATOM     84  C   UNL A   1      46.379  34.718  31.116  1.00  0.00     0.041 A 
ATOM     85  F   UNL A   1      45.856  32.472  31.538  1.00  0.00    -0.206 F 
ATOM     86  C   UNL A   1      46.326  35.836  30.288  1.00  0.00     0.022 A 
BRANCH  83  87
ATOM     87  S   UNL A   1      45.628  37.164  27.935  1.00  0.00     0.124 S 
ATOM     88  O   UNL A   1      44.235  37.224  27.505  1.00  0.00    -0.237 OA
ATOM     89  O   UNL A   1      46.083  38.262  28.781  1.00  0.00    -0.237 OA
ATOM     90  O   UNL A   1      46.576  36.744  26.904  1.00  0.00    -0.744 OA
ENDBRANCH  83  87
ENDBRANCH  57  80
ENDBRANCH  31  32
ENDBRANCH  24  26
ENDBRANCH  23  24
ENDBRANCH   1  23
TORSDOF 18
ENDMDL
MODEL 2
REMARK VINA RESULT:     -11.3      1.293      7.786
REMARK SMILES CCC[C@]1(C(=O)OCCOC(=O)c2ccc(-c3c4nc(c(-c5cc(S(=O)(=O)[O-])ccc5F)c5ccc([nH]5)c(-c5cc(S(=O)(=O)[O-])ccc5F)c5nc(c(-c6cc(S(=O)(=O)[O-])ccc6F)c6ccc3[nH]6)C=C5)C=C4)cc2)CCN(C(=O)N[C@H]2CCOC2)C1
REMARK SMILES IDX 9 1 8 2 7 3 5 4 6 5 4 6 76 7 87 8 77 9 78 10 3 11 2 12 1 13
REMARK SMILES IDX 79 14 80 15 81 16 82 18 83 19 86 20 84 21 85 22 10 23 11 24
REMARK SMILES IDX 12 25 13 26 14 27 75 28 15 29 74 30 16 31 17 32 18 33 68 34
REMARK SMILES IDX 19 35 73 36 67 37 69 38 20 39 72 40 66 41 65 42 21 44 53 45
REMARK SMILES IDX 33 46 52 47 34 48 37 49 51 50 70 51 35 52 36 53 50 55 71 56
REMARK SMILES IDX 38 57 22 58 23 59 31 60 24 61 30 62 32 63 29 64 25 65 26 66
REMARK SMILES IDX 27 67 28 68 54 69 55 70 63 71 56 72 62 73 64 74 61 75 57 76
REMARK SMILES IDX 58 77 59 78 60 79 39 80 40 81 48 82 41 83 47 84 49 85 46 86
REMARK SMILES IDX 42 87 43 88 44 89 45 90
REMARK H PARENT 81 17 69 43 37 54
REMARK Flexibility Score: inf
ROOT
ATOM      1  C   UNL A   1      37.131  20.359  24.672  1.00  0.00     0.275 C 
ENDROOT
BRANCH   1   2
ATOM      2  C   UNL A   1      35.654  20.277  25.039  1.00  0.00     0.274 C 
BRANCH   2   3
ATOM      3  O   UNL A   1      35.298  21.398  25.872  1.00  0.00    -0.462 OA
BRANCH   3   4
ATOM      4  C   UNL A   1      33.977  21.697  26.009  1.00  0.00     0.314 C 
ATOM      5  O   UNL A   1      33.126  20.889  26.359  1.00  0.00    -0.252 OA
BRANCH   4   6
ATOM      6  C   UNL A   1      33.658  23.129  25.573  1.00  0.00     0.087 C 
ATOM      7  C   UNL A   1      34.893  23.970  25.234  1.00  0.00     0.042 C 
ATOM      8  C   UNL A   1      33.003  22.988  24.179  1.00  0.00     0.140 C 
ATOM      9  C   UNL A   1      34.372  24.931  24.186  1.00  0.00     0.122 C 
ATOM     10  N   UNL A   1      33.445  24.148  23.403  1.00  0.00    -0.324 N 
BRANCH   6  11
ATOM     11  C   UNL A   1      32.666  23.833  26.553  1.00  0.00     0.020 C 
BRANCH  11  12
ATOM     12  C   UNL A   1      31.184  23.916  26.150  1.00  0.00    -0.002 C 
ATOM     13  C   UNL A   1      30.266  22.909  26.832  1.00  0.00     0.004 C 
ENDBRANCH  11  12
ENDBRANCH   6  11
BRANCH  10  14
ATOM     14  C   UNL A   1      33.032  24.280  22.122  1.00  0.00     0.317 C 
ATOM     15  O   UNL A   1      33.382  23.472  21.255  1.00  0.00    -0.249 OA
ATOM     16  N   UNL A   1      32.232  25.266  21.688  1.00  0.00    -0.333 N 
ATOM     17  H   UNL A   1      32.131  25.218  20.710  1.00  0.00     0.165 HD
BRANCH  16  18
ATOM     18  C   UNL A   1      31.467  26.389  22.223  1.00  0.00     0.112 C 
ATOM     19  C   UNL A   1      30.503  26.050  23.337  1.00  0.00     0.056 C 
ATOM     20  C   UNL A   1      32.254  27.605  22.690  1.00  0.00     0.185 C 
ATOM     21  C   UNL A   1      30.635  27.201  24.314  1.00  0.00     0.162 C 
ATOM     22  O   UNL A   1      31.862  27.883  24.040  1.00  0.00    -0.379 OA
ENDBRANCH  16  18
ENDBRANCH  10  14
ENDBRANCH   4   6
ENDBRANCH   3   4
ENDBRANCH   2   3
ENDBRANCH   1   2
BRANCH   1  23
ATOM     23  O   UNL A   1      37.717  21.467  25.375  1.00  0.00    -0.458 OA
BRANCH  23  24
ATOM     24  C   UNL A   1      38.929  21.237  25.925  1.00  0.00     0.338 C 
ATOM     25  O   UNL A   1      39.604  20.222  25.832  1.00  0.00    -0.246 OA
BRANCH  24  26
ATOM     26  C   UNL A   1      39.378  22.438  26.650  1.00  0.00     0.060 A 
ATOM     27  C   UNL A   1      38.848  23.679  26.314  1.00  0.00     0.016 A 
ATOM     28  C   UNL A   1      40.447  22.355  27.541  1.00  0.00     0.016 A 
ATOM     29  C   UNL A   1      39.484  24.841  26.749  1.00  0.00     0.010 A 
ATOM     30  C   UNL A   1      41.002  23.528  28.069  1.00  0.00     0.010 A 
ATOM     31  C   UNL A   1      40.579  24.794  27.624  1.00  0.00    -0.014 A 
BRANCH  31  32
ATOM     32  C   UNL A   1      41.335  26.041  27.982  1.00  0.00     0.031 A 
ATOM     33  C   UNL A   1      40.687  27.095  28.855  1.00  0.00     0.074 A 
ATOM     34  C   UNL A   1      42.609  26.235  27.582  1.00  0.00     0.049 A 
ATOM     35  N   UNL A   1      41.048  28.337  29.068  1.00  0.00    -0.248 NA
ATOM     36  C   UNL A   1      39.452  26.709  29.553  1.00  0.00     0.031 C 
ATOM     37  C   UNL A   1      43.409  25.299  26.789  1.00  0.00     0.029 A 
ATOM     38  N   UNL A   1      43.470  27.285  27.808  1.00  0.00    -0.354 N 
ATOM     39  C   UNL A   1      40.032  28.907  29.833  1.00  0.00     0.074 A 
ATOM     40  C   UNL A   1      39.049  27.868  30.054  1.00  0.00     0.031 C 
ATOM     41  C   UNL A   1      44.655  25.777  26.663  1.00  0.00     0.029 A 
ATOM     42  C   UNL A   1      44.715  27.111  27.246  1.00  0.00     0.049 A 
ATOM     43  H   UNL A   1      43.220  28.086  28.324  1.00  0.00     0.167 HD
ATOM     44  C   UNL A   1      39.927  30.180  30.294  1.00  0.00     0.034 A 
ATOM     45  C   UNL A   1      45.770  27.943  27.150  1.00  0.00     0.034 A 
ATOM     46  C   UNL A   1      40.967  31.175  30.157  1.00  0.00     0.049 A 
ATOM     47  C   UNL A   1      45.651  29.341  27.694  1.00  0.00     0.074 A 
ATOM     48  C   UNL A   1      40.973  32.487  30.602  1.00  0.00     0.029 A 
ATOM     49  N   UNL A   1      42.201  30.957  29.558  1.00  0.00    -0.354 N 
ATOM     50  N   UNL A   1      44.628  29.909  28.290  1.00  0.00    -0.248 NA
ATOM     51  C   UNL A   1      46.817  30.216  27.527  1.00  0.00     0.031 C 
ATOM     52  C   UNL A   1      42.191  33.073  30.235  1.00  0.00     0.029 A 
ATOM     53  C   UNL A   1      42.971  32.110  29.616  1.00  0.00     0.049 A 
ATOM     54  H   UNL A   1      42.488  30.108  29.151  1.00  0.00     0.167 HD
ATOM     55  C   UNL A   1      45.027  31.215  28.559  1.00  0.00     0.074 A 
ATOM     56  C   UNL A   1      46.396  31.336  28.095  1.00  0.00     0.031 C 
ATOM     57  C   UNL A   1      44.324  32.226  29.126  1.00  0.00     0.034 A 
BRANCH  44  58
ATOM     58  C   UNL A   1      38.613  30.592  30.919  1.00  0.00     0.023 A 
ATOM     59  C   UNL A   1      37.566  31.169  30.181  1.00  0.00     0.031 A 
ATOM     60  C   UNL A   1      38.424  30.426  32.305  1.00  0.00     0.131 A 
ATOM     61  C   UNL A   1      36.415  31.627  30.840  1.00  0.00     0.055 A 
ATOM     62  C   UNL A   1      37.243  30.810  32.942  1.00  0.00     0.041 A 
ATOM     63  F   UNL A   1      39.394  29.898  33.068  1.00  0.00    -0.206 F 
ATOM     64  C   UNL A   1      36.235  31.430  32.211  1.00  0.00     0.022 A 
BRANCH  61  65
ATOM     65  S   UNL A   1      35.217  32.620  29.907  1.00  0.00     0.124 S 
ATOM     66  O   UNL A   1      34.764  31.665  28.897  1.00  0.00    -0.237 OA
ATOM     67  O   UNL A   1      34.241  32.979  30.929  1.00  0.00    -0.237 OA
ATOM     68  O   UNL A   1      36.017  33.729  29.391  1.00  0.00    -0.744 OA
ENDBRANCH  61  65
ENDBRANCH  44  58
BRANCH  45  69
ATOM     69  C   UNL A   1      47.002  27.510  26.428  1.00  0.00     0.023 A 
ATOM     70  C   UNL A   1      47.168  27.762  25.057  1.00  0.00     0.031 A 
ATOM     71  C   UNL A   1      48.027  26.823  27.104  1.00  0.00     0.131 A 
ATOM     72  C   UNL A   1      48.324  27.309  24.401  1.00  0.00     0.055 A 
ATOM     73  C   UNL A   1      49.198  26.424  26.459  1.00  0.00     0.041 A 
ATOM     74  F   UNL A   1      47.915  26.554  28.414  1.00  0.00    -0.206 F 
ATOM     75  C   UNL A   1      49.348  26.660  25.096  1.00  0.00     0.022 A 
BRANCH  72  76
ATOM     76  S   UNL A   1      48.449  27.530  22.605  1.00  0.00     0.124 S 
ATOM     77  O   UNL A   1      47.218  28.253  22.308  1.00  0.00    -0.237 OA
ATOM     78  O   UNL A   1      49.688  28.291  22.477  1.00  0.00    -0.237 OA
ATOM     79  O   UNL A   1      48.507  26.161  22.098  1.00  0.00    -0.744 OA
ENDBRANCH  72  76
ENDBRANCH  45  69
BRANCH  57  80
ATOM     80  C   UNL A   1      45.043  33.540  29.290  1.00  0.00     0.023 A 
ATOM     81  C   UNL A   1      45.117  34.472  28.239  1.00  0.00     0.031 A 
ATOM     82  C   UNL A   1      45.694  33.847  30.497  1.00  0.00     0.131 A 
ATOM     83  C   UNL A   1      45.878  35.640  28.395  1.00  0.00     0.055 A 
ATOM     84  C   UNL A   1      46.407  35.034  30.664  1.00  0.00     0.041 A 
ATOM     85  F   UNL A   1      45.655  32.990  31.530  1.00  0.00    -0.206 F 
ATOM     86  C   UNL A   1      46.514  35.932  29.605  1.00  0.00     0.022 A 
BRANCH  83  87
ATOM     87  S   UNL A   1      46.106  36.730  26.962  1.00  0.00     0.124 S 
ATOM     88  O   UNL A   1      46.070  35.784  25.852  1.00  0.00    -0.237 OA
ATOM     89  O   UNL A   1      44.963  37.630  27.071  1.00  0.00    -0.237 OA
ATOM     90  O   UNL A   1      47.407  37.350  27.207  1.00  0.00    -0.744 OA
ENDBRANCH  83  87
ENDBRANCH  57  80
ENDBRANCH  31  32
ENDBRANCH  24  26
ENDBRANCH  23  24
ENDBRANCH   1  23
TORSDOF 18
ENDMDL
MODEL 3
REMARK VINA RESULT:     -11.2      1.057      7.683
REMARK SMILES CCC[C@]1(C(=O)OCCOC(=O)c2ccc(-c3c4nc(c(-c5cc(S(=O)(=O)[O-])ccc5F)c5ccc([nH]5)c(-c5cc(S(=O)(=O)[O-])ccc5F)c5nc(c(-c6cc(S(=O)(=O)[O-])ccc6F)c6ccc3[nH]6)C=C5)C=C4)cc2)CCN(C(=O)N[C@H]2CCOC2)C1
REMARK SMILES IDX 9 1 8 2 7 3 5 4 6 5 4 6 76 7 87 8 77 9 78 10 3 11 2 12 1 13
REMARK SMILES IDX 79 14 80 15 81 16 82 18 83 19 86 20 84 21 85 22 10 23 11 24
REMARK SMILES IDX 12 25 13 26 14 27 75 28 15 29 74 30 16 31 17 32 18 33 68 34
REMARK SMILES IDX 19 35 73 36 67 37 69 38 20 39 72 40 66 41 65 42 21 44 53 45
REMARK SMILES IDX 33 46 52 47 34 48 37 49 51 50 70 51 35 52 36 53 50 55 71 56
REMARK SMILES IDX 38 57 22 58 23 59 31 60 24 61 30 62 32 63 29 64 25 65 26 66
REMARK SMILES IDX 27 67 28 68 54 69 55 70 63 71 56 72 62 73 64 74 61 75 57 76
REMARK SMILES IDX 58 77 59 78 60 79 39 80 40 81 48 82 41 83 47 84 49 85 46 86
REMARK SMILES IDX 42 87 43 88 44 89 45 90
REMARK H PARENT 81 17 69 43 37 54
REMARK Flexibility Score: inf
ROOT
ATOM      1  C   UNL A   1      36.080  21.046  25.571  1.00  0.00     0.275 C 
ENDROOT
BRANCH   1   2
ATOM      2  C   UNL A   1      34.908  21.238  24.617  1.00  0.00     0.274 C 
BRANCH   2   3
ATOM      3  O   UNL A   1      34.496  22.620  24.624  1.00  0.00    -0.462 OA
BRANCH   3   4
ATOM      4  C   UNL A   1      34.380  23.257  23.427  1.00  0.00     0.314 C 
ATOM      5  O   UNL A   1      35.263  23.284  22.579  1.00  0.00    -0.252 OA
BRANCH   4   6
ATOM      6  C   UNL A   1      33.063  24.026  23.305  1.00  0.00     0.087 C 
ATOM      7  C   UNL A   1      31.828  23.133  23.148  1.00  0.00     0.042 C 
ATOM      8  C   UNL A   1      32.817  24.627  24.708  1.00  0.00     0.140 C 
ATOM      9  C   UNL A   1      30.731  23.954  23.791  1.00  0.00     0.122 C 
ATOM     10  N   UNL A   1      31.369  24.595  24.917  1.00  0.00    -0.324 N 
BRANCH   6  11
ATOM     11  C   UNL A   1      33.150  25.173  22.249  1.00  0.00     0.020 C 
BRANCH  11  12
ATOM     12  C   UNL A   1      33.916  26.452  22.626  1.00  0.00    -0.002 C 
ATOM     13  C   UNL A   1      33.186  27.758  22.343  1.00  0.00     0.004 C 
ENDBRANCH  11  12
ENDBRANCH   6  11
BRANCH  10  14
ATOM     14  C   UNL A   1      30.860  25.052  26.084  1.00  0.00     0.317 C 
ATOM     15  O   UNL A   1      30.121  24.344  26.776  1.00  0.00    -0.249 OA
ATOM     16  N   UNL A   1      31.101  26.275  26.581  1.00  0.00    -0.333 N 
ATOM     17  H   UNL A   1      30.564  26.426  27.392  1.00  0.00     0.165 HD
BRANCH  16  18
ATOM     18  C   UNL A   1      31.918  27.450  26.287  1.00  0.00     0.112 C 
ATOM     19  C   UNL A   1      31.356  28.391  25.247  1.00  0.00     0.056 C 
ATOM     20  C   UNL A   1      32.340  28.313  27.467  1.00  0.00     0.185 C 
ATOM     21  C   UNL A   1      31.660  29.775  25.786  1.00  0.00     0.162 C 
ATOM     22  O   UNL A   1      31.936  29.659  27.185  1.00  0.00    -0.379 OA
ENDBRANCH  16  18
ENDBRANCH  10  14
ENDBRANCH   4   6
ENDBRANCH   3   4
ENDBRANCH   2   3
ENDBRANCH   1   2
BRANCH   1  23
ATOM     23  O   UNL A   1      37.245  21.659  24.995  1.00  0.00    -0.458 OA
BRANCH  23  24
ATOM     24  C   UNL A   1      38.426  21.311  25.550  1.00  0.00     0.338 C 
ATOM     25  O   UNL A   1      39.016  20.247  25.427  1.00  0.00    -0.246 OA
BRANCH  24  26
ATOM     26  C   UNL A   1      38.963  22.443  26.323  1.00  0.00     0.060 A 
ATOM     27  C   UNL A   1      38.439  23.716  26.125  1.00  0.00     0.016 A 
ATOM     28  C   UNL A   1      40.097  22.271  27.115  1.00  0.00     0.016 A 
ATOM     29  C   UNL A   1      39.138  24.829  26.592  1.00  0.00     0.010 A 
ATOM     30  C   UNL A   1      40.723  23.389  27.681  1.00  0.00     0.010 A 
ATOM     31  C   UNL A   1      40.299  24.694  27.368  1.00  0.00    -0.014 A 
BRANCH  31  32
ATOM     32  C   UNL A   1      41.113  25.894  27.755  1.00  0.00     0.031 A 
ATOM     33  C   UNL A   1      40.522  26.949  28.667  1.00  0.00     0.074 A 
ATOM     34  C   UNL A   1      42.390  26.045  27.345  1.00  0.00     0.049 A 
ATOM     35  N   UNL A   1      40.940  28.166  28.914  1.00  0.00    -0.248 NA
ATOM     36  C   UNL A   1      39.279  26.596  29.368  1.00  0.00     0.031 C 
ATOM     37  C   UNL A   1      43.139  25.100  26.515  1.00  0.00     0.029 A 
ATOM     38  N   UNL A   1      43.299  27.048  27.592  1.00  0.00    -0.354 N 
ATOM     39  C   UNL A   1      39.959  28.757  29.708  1.00  0.00     0.074 A 
ATOM     40  C   UNL A   1      38.932  27.756  29.909  1.00  0.00     0.031 C 
ATOM     41  C   UNL A   1      44.404  25.526  26.388  1.00  0.00     0.029 A 
ATOM     42  C   UNL A   1      44.529  26.837  27.010  1.00  0.00     0.049 A 
ATOM     43  H   UNL A   1      43.090  27.843  28.135  1.00  0.00     0.167 HD
ATOM     44  C   UNL A   1      39.915  30.018  30.208  1.00  0.00     0.034 A 
ATOM     45  C   UNL A   1      45.619  27.625  26.927  1.00  0.00     0.034 A 
ATOM     46  C   UNL A   1      40.996  30.970  30.089  1.00  0.00     0.049 A 
ATOM     47  C   UNL A   1      45.568  29.009  27.515  1.00  0.00     0.074 A 
ATOM     48  C   UNL A   1      41.066  32.266  30.574  1.00  0.00     0.029 A 
ATOM     49  N   UNL A   1      42.213  30.717  29.469  1.00  0.00    -0.354 N 
ATOM     50  N   UNL A   1      44.578  29.603  28.140  1.00  0.00    -0.248 NA
ATOM     51  C   UNL A   1      46.770  29.837  27.360  1.00  0.00     0.031 C 
ATOM     52  C   UNL A   1      42.304  32.809  30.210  1.00  0.00     0.029 A 
ATOM     53  C   UNL A   1      43.034  31.832  29.552  1.00  0.00     0.049 A 
ATOM     54  H   UNL A   1      42.458  29.868  29.033  1.00  0.00     0.167 HD
ATOM     55  C   UNL A   1      45.037  30.881  28.444  1.00  0.00     0.074 A 
ATOM     56  C   UNL A   1      46.405  30.956  27.967  1.00  0.00     0.031 C 
ATOM     57  C   UNL A   1      44.385  31.904  29.050  1.00  0.00     0.034 A 
BRANCH  44  58
ATOM     58  C   UNL A   1      38.627  30.468  30.862  1.00  0.00     0.023 A 
ATOM     59  C   UNL A   1      37.584  31.079  30.147  1.00  0.00     0.031 A 
ATOM     60  C   UNL A   1      38.462  30.303  32.251  1.00  0.00     0.131 A 
ATOM     61  C   UNL A   1      36.461  31.570  30.831  1.00  0.00     0.055 A 
ATOM     62  C   UNL A   1      37.306  30.720  32.913  1.00  0.00     0.041 A 
ATOM     63  F   UNL A   1      39.430  29.742  32.992  1.00  0.00    -0.206 F 
ATOM     64  C   UNL A   1      36.303  31.374  32.205  1.00  0.00     0.022 A 
BRANCH  61  65
ATOM     65  S   UNL A   1      35.275  32.602  29.926  1.00  0.00     0.124 S 
ATOM     66  O   UNL A   1      36.090  33.768  29.594  1.00  0.00    -0.237 OA
ATOM     67  O   UNL A   1      34.901  31.745  28.807  1.00  0.00    -0.237 OA
ATOM     68  O   UNL A   1      34.216  32.849  30.904  1.00  0.00    -0.744 OA
ENDBRANCH  61  65
ENDBRANCH  44  58
BRANCH  45  69
ATOM     69  C   UNL A   1      46.823  27.161  26.177  1.00  0.00     0.023 A 
ATOM     70  C   UNL A   1      47.078  27.599  24.868  1.00  0.00     0.031 A 
ATOM     71  C   UNL A   1      47.728  26.257  26.761  1.00  0.00     0.131 A 
ATOM     72  C   UNL A   1      48.201  27.114  24.179  1.00  0.00     0.055 A 
ATOM     73  C   UNL A   1      48.873  25.821  26.092  1.00  0.00     0.041 A 
ATOM     74  F   UNL A   1      47.528  25.805  28.009  1.00  0.00    -0.206 F 
ATOM     75  C   UNL A   1      49.110  26.245  24.788  1.00  0.00     0.022 A 
BRANCH  72  76
ATOM     76  S   UNL A   1      48.431  27.592  22.444  1.00  0.00     0.124 S 
ATOM     77  O   UNL A   1      48.540  26.293  21.789  1.00  0.00    -0.237 OA
ATOM     78  O   UNL A   1      47.213  28.348  22.172  1.00  0.00    -0.237 OA
ATOM     79  O   UNL A   1      49.660  28.383  22.470  1.00  0.00    -0.744 OA
ENDBRANCH  72  76
ENDBRANCH  45  69
BRANCH  57  80
ATOM     80  C   UNL A   1      45.163  33.180  29.245  1.00  0.00     0.023 A 
ATOM     81  C   UNL A   1      45.145  34.205  28.282  1.00  0.00     0.031 A 
ATOM     82  C   UNL A   1      45.964  33.355  30.387  1.00  0.00     0.131 A 
ATOM     83  C   UNL A   1      45.958  35.335  28.451  1.00  0.00     0.055 A 
ATOM     84  C   UNL A   1      46.733  34.504  30.574  1.00  0.00     0.041 A 
ATOM     85  F   UNL A   1      46.018  32.405  31.334  1.00  0.00    -0.206 F 
ATOM     86  C   UNL A   1      46.743  35.496  29.597  1.00  0.00     0.022 A 
BRANCH  83  87
ATOM     87  S   UNL A   1      46.052  36.551  27.108  1.00  0.00     0.124 S 
ATOM     88  O   UNL A   1      44.678  37.037  27.042  1.00  0.00    -0.237 OA
ATOM     89  O   UNL A   1      47.041  37.497  27.612  1.00  0.00    -0.237 OA
ATOM     90  O   UNL A   1      46.484  35.758  25.957  1.00  0.00    -0.744 OA
ENDBRANCH  83  87
ENDBRANCH  57  80
ENDBRANCH  31  32
ENDBRANCH  24  26
ENDBRANCH  23  24
ENDBRANCH   1  23
TORSDOF 18
ENDMDL
