MODEL 1
REMARK VINA RESULT:     -11.2      0.000      0.000
REMARK SMILES [NH3+][C@@H](Cc1c[nH]c2ccccc12)C(=O)N[C@@H](CS)C(=O)N[C@@H](CO)C(=O)OCCOC(=O)c1ccc(-c2c3nc(c(-c4cc(S(=O)(=O)[O-])ccc4F)c4ccc([nH]4)c(-c4cc(S(=O)(=O)[O-])ccc4F)c4nc(c(-c5cc(S(=O)(=O)[O-])ccc5F)c5ccc2[nH]5)C=C4)C=C3)cc1
REMARK SMILES IDX 27 1 25 2 26 3 22 4 21 5 19 6 20 7 16 9 15 10 13 11 14 12
REMARK SMILES IDX 2 14 1 15 3 19 4 20 5 21 12 22 6 23 7 24 11 25 8 27 10 28
REMARK SMILES IDX 9 29 17 30 18 31 23 33 24 34 28 36 29 37 30 38 31 39 32 40
REMARK SMILES IDX 33 41 34 42 95 43 35 44 94 45 36 46 37 47 38 48 88 49 39 50
REMARK SMILES IDX 93 51 87 52 89 53 40 54 92 55 86 56 85 57 41 59 73 60 53 61
REMARK SMILES IDX 72 62 54 63 57 64 71 65 90 66 55 67 56 68 70 70 91 71 58 72
REMARK SMILES IDX 42 73 43 74 51 75 44 76 50 77 52 78 49 79 45 80 46 81 47 82
REMARK SMILES IDX 48 83 74 84 75 85 83 86 76 87 82 88 84 89 81 90 77 91 78 92
REMARK SMILES IDX 79 93 80 94 59 95 60 96 68 97 61 98 67 99 69 100 66 101
REMARK SMILES IDX 62 102 63 103 64 104 65 105
REMARK H PARENT 21 8 15 13 1 16 1 17 1 18 6 26 18 32 24 35 89 58 57 69
REMARK Flexibility Score: inf
ROOT
ATOM      1  O   UNL A   1      35.178  20.393  25.002  1.00  0.00    -0.460 OA
ENDROOT
BRANCH   1   2
ATOM      2  C   UNL A   1      34.029  20.706  25.666  1.00  0.00     0.331 C 
ATOM      3  O   UNL A   1      33.981  21.288  26.744  1.00  0.00    -0.250 OA
BRANCH   2   4
ATOM      4  C   UNL A   1      32.783  20.183  24.941  1.00  0.00     0.218 C 
BRANCH   4   5
ATOM      5  N   UNL A   1      32.811  20.353  23.483  1.00  0.00    -0.339 N 
ATOM      6  C   UNL A   1      32.156  21.263  22.719  1.00  0.00     0.244 C 
ATOM      7  O   UNL A   1      31.579  20.803  21.727  1.00  0.00    -0.273 OA
ATOM      8  H   UNL A   1      33.384  19.719  22.994  1.00  0.00     0.164 HD
BRANCH   6   9
ATOM      9  C   UNL A   1      32.082  22.778  23.057  1.00  0.00     0.181 C 
BRANCH   9  10
ATOM     10  N   UNL A   1      32.433  23.594  21.903  1.00  0.00    -0.338 N 
ATOM     11  C   UNL A   1      33.009  24.820  21.798  1.00  0.00     0.279 C 
ATOM     12  O   UNL A   1      33.176  25.224  20.639  1.00  0.00    -0.268 OA
ATOM     13  H   UNL A   1      32.210  23.182  21.037  1.00  0.00     0.164 HD
BRANCH  11  14
ATOM     14  C   UNL A   1      33.427  25.715  22.995  1.00  0.00     0.275 C 
BRANCH  14  15
ATOM     15  N   UNL A   1      34.439  25.040  23.832  1.00  0.00    -0.347 N 
ATOM     16  H   UNL A   1      34.015  24.755  24.714  1.00  0.00     0.345 HD
ATOM     17  H   UNL A   1      35.209  25.682  24.017  1.00  0.00     0.345 HD
ATOM     18  H   UNL A   1      34.792  24.218  23.341  1.00  0.00     0.345 HD
ENDBRANCH  14  15
BRANCH  14  19
ATOM     19  C   UNL A   1      33.612  27.222  22.708  1.00  0.00     0.113 C 
BRANCH  19  20
ATOM     20  C   UNL A   1      32.734  28.225  23.412  1.00  0.00    -0.016 A 
ATOM     21  C   UNL A   1      31.642  28.912  22.912  1.00  0.00     0.087 A 
ATOM     22  C   UNL A   1      32.929  28.717  24.751  1.00  0.00     0.003 A 
ATOM     23  N   UNL A   1      31.092  29.659  23.919  1.00  0.00    -0.361 N 
ATOM     24  C   UNL A   1      31.856  29.558  25.056  1.00  0.00     0.046 A 
ATOM     25  C   UNL A   1      33.915  28.514  25.739  1.00  0.00     0.010 A 
ATOM     26  H   UNL A   1      30.267  30.192  23.841  1.00  0.00     0.166 HD
ATOM     27  C   UNL A   1      31.694  30.159  26.310  1.00  0.00     0.026 A 
ATOM     28  C   UNL A   1      33.789  29.137  26.985  1.00  0.00     0.001 A 
ATOM     29  C   UNL A   1      32.684  29.935  27.270  1.00  0.00     0.002 A 
ENDBRANCH  19  20
ENDBRANCH  14  19
ENDBRANCH  11  14
ENDBRANCH   9  10
BRANCH   9  30
ATOM     30  C   UNL A   1      30.873  23.258  23.867  1.00  0.00     0.101 C 
BRANCH  30  31
ATOM     31  S   UNL A   1      31.302  24.145  25.405  1.00  0.00    -0.177 SA
ATOM     32  H   UNL A   1      32.383  24.940  25.185  1.00  0.00     0.102 HD
ENDBRANCH  30  31
ENDBRANCH   9  30
ENDBRANCH   6   9
ENDBRANCH   4   5
BRANCH   4  33
ATOM     33  C   UNL A   1      32.628  18.691  25.281  1.00  0.00     0.193 C 
BRANCH  33  34
ATOM     34  O   UNL A   1      32.795  18.466  26.686  1.00  0.00    -0.394 OA
ATOM     35  H   UNL A   1      31.985  18.076  27.051  1.00  0.00     0.210 HD
ENDBRANCH  33  34
ENDBRANCH   4  33
ENDBRANCH   2   4
ENDBRANCH   1   2
BRANCH   1  36
ATOM     36  C   UNL A   1      35.993  21.501  24.565  1.00  0.00     0.274 C 
BRANCH  36  37
ATOM     37  C   UNL A   1      37.465  21.155  24.771  1.00  0.00     0.275 C 
BRANCH  37  38
ATOM     38  O   UNL A   1      37.943  21.911  25.894  1.00  0.00    -0.458 OA
BRANCH  38  39
ATOM     39  C   UNL A   1      39.245  21.740  26.223  1.00  0.00     0.338 C 
ATOM     40  O   UNL A   1      39.917  20.743  26.026  1.00  0.00    -0.246 OA
BRANCH  39  41
ATOM     41  C   UNL A   1      39.768  22.987  26.840  1.00  0.00     0.060 A 
ATOM     42  C   UNL A   1      39.307  24.235  26.427  1.00  0.00     0.016 A 
ATOM     43  C   UNL A   1      40.797  22.920  27.783  1.00  0.00     0.016 A 
ATOM     44  C   UNL A   1      39.930  25.396  26.891  1.00  0.00     0.010 A 
ATOM     45  C   UNL A   1      41.353  24.100  28.310  1.00  0.00     0.010 A 
ATOM     46  C   UNL A   1      40.957  25.366  27.845  1.00  0.00    -0.014 A 
BRANCH  46  47
ATOM     47  C   UNL A   1      41.643  26.631  28.292  1.00  0.00     0.031 A 
ATOM     48  C   UNL A   1      40.891  27.667  29.102  1.00  0.00     0.074 A 
ATOM     49  C   UNL A   1      42.950  26.871  28.034  1.00  0.00     0.049 A 
ATOM     50  N   UNL A   1      41.183  28.925  29.323  1.00  0.00    -0.248 NA
ATOM     51  C   UNL A   1      39.633  27.232  29.727  1.00  0.00     0.031 C 
ATOM     52  C   UNL A   1      43.865  25.966  27.339  1.00  0.00     0.029 A 
ATOM     53  N   UNL A   1      43.746  27.951  28.351  1.00  0.00    -0.354 N 
ATOM     54  C   UNL A   1      40.104  29.456  30.025  1.00  0.00     0.074 A 
ATOM     55  C   UNL A   1      39.157  28.375  30.206  1.00  0.00     0.031 C 
ATOM     56  C   UNL A   1      45.103  26.478  27.365  1.00  0.00     0.029 A 
ATOM     57  C   UNL A   1      45.048  27.824  27.918  1.00  0.00     0.049 A 
ATOM     58  H   UNL A   1      43.416  28.738  28.841  1.00  0.00     0.167 HD
ATOM     59  C   UNL A   1      39.920  30.728  30.465  1.00  0.00     0.034 A 
ATOM     60  C   UNL A   1      46.070  28.704  27.876  1.00  0.00     0.034 A 
ATOM     61  C   UNL A   1      40.916  31.771  30.375  1.00  0.00     0.049 A 
ATOM     62  C   UNL A   1      45.834  30.121  28.323  1.00  0.00     0.074 A 
ATOM     63  C   UNL A   1      40.835  33.083  30.815  1.00  0.00     0.029 A 
ATOM     64  N   UNL A   1      42.187  31.617  29.837  1.00  0.00    -0.354 N 
ATOM     65  N   UNL A   1      44.748  30.658  28.824  1.00  0.00    -0.248 NA
ATOM     66  C   UNL A   1      46.950  31.060  28.150  1.00  0.00     0.031 C 
ATOM     67  C   UNL A   1      42.031  33.735  30.492  1.00  0.00     0.029 A 
ATOM     68  C   UNL A   1      42.886  32.814  29.913  1.00  0.00     0.049 A 
ATOM     69  H   UNL A   1      42.540  30.780  29.457  1.00  0.00     0.167 HD
ATOM     70  C   UNL A   1      45.045  32.004  29.011  1.00  0.00     0.074 A 
ATOM     71  C   UNL A   1      46.423  32.188  28.606  1.00  0.00     0.031 C 
ATOM     72  C   UNL A   1      44.245  33.002  29.466  1.00  0.00     0.034 A 
BRANCH  59  73
ATOM     73  C   UNL A   1      38.563  31.092  31.022  1.00  0.00     0.023 A 
ATOM     74  C   UNL A   1      37.548  31.659  30.235  1.00  0.00     0.031 A 
ATOM     75  C   UNL A   1      38.285  30.861  32.384  1.00  0.00     0.131 A 
ATOM     76  C   UNL A   1      36.329  32.030  30.828  1.00  0.00     0.055 A 
ATOM     77  C   UNL A   1      37.044  31.158  32.948  1.00  0.00     0.041 A 
ATOM     78  F   UNL A   1      39.224  30.340  33.191  1.00  0.00    -0.206 F 
ATOM     79  C   UNL A   1      36.060  31.759  32.172  1.00  0.00     0.022 A 
BRANCH  76  80
ATOM     80  S   UNL A   1      35.156  33.008  29.850  1.00  0.00     0.124 S 
ATOM     81  O   UNL A   1      34.179  33.396  30.865  1.00  0.00    -0.237 OA
ATOM     82  O   UNL A   1      35.997  34.081  29.332  1.00  0.00    -0.237 OA
ATOM     83  O   UNL A   1      34.665  32.059  28.853  1.00  0.00    -0.744 OA
ENDBRANCH  76  80
ENDBRANCH  59  73
BRANCH  60  84
ATOM     84  C   UNL A   1      47.368  28.312  27.249  1.00  0.00     0.023 A 
ATOM     85  C   UNL A   1      47.468  28.027  25.880  1.00  0.00     0.031 A 
ATOM     86  C   UNL A   1      48.533  28.196  28.034  1.00  0.00     0.131 A 
ATOM     87  C   UNL A   1      48.703  27.633  25.338  1.00  0.00     0.055 A 
ATOM     88  C   UNL A   1      49.769  27.868  27.480  1.00  0.00     0.041 A 
ATOM     89  F   UNL A   1      48.489  28.436  29.354  1.00  0.00    -0.206 F 
ATOM     90  C   UNL A   1      49.857  27.576  26.124  1.00  0.00     0.022 A 
BRANCH  87  91
ATOM     91  S   UNL A   1      48.775  27.123  23.598  1.00  0.00     0.124 S 
ATOM     92  O   UNL A   1      48.134  28.251  22.932  1.00  0.00    -0.237 OA
ATOM     93  O   UNL A   1      50.210  26.979  23.381  1.00  0.00    -0.237 OA
ATOM     94  O   UNL A   1      48.015  25.874  23.578  1.00  0.00    -0.744 OA
ENDBRANCH  87  91
ENDBRANCH  60  84
BRANCH  72  95
ATOM     95  C   UNL A   1      44.861  34.374  29.551  1.00  0.00     0.023 A 
ATOM     96  C   UNL A   1      44.950  35.206  28.421  1.00  0.00     0.031 A 
ATOM     97  C   UNL A   1      45.412  34.835  30.759  1.00  0.00     0.131 A 
ATOM     98  C   UNL A   1      45.632  36.430  28.507  1.00  0.00     0.055 A 
ATOM     99  C   UNL A   1      46.041  36.077  30.852  1.00  0.00     0.041 A 
ATOM    100  F   UNL A   1      45.357  34.078  31.867  1.00  0.00    -0.206 F 
ATOM    101  C   UNL A   1      46.167  36.876  29.718  1.00  0.00     0.022 A 
BRANCH  98 102
ATOM    102  S   UNL A   1      45.895  37.388  26.989  1.00  0.00     0.124 S 
ATOM    103  O   UNL A   1      46.214  36.342  26.022  1.00  0.00    -0.237 OA
ATOM    104  O   UNL A   1      44.609  38.052  26.810  1.00  0.00    -0.237 OA
ATOM    105  O   UNL A   1      47.006  38.274  27.332  1.00  0.00    -0.744 OA
ENDBRANCH  98 102
ENDBRANCH  72  95
ENDBRANCH  46  47
ENDBRANCH  39  41
ENDBRANCH  38  39
ENDBRANCH  37  38
ENDBRANCH  36  37
ENDBRANCH   1  36
TORSDOF 25
ENDMDL
MODEL 2
REMARK VINA RESULT:     -11.1      1.918      7.626
REMARK SMILES [NH3+][C@@H](Cc1c[nH]c2ccccc12)C(=O)N[C@@H](CS)C(=O)N[C@@H](CO)C(=O)OCCOC(=O)c1ccc(-c2c3nc(c(-c4cc(S(=O)(=O)[O-])ccc4F)c4ccc([nH]4)c(-c4cc(S(=O)(=O)[O-])ccc4F)c4nc(c(-c5cc(S(=O)(=O)[O-])ccc5F)c5ccc2[nH]5)C=C4)C=C3)cc1
REMARK SMILES IDX 27 1 25 2 26 3 22 4 21 5 19 6 20 7 16 9 15 10 13 11 14 12
REMARK SMILES IDX 2 14 1 15 3 19 4 20 5 21 12 22 6 23 7 24 11 25 8 27 10 28
REMARK SMILES IDX 9 29 17 30 18 31 23 33 24 34 28 36 29 37 30 38 31 39 32 40
REMARK SMILES IDX 33 41 34 42 95 43 35 44 94 45 36 46 37 47 38 48 88 49 39 50
REMARK SMILES IDX 93 51 87 52 89 53 40 54 92 55 86 56 85 57 41 59 73 60 53 61
REMARK SMILES IDX 72 62 54 63 57 64 71 65 90 66 55 67 56 68 70 70 91 71 58 72
REMARK SMILES IDX 42 73 43 74 51 75 44 76 50 77 52 78 49 79 45 80 46 81 47 82
REMARK SMILES IDX 48 83 74 84 75 85 83 86 76 87 82 88 84 89 81 90 77 91 78 92
REMARK SMILES IDX 79 93 80 94 59 95 60 96 68 97 61 98 67 99 69 100 66 101
REMARK SMILES IDX 62 102 63 103 64 104 65 105
REMARK H PARENT 21 8 15 13 1 16 1 17 1 18 6 26 18 32 24 35 89 58 57 69
REMARK Flexibility Score: inf
ROOT
ATOM      1  O   UNL A   1      35.964  20.368  25.433  1.00  0.00    -0.460 OA
ENDROOT
BRANCH   1   2
ATOM      2  C   UNL A   1      34.949  19.603  24.940  1.00  0.00     0.331 C 
ATOM      3  O   UNL A   1      35.083  18.474  24.484  1.00  0.00    -0.250 OA
BRANCH   2   4
ATOM      4  C   UNL A   1      33.607  20.346  24.955  1.00  0.00     0.218 C 
BRANCH   4   5
ATOM      5  N   UNL A   1      33.261  21.002  23.688  1.00  0.00    -0.339 N 
ATOM      6  C   UNL A   1      32.702  22.222  23.485  1.00  0.00     0.244 C 
ATOM      7  O   UNL A   1      31.757  22.245  22.688  1.00  0.00    -0.273 OA
ATOM      8  H   UNL A   1      33.462  20.485  22.874  1.00  0.00     0.164 HD
BRANCH   6   9
ATOM      9  C   UNL A   1      33.166  23.513  24.214  1.00  0.00     0.181 C 
BRANCH   9  10
ATOM     10  N   UNL A   1      32.503  23.657  25.503  1.00  0.00    -0.338 N 
ATOM     11  C   UNL A   1      31.806  24.684  26.058  1.00  0.00     0.279 C 
ATOM     12  O   UNL A   1      31.361  24.463  27.193  1.00  0.00    -0.268 OA
ATOM     13  H   UNL A   1      32.575  22.864  26.082  1.00  0.00     0.164 HD
BRANCH  11  14
ATOM     14  C   UNL A   1      31.571  26.065  25.391  1.00  0.00     0.275 C 
BRANCH  14  15
ATOM     15  N   UNL A   1      32.702  26.977  25.650  1.00  0.00    -0.347 N 
ATOM     16  H   UNL A   1      33.259  26.618  26.424  1.00  0.00     0.345 HD
ATOM     17  H   UNL A   1      32.345  27.902  25.888  1.00  0.00     0.345 HD
ATOM     18  H   UNL A   1      33.284  27.043  24.813  1.00  0.00     0.345 HD
ENDBRANCH  14  15
BRANCH  14  19
ATOM     19  C   UNL A   1      30.954  26.059  23.973  1.00  0.00     0.113 C 
BRANCH  19  20
ATOM     20  C   UNL A   1      29.632  26.743  23.736  1.00  0.00    -0.016 A 
ATOM     21  C   UNL A   1      28.363  26.293  24.054  1.00  0.00     0.087 A 
ATOM     22  C   UNL A   1      29.445  27.993  23.048  1.00  0.00     0.003 A 
ATOM     23  N   UNL A   1      27.457  27.268  23.734  1.00  0.00    -0.361 N 
ATOM     24  C   UNL A   1      28.090  28.321  23.119  1.00  0.00     0.046 A 
ATOM     25  C   UNL A   1      30.310  28.886  22.379  1.00  0.00     0.010 A 
ATOM     26  H   UNL A   1      26.490  27.223  23.918  1.00  0.00     0.166 HD
ATOM     27  C   UNL A   1      27.567  29.514  22.606  1.00  0.00     0.026 A 
ATOM     28  C   UNL A   1      29.799  30.065  21.826  1.00  0.00     0.001 A 
ATOM     29  C   UNL A   1      28.449  30.381  21.954  1.00  0.00     0.002 A 
ENDBRANCH  19  20
ENDBRANCH  14  19
ENDBRANCH  11  14
ENDBRANCH   9  10
BRANCH   9  30
ATOM     30  C   UNL A   1      34.665  23.829  24.198  1.00  0.00     0.101 C 
BRANCH  30  31
ATOM     31  S   UNL A   1      35.457  23.811  25.843  1.00  0.00    -0.177 SA
ATOM     32  H   UNL A   1      35.577  22.526  26.276  1.00  0.00     0.102 HD
ENDBRANCH  30  31
ENDBRANCH   9  30
ENDBRANCH   6   9
ENDBRANCH   4   5
BRANCH   4  33
ATOM     33  C   UNL A   1      32.509  19.335  25.326  1.00  0.00     0.193 C 
BRANCH  33  34
ATOM     34  O   UNL A   1      32.919  18.515  26.426  1.00  0.00    -0.394 OA
ATOM     35  H   UNL A   1      33.814  18.179  26.264  1.00  0.00     0.210 HD
ENDBRANCH  33  34
ENDBRANCH   4  33
ENDBRANCH   2   4
ENDBRANCH   1   2
BRANCH   1  36
ATOM     36  C   UNL A   1      37.139  20.493  24.605  1.00  0.00     0.274 C 
BRANCH  36  37
ATOM     37  C   UNL A   1      38.169  19.452  25.034  1.00  0.00     0.275 C 
BRANCH  37  38
ATOM     38  O   UNL A   1      38.773  19.906  26.255  1.00  0.00    -0.458 OA
BRANCH  38  39
ATOM     39  C   UNL A   1      40.115  20.085  26.232  1.00  0.00     0.338 C 
ATOM     40  O   UNL A   1      40.950  19.261  25.904  1.00  0.00    -0.246 OA
BRANCH  39  41
ATOM     41  C   UNL A   1      40.436  21.477  26.639  1.00  0.00     0.060 A 
ATOM     42  C   UNL A   1      39.571  22.527  26.334  1.00  0.00     0.016 A 
ATOM     43  C   UNL A   1      41.659  21.760  27.254  1.00  0.00     0.016 A 
ATOM     44  C   UNL A   1      39.968  23.846  26.568  1.00  0.00     0.010 A 
ATOM     45  C   UNL A   1      42.004  23.087  27.567  1.00  0.00     0.010 A 
ATOM     46  C   UNL A   1      41.182  24.164  27.193  1.00  0.00    -0.014 A 
BRANCH  46  47
ATOM     47  C   UNL A   1      41.605  25.598  27.389  1.00  0.00     0.031 A 
ATOM     48  C   UNL A   1      42.879  26.116  26.754  1.00  0.00     0.074 A 
ATOM     49  C   UNL A   1      40.855  26.480  28.089  1.00  0.00     0.049 A 
ATOM     50  N   UNL A   1      43.571  27.192  27.032  1.00  0.00    -0.248 NA
ATOM     51  C   UNL A   1      43.460  25.301  25.677  1.00  0.00     0.031 C 
ATOM     52  C   UNL A   1      39.560  26.199  28.710  1.00  0.00     0.029 A 
ATOM     53  N   UNL A   1      41.067  27.812  28.378  1.00  0.00    -0.354 N 
ATOM     54  C   UNL A   1      44.715  27.135  26.240  1.00  0.00     0.074 A 
ATOM     55  C   UNL A   1      44.612  25.921  25.457  1.00  0.00     0.031 C 
ATOM     56  C   UNL A   1      39.055  27.332  29.218  1.00  0.00     0.029 A 
ATOM     57  C   UNL A   1      40.057  28.384  29.120  1.00  0.00     0.049 A 
ATOM     58  H   UNL A   1      41.864  28.306  28.080  1.00  0.00     0.167 HD
ATOM     59  C   UNL A   1      45.753  28.008  26.183  1.00  0.00     0.034 A 
ATOM     60  C   UNL A   1      39.965  29.580  29.739  1.00  0.00     0.034 A 
ATOM     61  C   UNL A   1      45.795  29.269  26.887  1.00  0.00     0.049 A 
ATOM     62  C   UNL A   1      41.144  30.514  29.704  1.00  0.00     0.074 A 
ATOM     63  C   UNL A   1      46.790  30.234  26.874  1.00  0.00     0.029 A 
ATOM     64  N   UNL A   1      44.787  29.759  27.707  1.00  0.00    -0.354 N 
ATOM     65  N   UNL A   1      42.294  30.369  29.092  1.00  0.00    -0.248 NA
ATOM     66  C   UNL A   1      41.026  31.751  30.487  1.00  0.00     0.031 C 
ATOM     67  C   UNL A   1      46.409  31.277  27.726  1.00  0.00     0.029 A 
ATOM     68  C   UNL A   1      45.147  30.998  28.220  1.00  0.00     0.049 A 
ATOM     69  H   UNL A   1      43.939  29.295  27.896  1.00  0.00     0.167 HD
ATOM     70  C   UNL A   1      43.045  31.490  29.431  1.00  0.00     0.074 A 
ATOM     71  C   UNL A   1      42.203  32.319  30.267  1.00  0.00     0.031 C 
ATOM     72  C   UNL A   1      44.322  31.799  29.090  1.00  0.00     0.034 A 
BRANCH  59  73
ATOM     73  C   UNL A   1      46.972  27.603  25.386  1.00  0.00     0.023 A 
ATOM     74  C   UNL A   1      47.160  27.975  24.045  1.00  0.00     0.031 A 
ATOM     75  C   UNL A   1      47.973  26.821  25.996  1.00  0.00     0.131 A 
ATOM     76  C   UNL A   1      48.287  27.514  23.344  1.00  0.00     0.055 A 
ATOM     77  C   UNL A   1      49.129  26.435  25.317  1.00  0.00     0.041 A 
ATOM     78  F   UNL A   1      47.840  26.418  27.270  1.00  0.00    -0.206 F 
ATOM     79  C   UNL A   1      49.286  26.770  23.977  1.00  0.00     0.022 A 
BRANCH  76  80
ATOM     80  S   UNL A   1      48.355  27.778  21.551  1.00  0.00     0.124 S 
ATOM     81  O   UNL A   1      48.667  26.434  21.068  1.00  0.00    -0.237 OA
ATOM     82  O   UNL A   1      47.014  28.267  21.254  1.00  0.00    -0.237 OA
ATOM     83  O   UNL A   1      49.429  28.756  21.388  1.00  0.00    -0.744 OA
ENDBRANCH  76  80
ENDBRANCH  59  73
BRANCH  60  84
ATOM     84  C   UNL A   1      38.767  29.899  30.572  1.00  0.00     0.023 A 
ATOM     85  C   UNL A   1      37.757  30.757  30.111  1.00  0.00     0.031 A 
ATOM     86  C   UNL A   1      38.633  29.359  31.866  1.00  0.00     0.131 A 
ATOM     87  C   UNL A   1      36.663  31.054  30.941  1.00  0.00     0.055 A 
ATOM     88  C   UNL A   1      37.514  29.605  32.660  1.00  0.00     0.041 A 
ATOM     89  F   UNL A   1      39.581  28.549  32.365  1.00  0.00    -0.206 F 
ATOM     90  C   UNL A   1      36.523  30.464  32.200  1.00  0.00     0.022 A 
BRANCH  87  91
ATOM     91  S   UNL A   1      35.449  32.282  30.385  1.00  0.00     0.124 S 
ATOM     92  O   UNL A   1      36.290  33.454  30.170  1.00  0.00    -0.237 OA
ATOM     93  O   UNL A   1      34.905  31.654  29.187  1.00  0.00    -0.237 OA
ATOM     94  O   UNL A   1      34.522  32.378  31.511  1.00  0.00    -0.744 OA
ENDBRANCH  87  91
ENDBRANCH  60  84
BRANCH  72  95
ATOM     95  C   UNL A   1      44.866  33.099  29.624  1.00  0.00     0.023 A 
ATOM     96  C   UNL A   1      44.668  34.310  28.939  1.00  0.00     0.031 A 
ATOM     97  C   UNL A   1      45.635  33.119  30.801  1.00  0.00     0.131 A 
ATOM     98  C   UNL A   1      45.285  35.482  29.402  1.00  0.00     0.055 A 
ATOM     99  C   UNL A   1      46.200  34.299  31.287  1.00  0.00     0.041 A 
ATOM    100  F   UNL A   1      45.857  31.990  31.492  1.00  0.00    -0.206 F 
ATOM    101  C   UNL A   1      46.040  35.487  30.578  1.00  0.00     0.022 A 
BRANCH  98 102
ATOM    102  S   UNL A   1      45.168  36.985  28.391  1.00  0.00     0.124 S 
ATOM    103  O   UNL A   1      46.198  37.831  28.987  1.00  0.00    -0.237 OA
ATOM    104  O   UNL A   1      45.450  36.485  27.050  1.00  0.00    -0.237 OA
ATOM    105  O   UNL A   1      43.795  37.437  28.606  1.00  0.00    -0.744 OA
ENDBRANCH  98 102
ENDBRANCH  72  95
ENDBRANCH  46  47
ENDBRANCH  39  41
ENDBRANCH  38  39
ENDBRANCH  37  38
ENDBRANCH  36  37
ENDBRANCH   1  36
TORSDOF 25
ENDMDL
MODEL 3
REMARK VINA RESULT:     -10.9      1.882      2.595
REMARK SMILES [NH3+][C@@H](Cc1c[nH]c2ccccc12)C(=O)N[C@@H](CS)C(=O)N[C@@H](CO)C(=O)OCCOC(=O)c1ccc(-c2c3nc(c(-c4cc(S(=O)(=O)[O-])ccc4F)c4ccc([nH]4)c(-c4cc(S(=O)(=O)[O-])ccc4F)c4nc(c(-c5cc(S(=O)(=O)[O-])ccc5F)c5ccc2[nH]5)C=C4)C=C3)cc1
REMARK SMILES IDX 27 1 25 2 26 3 22 4 21 5 19 6 20 7 16 9 15 10 13 11 14 12
REMARK SMILES IDX 2 14 1 15 3 19 4 20 5 21 12 22 6 23 7 24 11 25 8 27 10 28
REMARK SMILES IDX 9 29 17 30 18 31 23 33 24 34 28 36 29 37 30 38 31 39 32 40
REMARK SMILES IDX 33 41 34 42 95 43 35 44 94 45 36 46 37 47 38 48 88 49 39 50
REMARK SMILES IDX 93 51 87 52 89 53 40 54 92 55 86 56 85 57 41 59 73 60 53 61
REMARK SMILES IDX 72 62 54 63 57 64 71 65 90 66 55 67 56 68 70 70 91 71 58 72
REMARK SMILES IDX 42 73 43 74 51 75 44 76 50 77 52 78 49 79 45 80 46 81 47 82
REMARK SMILES IDX 48 83 74 84 75 85 83 86 76 87 82 88 84 89 81 90 77 91 78 92
REMARK SMILES IDX 79 93 80 94 59 95 60 96 68 97 61 98 67 99 69 100 66 101
REMARK SMILES IDX 62 102 63 103 64 104 65 105
REMARK H PARENT 21 8 15 13 1 16 1 17 1 18 6 26 18 32 24 35 89 58 57 69
REMARK Flexibility Score: inf
ROOT
ATOM      1  O   UNL A   1      34.604  21.941  25.352  1.00  0.00    -0.460 OA
ENDROOT
BRANCH   1   2
ATOM      2  C   UNL A   1      33.635  21.539  26.224  1.00  0.00     0.331 C 
ATOM      3  O   UNL A   1      33.785  21.438  27.435  1.00  0.00    -0.250 OA
BRANCH   2   4
ATOM      4  C   UNL A   1      32.336  21.156  25.505  1.00  0.00     0.218 C 
BRANCH   4   5
ATOM      5  N   UNL A   1      31.301  22.197  25.522  1.00  0.00    -0.339 N 
ATOM      6  C   UNL A   1      31.366  23.456  26.027  1.00  0.00     0.244 C 
ATOM      7  O   UNL A   1      30.410  23.791  26.735  1.00  0.00    -0.273 OA
ATOM      8  H   UNL A   1      30.442  21.947  25.110  1.00  0.00     0.164 HD
BRANCH   6   9
ATOM      9  C   UNL A   1      32.561  24.419  25.788  1.00  0.00     0.181 C 
BRANCH   9  10
ATOM     10  N   UNL A   1      33.031  24.345  24.411  1.00  0.00    -0.338 N 
ATOM     11  C   UNL A   1      32.435  24.652  23.229  1.00  0.00     0.279 C 
ATOM     12  O   UNL A   1      33.138  24.474  22.225  1.00  0.00    -0.268 OA
ATOM     13  H   UNL A   1      33.951  24.009  24.319  1.00  0.00     0.164 HD
BRANCH  11  14
ATOM     14  C   UNL A   1      30.978  25.163  23.072  1.00  0.00     0.275 C 
BRANCH  14  15
ATOM     15  N   UNL A   1      30.017  24.044  23.114  1.00  0.00    -0.347 N 
ATOM     16  H   UNL A   1      29.247  24.279  23.740  1.00  0.00     0.345 HD
ATOM     17  H   UNL A   1      30.487  23.205  23.453  1.00  0.00     0.345 HD
ATOM     18  H   UNL A   1      29.652  23.873  22.176  1.00  0.00     0.345 HD
ENDBRANCH  14  15
BRANCH  14  19
ATOM     19  C   UNL A   1      30.610  26.463  23.823  1.00  0.00     0.113 C 
BRANCH  19  20
ATOM     20  C   UNL A   1      30.701  27.786  23.107  1.00  0.00    -0.016 A 
ATOM     21  C   UNL A   1      31.834  28.447  22.665  1.00  0.00     0.087 A 
ATOM     22  C   UNL A   1      29.596  28.659  22.810  1.00  0.00     0.003 A 
ATOM     23  N   UNL A   1      31.451  29.577  21.994  1.00  0.00    -0.361 N 
ATOM     24  C   UNL A   1      30.088  29.732  22.065  1.00  0.00     0.046 A 
ATOM     25  C   UNL A   1      28.215  28.628  23.098  1.00  0.00     0.010 A 
ATOM     26  H   UNL A   1      32.064  30.192  21.527  1.00  0.00     0.166 HD
ATOM     27  C   UNL A   1      29.266  30.741  21.549  1.00  0.00     0.026 A 
ATOM     28  C   UNL A   1      27.384  29.649  22.625  1.00  0.00     0.001 A 
ATOM     29  C   UNL A   1      27.902  30.681  21.847  1.00  0.00     0.002 A 
ENDBRANCH  19  20
ENDBRANCH  14  19
ENDBRANCH  11  14
ENDBRANCH   9  10
BRANCH   9  30
ATOM     30  C   UNL A   1      32.456  25.828  26.379  1.00  0.00     0.101 C 
BRANCH  30  31
ATOM     31  S   UNL A   1      33.751  26.984  25.810  1.00  0.00    -0.177 SA
ATOM     32  H   UNL A   1      33.856  26.918  24.456  1.00  0.00     0.102 HD
ENDBRANCH  30  31
ENDBRANCH   9  30
ENDBRANCH   6   9
ENDBRANCH   4   5
BRANCH   4  33
ATOM     33  C   UNL A   1      32.685  20.803  24.049  1.00  0.00     0.193 C 
BRANCH  33  34
ATOM     34  O   UNL A   1      31.973  21.645  23.134  1.00  0.00    -0.394 OA
ATOM     35  H   UNL A   1      31.639  21.111  22.396  1.00  0.00     0.210 HD
ENDBRANCH  33  34
ENDBRANCH   4  33
ENDBRANCH   2   4
ENDBRANCH   1   2
BRANCH   1  36
ATOM     36  C   UNL A   1      35.911  22.191  25.910  1.00  0.00     0.274 C 
BRANCH  36  37
ATOM     37  C   UNL A   1      36.881  21.122  25.417  1.00  0.00     0.275 C 
BRANCH  37  38
ATOM     38  O   UNL A   1      38.158  21.746  25.210  1.00  0.00    -0.458 OA
BRANCH  38  39
ATOM     39  C   UNL A   1      39.129  21.439  26.104  1.00  0.00     0.338 C 
ATOM     40  O   UNL A   1      39.539  20.324  26.373  1.00  0.00    -0.246 OA
BRANCH  39  41
ATOM     41  C   UNL A   1      39.668  22.689  26.698  1.00  0.00     0.060 A 
ATOM     42  C   UNL A   1      39.183  23.934  26.302  1.00  0.00     0.016 A 
ATOM     43  C   UNL A   1      40.734  22.629  27.600  1.00  0.00     0.016 A 
ATOM     44  C   UNL A   1      39.817  25.099  26.740  1.00  0.00     0.010 A 
ATOM     45  C   UNL A   1      41.303  23.813  28.103  1.00  0.00     0.010 A 
ATOM     46  C   UNL A   1      40.882  25.076  27.653  1.00  0.00    -0.014 A 
BRANCH  46  47
ATOM     47  C   UNL A   1      41.578  26.346  28.071  1.00  0.00     0.031 A 
ATOM     48  C   UNL A   1      40.860  27.367  28.930  1.00  0.00     0.074 A 
ATOM     49  C   UNL A   1      42.865  26.603  27.743  1.00  0.00     0.049 A 
ATOM     50  N   UNL A   1      41.149  28.627  29.144  1.00  0.00    -0.248 NA
ATOM     51  C   UNL A   1      39.644  26.914  29.620  1.00  0.00     0.031 C 
ATOM     52  C   UNL A   1      43.750  25.714  26.991  1.00  0.00     0.029 A 
ATOM     53  N   UNL A   1      43.665  27.690  28.024  1.00  0.00    -0.354 N 
ATOM     54  C   UNL A   1      40.105  29.140  29.909  1.00  0.00     0.074 A 
ATOM     55  C   UNL A   1      39.182  28.047  30.133  1.00  0.00     0.031 C 
ATOM     56  C   UNL A   1      44.982  26.239  26.953  1.00  0.00     0.029 A 
ATOM     57  C   UNL A   1      44.943  27.581  27.519  1.00  0.00     0.049 A 
ATOM     58  H   UNL A   1      43.354  28.469  28.538  1.00  0.00     0.167 HD
ATOM     59  C   UNL A   1      39.932  30.407  30.368  1.00  0.00     0.034 A 
ATOM     60  C   UNL A   1      45.951  28.473  27.427  1.00  0.00     0.034 A 
ATOM     61  C   UNL A   1      40.909  31.462  30.231  1.00  0.00     0.049 A 
ATOM     62  C   UNL A   1      45.724  29.884  27.897  1.00  0.00     0.074 A 
ATOM     63  C   UNL A   1      40.838  32.770  30.685  1.00  0.00     0.029 A 
ATOM     64  N   UNL A   1      42.150  31.327  29.623  1.00  0.00    -0.354 N 
ATOM     65  N   UNL A   1      44.662  30.405  28.462  1.00  0.00    -0.248 NA
ATOM     66  C   UNL A   1      46.818  30.837  27.670  1.00  0.00     0.031 C 
ATOM     67  C   UNL A   1      42.008  33.438  30.302  1.00  0.00     0.029 A 
ATOM     68  C   UNL A   1      42.839  32.531  29.669  1.00  0.00     0.049 A 
ATOM     69  H   UNL A   1      42.491  30.497  29.217  1.00  0.00     0.167 HD
ATOM     70  C   UNL A   1      44.954  31.753  28.642  1.00  0.00     0.074 A 
ATOM     71  C   UNL A   1      46.305  31.956  28.163  1.00  0.00     0.031 C 
ATOM     72  C   UNL A   1      44.169  32.738  29.148  1.00  0.00     0.034 A 
BRANCH  59  73
ATOM     73  C   UNL A   1      38.603  30.752  31.002  1.00  0.00     0.023 A 
ATOM     74  C   UNL A   1      37.542  31.317  30.278  1.00  0.00     0.031 A 
ATOM     75  C   UNL A   1      38.403  30.502  32.374  1.00  0.00     0.131 A 
ATOM     76  C   UNL A   1      36.354  31.670  30.941  1.00  0.00     0.055 A 
ATOM     77  C   UNL A   1      37.192  30.780  33.009  1.00  0.00     0.041 A 
ATOM     78  F   UNL A   1      39.388  29.981  33.123  1.00  0.00    -0.206 F 
ATOM     79  C   UNL A   1      36.161  31.381  32.294  1.00  0.00     0.022 A 
BRANCH  76  80
ATOM     80  S   UNL A   1      35.120  32.648  30.040  1.00  0.00     0.124 S 
ATOM     81  O   UNL A   1      35.914  33.796  29.608  1.00  0.00    -0.237 OA
ATOM     82  O   UNL A   1      34.701  31.729  28.988  1.00  0.00    -0.237 OA
ATOM     83  O   UNL A   1      34.109  32.943  31.054  1.00  0.00    -0.744 OA
ENDBRANCH  76  80
ENDBRANCH  59  73
BRANCH  60  84
ATOM     84  C   UNL A   1      47.216  28.101  26.726  1.00  0.00     0.023 A 
ATOM     85  C   UNL A   1      47.299  28.061  25.327  1.00  0.00     0.031 A 
ATOM     86  C   UNL A   1      48.366  27.755  27.464  1.00  0.00     0.131 A 
ATOM     87  C   UNL A   1      48.501  27.676  24.709  1.00  0.00     0.055 A 
ATOM     88  C   UNL A   1      49.575  27.436  26.848  1.00  0.00     0.041 A 
ATOM     89  F   UNL A   1      48.336  27.755  28.807  1.00  0.00    -0.206 F 
ATOM     90  C   UNL A   1      49.644  27.389  25.460  1.00  0.00     0.022 A 
BRANCH  87  91
ATOM     91  S   UNL A   1      48.539  27.484  22.906  1.00  0.00     0.124 S 
ATOM     92  O   UNL A   1      49.829  28.078  22.572  1.00  0.00    -0.237 OA
ATOM     93  O   UNL A   1      48.439  26.038  22.750  1.00  0.00    -0.237 OA
ATOM     94  O   UNL A   1      47.371  28.240  22.459  1.00  0.00    -0.744 OA
ENDBRANCH  87  91
ENDBRANCH  60  84
BRANCH  72  95
ATOM     95  C   UNL A   1      44.773  34.117  29.210  1.00  0.00     0.023 A 
ATOM     96  C   UNL A   1      45.503  34.545  30.333  1.00  0.00     0.031 A 
ATOM     97  C   UNL A   1      44.574  35.030  28.161  1.00  0.00     0.131 A 
ATOM     98  C   UNL A   1      45.954  35.871  30.409  1.00  0.00     0.055 A 
ATOM     99  C   UNL A   1      45.072  36.333  28.217  1.00  0.00     0.041 A 
ATOM    100  F   UNL A   1      43.881  34.674  27.067  1.00  0.00    -0.206 F 
ATOM    101  C   UNL A   1      45.754  36.764  29.353  1.00  0.00     0.022 A 
BRANCH  98 102
ATOM    102  S   UNL A   1      46.723  36.443  31.949  1.00  0.00     0.124 S 
ATOM    103  O   UNL A   1      45.769  35.981  32.953  1.00  0.00    -0.237 OA
ATOM    104  O   UNL A   1      48.011  35.760  31.930  1.00  0.00    -0.237 OA
ATOM    105  O   UNL A   1      46.790  37.894  31.781  1.00  0.00    -0.744 OA
ENDBRANCH  98 102
ENDBRANCH  72  95
ENDBRANCH  46  47
ENDBRANCH  39  41
ENDBRANCH  38  39
ENDBRANCH  37  38
ENDBRANCH  36  37
ENDBRANCH   1  36
TORSDOF 25
ENDMDL
