MODEL 1
REMARK VINA RESULT:     -12.0      0.000      0.000
REMARK SMILES O=C(OCCOC(=O)[C@@H]1CCCCN1c1ccccc1[N+](=O)[O-])c1ccc(-c2c3nc(c(-c4cc(S(=O)(=O)[O-])ccc4F)c4ccc([nH]4)c(-c4cc(S(=O)(=O)[O-])ccc4F)c4nc(c(-c5cc(S(=O)(=O)[O-])ccc5F)c5ccc2[nH]5)C=C4)C=C3)cc1
REMARK SMILES IDX 4 1 3 2 2 3 1 4 24 5 25 6 86 7 26 8 85 9 27 10 28 11 29 12
REMARK SMILES IDX 79 13 30 14 84 15 78 16 80 17 31 18 83 19 77 20 76 21 32 23
REMARK SMILES IDX 64 24 44 25 63 26 45 27 48 28 62 29 81 30 46 31 47 32 61 34
REMARK SMILES IDX 82 35 49 36 33 37 34 38 42 39 35 40 41 41 43 42 40 43 36 44
REMARK SMILES IDX 37 45 38 46 39 47 65 48 66 49 74 50 67 51 73 52 75 53 72 54
REMARK SMILES IDX 68 55 69 56 70 57 71 58 50 59 51 60 59 61 52 62 58 63 60 64
REMARK SMILES IDX 57 65 53 66 54 67 55 68 56 69 5 70 6 71 7 72 8 73 9 74 10 75
REMARK SMILES IDX 14 76 11 77 13 78 12 79 15 80 16 81 20 82 17 83 19 84 18 85
REMARK SMILES IDX 21 86 22 87 23 88
REMARK H PARENT 80 22 48 33
REMARK Flexibility Score: inf
ROOT
ATOM      1  C   UNL A   1      36.809  19.569  24.811  1.00  0.00     0.275 C 
ENDROOT
BRANCH   1   2
ATOM      2  O   UNL A   1      37.838  19.435  25.803  1.00  0.00    -0.458 OA
BRANCH   2   3
ATOM      3  C   UNL A   1      39.108  19.891  25.731  1.00  0.00     0.338 C 
ATOM      4  O   UNL A   1      40.001  19.148  25.334  1.00  0.00    -0.246 OA
BRANCH   3   5
ATOM      5  C   UNL A   1      39.498  21.254  26.186  1.00  0.00     0.060 A 
ATOM      6  C   UNL A   1      38.855  22.866  25.564  1.00  0.00     0.016 A 
ATOM      7  C   UNL A   1      40.765  21.273  27.501  1.00  0.00     0.016 A 
ATOM      8  C   UNL A   1      39.490  24.451  26.220  1.00  0.00     0.010 A 
ATOM      9  C   UNL A   1      41.587  22.874  27.940  1.00  0.00     0.010 A 
ATOM     10  C   UNL A   1      40.921  24.460  27.312  1.00  0.00    -0.014 A 
BRANCH  10  11
ATOM     11  C   UNL A   1      41.559  25.798  27.539  1.00  0.00     0.031 A 
ATOM     12  C   UNL A   1      40.835  26.868  28.317  1.00  0.00     0.074 A 
ATOM     13  C   UNL A   1      42.843  26.006  27.174  1.00  0.00     0.049 A 
ATOM     14  N   UNL A   1      41.204  28.076  28.660  1.00  0.00    -0.248 NA
ATOM     15  C   UNL A   1      39.515  26.514  28.823  1.00  0.00     0.031 C 
ATOM     16  C   UNL A   1      43.737  25.020  26.567  1.00  0.00     0.029 A 
ATOM     17  N   UNL A   1      43.634  27.126  27.245  1.00  0.00    -0.354 N 
ATOM     18  C   UNL A   1      40.155  28.594  29.427  1.00  0.00     0.074 A 
ATOM     19  C   UNL A   1      39.115  27.604  29.447  1.00  0.00     0.031 C 
ATOM     20  C   UNL A   1      44.910  25.579  26.254  1.00  0.00     0.029 A 
ATOM     21  C   UNL A   1      44.856  26.978  26.626  1.00  0.00     0.049 A 
ATOM     22  H   UNL A   1      43.354  27.956  27.696  1.00  0.00     0.167 HD
ATOM     23  C   UNL A   1      40.067  29.782  30.072  1.00  0.00     0.034 A 
ATOM     24  C   UNL A   1      45.825  27.869  26.359  1.00  0.00     0.034 A 
ATOM     25  C   UNL A   1      41.101  30.777  29.982  1.00  0.00     0.049 A 
ATOM     26  C   UNL A   1      45.656  29.243  26.927  1.00  0.00     0.074 A 
ATOM     27  C   UNL A   1      41.134  32.055  30.506  1.00  0.00     0.029 A 
ATOM     28  N   UNL A   1      42.291  30.597  29.283  1.00  0.00    -0.354 N 
ATOM     29  N   UNL A   1      44.651  29.722  27.626  1.00  0.00    -0.248 NA
ATOM     30  C   UNL A   1      46.762  30.177  26.722  1.00  0.00     0.031 C 
ATOM     31  C   UNL A   1      42.304  32.675  30.050  1.00  0.00     0.029 A 
ATOM     32  C   UNL A   1      43.046  31.753  29.326  1.00  0.00     0.049 A 
ATOM     33  H   UNL A   1      42.555  29.767  28.824  1.00  0.00     0.167 HD
ATOM     34  C   UNL A   1      45.029  31.003  27.998  1.00  0.00     0.074 A 
ATOM     35  C   UNL A   1      46.355  31.213  27.442  1.00  0.00     0.031 C 
ATOM     36  C   UNL A   1      44.356  31.919  28.742  1.00  0.00     0.034 A 
BRANCH  23  37
ATOM     37  C   UNL A   1      38.778  30.073  30.816  1.00  0.00     0.023 A 
ATOM     38  C   UNL A   1      37.716  30.792  30.229  1.00  0.00     0.031 A 
ATOM     39  C   UNL A   1      38.653  29.717  32.171  1.00  0.00     0.131 A 
ATOM     40  C   UNL A   1      36.623  31.203  31.015  1.00  0.00     0.055 A 
ATOM     41  C   UNL A   1      37.527  30.059  32.925  1.00  0.00     0.041 A 
ATOM     42  F   UNL A   1      39.640  29.060  32.799  1.00  0.00    -0.206 F 
ATOM     43  C   UNL A   1      36.513  30.822  32.354  1.00  0.00     0.022 A 
BRANCH  40  44
ATOM     44  S   UNL A   1      35.422  32.370  30.309  1.00  0.00     0.124 S 
ATOM     45  O   UNL A   1      35.010  31.681  29.088  1.00  0.00    -0.237 OA
ATOM     46  O   UNL A   1      34.412  32.461  31.358  1.00  0.00    -0.237 OA
ATOM     47  O   UNL A   1      36.207  33.585  30.095  1.00  0.00    -0.744 OA
ENDBRANCH  40  44
ENDBRANCH  23  37
BRANCH  24  48
ATOM     48  C   UNL A   1      47.010  27.467  25.544  1.00  0.00     0.023 A 
ATOM     49  C   UNL A   1      47.118  27.805  24.188  1.00  0.00     0.031 A 
ATOM     50  C   UNL A   1      48.080  26.758  26.131  1.00  0.00     0.131 A 
ATOM     51  C   UNL A   1      48.251  27.415  23.456  1.00  0.00     0.055 A 
ATOM     52  C   UNL A   1      49.223  26.411  25.409  1.00  0.00     0.041 A 
ATOM     53  F   UNL A   1      48.041  26.426  27.431  1.00  0.00    -0.206 F 
ATOM     54  C   UNL A   1      49.308  26.730  24.058  1.00  0.00     0.022 A 
BRANCH  51  55
ATOM     55  S   UNL A   1      48.300  27.769  21.678  1.00  0.00     0.124 S 
ATOM     56  O   UNL A   1      48.588  26.454  21.117  1.00  0.00    -0.237 OA
ATOM     57  O   UNL A   1      46.957  28.291  21.440  1.00  0.00    -0.237 OA
ATOM     58  O   UNL A   1      49.378  28.749  21.556  1.00  0.00    -0.744 OA
ENDBRANCH  51  55
ENDBRANCH  24  48
BRANCH  36  59
ATOM     59  C   UNL A   1      45.085  33.198  29.027  1.00  0.00     0.023 A 
ATOM     60  C   UNL A   1      44.978  34.303  28.171  1.00  0.00     0.031 A 
ATOM     61  C   UNL A   1      45.935  33.291  30.143  1.00  0.00     0.131 A 
ATOM     62  C   UNL A   1      45.786  35.423  28.388  1.00  0.00     0.055 A 
ATOM     63  C   UNL A   1      46.670  34.445  30.404  1.00  0.00     0.041 A 
ATOM     64  F   UNL A   1      46.072  32.256  30.987  1.00  0.00    -0.206 F 
ATOM     65  C   UNL A   1      46.614  35.512  29.511  1.00  0.00     0.022 A 
BRANCH  62  66
ATOM     66  S   UNL A   1      45.856  36.687  27.094  1.00  0.00     0.124 S 
ATOM     67  O   UNL A   1      46.779  37.658  27.673  1.00  0.00    -0.237 OA
ATOM     68  O   UNL A   1      46.359  35.934  25.949  1.00  0.00    -0.237 OA
ATOM     69  O   UNL A   1      44.470  37.138  26.982  1.00  0.00    -0.744 OA
ENDBRANCH  62  66
ENDBRANCH  36  59
ENDBRANCH  10  11
ENDBRANCH   3   5
ENDBRANCH   2   3
ENDBRANCH   1   2
BRANCH   1  70
ATOM     70  C   UNL A   1      36.143  20.964  24.836  1.00  0.00     0.274 C 
BRANCH  70  71
ATOM     71  O   UNL A   1      35.649  21.366  26.135  1.00  0.00    -0.461 OA
BRANCH  71  72
ATOM     72  C   UNL A   1      34.996  22.560  26.196  1.00  0.00     0.328 C 
ATOM     73  O   UNL A   1      35.597  23.626  26.300  1.00  0.00    -0.250 OA
BRANCH  72  74
ATOM     74  C   UNL A   1      33.429  22.454  26.155  1.00  0.00     0.192 C 
ATOM     75  C   UNL A   1      32.879  23.091  27.438  1.00  0.00     0.037 C 
ATOM     76  N   UNL A   1      32.324  21.134  25.529  1.00  0.00    -0.353 N 
ATOM     77  C   UNL A   1      31.705  23.987  27.116  1.00  0.00     0.005 C 
ATOM     78  C   UNL A   1      31.032  22.350  25.230  1.00  0.00     0.118 C 
ATOM     79  C   UNL A   1      30.618  23.216  26.424  1.00  0.00     0.022 C 
BRANCH  76  80
ATOM     80  C   UNL A   1      32.574  19.231  24.948  1.00  0.00     0.116 A 
ATOM     81  C   UNL A   1      32.880  18.001  25.899  1.00  0.00     0.033 A 
ATOM     82  C   UNL A   1      32.669  18.519  23.500  1.00  0.00     0.292 A 
ATOM     83  C   UNL A   1      33.222  16.661  25.585  1.00  0.00     0.003 A 
ATOM     84  C   UNL A   1      33.036  17.134  23.281  1.00  0.00     0.088 A 
ATOM     85  C   UNL A   1      33.319  16.237  24.289  1.00  0.00     0.007 A 
BRANCH  82  86
ATOM     86  N   UNL A   1      32.310  18.984  22.117  1.00  0.00     0.064 N 
ATOM     87  O   UNL A   1      31.931  20.158  21.979  1.00  0.00    -0.258 OA
ATOM     88  O   UNL A   1      32.248  18.120  21.228  1.00  0.00    -0.258 OA
ENDBRANCH  82  86
ENDBRANCH  76  80
ENDBRANCH  72  74
ENDBRANCH  71  72
ENDBRANCH  70  71
ENDBRANCH   1  70
TORSDOF 16
ENDMDL
MODEL 2
REMARK VINA RESULT:     -11.9      7.822     13.648
REMARK SMILES O=C(OCCOC(=O)[C@@H]1CCCCN1c1ccccc1[N+](=O)[O-])c1ccc(-c2c3nc(c(-c4cc(S(=O)(=O)[O-])ccc4F)c4ccc([nH]4)c(-c4cc(S(=O)(=O)[O-])ccc4F)c4nc(c(-c5cc(S(=O)(=O)[O-])ccc5F)c5ccc2[nH]5)C=C4)C=C3)cc1
REMARK SMILES IDX 4 1 3 2 2 3 1 4 24 5 25 6 86 7 26 8 85 9 27 10 28 11 29 12
REMARK SMILES IDX 79 13 30 14 84 15 78 16 80 17 31 18 83 19 77 20 76 21 32 23
REMARK SMILES IDX 64 24 44 25 63 26 45 27 48 28 62 29 81 30 46 31 47 32 61 34
REMARK SMILES IDX 82 35 49 36 33 37 34 38 42 39 35 40 41 41 43 42 40 43 36 44
REMARK SMILES IDX 37 45 38 46 39 47 65 48 66 49 74 50 67 51 73 52 75 53 72 54
REMARK SMILES IDX 68 55 69 56 70 57 71 58 50 59 51 60 59 61 52 62 58 63 60 64
REMARK SMILES IDX 57 65 53 66 54 67 55 68 56 69 5 70 6 71 7 72 8 73 9 74 10 75
REMARK SMILES IDX 14 76 11 77 13 78 12 79 15 80 16 81 20 82 17 83 19 84 18 85
REMARK SMILES IDX 21 86 22 87 23 88
REMARK H PARENT 80 22 48 33
REMARK Flexibility Score: inf
ROOT
ATOM      1  C   UNL A   1      50.401  23.631  35.319  1.00  0.00     0.275 C 
ENDROOT
BRANCH   1   2
ATOM      2  O   UNL A   1      49.120  24.210  35.032  1.00  0.00    -0.458 OA
BRANCH   2   3
ATOM      3  C   UNL A   1      48.312  24.875  35.888  1.00  0.00     0.338 C 
ATOM      4  O   UNL A   1      48.546  24.846  37.092  1.00  0.00    -0.246 OA
BRANCH   3   5
ATOM      5  C   UNL A   1      47.090  25.597  35.441  1.00  0.00     0.060 A 
ATOM      6  C   UNL A   1      45.362  24.956  35.408  1.00  0.00     0.016 A 
ATOM      7  C   UNL A   1      47.395  27.303  34.862  1.00  0.00     0.016 A 
ATOM      8  C   UNL A   1      43.986  25.984  34.780  1.00  0.00     0.010 A 
ATOM      9  C   UNL A   1      46.045  28.211  33.976  1.00  0.00     0.010 A 
ATOM     10  C   UNL A   1      44.337  27.551  33.966  1.00  0.00    -0.014 A 
BRANCH  10  11
ATOM     11  C   UNL A   1      43.195  28.163  33.210  1.00  0.00     0.031 A 
ATOM     12  C   UNL A   1      42.969  27.820  31.758  1.00  0.00     0.074 A 
ATOM     13  C   UNL A   1      42.277  28.911  33.858  1.00  0.00     0.049 A 
ATOM     14  N   UNL A   1      42.036  28.200  30.923  1.00  0.00    -0.248 NA
ATOM     15  C   UNL A   1      43.908  26.874  31.167  1.00  0.00     0.031 C 
ATOM     16  C   UNL A   1      42.255  29.196  35.293  1.00  0.00     0.029 A 
ATOM     17  N   UNL A   1      41.176  29.592  33.399  1.00  0.00    -0.354 N 
ATOM     18  C   UNL A   1      42.290  27.520  29.728  1.00  0.00     0.074 A 
ATOM     19  C   UNL A   1      43.492  26.757  29.922  1.00  0.00     0.031 C 
ATOM     20  C   UNL A   1      41.259  30.036  35.590  1.00  0.00     0.029 A 
ATOM     21  C   UNL A   1      40.568  30.369  34.361  1.00  0.00     0.049 A 
ATOM     22  H   UNL A   1      40.853  29.529  32.472  1.00  0.00     0.167 HD
ATOM     23  C   UNL A   1      41.581  27.514  28.574  1.00  0.00     0.034 A 
ATOM     24  C   UNL A   1      39.579  31.273  34.272  1.00  0.00     0.034 A 
ATOM     25  C   UNL A   1      40.415  28.336  28.391  1.00  0.00     0.049 A 
ATOM     26  C   UNL A   1      38.896  31.399  32.946  1.00  0.00     0.074 A 
ATOM     27  C   UNL A   1      39.632  28.507  27.267  1.00  0.00     0.029 A 
ATOM     28  N   UNL A   1      39.884  29.157  29.382  1.00  0.00    -0.354 N 
ATOM     29  N   UNL A   1      39.163  30.768  31.824  1.00  0.00    -0.248 NA
ATOM     30  C   UNL A   1      37.753  32.308  32.882  1.00  0.00     0.031 C 
ATOM     31  C   UNL A   1      38.683  29.496  27.551  1.00  0.00     0.029 A 
ATOM     32  C   UNL A   1      38.810  29.868  28.882  1.00  0.00     0.049 A 
ATOM     33  H   UNL A   1      40.224  29.222  30.303  1.00  0.00     0.167 HD
ATOM     34  C   UNL A   1      38.181  31.162  30.929  1.00  0.00     0.074 A 
ATOM     35  C   UNL A   1      37.319  32.082  31.650  1.00  0.00     0.031 C 
ATOM     36  C   UNL A   1      37.992  30.788  29.637  1.00  0.00     0.034 A 
BRANCH  23  37
ATOM     37  C   UNL A   1      42.125  26.680  27.429  1.00  0.00     0.023 A 
ATOM     38  C   UNL A   1      41.764  25.329  27.244  1.00  0.00     0.031 A 
ATOM     39  C   UNL A   1      43.102  27.216  26.573  1.00  0.00     0.131 A 
ATOM     40  C   UNL A   1      42.437  24.544  26.289  1.00  0.00     0.055 A 
ATOM     41  C   UNL A   1      43.710  26.452  25.572  1.00  0.00     0.041 A 
ATOM     42  F   UNL A   1      43.514  28.486  26.715  1.00  0.00    -0.206 F 
ATOM     43  C   UNL A   1      43.392  25.104  25.438  1.00  0.00     0.022 A 
BRANCH  40  44
ATOM     44  S   UNL A   1      42.160  22.748  26.275  1.00  0.00     0.124 S 
ATOM     45  O   UNL A   1      40.705  22.664  26.384  1.00  0.00    -0.237 OA
ATOM     46  O   UNL A   1      42.724  22.349  24.990  1.00  0.00    -0.237 OA
ATOM     47  O   UNL A   1      42.894  22.277  27.449  1.00  0.00    -0.744 OA
ENDBRANCH  40  44
ENDBRANCH  23  37
BRANCH  24  48
ATOM     48  C   UNL A   1      39.195  32.086  35.463  1.00  0.00     0.023 A 
ATOM     49  C   UNL A   1      39.662  33.396  35.641  1.00  0.00     0.031 A 
ATOM     50  C   UNL A   1      38.315  31.565  36.436  1.00  0.00     0.131 A 
ATOM     51  C   UNL A   1      39.273  34.132  36.773  1.00  0.00     0.055 A 
ATOM     52  C   UNL A   1      37.897  32.316  37.536  1.00  0.00     0.041 A 
ATOM     53  F   UNL A   1      37.819  30.324  36.307  1.00  0.00    -0.206 F 
ATOM     54  C   UNL A   1      38.386  33.605  37.715  1.00  0.00     0.022 A 
BRANCH  51  55
ATOM     55  S   UNL A   1      39.990  35.777  37.027  1.00  0.00     0.124 S 
ATOM     56  O   UNL A   1      39.305  36.221  38.235  1.00  0.00    -0.237 OA
ATOM     57  O   UNL A   1      41.409  35.465  37.169  1.00  0.00    -0.237 OA
ATOM     58  O   UNL A   1      39.632  36.497  35.806  1.00  0.00    -0.744 OA
ENDBRANCH  51  55
ENDBRANCH  24  48
BRANCH  36  59
ATOM     59  C   UNL A   1      36.775  31.347  28.961  1.00  0.00     0.023 A 
ATOM     60  C   UNL A   1      35.703  30.521  28.592  1.00  0.00     0.031 A 
ATOM     61  C   UNL A   1      36.712  32.715  28.642  1.00  0.00     0.131 A 
ATOM     62  C   UNL A   1      34.655  31.052  27.834  1.00  0.00     0.055 A 
ATOM     63  C   UNL A   1      35.622  33.254  27.965  1.00  0.00     0.041 A 
ATOM     64  F   UNL A   1      37.717  33.541  28.973  1.00  0.00    -0.206 F 
ATOM     65  C   UNL A   1      34.595  32.417  27.537  1.00  0.00     0.022 A 
BRANCH  62  66
ATOM     66  S   UNL A   1      33.462  29.901  27.107  1.00  0.00     0.124 S 
ATOM     67  O   UNL A   1      33.647  28.715  27.937  1.00  0.00    -0.237 OA
ATOM     68  O   UNL A   1      32.198  30.610  27.283  1.00  0.00    -0.237 OA
ATOM     69  O   UNL A   1      33.913  29.769  25.724  1.00  0.00    -0.744 OA
ENDBRANCH  62  66
ENDBRANCH  36  59
ENDBRANCH  10  11
ENDBRANCH   3   5
ENDBRANCH   2   3
ENDBRANCH   1   2
BRANCH   1  70
ATOM     70  C   UNL A   1      50.319  22.107  35.564  1.00  0.00     0.274 C 
BRANCH  70  71
ATOM     71  O   UNL A   1      49.491  21.726  36.688  1.00  0.00    -0.461 OA
BRANCH  71  72
ATOM     72  C   UNL A   1      49.098  20.423  36.742  1.00  0.00     0.328 C 
ATOM     73  O   UNL A   1      49.887  19.515  36.990  1.00  0.00    -0.250 OA
BRANCH  72  74
ATOM     74  C   UNL A   1      47.576  20.183  36.433  1.00  0.00     0.192 C 
ATOM     75  C   UNL A   1      46.973  21.514  35.967  1.00  0.00     0.037 C 
ATOM     76  N   UNL A   1      46.328  19.129  37.262  1.00  0.00    -0.353 N 
ATOM     77  C   UNL A   1      46.099  21.297  34.753  1.00  0.00     0.005 C 
ATOM     78  C   UNL A   1      45.408  18.999  35.722  1.00  0.00     0.118 C 
ATOM     79  C   UNL A   1      45.000  20.317  35.055  1.00  0.00     0.022 C 
BRANCH  76  80
ATOM     80  C   UNL A   1      46.245  18.125  38.996  1.00  0.00     0.116 A 
ATOM     81  C   UNL A   1      47.341  18.150  40.139  1.00  0.00     0.033 A 
ATOM     82  C   UNL A   1      45.224  17.020  39.586  1.00  0.00     0.292 A 
ATOM     83  C   UNL A   1      47.456  17.372  41.319  1.00  0.00     0.003 A 
ATOM     84  C   UNL A   1      45.434  16.268  40.807  1.00  0.00     0.088 A 
ATOM     85  C   UNL A   1      46.522  16.427  41.640  1.00  0.00     0.007 A 
BRANCH  82  86
ATOM     86  N   UNL A   1      43.844  16.591  39.173  1.00  0.00     0.064 N 
ATOM     87  O   UNL A   1      42.882  17.265  39.575  1.00  0.00    -0.258 OA
ATOM     88  O   UNL A   1      43.740  15.493  38.602  1.00  0.00    -0.258 OA
ENDBRANCH  82  86
ENDBRANCH  76  80
ENDBRANCH  72  74
ENDBRANCH  71  72
ENDBRANCH  70  71
ENDBRANCH   1  70
TORSDOF 16
ENDMDL
MODEL 3
REMARK VINA RESULT:     -11.9      0.750      7.716
REMARK SMILES O=C(OCCOC(=O)[C@@H]1CCCCN1c1ccccc1[N+](=O)[O-])c1ccc(-c2c3nc(c(-c4cc(S(=O)(=O)[O-])ccc4F)c4ccc([nH]4)c(-c4cc(S(=O)(=O)[O-])ccc4F)c4nc(c(-c5cc(S(=O)(=O)[O-])ccc5F)c5ccc2[nH]5)C=C4)C=C3)cc1
REMARK SMILES IDX 4 1 3 2 2 3 1 4 24 5 25 6 86 7 26 8 85 9 27 10 28 11 29 12
REMARK SMILES IDX 79 13 30 14 84 15 78 16 80 17 31 18 83 19 77 20 76 21 32 23
REMARK SMILES IDX 64 24 44 25 63 26 45 27 48 28 62 29 81 30 46 31 47 32 61 34
REMARK SMILES IDX 82 35 49 36 33 37 34 38 42 39 35 40 41 41 43 42 40 43 36 44
REMARK SMILES IDX 37 45 38 46 39 47 65 48 66 49 74 50 67 51 73 52 75 53 72 54
REMARK SMILES IDX 68 55 69 56 70 57 71 58 50 59 51 60 59 61 52 62 58 63 60 64
REMARK SMILES IDX 57 65 53 66 54 67 55 68 56 69 5 70 6 71 7 72 8 73 9 74 10 75
REMARK SMILES IDX 14 76 11 77 13 78 12 79 15 80 16 81 20 82 17 83 19 84 18 85
REMARK SMILES IDX 21 86 22 87 23 88
REMARK H PARENT 80 22 48 33
REMARK Flexibility Score: inf
ROOT
ATOM      1  C   UNL A   1      36.623  19.812  25.016  1.00  0.00     0.275 C 
ENDROOT
BRANCH   1   2
ATOM      2  O   UNL A   1      37.964  20.193  24.672  1.00  0.00    -0.458 OA
BRANCH   2   3
ATOM      3  C   UNL A   1      39.011  20.351  25.512  1.00  0.00     0.338 C 
ATOM      4  O   UNL A   1      39.668  19.374  25.856  1.00  0.00    -0.246 OA
BRANCH   3   5
ATOM      5  C   UNL A   1      39.369  21.666  26.109  1.00  0.00     0.060 A 
ATOM      6  C   UNL A   1      38.611  23.305  25.739  1.00  0.00     0.016 A 
ATOM      7  C   UNL A   1      40.724  21.592  27.332  1.00  0.00     0.016 A 
ATOM      8  C   UNL A   1      39.218  24.830  26.548  1.00  0.00     0.010 A 
ATOM      9  C   UNL A   1      41.502  23.169  27.915  1.00  0.00     0.010 A 
ATOM     10  C   UNL A   1      40.721  24.782  27.538  1.00  0.00    -0.014 A 
BRANCH  10  11
ATOM     11  C   UNL A   1      41.312  26.114  27.890  1.00  0.00     0.031 A 
ATOM     12  C   UNL A   1      42.732  26.446  27.502  1.00  0.00     0.074 A 
ATOM     13  C   UNL A   1      40.536  27.078  28.428  1.00  0.00     0.049 A 
ATOM     14  N   UNL A   1      43.433  27.539  27.672  1.00  0.00    -0.248 NA
ATOM     15  C   UNL A   1      43.459  25.413  26.775  1.00  0.00     0.031 C 
ATOM     16  C   UNL A   1      39.103  26.976  28.706  1.00  0.00     0.029 A 
ATOM     17  N   UNL A   1      40.836  28.348  28.857  1.00  0.00    -0.354 N 
ATOM     18  C   UNL A   1      44.667  27.301  27.057  1.00  0.00     0.074 A 
ATOM     19  C   UNL A   1      44.644  25.951  26.568  1.00  0.00     0.031 C 
ATOM     20  C   UNL A   1      38.663  28.081  29.317  1.00  0.00     0.029 A 
ATOM     21  C   UNL A   1      39.787  28.978  29.491  1.00  0.00     0.049 A 
ATOM     22  H   UNL A   1      41.716  28.767  28.724  1.00  0.00     0.167 HD
ATOM     23  C   UNL A   1      45.722  28.136  26.896  1.00  0.00     0.034 A 
ATOM     24  C   UNL A   1      39.729  30.139  30.163  1.00  0.00     0.034 A 
ATOM     25  C   UNL A   1      45.737  29.462  27.450  1.00  0.00     0.049 A 
ATOM     26  C   UNL A   1      40.955  30.998  30.137  1.00  0.00     0.074 A 
ATOM     27  C   UNL A   1      46.749  30.401  27.447  1.00  0.00     0.029 A 
ATOM     28  N   UNL A   1      44.668  30.024  28.143  1.00  0.00    -0.354 N 
ATOM     29  N   UNL A   1      42.116  30.750  29.573  1.00  0.00    -0.248 NA
ATOM     30  C   UNL A   1      40.852  32.306  30.781  1.00  0.00     0.031 C 
ATOM     31  C   UNL A   1      46.323  31.493  28.213  1.00  0.00     0.029 A 
ATOM     32  C   UNL A   1      45.011  31.278  28.608  1.00  0.00     0.049 A 
ATOM     33  H   UNL A   1      43.796  29.589  28.282  1.00  0.00     0.167 HD
ATOM     34  C   UNL A   1      42.871  31.899  29.745  1.00  0.00     0.074 A 
ATOM     35  C   UNL A   1      42.025  32.837  30.464  1.00  0.00     0.031 C 
ATOM     36  C   UNL A   1      44.137  32.169  29.335  1.00  0.00     0.034 A 
BRANCH  23  37
ATOM     37  C   UNL A   1      46.946  27.579  26.194  1.00  0.00     0.023 A 
ATOM     38  C   UNL A   1      47.268  27.917  24.863  1.00  0.00     0.031 A 
ATOM     39  C   UNL A   1      47.742  26.612  26.831  1.00  0.00     0.131 A 
ATOM     40  C   UNL A   1      48.298  27.232  24.191  1.00  0.00     0.055 A 
ATOM     41  C   UNL A   1      48.816  25.993  26.184  1.00  0.00     0.041 A 
ATOM     42  F   UNL A   1      47.471  26.222  28.086  1.00  0.00    -0.206 F 
ATOM     43  C   UNL A   1      49.087  26.287  24.851  1.00  0.00     0.022 A 
BRANCH  40  44
ATOM     44  S   UNL A   1      48.496  27.478  22.401  1.00  0.00     0.124 S 
ATOM     45  O   UNL A   1      47.308  28.262  22.069  1.00  0.00    -0.237 OA
ATOM     46  O   UNL A   1      49.768  28.187  22.316  1.00  0.00    -0.237 OA
ATOM     47  O   UNL A   1      48.505  26.118  21.865  1.00  0.00    -0.744 OA
ENDBRANCH  40  44
ENDBRANCH  23  37
BRANCH  24  48
ATOM     48  C   UNL A   1      38.479  30.531  30.880  1.00  0.00     0.023 A 
ATOM     49  C   UNL A   1      37.485  31.299  30.257  1.00  0.00     0.031 A 
ATOM     50  C   UNL A   1      38.247  30.106  32.205  1.00  0.00     0.131 A 
ATOM     51  C   UNL A   1      36.319  31.641  30.962  1.00  0.00     0.055 A 
ATOM     52  C   UNL A   1      37.067  30.413  32.886  1.00  0.00     0.041 A 
ATOM     53  F   UNL A   1      39.154  29.350  32.844  1.00  0.00    -0.206 F 
ATOM     54  C   UNL A   1      36.099  31.196  32.267  1.00  0.00     0.022 A 
BRANCH  51  55
ATOM     55  S   UNL A   1      35.112  32.733  30.164  1.00  0.00     0.124 S 
ATOM     56  O   UNL A   1      35.958  33.821  29.687  1.00  0.00    -0.237 OA
ATOM     57  O   UNL A   1      34.549  31.858  29.140  1.00  0.00    -0.237 OA
ATOM     58  O   UNL A   1      34.200  33.083  31.252  1.00  0.00    -0.744 OA
ENDBRANCH  51  55
ENDBRANCH  24  48
BRANCH  36  59
ATOM     59  C   UNL A   1      44.640  33.553  29.621  1.00  0.00     0.023 A 
ATOM     60  C   UNL A   1      44.431  34.604  28.716  1.00  0.00     0.031 A 
ATOM     61  C   UNL A   1      45.380  33.807  30.789  1.00  0.00     0.131 A 
ATOM     62  C   UNL A   1      45.041  35.841  28.946  1.00  0.00     0.055 A 
ATOM     63  C   UNL A   1      45.908  35.068  31.055  1.00  0.00     0.041 A 
ATOM     64  F   UNL A   1      45.608  32.830  31.680  1.00  0.00    -0.206 F 
ATOM     65  C   UNL A   1      45.759  36.088  30.120  1.00  0.00     0.022 A 
BRANCH  62  66
ATOM     66  S   UNL A   1      45.015  37.064  27.611  1.00  0.00     0.124 S 
ATOM     67  O   UNL A   1      46.129  36.622  26.779  1.00  0.00    -0.237 OA
ATOM     68  O   UNL A   1      43.683  36.879  27.044  1.00  0.00    -0.237 OA
ATOM     69  O   UNL A   1      45.224  38.332  28.307  1.00  0.00    -0.744 OA
ENDBRANCH  62  66
ENDBRANCH  36  59
ENDBRANCH  10  11
ENDBRANCH   3   5
ENDBRANCH   2   3
ENDBRANCH   1   2
BRANCH   1  70
ATOM     70  C   UNL A   1      35.759  21.019  25.449  1.00  0.00     0.274 C 
BRANCH  70  71
ATOM     71  O   UNL A   1      35.453  21.947  24.383  1.00  0.00    -0.461 OA
BRANCH  71  72
ATOM     72  C   UNL A   1      34.783  23.080  24.734  1.00  0.00     0.328 C 
ATOM     73  O   UNL A   1      35.267  24.198  24.575  1.00  0.00    -0.250 OA
BRANCH  72  74
ATOM     74  C   UNL A   1      33.373  22.835  25.382  1.00  0.00     0.192 C 
ATOM     75  C   UNL A   1      33.335  23.576  26.725  1.00  0.00     0.037 C 
ATOM     76  N   UNL A   1      32.291  21.357  25.396  1.00  0.00    -0.353 N 
ATOM     77  C   UNL A   1      32.028  24.321  26.875  1.00  0.00     0.005 C 
ATOM     78  C   UNL A   1      30.846  22.410  25.593  1.00  0.00     0.118 C 
ATOM     79  C   UNL A   1      30.862  23.378  26.780  1.00  0.00     0.022 C 
BRANCH  76  80
ATOM     80  C   UNL A   1      32.522  19.425  24.908  1.00  0.00     0.116 A 
ATOM     81  C   UNL A   1      32.848  18.245  25.913  1.00  0.00     0.033 A 
ATOM     82  C   UNL A   1      32.578  18.640  23.497  1.00  0.00     0.292 A 
ATOM     83  C   UNL A   1      33.179  16.889  25.661  1.00  0.00     0.003 A 
ATOM     84  C   UNL A   1      32.936  17.244  23.341  1.00  0.00     0.088 A 
ATOM     85  C   UNL A   1      33.241  16.398  24.387  1.00  0.00     0.007 A 
BRANCH  82  86
ATOM     86  N   UNL A   1      32.185  19.034  22.101  1.00  0.00     0.064 N 
ATOM     87  O   UNL A   1      32.236  18.164  21.216  1.00  0.00    -0.258 OA
ATOM     88  O   UNL A   1      32.003  20.243  21.884  1.00  0.00    -0.258 OA
ENDBRANCH  82  86
ENDBRANCH  76  80
ENDBRANCH  72  74
ENDBRANCH  71  72
ENDBRANCH  70  71
ENDBRANCH   1  70
TORSDOF 16
ENDMDL
