MODEL 1
REMARK VINA RESULT:     -10.8      0.000      0.000
REMARK SMILES C#Cc1cc(Cl)c2c(c1)C=C(C(=O)OCCOC(=O)c1ccc(-c3c4nc(c(-c5cc(S(=O)(=O)[O-])ccc5F)c5ccc([nH]5)c(-c5cc(S(=O)(=O)[O-])ccc5F)c5nc(c(-c6cc(S(=O)(=O)[O-])ccc6F)c6ccc3[nH]6)C=C5)C=C4)cc1)[C@@H](C(F)(F)F)O2
REMARK SMILES IDX 16 1 15 2 14 3 12 4 13 5 11 6 3 7 4 8 9 9 5 10 8 11 6 12
REMARK SMILES IDX 7 13 10 14 88 15 83 16 2 17 1 18 84 19 85 20 86 21 87 22
REMARK SMILES IDX 17 23 18 24 19 25 20 26 21 27 82 28 22 29 81 30 23 31 24 32
REMARK SMILES IDX 25 33 75 34 26 35 80 36 74 37 76 38 27 39 79 40 73 41 72 42
REMARK SMILES IDX 28 44 60 45 40 46 59 47 41 48 44 49 58 50 77 51 42 52 43 53
REMARK SMILES IDX 57 55 78 56 45 57 29 58 30 59 38 60 31 61 37 62 39 63 36 64
REMARK SMILES IDX 32 65 33 66 34 67 35 68 61 69 62 70 70 71 63 72 69 73 71 74
REMARK SMILES IDX 68 75 64 76 65 77 66 78 67 79 46 80 47 81 55 82 48 83 54 84
REMARK SMILES IDX 56 85 53 86 49 87 50 88 51 89 52 90
REMARK H PARENT 76 43 44 54
REMARK Flexibility Score: inf
ROOT
ATOM      1  C   UNL A   1      40.971  19.744  26.158  1.00  0.00     0.275 C 
ENDROOT
BRANCH   1   2
ATOM      2  C   UNL A   1      42.442  19.713  26.576  1.00  0.00     0.275 C 
BRANCH   2   3
ATOM      3  O   UNL A   1      43.287  20.356  25.596  1.00  0.00    -0.459 OA
BRANCH   3   4
ATOM      4  C   UNL A   1      43.194  21.705  25.545  1.00  0.00     0.338 C 
ATOM      5  O   UNL A   1      42.332  22.348  24.968  1.00  0.00    -0.246 OA
BRANCH   4   6
ATOM      6  C   UNL A   1      44.299  22.341  26.289  1.00  0.00     0.087 C 
ATOM      7  C   UNL A   1      45.654  25.265  29.872  1.00  0.00     0.027 A 
ATOM      8  C   UNL A   1      46.930  25.369  29.320  1.00  0.00     0.041 A 
ATOM      9  C   UNL A   1      44.710  24.434  29.273  1.00  0.00     0.029 A 
ATOM     10  C   UNL A   1      47.255  24.640  28.169  1.00  0.00     0.084 A 
ATOM     11  C   UNL A   1      45.035  23.722  28.109  1.00  0.00     0.020 A 
ATOM     12  Cl  UNL A   1      48.846  24.811  27.515  1.00  0.00    -0.080 Cl
ATOM     13  C   UNL A   1      46.306  23.816  27.548  1.00  0.00     0.146 A 
ATOM     14  C   UNL A   1      44.016  22.929  27.455  1.00  0.00     0.027 C 
ATOM     15  O   UNL A   1      46.665  23.124  26.420  1.00  0.00    -0.474 OA
ATOM     16  C   UNL A   1      45.641  22.449  25.634  1.00  0.00     0.316 C 
BRANCH   7  17
ATOM     17  C   UNL A   1      45.292  26.018  31.033  1.00  0.00    -0.070 C 
ATOM     18  C   UNL A   1      44.950  26.653  31.994  1.00  0.00     0.010 C 
ENDBRANCH   7  17
BRANCH  16  19
ATOM     19  C   UNL A   1      45.532  23.134  24.261  1.00  0.00     0.430 C 
ATOM     20  F   UNL A   1      44.983  22.310  23.338  1.00  0.00    -0.167 F 
ATOM     21  F   UNL A   1      44.737  24.231  24.312  1.00  0.00    -0.167 F 
ATOM     22  F   UNL A   1      46.735  23.531  23.789  1.00  0.00    -0.167 F 
ENDBRANCH  16  19
ENDBRANCH   4   6
ENDBRANCH   3   4
ENDBRANCH   2   3
ENDBRANCH   1   2
BRANCH   1  23
ATOM     23  O   UNL A   1      40.207  20.605  27.023  1.00  0.00    -0.458 OA
BRANCH  23  24
ATOM     24  C   UNL A   1      39.492  21.553  26.377  1.00  0.00     0.338 C 
ATOM     25  O   UNL A   1      38.697  21.382  25.468  1.00  0.00    -0.246 OA
BRANCH  24  26
ATOM     26  C   UNL A   1      39.701  22.868  26.993  1.00  0.00     0.060 A 
ATOM     27  C   UNL A   1      39.178  23.974  26.340  1.00  0.00     0.016 A 
ATOM     28  C   UNL A   1      40.606  23.038  28.036  1.00  0.00     0.016 A 
ATOM     29  C   UNL A   1      39.711  25.233  26.572  1.00  0.00     0.010 A 
ATOM     30  C   UNL A   1      40.996  24.334  28.397  1.00  0.00     0.010 A 
ATOM     31  C   UNL A   1      40.601  25.447  27.631  1.00  0.00    -0.014 A 
BRANCH  31  32
ATOM     32  C   UNL A   1      41.111  26.821  27.912  1.00  0.00     0.031 A 
ATOM     33  C   UNL A   1      42.521  27.206  27.530  1.00  0.00     0.074 A 
ATOM     34  C   UNL A   1      40.302  27.739  28.487  1.00  0.00     0.049 A 
ATOM     35  N   UNL A   1      43.200  28.274  27.860  1.00  0.00    -0.248 NA
ATOM     36  C   UNL A   1      43.270  26.266  26.678  1.00  0.00     0.031 C 
ATOM     37  C   UNL A   1      38.895  27.527  28.845  1.00  0.00     0.029 A 
ATOM     38  N   UNL A   1      40.533  29.041  28.858  1.00  0.00    -0.354 N 
ATOM     39  C   UNL A   1      44.463  28.115  27.298  1.00  0.00     0.074 A 
ATOM     40  C   UNL A   1      44.467  26.837  26.622  1.00  0.00     0.031 C 
ATOM     41  C   UNL A   1      38.377  28.668  29.318  1.00  0.00     0.029 A 
ATOM     42  C   UNL A   1      39.440  29.654  29.429  1.00  0.00     0.049 A 
ATOM     43  H   UNL A   1      41.397  29.493  28.728  1.00  0.00     0.167 HD
ATOM     44  C   UNL A   1      45.518  28.964  27.339  1.00  0.00     0.034 A 
ATOM     45  C   UNL A   1      39.310  30.851  30.036  1.00  0.00     0.034 A 
ATOM     46  C   UNL A   1      45.482  30.257  27.976  1.00  0.00     0.049 A 
ATOM     47  C   UNL A   1      40.523  31.729  30.155  1.00  0.00     0.074 A 
ATOM     48  C   UNL A   1      46.496  31.193  28.072  1.00  0.00     0.029 A 
ATOM     49  N   UNL A   1      44.374  30.802  28.610  1.00  0.00    -0.354 N 
ATOM     50  N   UNL A   1      41.732  31.525  29.688  1.00  0.00    -0.248 NA
ATOM     51  C   UNL A   1      40.363  32.986  30.895  1.00  0.00     0.031 C 
ATOM     52  C   UNL A   1      46.024  32.273  28.821  1.00  0.00     0.029 A 
ATOM     53  C   UNL A   1      44.692  32.048  29.124  1.00  0.00     0.049 A 
ATOM     54  H   UNL A   1      43.494  30.367  28.682  1.00  0.00     0.167 HD
ATOM     55  C   UNL A   1      42.472  32.641  30.062  1.00  0.00     0.074 A 
ATOM     56  C   UNL A   1      41.570  33.520  30.778  1.00  0.00     0.031 C 
ATOM     57  C   UNL A   1      43.780  32.911  29.835  1.00  0.00     0.034 A 
BRANCH  44  58
ATOM     58  C   UNL A   1      46.815  28.529  26.707  1.00  0.00     0.023 A 
ATOM     59  C   UNL A   1      46.942  28.357  25.320  1.00  0.00     0.031 A 
ATOM     60  C   UNL A   1      47.963  28.359  27.503  1.00  0.00     0.131 A 
ATOM     61  C   UNL A   1      48.185  28.007  24.771  1.00  0.00     0.055 A 
ATOM     62  C   UNL A   1      49.208  28.068  26.947  1.00  0.00     0.041 A 
ATOM     63  F   UNL A   1      47.894  28.499  28.837  1.00  0.00    -0.206 F 
ATOM     64  C   UNL A   1      49.324  27.887  25.572  1.00  0.00     0.022 A 
BRANCH  61  65
ATOM     65  S   UNL A   1      48.285  27.659  22.995  1.00  0.00     0.124 S 
ATOM     66  O   UNL A   1      47.095  28.342  22.494  1.00  0.00    -0.237 OA
ATOM     67  O   UNL A   1      49.565  28.251  22.627  1.00  0.00    -0.237 OA
ATOM     68  O   UNL A   1      48.232  26.199  22.929  1.00  0.00    -0.744 OA
ENDBRANCH  61  65
ENDBRANCH  44  58
BRANCH  45  69
ATOM     69  C   UNL A   1      38.005  31.254  30.633  1.00  0.00     0.023 A 
ATOM     70  C   UNL A   1      37.046  31.938  29.870  1.00  0.00     0.031 A 
ATOM     71  C   UNL A   1      37.698  30.976  31.979  1.00  0.00     0.131 A 
ATOM     72  C   UNL A   1      35.842  32.344  30.462  1.00  0.00     0.055 A 
ATOM     73  C   UNL A   1      36.474  31.331  32.548  1.00  0.00     0.041 A 
ATOM     74  F   UNL A   1      38.578  30.324  32.757  1.00  0.00    -0.206 F 
ATOM     75  C   UNL A   1      35.540  32.030  31.790  1.00  0.00     0.022 A 
BRANCH  72  76
ATOM     76  S   UNL A   1      34.692  33.348  29.484  1.00  0.00     0.124 S 
ATOM     77  O   UNL A   1      35.609  34.195  28.730  1.00  0.00    -0.237 OA
ATOM     78  O   UNL A   1      33.977  32.334  28.719  1.00  0.00    -0.237 OA
ATOM     79  O   UNL A   1      33.897  34.038  30.498  1.00  0.00    -0.744 OA
ENDBRANCH  72  76
ENDBRANCH  45  69
BRANCH  57  80
ATOM     80  C   UNL A   1      44.313  34.227  30.333  1.00  0.00     0.023 A 
ATOM     81  C   UNL A   1      44.188  35.400  29.572  1.00  0.00     0.031 A 
ATOM     82  C   UNL A   1      44.903  34.315  31.606  1.00  0.00     0.131 A 
ATOM     83  C   UNL A   1      44.675  36.611  30.081  1.00  0.00     0.055 A 
ATOM     84  C   UNL A   1      45.336  35.532  32.128  1.00  0.00     0.041 A 
ATOM     85  F   UNL A   1      45.042  33.221  32.372  1.00  0.00    -0.206 F 
ATOM     86  C   UNL A   1      45.228  36.690  31.362  1.00  0.00     0.022 A 
BRANCH  83  87
ATOM     87  S   UNL A   1      44.612  38.082  29.024  1.00  0.00     0.124 S 
ATOM     88  O   UNL A   1      43.573  38.876  29.674  1.00  0.00    -0.237 OA
ATOM     89  O   UNL A   1      45.970  38.605  29.127  1.00  0.00    -0.237 OA
ATOM     90  O   UNL A   1      44.253  37.547  27.712  1.00  0.00    -0.744 OA
ENDBRANCH  83  87
ENDBRANCH  57  80
ENDBRANCH  31  32
ENDBRANCH  24  26
ENDBRANCH  23  24
ENDBRANCH   1  23
TORSDOF 16
ENDMDL
MODEL 2
REMARK VINA RESULT:     -10.5      4.691     10.228
REMARK SMILES C#Cc1cc(Cl)c2c(c1)C=C(C(=O)OCCOC(=O)c1ccc(-c3c4nc(c(-c5cc(S(=O)(=O)[O-])ccc5F)c5ccc([nH]5)c(-c5cc(S(=O)(=O)[O-])ccc5F)c5nc(c(-c6cc(S(=O)(=O)[O-])ccc6F)c6ccc3[nH]6)C=C5)C=C4)cc1)[C@@H](C(F)(F)F)O2
REMARK SMILES IDX 16 1 15 2 14 3 12 4 13 5 11 6 3 7 4 8 9 9 5 10 8 11 6 12
REMARK SMILES IDX 7 13 10 14 88 15 83 16 2 17 1 18 84 19 85 20 86 21 87 22
REMARK SMILES IDX 17 23 18 24 19 25 20 26 21 27 82 28 22 29 81 30 23 31 24 32
REMARK SMILES IDX 25 33 75 34 26 35 80 36 74 37 76 38 27 39 79 40 73 41 72 42
REMARK SMILES IDX 28 44 60 45 40 46 59 47 41 48 44 49 58 50 77 51 42 52 43 53
REMARK SMILES IDX 57 55 78 56 45 57 29 58 30 59 38 60 31 61 37 62 39 63 36 64
REMARK SMILES IDX 32 65 33 66 34 67 35 68 61 69 62 70 70 71 63 72 69 73 71 74
REMARK SMILES IDX 68 75 64 76 65 77 66 78 67 79 46 80 47 81 55 82 48 83 54 84
REMARK SMILES IDX 56 85 53 86 49 87 50 88 51 89 52 90
REMARK H PARENT 76 43 44 54
REMARK Flexibility Score: inf
ROOT
ATOM      1  C   UNL A   1      36.170  21.025  25.243  1.00  0.00     0.275 C 
ENDROOT
BRANCH   1   2
ATOM      2  C   UNL A   1      34.898  21.874  25.213  1.00  0.00     0.275 C 
BRANCH   2   3
ATOM      3  O   UNL A   1      35.172  23.230  24.798  1.00  0.00    -0.459 OA
BRANCH   3   4
ATOM      4  C   UNL A   1      34.801  23.536  23.533  1.00  0.00     0.338 C 
ATOM      5  O   UNL A   1      35.176  22.977  22.515  1.00  0.00    -0.246 OA
BRANCH   4   6
ATOM      6  C   UNL A   1      33.858  24.672  23.517  1.00  0.00     0.087 C 
ATOM      7  C   UNL A   1      32.438  28.825  25.506  1.00  0.00     0.027 A 
ATOM      8  C   UNL A   1      31.215  28.738  24.843  1.00  0.00     0.041 A 
ATOM      9  C   UNL A   1      33.412  27.855  25.284  1.00  0.00     0.029 A 
ATOM     10  C   UNL A   1      30.972  27.678  23.960  1.00  0.00     0.084 A 
ATOM     11  C   UNL A   1      33.156  26.784  24.415  1.00  0.00     0.020 A 
ATOM     12  Cl  UNL A   1      29.437  27.607  23.169  1.00  0.00    -0.080 Cl
ATOM     13  C   UNL A   1      31.939  26.686  23.744  1.00  0.00     0.146 A 
ATOM     14  C   UNL A   1      34.150  25.743  24.260  1.00  0.00     0.027 C 
ATOM     15  O   UNL A   1      31.659  25.664  22.875  1.00  0.00    -0.474 OA
ATOM     16  C   UNL A   1      32.546  24.510  22.812  1.00  0.00     0.316 C 
BRANCH   7  17
ATOM     17  C   UNL A   1      32.699  29.886  26.429  1.00  0.00    -0.070 C 
ATOM     18  C   UNL A   1      32.877  30.785  27.207  1.00  0.00     0.010 C 
ENDBRANCH   7  17
BRANCH  16  19
ATOM     19  C   UNL A   1      31.794  23.270  23.323  1.00  0.00     0.430 C 
ATOM     20  F   UNL A   1      31.957  23.106  24.656  1.00  0.00    -0.167 F 
ATOM     21  F   UNL A   1      30.458  23.375  23.113  1.00  0.00    -0.167 F 
ATOM     22  F   UNL A   1      32.207  22.134  22.718  1.00  0.00    -0.167 F 
ENDBRANCH  16  19
ENDBRANCH   4   6
ENDBRANCH   3   4
ENDBRANCH   2   3
ENDBRANCH   1   2
BRANCH   1  23
ATOM     23  O   UNL A   1      37.337  21.837  25.015  1.00  0.00    -0.458 OA
BRANCH  23  24
ATOM     24  C   UNL A   1      38.442  21.422  25.672  1.00  0.00     0.338 C 
ATOM     25  O   UNL A   1      38.986  20.332  25.583  1.00  0.00    -0.246 OA
BRANCH  24  26
ATOM     26  C   UNL A   1      39.016  22.516  26.463  1.00  0.00     0.060 A 
ATOM     27  C   UNL A   1      38.545  23.798  26.224  1.00  0.00     0.016 A 
ATOM     28  C   UNL A   1      40.164  22.327  27.225  1.00  0.00     0.016 A 
ATOM     29  C   UNL A   1      39.325  24.897  26.553  1.00  0.00     0.010 A 
ATOM     30  C   UNL A   1      40.846  23.446  27.722  1.00  0.00     0.010 A 
ATOM     31  C   UNL A   1      40.470  24.748  27.343  1.00  0.00    -0.014 A 
BRANCH  31  32
ATOM     32  C   UNL A   1      41.259  25.948  27.748  1.00  0.00     0.031 A 
ATOM     33  C   UNL A   1      40.633  27.019  28.609  1.00  0.00     0.074 A 
ATOM     34  C   UNL A   1      42.551  26.068  27.369  1.00  0.00     0.049 A 
ATOM     35  N   UNL A   1      41.088  28.210  28.901  1.00  0.00    -0.248 NA
ATOM     36  C   UNL A   1      39.320  26.722  29.209  1.00  0.00     0.031 C 
ATOM     37  C   UNL A   1      43.307  25.076  26.596  1.00  0.00     0.029 A 
ATOM     38  N   UNL A   1      43.470  27.064  27.594  1.00  0.00    -0.354 N 
ATOM     39  C   UNL A   1      40.104  28.818  29.676  1.00  0.00     0.074 A 
ATOM     40  C   UNL A   1      39.016  27.873  29.794  1.00  0.00     0.031 C 
ATOM     41  C   UNL A   1      44.577  25.481  26.469  1.00  0.00     0.029 A 
ATOM     42  C   UNL A   1      44.701  26.818  27.027  1.00  0.00     0.049 A 
ATOM     43  H   UNL A   1      43.268  27.877  28.111  1.00  0.00     0.167 HD
ATOM     44  C   UNL A   1      40.117  30.048  30.242  1.00  0.00     0.034 A 
ATOM     45  C   UNL A   1      45.794  27.597  26.906  1.00  0.00     0.034 A 
ATOM     46  C   UNL A   1      41.231  30.959  30.157  1.00  0.00     0.049 A 
ATOM     47  C   UNL A   1      45.743  28.993  27.456  1.00  0.00     0.074 A 
ATOM     48  C   UNL A   1      41.344  32.228  30.696  1.00  0.00     0.029 A 
ATOM     49  N   UNL A   1      42.428  30.694  29.505  1.00  0.00    -0.354 N 
ATOM     50  N   UNL A   1      44.772  29.580  28.116  1.00  0.00    -0.248 NA
ATOM     51  C   UNL A   1      46.920  29.840  27.232  1.00  0.00     0.031 C 
ATOM     52  C   UNL A   1      42.578  32.757  30.313  1.00  0.00     0.029 A 
ATOM     53  C   UNL A   1      43.270  31.789  29.604  1.00  0.00     0.049 A 
ATOM     54  H   UNL A   1      42.644  29.854  29.041  1.00  0.00     0.167 HD
ATOM     55  C   UNL A   1      45.232  30.860  28.404  1.00  0.00     0.074 A 
ATOM     56  C   UNL A   1      46.572  30.954  27.860  1.00  0.00     0.031 C 
ATOM     57  C   UNL A   1      44.602  31.866  29.057  1.00  0.00     0.034 A 
BRANCH  44  58
ATOM     58  C   UNL A   1      38.889  30.509  30.985  1.00  0.00     0.023 A 
ATOM     59  C   UNL A   1      37.888  31.269  30.359  1.00  0.00     0.031 A 
ATOM     60  C   UNL A   1      38.684  30.114  32.320  1.00  0.00     0.131 A 
ATOM     61  C   UNL A   1      36.734  31.626  31.075  1.00  0.00     0.055 A 
ATOM     62  C   UNL A   1      37.511  30.423  33.007  1.00  0.00     0.041 A 
ATOM     63  F   UNL A   1      39.617  29.399  32.969  1.00  0.00    -0.206 F 
ATOM     64  C   UNL A   1      36.528  31.187  32.386  1.00  0.00     0.022 A 
BRANCH  61  65
ATOM     65  S   UNL A   1      35.524  32.720  30.284  1.00  0.00     0.124 S 
ATOM     66  O   UNL A   1      34.343  32.502  31.115  1.00  0.00    -0.237 OA
ATOM     67  O   UNL A   1      36.156  34.029  30.403  1.00  0.00    -0.237 OA
ATOM     68  O   UNL A   1      35.428  32.196  28.923  1.00  0.00    -0.744 OA
ENDBRANCH  61  65
ENDBRANCH  44  58
BRANCH  45  69
ATOM     69  C   UNL A   1      46.997  27.098  26.180  1.00  0.00     0.023 A 
ATOM     70  C   UNL A   1      48.038  26.459  26.870  1.00  0.00     0.031 A 
ATOM     71  C   UNL A   1      47.133  27.264  24.788  1.00  0.00     0.131 A 
ATOM     72  C   UNL A   1      49.180  26.034  26.175  1.00  0.00     0.055 A 
ATOM     73  C   UNL A   1      48.245  26.787  24.092  1.00  0.00     0.041 A 
ATOM     74  F   UNL A   1      46.168  27.868  24.077  1.00  0.00    -0.206 F 
ATOM     75  C   UNL A   1      49.283  26.176  24.788  1.00  0.00     0.022 A 
BRANCH  72  76
ATOM     76  S   UNL A   1      50.563  25.343  27.121  1.00  0.00     0.124 S 
ATOM     77  O   UNL A   1      50.933  26.471  27.968  1.00  0.00    -0.237 OA
ATOM     78  O   UNL A   1      49.935  24.212  27.795  1.00  0.00    -0.237 OA
ATOM     79  O   UNL A   1      51.537  24.990  26.091  1.00  0.00    -0.744 OA
ENDBRANCH  72  76
ENDBRANCH  45  69
BRANCH  57  80
ATOM     80  C   UNL A   1      45.364  33.148  29.254  1.00  0.00     0.023 A 
ATOM     81  C   UNL A   1      45.253  34.210  28.343  1.00  0.00     0.031 A 
ATOM     82  C   UNL A   1      46.166  33.326  30.395  1.00  0.00     0.131 A 
ATOM     83  C   UNL A   1      45.960  35.398  28.574  1.00  0.00     0.055 A 
ATOM     84  C   UNL A   1      46.822  34.529  30.646  1.00  0.00     0.041 A 
ATOM     85  F   UNL A   1      46.301  32.340  31.296  1.00  0.00    -0.206 F 
ATOM     86  C   UNL A   1      46.726  35.573  29.730  1.00  0.00     0.022 A 
BRANCH  83  87
ATOM     87  S   UNL A   1      45.895  36.703  27.317  1.00  0.00     0.124 S 
ATOM     88  O   UNL A   1      46.602  37.794  27.980  1.00  0.00    -0.237 OA
ATOM     89  O   UNL A   1      46.585  36.089  26.189  1.00  0.00    -0.237 OA
ATOM     90  O   UNL A   1      44.463  36.920  27.123  1.00  0.00    -0.744 OA
ENDBRANCH  83  87
ENDBRANCH  57  80
ENDBRANCH  31  32
ENDBRANCH  24  26
ENDBRANCH  23  24
ENDBRANCH   1  23
TORSDOF 16
ENDMDL
MODEL 3
REMARK VINA RESULT:     -10.4      5.851      9.609
REMARK SMILES C#Cc1cc(Cl)c2c(c1)C=C(C(=O)OCCOC(=O)c1ccc(-c3c4nc(c(-c5cc(S(=O)(=O)[O-])ccc5F)c5ccc([nH]5)c(-c5cc(S(=O)(=O)[O-])ccc5F)c5nc(c(-c6cc(S(=O)(=O)[O-])ccc6F)c6ccc3[nH]6)C=C5)C=C4)cc1)[C@@H](C(F)(F)F)O2
REMARK SMILES IDX 16 1 15 2 14 3 12 4 13 5 11 6 3 7 4 8 9 9 5 10 8 11 6 12
REMARK SMILES IDX 7 13 10 14 88 15 83 16 2 17 1 18 84 19 85 20 86 21 87 22
REMARK SMILES IDX 17 23 18 24 19 25 20 26 21 27 82 28 22 29 81 30 23 31 24 32
REMARK SMILES IDX 25 33 75 34 26 35 80 36 74 37 76 38 27 39 79 40 73 41 72 42
REMARK SMILES IDX 28 44 60 45 40 46 59 47 41 48 44 49 58 50 77 51 42 52 43 53
REMARK SMILES IDX 57 55 78 56 45 57 29 58 30 59 38 60 31 61 37 62 39 63 36 64
REMARK SMILES IDX 32 65 33 66 34 67 35 68 61 69 62 70 70 71 63 72 69 73 71 74
REMARK SMILES IDX 68 75 64 76 65 77 66 78 67 79 46 80 47 81 55 82 48 83 54 84
REMARK SMILES IDX 56 85 53 86 49 87 50 88 51 89 52 90
REMARK H PARENT 76 43 44 54
REMARK Flexibility Score: inf
ROOT
ATOM      1  C   UNL A   1      31.755  30.141  25.751  1.00  0.00     0.275 C 
ENDROOT
BRANCH   1   2
ATOM      2  C   UNL A   1      32.645  29.400  24.751  1.00  0.00     0.275 C 
BRANCH   2   3
ATOM      3  O   UNL A   1      32.570  27.968  24.932  1.00  0.00    -0.459 OA
BRANCH   3   4
ATOM      4  C   UNL A   1      33.434  27.244  24.183  1.00  0.00     0.338 C 
ATOM      5  O   UNL A   1      34.181  27.677  23.320  1.00  0.00    -0.246 OA
BRANCH   4   6
ATOM      6  C   UNL A   1      33.369  25.811  24.535  1.00  0.00     0.087 C 
ATOM      7  C   UNL A   1      35.684  21.609  24.982  1.00  0.00     0.027 A 
ATOM      8  C   UNL A   1      34.468  20.929  25.013  1.00  0.00     0.041 A 
ATOM      9  C   UNL A   1      35.693  23.001  24.913  1.00  0.00     0.029 A 
ATOM     10  C   UNL A   1      33.265  21.646  24.974  1.00  0.00     0.084 A 
ATOM     11  C   UNL A   1      34.486  23.712  24.854  1.00  0.00     0.020 A 
ATOM     12  Cl  UNL A   1      31.782  20.757  25.004  1.00  0.00    -0.080 Cl
ATOM     13  C   UNL A   1      33.264  23.045  24.886  1.00  0.00     0.146 A 
ATOM     14  C   UNL A   1      34.518  25.150  24.700  1.00  0.00     0.027 C 
ATOM     15  O   UNL A   1      32.064  23.706  24.846  1.00  0.00    -0.474 OA
ATOM     16  C   UNL A   1      32.036  25.127  24.525  1.00  0.00     0.316 C 
BRANCH   7  17
ATOM     17  C   UNL A   1      36.925  20.897  24.997  1.00  0.00    -0.070 C 
ATOM     18  C   UNL A   1      37.950  20.271  24.984  1.00  0.00     0.010 C 
ENDBRANCH   7  17
BRANCH  16  19
ATOM     19  C   UNL A   1      31.326  25.321  23.175  1.00  0.00     0.430 C 
ATOM     20  F   UNL A   1      32.200  25.274  22.143  1.00  0.00    -0.167 F 
ATOM     21  F   UNL A   1      30.414  24.344  22.945  1.00  0.00    -0.167 F 
ATOM     22  F   UNL A   1      30.674  26.504  23.104  1.00  0.00    -0.167 F 
ENDBRANCH  16  19
ENDBRANCH   4   6
ENDBRANCH   3   4
ENDBRANCH   2   3
ENDBRANCH   1   2
BRANCH   1  23
ATOM     23  O   UNL A   1      32.391  30.228  27.041  1.00  0.00    -0.458 OA
BRANCH  23  24
ATOM     24  C   UNL A   1      33.069  31.378  27.251  1.00  0.00     0.338 C 
ATOM     25  O   UNL A   1      32.616  32.511  27.251  1.00  0.00    -0.246 OA
BRANCH  24  26
ATOM     26  C   UNL A   1      34.464  31.097  27.610  1.00  0.00     0.060 A 
ATOM     27  C   UNL A   1      34.804  29.781  27.888  1.00  0.00     0.016 A 
ATOM     28  C   UNL A   1      35.347  32.125  27.922  1.00  0.00     0.016 A 
ATOM     29  C   UNL A   1      35.917  29.503  28.668  1.00  0.00     0.010 A 
ATOM     30  C   UNL A   1      36.566  31.816  28.539  1.00  0.00     0.010 A 
ATOM     31  C   UNL A   1      36.842  30.506  28.976  1.00  0.00    -0.014 A 
BRANCH  31  32
ATOM     32  C   UNL A   1      38.071  30.175  29.755  1.00  0.00     0.031 A 
ATOM     33  C   UNL A   1      39.135  29.283  29.161  1.00  0.00     0.074 A 
ATOM     34  C   UNL A   1      38.252  30.698  30.988  1.00  0.00     0.049 A 
ATOM     35  N   UNL A   1      40.167  28.733  29.746  1.00  0.00    -0.248 NA
ATOM     36  C   UNL A   1      39.018  28.954  27.729  1.00  0.00     0.031 C 
ATOM     37  C   UNL A   1      37.340  31.633  31.659  1.00  0.00     0.029 A 
ATOM     38  N   UNL A   1      39.269  30.538  31.897  1.00  0.00    -0.354 N 
ATOM     39  C   UNL A   1      40.794  27.961  28.772  1.00  0.00     0.074 A 
ATOM     40  C   UNL A   1      40.016  28.095  27.561  1.00  0.00     0.031 C 
ATOM     41  C   UNL A   1      37.867  32.008  32.831  1.00  0.00     0.029 A 
ATOM     42  C   UNL A   1      39.082  31.243  33.066  1.00  0.00     0.049 A 
ATOM     43  H   UNL A   1      40.057  29.973  31.730  1.00  0.00     0.167 HD
ATOM     44  C   UNL A   1      41.921  27.217  28.881  1.00  0.00     0.034 A 
ATOM     45  C   UNL A   1      39.767  31.237  34.226  1.00  0.00     0.034 A 
ATOM     46  C   UNL A   1      42.713  27.133  30.083  1.00  0.00     0.049 A 
ATOM     47  C   UNL A   1      40.954  30.325  34.351  1.00  0.00     0.074 A 
ATOM     48  C   UNL A   1      43.872  26.408  30.296  1.00  0.00     0.029 A 
ATOM     49  N   UNL A   1      42.439  27.806  31.265  1.00  0.00    -0.354 N 
ATOM     50  N   UNL A   1      41.485  29.540  33.444  1.00  0.00    -0.248 NA
ATOM     51  C   UNL A   1      41.624  30.282  35.656  1.00  0.00     0.031 C 
ATOM     52  C   UNL A   1      44.261  26.587  31.625  1.00  0.00     0.029 A 
ATOM     53  C   UNL A   1      43.392  27.487  32.219  1.00  0.00     0.049 A 
ATOM     54  H   UNL A   1      41.682  28.418  31.405  1.00  0.00     0.167 HD
ATOM     55  C   UNL A   1      42.565  28.924  34.065  1.00  0.00     0.074 A 
ATOM     56  C   UNL A   1      42.620  29.441  35.418  1.00  0.00     0.031 C 
ATOM     57  C   UNL A   1      43.432  28.012  33.562  1.00  0.00     0.034 A 
BRANCH  44  58
ATOM     58  C   UNL A   1      42.364  26.406  27.691  1.00  0.00     0.023 A 
ATOM     59  C   UNL A   1      41.993  25.061  27.531  1.00  0.00     0.031 A 
ATOM     60  C   UNL A   1      43.107  27.015  26.662  1.00  0.00     0.131 A 
ATOM     61  C   UNL A   1      42.381  24.363  26.376  1.00  0.00     0.055 A 
ATOM     62  C   UNL A   1      43.440  26.333  25.491  1.00  0.00     0.041 A 
ATOM     63  F   UNL A   1      43.499  28.295  26.770  1.00  0.00    -0.206 F 
ATOM     64  C   UNL A   1      43.079  24.997  25.345  1.00  0.00     0.022 A 
BRANCH  61  65
ATOM     65  S   UNL A   1      42.004  22.594  26.262  1.00  0.00     0.124 S 
ATOM     66  O   UNL A   1      40.544  22.604  26.262  1.00  0.00    -0.237 OA
ATOM     67  O   UNL A   1      42.641  22.215  25.007  1.00  0.00    -0.237 OA
ATOM     68  O   UNL A   1      42.618  22.036  27.466  1.00  0.00    -0.744 OA
ENDBRANCH  61  65
ENDBRANCH  44  58
BRANCH  45  69
ATOM     69  C   UNL A   1      39.307  32.067  35.376  1.00  0.00     0.023 A 
ATOM     70  C   UNL A   1      39.732  33.397  35.517  1.00  0.00     0.031 A 
ATOM     71  C   UNL A   1      38.448  31.542  36.361  1.00  0.00     0.131 A 
ATOM     72  C   UNL A   1      39.321  34.148  36.628  1.00  0.00     0.055 A 
ATOM     73  C   UNL A   1      37.996  32.312  37.433  1.00  0.00     0.041 A 
ATOM     74  F   UNL A   1      38.010  30.276  36.276  1.00  0.00    -0.206 F 
ATOM     75  C   UNL A   1      38.441  33.622  37.577  1.00  0.00     0.022 A 
BRANCH  72  76
ATOM     76  S   UNL A   1      40.005  35.812  36.848  1.00  0.00     0.124 S 
ATOM     77  O   UNL A   1      39.649  36.447  35.585  1.00  0.00    -0.237 OA
ATOM     78  O   UNL A   1      39.289  36.282  38.029  1.00  0.00    -0.237 OA
ATOM     79  O   UNL A   1      41.433  35.569  37.044  1.00  0.00    -0.744 OA
ENDBRANCH  72  76
ENDBRANCH  45  69
BRANCH  57  80
ATOM     80  C   UNL A   1      44.539  27.537  34.463  1.00  0.00     0.023 A 
ATOM     81  C   UNL A   1      44.428  26.337  35.184  1.00  0.00     0.031 A 
ATOM     82  C   UNL A   1      45.736  28.268  34.559  1.00  0.00     0.131 A 
ATOM     83  C   UNL A   1      45.491  25.916  35.994  1.00  0.00     0.055 A 
ATOM     84  C   UNL A   1      46.809  27.815  35.323  1.00  0.00     0.041 A 
ATOM     85  F   UNL A   1      45.889  29.420  33.887  1.00  0.00    -0.206 F 
ATOM     86  C   UNL A   1      46.688  26.635  36.052  1.00  0.00     0.022 A 
BRANCH  83  87
ATOM     87  S   UNL A   1      45.271  24.429  37.007  1.00  0.00     0.124 S 
ATOM     88  O   UNL A   1      44.753  24.988  38.253  1.00  0.00    -0.237 OA
ATOM     89  O   UNL A   1      44.325  23.647  36.219  1.00  0.00    -0.237 OA
ATOM     90  O   UNL A   1      46.618  23.870  37.092  1.00  0.00    -0.744 OA
ENDBRANCH  83  87
ENDBRANCH  57  80
ENDBRANCH  31  32
ENDBRANCH  24  26
ENDBRANCH  23  24
ENDBRANCH   1  23
TORSDOF 16
ENDMDL
