MODEL 1
REMARK VINA RESULT:     -10.8      0.000      0.000
REMARK SMILES C[C@@H]1[C@@H](C(=O)OCCOC(=O)c2ccc(-c3c4nc(c(-c5cc(S(=O)(=O)[O-])ccc5F)c5ccc([nH]5)c(-c5cc(S(=O)(=O)[O-])ccc5F)c5nc(c(-c6cc(S(=O)(=O)[O-])ccc6F)c6ccc3[nH]6)C=C5)C=C4)cc2)CC[N@@H+]1CC(=O)N(C)C1CC1
REMARK SMILES IDX 7 1 6 2 4 3 5 4 3 5 1 6 2 7 77 8 75 9 76 10 78 12 79 13
REMARK SMILES IDX 80 14 81 15 82 16 83 17 84 18 85 19 8 20 9 21 10 22 11 23
REMARK SMILES IDX 12 24 13 25 74 26 14 27 73 28 15 29 16 30 17 31 67 32 18 33
REMARK SMILES IDX 72 34 66 35 68 36 19 37 71 38 65 39 64 40 20 42 52 43 32 44
REMARK SMILES IDX 51 45 33 46 36 47 50 48 69 49 34 50 35 51 49 53 70 54 37 55
REMARK SMILES IDX 21 56 22 57 30 58 23 59 29 60 31 61 28 62 24 63 25 64 26 65
REMARK SMILES IDX 27 66 53 67 54 68 62 69 55 70 61 71 63 72 60 73 56 74 57 75
REMARK SMILES IDX 58 76 59 77 38 78 39 79 47 80 40 81 46 82 48 83 45 84 41 85
REMARK SMILES IDX 42 86 43 87 44 88
REMARK H PARENT 77 11 68 41 36 52
REMARK Flexibility Score: inf
ROOT
ATOM      1  C   UNL A   1      35.075  22.014  25.481  1.00  0.00     0.274 C 
ENDROOT
BRANCH   1   2
ATOM      2  O   UNL A   1      34.278  22.043  24.282  1.00  0.00    -0.462 OA
BRANCH   2   3
ATOM      3  C   UNL A   1      34.458  23.110  23.452  1.00  0.00     0.315 C 
ATOM      4  O   UNL A   1      35.531  23.655  23.240  1.00  0.00    -0.252 OA
BRANCH   3   5
ATOM      5  C   UNL A   1      33.133  23.511  22.832  1.00  0.00     0.162 C 
ATOM      6  C   UNL A   1      32.831  25.177  20.979  1.00  0.00     0.076 C 
ATOM      7  C   UNL A   1      33.118  25.001  22.467  1.00  0.00     0.195 C 
ATOM      8  N   UNL A   1      32.183  25.621  23.391  1.00  0.00    -0.324 N 
ATOM      9  C   UNL A   1      31.971  23.318  23.794  1.00  0.00     0.083 C 
ATOM     10  C   UNL A   1      31.727  24.690  24.400  1.00  0.00     0.264 C 
ATOM     11  H   UNL A   1      32.768  26.321  23.847  1.00  0.00     0.348 HD
BRANCH   8  12
ATOM     12  C   UNL A   1      31.368  26.775  23.036  1.00  0.00     0.364 C 
BRANCH  12  13
ATOM     13  C   UNL A   1      32.062  28.110  23.356  1.00  0.00     0.277 C 
ATOM     14  O   UNL A   1      32.962  28.527  22.614  1.00  0.00    -0.268 OA
BRANCH  13  15
ATOM     15  N   UNL A   1      31.703  28.813  24.507  1.00  0.00    -0.338 N 
ATOM     16  C   UNL A   1      30.759  29.925  24.581  1.00  0.00     0.147 C 
BRANCH  15  17
ATOM     17  C   UNL A   1      32.380  28.478  25.742  1.00  0.00     0.085 C 
ATOM     18  C   UNL A   1      31.892  28.939  27.092  1.00  0.00     0.027 C 
ATOM     19  C   UNL A   1      31.759  27.498  26.710  1.00  0.00     0.027 C 
ENDBRANCH  15  17
ENDBRANCH  13  15
ENDBRANCH  12  13
ENDBRANCH   8  12
ENDBRANCH   3   5
ENDBRANCH   2   3
ENDBRANCH   1   2
BRANCH   1  20
ATOM     20  C   UNL A   1      36.182  20.975  25.328  1.00  0.00     0.275 C 
BRANCH  20  21
ATOM     21  O   UNL A   1      37.413  21.626  24.958  1.00  0.00    -0.458 OA
BRANCH  21  22
ATOM     22  C   UNL A   1      38.515  21.220  25.628  1.00  0.00     0.338 C 
ATOM     23  O   UNL A   1      39.004  20.101  25.643  1.00  0.00    -0.246 OA
BRANCH  22  24
ATOM     24  C   UNL A   1      39.117  22.361  26.335  1.00  0.00     0.060 A 
ATOM     25  C   UNL A   1      38.628  23.636  26.074  1.00  0.00     0.016 A 
ATOM     26  C   UNL A   1      40.254  22.200  27.122  1.00  0.00     0.016 A 
ATOM     27  C   UNL A   1      39.334  24.762  26.494  1.00  0.00     0.010 A 
ATOM     28  C   UNL A   1      40.897  23.333  27.642  1.00  0.00     0.010 A 
ATOM     29  C   UNL A   1      40.475  24.634  27.301  1.00  0.00    -0.014 A 
BRANCH  29  30
ATOM     30  C   UNL A   1      41.249  25.838  27.742  1.00  0.00     0.031 A 
ATOM     31  C   UNL A   1      40.591  26.890  28.606  1.00  0.00     0.074 A 
ATOM     32  C   UNL A   1      42.545  26.002  27.400  1.00  0.00     0.049 A 
ATOM     33  N   UNL A   1      41.001  28.098  28.904  1.00  0.00    -0.248 NA
ATOM     34  C   UNL A   1      39.294  26.536  29.200  1.00  0.00     0.031 C 
ATOM     35  C   UNL A   1      43.351  25.048  26.634  1.00  0.00     0.029 A 
ATOM     36  N   UNL A   1      43.420  27.033  27.655  1.00  0.00    -0.354 N 
ATOM     37  C   UNL A   1      39.989  28.669  29.672  1.00  0.00     0.074 A 
ATOM     38  C   UNL A   1      38.942  27.673  29.783  1.00  0.00     0.031 C 
ATOM     39  C   UNL A   1      44.602  25.516  26.521  1.00  0.00     0.029 A 
ATOM     40  C   UNL A   1      44.668  26.851  27.103  1.00  0.00     0.049 A 
ATOM     41  H   UNL A   1      43.175  27.826  28.184  1.00  0.00     0.167 HD
ATOM     42  C   UNL A   1      39.934  29.905  30.229  1.00  0.00     0.034 A 
ATOM     43  C   UNL A   1      45.730  27.678  27.017  1.00  0.00     0.034 A 
ATOM     44  C   UNL A   1      41.000  30.876  30.155  1.00  0.00     0.049 A 
ATOM     45  C   UNL A   1      45.622  29.073  27.578  1.00  0.00     0.074 A 
ATOM     46  C   UNL A   1      41.039  32.161  30.674  1.00  0.00     0.029 A 
ATOM     47  N   UNL A   1      42.225  30.668  29.534  1.00  0.00    -0.354 N 
ATOM     48  N   UNL A   1      44.617  29.635  28.206  1.00  0.00    -0.248 NA
ATOM     49  C   UNL A   1      46.786  29.951  27.395  1.00  0.00     0.031 C 
ATOM     50  C   UNL A   1      42.264  32.743  30.325  1.00  0.00     0.029 A 
ATOM     51  C   UNL A   1      43.016  31.802  29.644  1.00  0.00     0.049 A 
ATOM     52  H   UNL A   1      42.493  29.836  29.081  1.00  0.00     0.167 HD
ATOM     53  C   UNL A   1      45.036  30.928  28.507  1.00  0.00     0.074 A 
ATOM     54  C   UNL A   1      46.390  31.055  28.010  1.00  0.00     0.031 C 
ATOM     55  C   UNL A   1      44.360  31.924  29.136  1.00  0.00     0.034 A 
BRANCH  42  56
ATOM     56  C   UNL A   1      38.650  30.301  30.921  1.00  0.00     0.023 A 
ATOM     57  C   UNL A   1      37.616  30.973  30.248  1.00  0.00     0.031 A 
ATOM     58  C   UNL A   1      38.473  30.019  32.288  1.00  0.00     0.131 A 
ATOM     59  C   UNL A   1      36.484  31.401  30.959  1.00  0.00     0.055 A 
ATOM     60  C   UNL A   1      37.311  30.380  32.971  1.00  0.00     0.041 A 
ATOM     61  F   UNL A   1      39.435  29.395  32.986  1.00  0.00    -0.206 F 
ATOM     62  C   UNL A   1      36.313  31.089  32.310  1.00  0.00     0.022 A 
BRANCH  59  63
ATOM     63  S   UNL A   1      35.300  32.493  30.125  1.00  0.00     0.124 S 
ATOM     64  O   UNL A   1      34.339  32.757  31.193  1.00  0.00    -0.237 OA
ATOM     65  O   UNL A   1      36.136  33.620  29.727  1.00  0.00    -0.237 OA
ATOM     66  O   UNL A   1      34.792  31.674  29.026  1.00  0.00    -0.744 OA
ENDBRANCH  59  63
ENDBRANCH  42  56
BRANCH  43  67
ATOM     67  C   UNL A   1      46.966  27.252  26.298  1.00  0.00     0.023 A 
ATOM     68  C   UNL A   1      47.201  27.641  24.971  1.00  0.00     0.031 A 
ATOM     69  C   UNL A   1      47.903  26.400  26.912  1.00  0.00     0.131 A 
ATOM     70  C   UNL A   1      48.324  27.148  24.286  1.00  0.00     0.055 A 
ATOM     71  C   UNL A   1      49.048  25.961  26.247  1.00  0.00     0.041 A 
ATOM     72  F   UNL A   1      47.722  25.990  28.177  1.00  0.00    -0.206 F 
ATOM     73  C   UNL A   1      49.257  26.325  24.921  1.00  0.00     0.022 A 
BRANCH  70  74
ATOM     74  S   UNL A   1      48.502  27.526  22.521  1.00  0.00     0.124 S 
ATOM     75  O   UNL A   1      47.273  28.266  22.252  1.00  0.00    -0.237 OA
ATOM     76  O   UNL A   1      49.736  28.303  22.502  1.00  0.00    -0.237 OA
ATOM     77  O   UNL A   1      48.586  26.207  21.898  1.00  0.00    -0.744 OA
ENDBRANCH  70  74
ENDBRANCH  43  67
BRANCH  55  78
ATOM     78  C   UNL A   1      45.104  33.216  29.358  1.00  0.00     0.023 A 
ATOM     79  C   UNL A   1      44.974  34.305  28.478  1.00  0.00     0.031 A 
ATOM     80  C   UNL A   1      45.975  33.349  30.454  1.00  0.00     0.131 A 
ATOM     81  C   UNL A   1      45.745  35.460  28.679  1.00  0.00     0.055 A 
ATOM     82  C   UNL A   1      46.701  34.518  30.677  1.00  0.00     0.041 A 
ATOM     83  F   UNL A   1      46.137  32.338  31.324  1.00  0.00    -0.206 F 
ATOM     84  C   UNL A   1      46.597  35.579  29.780  1.00  0.00     0.022 A 
BRANCH  81  85
ATOM     85  S   UNL A   1      45.679  36.780  27.437  1.00  0.00     0.124 S 
ATOM     86  O   UNL A   1      44.429  36.484  26.744  1.00  0.00    -0.237 OA
ATOM     87  O   UNL A   1      45.681  37.985  28.261  1.00  0.00    -0.237 OA
ATOM     88  O   UNL A   1      46.890  36.570  26.647  1.00  0.00    -0.744 OA
ENDBRANCH  81  85
ENDBRANCH  55  78
ENDBRANCH  29  30
ENDBRANCH  22  24
ENDBRANCH  21  22
ENDBRANCH  20  21
ENDBRANCH   1  20
TORSDOF 18
ENDMDL
MODEL 2
REMARK VINA RESULT:     -10.8      2.243      3.971
REMARK SMILES C[C@@H]1[C@@H](C(=O)OCCOC(=O)c2ccc(-c3c4nc(c(-c5cc(S(=O)(=O)[O-])ccc5F)c5ccc([nH]5)c(-c5cc(S(=O)(=O)[O-])ccc5F)c5nc(c(-c6cc(S(=O)(=O)[O-])ccc6F)c6ccc3[nH]6)C=C5)C=C4)cc2)CC[N@@H+]1CC(=O)N(C)C1CC1
REMARK SMILES IDX 7 1 6 2 4 3 5 4 3 5 1 6 2 7 77 8 75 9 76 10 78 12 79 13
REMARK SMILES IDX 80 14 81 15 82 16 83 17 84 18 85 19 8 20 9 21 10 22 11 23
REMARK SMILES IDX 12 24 13 25 74 26 14 27 73 28 15 29 16 30 17 31 67 32 18 33
REMARK SMILES IDX 72 34 66 35 68 36 19 37 71 38 65 39 64 40 20 42 52 43 32 44
REMARK SMILES IDX 51 45 33 46 36 47 50 48 69 49 34 50 35 51 49 53 70 54 37 55
REMARK SMILES IDX 21 56 22 57 30 58 23 59 29 60 31 61 28 62 24 63 25 64 26 65
REMARK SMILES IDX 27 66 53 67 54 68 62 69 55 70 61 71 63 72 60 73 56 74 57 75
REMARK SMILES IDX 58 76 59 77 38 78 39 79 47 80 40 81 46 82 48 83 45 84 41 85
REMARK SMILES IDX 42 86 43 87 44 88
REMARK H PARENT 77 11 68 41 36 52
REMARK Flexibility Score: inf
ROOT
ATOM      1  C   UNL A   1      36.569  22.788  23.922  1.00  0.00     0.274 C 
ENDROOT
BRANCH   1   2
ATOM      2  O   UNL A   1      35.402  22.382  23.183  1.00  0.00    -0.462 OA
BRANCH   2   3
ATOM      3  C   UNL A   1      34.326  23.218  23.227  1.00  0.00     0.315 C 
ATOM      4  O   UNL A   1      34.286  24.330  22.719  1.00  0.00    -0.252 OA
BRANCH   3   5
ATOM      5  C   UNL A   1      33.193  22.562  23.992  1.00  0.00     0.162 C 
ATOM      6  C   UNL A   1      33.457  21.011  25.949  1.00  0.00     0.076 C 
ATOM      7  C   UNL A   1      33.569  21.140  24.432  1.00  0.00     0.195 C 
ATOM      8  N   UNL A   1      32.739  20.252  23.636  1.00  0.00    -0.324 N 
ATOM      9  C   UNL A   1      31.943  22.404  23.140  1.00  0.00     0.083 C 
ATOM     10  C   UNL A   1      31.989  20.973  22.630  1.00  0.00     0.264 C 
ATOM     11  H   UNL A   1      33.435  19.679  23.162  1.00  0.00     0.348 HD
BRANCH   8  12
ATOM     12  C   UNL A   1      32.259  18.967  24.128  1.00  0.00     0.364 C 
BRANCH  12  13
ATOM     13  C   UNL A   1      32.994  17.777  23.487  1.00  0.00     0.277 C 
ATOM     14  O   UNL A   1      33.065  17.692  22.253  1.00  0.00    -0.268 OA
BRANCH  13  15
ATOM     15  N   UNL A   1      33.530  16.781  24.303  1.00  0.00    -0.338 N 
ATOM     16  C   UNL A   1      34.906  16.712  24.791  1.00  0.00     0.147 C 
BRANCH  15  17
ATOM     17  C   UNL A   1      32.685  15.657  24.644  1.00  0.00     0.085 C 
ATOM     18  C   UNL A   1      33.153  14.512  25.505  1.00  0.00     0.027 C 
ATOM     19  C   UNL A   1      32.165  15.493  26.053  1.00  0.00     0.027 C 
ENDBRANCH  15  17
ENDBRANCH  13  15
ENDBRANCH  12  13
ENDBRANCH   8  12
ENDBRANCH   3   5
ENDBRANCH   2   3
ENDBRANCH   1   2
BRANCH   1  20
ATOM     20  C   UNL A   1      37.285  21.552  24.458  1.00  0.00     0.275 C 
BRANCH  20  21
ATOM     21  O   UNL A   1      37.655  21.761  25.835  1.00  0.00    -0.458 OA
BRANCH  21  22
ATOM     22  C   UNL A   1      38.969  21.612  26.117  1.00  0.00     0.338 C 
ATOM     23  O   UNL A   1      39.682  20.658  25.846  1.00  0.00    -0.246 OA
BRANCH  22  24
ATOM     24  C   UNL A   1      39.476  22.823  26.780  1.00  0.00     0.060 A 
ATOM     25  C   UNL A   1      38.995  24.058  26.363  1.00  0.00     0.016 A 
ATOM     26  C   UNL A   1      40.531  22.757  27.686  1.00  0.00     0.016 A 
ATOM     27  C   UNL A   1      39.635  25.233  26.754  1.00  0.00     0.010 A 
ATOM     28  C   UNL A   1      41.099  23.946  28.169  1.00  0.00     0.010 A 
ATOM     29  C   UNL A   1      40.691  25.202  27.678  1.00  0.00    -0.014 A 
BRANCH  29  30
ATOM     30  C   UNL A   1      41.395  26.458  28.089  1.00  0.00     0.031 A 
ATOM     31  C   UNL A   1      40.662  27.518  28.879  1.00  0.00     0.074 A 
ATOM     32  C   UNL A   1      42.695  26.665  27.784  1.00  0.00     0.049 A 
ATOM     33  N   UNL A   1      41.008  28.755  29.135  1.00  0.00    -0.248 NA
ATOM     34  C   UNL A   1      39.360  27.133  29.444  1.00  0.00     0.031 C 
ATOM     35  C   UNL A   1      43.568  25.714  27.092  1.00  0.00     0.029 A 
ATOM     36  N   UNL A   1      43.514  27.744  28.021  1.00  0.00    -0.354 N 
ATOM     37  C   UNL A   1      39.945  29.314  29.840  1.00  0.00     0.074 A 
ATOM     38  C   UNL A   1      38.939  28.278  29.962  1.00  0.00     0.031 C 
ATOM     39  C   UNL A   1      44.802  26.232  27.000  1.00  0.00     0.029 A 
ATOM     40  C   UNL A   1      44.788  27.594  27.522  1.00  0.00     0.049 A 
ATOM     41  H   UNL A   1      43.216  28.549  28.504  1.00  0.00     0.167 HD
ATOM     42  C   UNL A   1      39.816  30.571  30.337  1.00  0.00     0.034 A 
ATOM     43  C   UNL A   1      45.816  28.463  27.434  1.00  0.00     0.034 A 
ATOM     44  C   UNL A   1      40.841  31.584  30.254  1.00  0.00     0.049 A 
ATOM     45  C   UNL A   1      45.628  29.875  27.924  1.00  0.00     0.074 A 
ATOM     46  C   UNL A   1      40.806  32.891  30.714  1.00  0.00     0.029 A 
ATOM     47  N   UNL A   1      42.096  31.403  29.686  1.00  0.00    -0.354 N 
ATOM     48  N   UNL A   1      44.577  30.420  28.491  1.00  0.00    -0.248 NA
ATOM     49  C   UNL A   1      46.758  30.795  27.741  1.00  0.00     0.031 C 
ATOM     50  C   UNL A   1      42.016  33.511  30.381  1.00  0.00     0.029 A 
ATOM     51  C   UNL A   1      42.833  32.575  29.770  1.00  0.00     0.049 A 
ATOM     52  H   UNL A   1      42.415  30.565  29.281  1.00  0.00     0.167 HD
ATOM     53  C   UNL A   1      44.928  31.742  28.746  1.00  0.00     0.074 A 
ATOM     54  C   UNL A   1      46.293  31.908  28.290  1.00  0.00     0.031 C 
ATOM     55  C   UNL A   1      44.188  32.734  29.304  1.00  0.00     0.034 A 
BRANCH  42  56
ATOM     56  C   UNL A   1      38.492  30.939  30.964  1.00  0.00     0.023 A 
ATOM     57  C   UNL A   1      37.435  31.482  30.214  1.00  0.00     0.031 A 
ATOM     58  C   UNL A   1      38.298  30.764  32.347  1.00  0.00     0.131 A 
ATOM     59  C   UNL A   1      36.260  31.894  30.862  1.00  0.00     0.055 A 
ATOM     60  C   UNL A   1      37.097  31.105  32.972  1.00  0.00     0.041 A 
ATOM     61  F   UNL A   1      39.278  30.267  33.117  1.00  0.00    -0.206 F 
ATOM     62  C   UNL A   1      36.074  31.688  32.231  1.00  0.00     0.022 A 
BRANCH  59  63
ATOM     63  S   UNL A   1      35.032  32.831  29.912  1.00  0.00     0.124 S 
ATOM     64  O   UNL A   1      34.108  33.255  30.961  1.00  0.00    -0.237 OA
ATOM     65  O   UNL A   1      35.837  33.885  29.307  1.00  0.00    -0.237 OA
ATOM     66  O   UNL A   1      34.493  31.844  28.978  1.00  0.00    -0.744 OA
ENDBRANCH  59  63
ENDBRANCH  42  56
BRANCH  43  67
ATOM     67  C   UNL A   1      47.094  28.061  26.778  1.00  0.00     0.023 A 
ATOM     68  C   UNL A   1      47.223  28.062  25.381  1.00  0.00     0.031 A 
ATOM     69  C   UNL A   1      48.189  27.613  27.540  1.00  0.00     0.131 A 
ATOM     70  C   UNL A   1      48.405  27.589  24.787  1.00  0.00     0.055 A 
ATOM     71  C   UNL A   1      49.383  27.200  26.948  1.00  0.00     0.041 A 
ATOM     72  F   UNL A   1      48.117  27.582  28.881  1.00  0.00    -0.206 F 
ATOM     73  C   UNL A   1      49.490  27.174  25.562  1.00  0.00     0.022 A 
BRANCH  70  74
ATOM     74  S   UNL A   1      48.469  27.437  22.981  1.00  0.00     0.124 S 
ATOM     75  O   UNL A   1      49.769  28.027  22.679  1.00  0.00    -0.237 OA
ATOM     76  O   UNL A   1      48.360  25.994  22.795  1.00  0.00    -0.237 OA
ATOM     77  O   UNL A   1      47.313  28.211  22.533  1.00  0.00    -0.744 OA
ENDBRANCH  70  74
ENDBRANCH  43  67
BRANCH  55  78
ATOM     78  C   UNL A   1      44.866  34.067  29.491  1.00  0.00     0.023 A 
ATOM     79  C   UNL A   1      44.867  35.045  28.481  1.00  0.00     0.031 A 
ATOM     80  C   UNL A   1      45.545  34.351  30.690  1.00  0.00     0.131 A 
ATOM     81  C   UNL A   1      45.578  36.240  28.668  1.00  0.00     0.055 A 
ATOM     82  C   UNL A   1      46.207  35.561  30.890  1.00  0.00     0.041 A 
ATOM     83  F   UNL A   1      45.576  33.450  31.686  1.00  0.00    -0.206 F 
ATOM     84  C   UNL A   1      46.237  36.510  29.871  1.00  0.00     0.022 A 
BRANCH  81  85
ATOM     85  S   UNL A   1      45.697  37.410  27.286  1.00  0.00     0.124 S 
ATOM     86  O   UNL A   1      44.296  37.744  27.049  1.00  0.00    -0.237 OA
ATOM     87  O   UNL A   1      46.520  38.475  27.849  1.00  0.00    -0.237 OA
ATOM     88  O   UNL A   1      46.335  36.629  26.229  1.00  0.00    -0.744 OA
ENDBRANCH  81  85
ENDBRANCH  55  78
ENDBRANCH  29  30
ENDBRANCH  22  24
ENDBRANCH  21  22
ENDBRANCH  20  21
ENDBRANCH   1  20
TORSDOF 18
ENDMDL
MODEL 3
REMARK VINA RESULT:     -10.7      1.721      2.232
REMARK SMILES C[C@@H]1[C@@H](C(=O)OCCOC(=O)c2ccc(-c3c4nc(c(-c5cc(S(=O)(=O)[O-])ccc5F)c5ccc([nH]5)c(-c5cc(S(=O)(=O)[O-])ccc5F)c5nc(c(-c6cc(S(=O)(=O)[O-])ccc6F)c6ccc3[nH]6)C=C5)C=C4)cc2)CC[N@@H+]1CC(=O)N(C)C1CC1
REMARK SMILES IDX 7 1 6 2 4 3 5 4 3 5 1 6 2 7 77 8 75 9 76 10 78 12 79 13
REMARK SMILES IDX 80 14 81 15 82 16 83 17 84 18 85 19 8 20 9 21 10 22 11 23
REMARK SMILES IDX 12 24 13 25 74 26 14 27 73 28 15 29 16 30 17 31 67 32 18 33
REMARK SMILES IDX 72 34 66 35 68 36 19 37 71 38 65 39 64 40 20 42 52 43 32 44
REMARK SMILES IDX 51 45 33 46 36 47 50 48 69 49 34 50 35 51 49 53 70 54 37 55
REMARK SMILES IDX 21 56 22 57 30 58 23 59 29 60 31 61 28 62 24 63 25 64 26 65
REMARK SMILES IDX 27 66 53 67 54 68 62 69 55 70 61 71 63 72 60 73 56 74 57 75
REMARK SMILES IDX 58 76 59 77 38 78 39 79 47 80 40 81 46 82 48 83 45 84 41 85
REMARK SMILES IDX 42 86 43 87 44 88
REMARK H PARENT 77 11 68 41 36 52
REMARK Flexibility Score: inf
ROOT
ATOM      1  C   UNL A   1      35.021  20.470  25.028  1.00  0.00     0.274 C 
ENDROOT
BRANCH   1   2
ATOM      2  O   UNL A   1      33.711  20.629  25.604  1.00  0.00    -0.462 OA
BRANCH   2   3
ATOM      3  C   UNL A   1      32.930  21.619  25.087  1.00  0.00     0.315 C 
ATOM      4  O   UNL A   1      32.659  21.746  23.902  1.00  0.00    -0.252 OA
BRANCH   3   5
ATOM      5  C   UNL A   1      32.448  22.531  26.200  1.00  0.00     0.162 C 
ATOM      6  C   UNL A   1      30.048  23.017  26.754  1.00  0.00     0.076 C 
ATOM      7  C   UNL A   1      31.188  23.302  25.780  1.00  0.00     0.195 C 
ATOM      8  N   UNL A   1      31.604  24.688  25.647  1.00  0.00    -0.324 N 
ATOM      9  C   UNL A   1      33.475  23.596  26.551  1.00  0.00     0.083 C 
ATOM     10  C   UNL A   1      33.036  24.836  25.792  1.00  0.00     0.264 C 
ATOM     11  H   UNL A   1      31.361  24.890  24.678  1.00  0.00     0.348 HD
BRANCH   8  12
ATOM     12  C   UNL A   1      30.718  25.809  25.929  1.00  0.00     0.364 C 
BRANCH  12  13
ATOM     13  C   UNL A   1      31.337  27.163  25.540  1.00  0.00     0.277 C 
ATOM     14  O   UNL A   1      31.797  27.904  26.420  1.00  0.00    -0.268 OA
BRANCH  13  15
ATOM     15  N   UNL A   1      31.327  27.564  24.204  1.00  0.00    -0.338 N 
ATOM     16  C   UNL A   1      32.218  27.082  23.151  1.00  0.00     0.147 C 
BRANCH  15  17
ATOM     17  C   UNL A   1      30.411  28.617  23.819  1.00  0.00     0.085 C 
ATOM     18  C   UNL A   1      30.192  29.028  22.385  1.00  0.00     0.027 C 
ATOM     19  C   UNL A   1      29.118  28.282  23.113  1.00  0.00     0.027 C 
ENDBRANCH  15  17
ENDBRANCH  13  15
ENDBRANCH  12  13
ENDBRANCH   8  12
ENDBRANCH   3   5
ENDBRANCH   2   3
ENDBRANCH   1   2
BRANCH   1  20
ATOM     20  C   UNL A   1      36.017  21.343  25.785  1.00  0.00     0.275 C 
BRANCH  20  21
ATOM     21  O   UNL A   1      37.215  21.508  25.001  1.00  0.00    -0.458 OA
BRANCH  21  22
ATOM     22  C   UNL A   1      38.362  21.105  25.593  1.00  0.00     0.338 C 
ATOM     23  O   UNL A   1      38.867  19.993  25.553  1.00  0.00    -0.246 OA
BRANCH  22  24
ATOM     24  C   UNL A   1      38.991  22.239  26.286  1.00  0.00     0.060 A 
ATOM     25  C   UNL A   1      38.521  23.521  26.022  1.00  0.00     0.016 A 
ATOM     26  C   UNL A   1      40.134  22.064  27.062  1.00  0.00     0.016 A 
ATOM     27  C   UNL A   1      39.251  24.637  26.428  1.00  0.00     0.010 A 
ATOM     28  C   UNL A   1      40.802  23.189  27.568  1.00  0.00     0.010 A 
ATOM     29  C   UNL A   1      40.398  24.494  27.223  1.00  0.00    -0.014 A 
BRANCH  29  30
ATOM     30  C   UNL A   1      41.198  25.687  27.648  1.00  0.00     0.031 A 
ATOM     31  C   UNL A   1      40.566  26.757  28.511  1.00  0.00     0.074 A 
ATOM     32  C   UNL A   1      42.493  25.827  27.293  1.00  0.00     0.049 A 
ATOM     33  N   UNL A   1      41.001  27.960  28.797  1.00  0.00    -0.248 NA
ATOM     34  C   UNL A   1      39.269  26.430  29.120  1.00  0.00     0.031 C 
ATOM     35  C   UNL A   1      43.274  24.853  26.526  1.00  0.00     0.029 A 
ATOM     36  N   UNL A   1      43.388  26.843  27.533  1.00  0.00    -0.354 N 
ATOM     37  C   UNL A   1      40.006  28.554  29.570  1.00  0.00     0.074 A 
ATOM     38  C   UNL A   1      38.943  27.578  29.698  1.00  0.00     0.031 C 
ATOM     39  C   UNL A   1      44.533  25.298  26.398  1.00  0.00     0.029 A 
ATOM     40  C   UNL A   1      44.627  26.636  26.970  1.00  0.00     0.049 A 
ATOM     41  H   UNL A   1      43.162  27.645  28.058  1.00  0.00     0.167 HD
ATOM     42  C   UNL A   1      39.978  29.795  30.119  1.00  0.00     0.034 A 
ATOM     43  C   UNL A   1      45.703  27.443  26.868  1.00  0.00     0.034 A 
ATOM     44  C   UNL A   1      41.060  30.746  30.027  1.00  0.00     0.049 A 
ATOM     45  C   UNL A   1      45.625  28.844  27.420  1.00  0.00     0.074 A 
ATOM     46  C   UNL A   1      41.127  32.033  30.537  1.00  0.00     0.029 A 
ATOM     47  N   UNL A   1      42.276  30.512  29.396  1.00  0.00    -0.354 N 
ATOM     48  N   UNL A   1      44.636  29.428  28.054  1.00  0.00    -0.248 NA
ATOM     49  C   UNL A   1      46.802  29.700  27.220  1.00  0.00     0.031 C 
ATOM     50  C   UNL A   1      42.358  32.592  30.173  1.00  0.00     0.029 A 
ATOM     51  C   UNL A   1      43.088  31.633  29.491  1.00  0.00     0.049 A 
ATOM     52  H   UNL A   1      42.524  29.673  28.947  1.00  0.00     0.167 HD
ATOM     53  C   UNL A   1      45.080  30.715  28.341  1.00  0.00     0.074 A 
ATOM     54  C   UNL A   1      46.431  30.815  27.831  1.00  0.00     0.031 C 
ATOM     55  C   UNL A   1      44.429  31.727  28.969  1.00  0.00     0.034 A 
BRANCH  42  56
ATOM     56  C   UNL A   1      38.708  30.217  30.819  1.00  0.00     0.023 A 
ATOM     57  C   UNL A   1      37.665  30.873  30.143  1.00  0.00     0.031 A 
ATOM     58  C   UNL A   1      38.554  29.981  32.197  1.00  0.00     0.131 A 
ATOM     59  C   UNL A   1      36.547  31.328  30.860  1.00  0.00     0.055 A 
ATOM     60  C   UNL A   1      37.405  30.368  32.889  1.00  0.00     0.041 A 
ATOM     61  F   UNL A   1      39.525  29.375  32.899  1.00  0.00    -0.206 F 
ATOM     62  C   UNL A   1      36.399  31.060  32.223  1.00  0.00     0.022 A 
BRANCH  59  63
ATOM     63  S   UNL A   1      35.353  32.398  30.013  1.00  0.00     0.124 S 
ATOM     64  O   UNL A   1      34.321  32.557  31.034  1.00  0.00    -0.237 OA
ATOM     65  O   UNL A   1      36.146  33.586  29.718  1.00  0.00    -0.237 OA
ATOM     66  O   UNL A   1      34.951  31.611  28.848  1.00  0.00    -0.744 OA
ENDBRANCH  59  63
ENDBRANCH  42  56
BRANCH  43  67
ATOM     67  C   UNL A   1      46.924  26.990  26.140  1.00  0.00     0.023 A 
ATOM     68  C   UNL A   1      47.974  26.350  26.815  1.00  0.00     0.031 A 
ATOM     69  C   UNL A   1      47.082  27.244  24.765  1.00  0.00     0.131 A 
ATOM     70  C   UNL A   1      49.151  26.020  26.124  1.00  0.00     0.055 A 
ATOM     71  C   UNL A   1      48.229  26.860  24.070  1.00  0.00     0.041 A 
ATOM     72  F   UNL A   1      46.112  27.861  24.072  1.00  0.00    -0.206 F 
ATOM     73  C   UNL A   1      49.278  26.255  24.754  1.00  0.00     0.022 A 
BRANCH  70  74
ATOM     74  S   UNL A   1      50.554  25.359  27.065  1.00  0.00     0.124 S 
ATOM     75  O   UNL A   1      50.964  26.522  27.845  1.00  0.00    -0.237 OA
ATOM     76  O   UNL A   1      49.930  24.272  27.813  1.00  0.00    -0.237 OA
ATOM     77  O   UNL A   1      51.493  24.941  26.026  1.00  0.00    -0.744 OA
ENDBRANCH  70  74
ENDBRANCH  43  67
BRANCH  55  78
ATOM     78  C   UNL A   1      45.197  33.008  29.176  1.00  0.00     0.023 A 
ATOM     79  C   UNL A   1      45.144  34.060  28.245  1.00  0.00     0.031 A 
ATOM     80  C   UNL A   1      46.014  33.165  30.309  1.00  0.00     0.131 A 
ATOM     81  C   UNL A   1      45.936  35.201  28.437  1.00  0.00     0.055 A 
ATOM     82  C   UNL A   1      46.761  34.323  30.520  1.00  0.00     0.041 A 
ATOM     83  F   UNL A   1      46.102  32.189  31.228  1.00  0.00    -0.206 F 
ATOM     84  C   UNL A   1      46.734  35.346  29.575  1.00  0.00     0.022 A 
BRANCH  81  85
ATOM     85  S   UNL A   1      45.972  36.468  27.138  1.00  0.00     0.124 S 
ATOM     86  O   UNL A   1      44.558  36.805  27.003  1.00  0.00    -0.237 OA
ATOM     87  O   UNL A   1      46.820  37.498  27.729  1.00  0.00    -0.237 OA
ATOM     88  O   UNL A   1      46.554  35.770  25.993  1.00  0.00    -0.744 OA
ENDBRANCH  81  85
ENDBRANCH  55  78
ENDBRANCH  29  30
ENDBRANCH  22  24
ENDBRANCH  21  22
ENDBRANCH  20  21
ENDBRANCH   1  20
TORSDOF 18
ENDMDL
