MODEL 1
REMARK VINA RESULT:     -10.2      0.000      0.000
REMARK SMILES CCCCCCNC(=O)Oc1cccc(-c2ccc([C@@H](C)C(=O)OCCOC(=O)c3ccc(-c4c5nc(c(-c6cc(S(=O)(=O)[O-])ccc6F)c6ccc([nH]6)c(-c6cc(S(=O)(=O)[O-])ccc6F)c6nc(c(-c7cc(S(=O)(=O)[O-])ccc7F)c7ccc4[nH]7)C=C6)C=C5)cc3)cc2F)c1
REMARK SMILES IDX 20 1 21 2 19 3 16 4 17 5 94 6 18 7 93 8 95 9 15 10 11 11
REMARK SMILES IDX 12 12 96 13 13 14 14 15 10 16 8 17 7 18 9 20 6 21 5 22 4 23
REMARK SMILES IDX 3 24 2 25 1 26 22 27 23 28 24 29 25 30 26 31 27 32 28 33
REMARK SMILES IDX 29 34 30 35 31 36 92 37 32 38 91 39 33 40 34 41 35 42 85 43
REMARK SMILES IDX 36 44 90 45 84 46 86 47 37 48 89 49 83 50 82 51 38 53 70 54
REMARK SMILES IDX 50 55 69 56 51 57 54 58 68 59 87 60 52 61 53 62 67 64 88 65
REMARK SMILES IDX 55 66 39 67 40 68 48 69 41 70 47 71 49 72 46 73 42 74 43 75
REMARK SMILES IDX 44 76 45 77 71 78 72 79 80 80 73 81 79 82 81 83 78 84 74 85
REMARK SMILES IDX 75 86 76 87 77 88 56 89 57 90 65 91 58 92 64 93 66 94 63 95
REMARK SMILES IDX 59 96 60 97 61 98 62 99
REMARK H PARENT 7 19 86 52 54 63
REMARK Flexibility Score: inf
ROOT
ATOM      1  C   UNL A   1      41.022  21.681  26.830  1.00  0.00     0.126 C 
ATOM      2  C   UNL A   1      41.472  22.501  28.038  1.00  0.00     0.025 C 
ENDROOT
BRANCH   1   3
ATOM      3  C   UNL A   1      39.636  22.081  26.344  1.00  0.00    -0.031 A 
ATOM      4  C   UNL A   1      37.046  22.786  25.377  1.00  0.00     0.018 A 
ATOM      5  C   UNL A   1      37.842  23.709  26.075  1.00  0.00     0.012 A 
ATOM      6  C   UNL A   1      37.573  21.503  25.188  1.00  0.00     0.131 A 
ATOM      7  C   UNL A   1      39.116  23.366  26.547  1.00  0.00     0.005 A 
ATOM      8  C   UNL A   1      38.842  21.153  25.654  1.00  0.00     0.044 A 
ATOM      9  F   UNL A   1      36.877  20.577  24.511  1.00  0.00    -0.206 F 
BRANCH   4  10
ATOM     10  C   UNL A   1      35.729  23.172  24.842  1.00  0.00    -0.012 A 
ATOM     11  C   UNL A   1      33.314  23.338  25.033  1.00  0.00     0.133 A 
ATOM     12  C   UNL A   1      33.219  23.880  23.755  1.00  0.00     0.047 A 
ATOM     13  C   UNL A   1      34.548  22.971  25.576  1.00  0.00     0.056 A 
ATOM     14  C   UNL A   1      34.378  24.087  23.015  1.00  0.00     0.004 A 
ATOM     15  C   UNL A   1      35.620  23.736  23.555  1.00  0.00     0.009 A 
BRANCH  11  16
ATOM     16  O   UNL A   1      32.108  23.053  25.692  1.00  0.00    -0.410 OA
BRANCH  16  17
ATOM     17  C   UNL A   1      31.976  23.458  27.012  1.00  0.00     0.412 C 
ATOM     18  N   UNL A   1      31.607  24.771  27.136  1.00  0.00    -0.321 N 
ATOM     19  H   UNL A   1      31.483  25.108  28.053  1.00  0.00     0.167 HD
ATOM     20  O   UNL A   1      32.193  22.769  28.002  1.00  0.00    -0.224 OA
BRANCH  18  21
ATOM     21  C   UNL A   1      31.382  25.718  26.061  1.00  0.00     0.119 C 
BRANCH  21  22
ATOM     22  C   UNL A   1      29.997  25.579  25.432  1.00  0.00     0.021 C 
BRANCH  22  23
ATOM     23  C   UNL A   1      29.905  25.999  23.960  1.00  0.00     0.002 C 
BRANCH  23  24
ATOM     24  C   UNL A   1      30.435  27.398  23.630  1.00  0.00    -0.000 C 
BRANCH  24  25
ATOM     25  C   UNL A   1      31.577  27.452  22.611  1.00  0.00    -0.003 C 
ATOM     26  C   UNL A   1      31.621  26.244  21.688  1.00  0.00     0.004 C 
ENDBRANCH  24  25
ENDBRANCH  23  24
ENDBRANCH  22  23
ENDBRANCH  21  22
ENDBRANCH  18  21
ENDBRANCH  16  17
ENDBRANCH  11  16
ENDBRANCH   4  10
ENDBRANCH   1   3
BRANCH   1  27
ATOM     27  C   UNL A   1      41.238  20.197  27.107  1.00  0.00     0.313 C 
ATOM     28  O   UNL A   1      40.964  19.690  28.190  1.00  0.00    -0.252 OA
BRANCH  27  29
ATOM     29  O   UNL A   1      41.694  19.496  26.036  1.00  0.00    -0.462 OA
BRANCH  29  30
ATOM     30  C   UNL A   1      42.669  18.469  26.299  1.00  0.00     0.274 C 
BRANCH  30  31
ATOM     31  C   UNL A   1      43.838  18.535  25.312  1.00  0.00     0.275 C 
BRANCH  31  32
ATOM     32  O   UNL A   1      43.770  19.714  24.489  1.00  0.00    -0.458 OA
BRANCH  32  33
ATOM     33  C   UNL A   1      44.929  20.410  24.411  1.00  0.00     0.338 C 
ATOM     34  O   UNL A   1      45.936  20.089  23.805  1.00  0.00    -0.246 OA
BRANCH  33  35
ATOM     35  C   UNL A   1      44.778  21.717  25.067  1.00  0.00     0.060 A 
ATOM     36  C   UNL A   1      44.448  22.809  24.263  1.00  0.00     0.016 A 
ATOM     37  C   UNL A   1      45.069  21.894  26.420  1.00  0.00     0.016 A 
ATOM     38  C   UNL A   1      44.443  24.095  24.793  1.00  0.00     0.010 A 
ATOM     39  C   UNL A   1      45.053  23.187  26.957  1.00  0.00     0.010 A 
ATOM     40  C   UNL A   1      44.767  24.296  26.140  1.00  0.00    -0.014 A 
BRANCH  40  41
ATOM     41  C   UNL A   1      44.895  25.684  26.651  1.00  0.00     0.031 A 
ATOM     42  C   UNL A   1      46.237  26.363  26.616  1.00  0.00     0.074 A 
ATOM     43  C   UNL A   1      43.807  26.344  27.090  1.00  0.00     0.049 A 
ATOM     44  N   UNL A   1      46.580  27.547  27.050  1.00  0.00    -0.248 NA
ATOM     45  C   UNL A   1      47.340  25.600  26.012  1.00  0.00     0.031 C 
ATOM     46  C   UNL A   1      42.447  25.803  27.117  1.00  0.00     0.029 A 
ATOM     47  N   UNL A   1      43.672  27.615  27.589  1.00  0.00    -0.354 N 
ATOM     48  C   UNL A   1      47.941  27.668  26.791  1.00  0.00     0.074 A 
ATOM     49  C   UNL A   1      48.364  26.425  26.182  1.00  0.00     0.031 C 
ATOM     50  C   UNL A   1      41.615  26.737  27.605  1.00  0.00     0.029 A 
ATOM     51  C   UNL A   1      42.385  27.924  27.967  1.00  0.00     0.049 A 
ATOM     52  H   UNL A   1      44.424  28.244  27.670  1.00  0.00     0.167 HD
ATOM     53  C   UNL A   1      48.760  28.721  27.036  1.00  0.00     0.034 A 
ATOM     54  C   UNL A   1      41.893  29.028  28.563  1.00  0.00     0.034 A 
ATOM     55  C   UNL A   1      48.317  29.957  27.640  1.00  0.00     0.049 A 
ATOM     56  C   UNL A   1      42.835  30.165  28.876  1.00  0.00     0.074 A 
ATOM     57  C   UNL A   1      49.058  31.087  27.937  1.00  0.00     0.029 A 
ATOM     58  N   UNL A   1      47.014  30.222  28.044  1.00  0.00    -0.354 N 
ATOM     59  N   UNL A   1      44.125  30.257  28.647  1.00  0.00    -0.248 NA
ATOM     60  C   UNL A   1      42.251  31.347  29.525  1.00  0.00     0.031 C 
ATOM     61  C   UNL A   1      48.217  32.012  28.570  1.00  0.00     0.029 A 
ATOM     62  C   UNL A   1      46.935  31.486  28.609  1.00  0.00     0.049 A 
ATOM     63  H   UNL A   1      46.256  29.602  27.943  1.00  0.00     0.167 HD
ATOM     64  C   UNL A   1      44.502  31.517  29.105  1.00  0.00     0.074 A 
ATOM     65  C   UNL A   1      43.299  32.154  29.603  1.00  0.00     0.031 C 
ATOM     66  C   UNL A   1      45.729  32.098  29.113  1.00  0.00     0.034 A 
BRANCH  53  67
ATOM     67  C   UNL A   1      50.224  28.550  26.714  1.00  0.00     0.023 A 
ATOM     68  C   UNL A   1      50.759  28.879  25.456  1.00  0.00     0.031 A 
ATOM     69  C   UNL A   1      51.095  28.013  27.679  1.00  0.00     0.131 A 
ATOM     70  C   UNL A   1      52.110  28.612  25.176  1.00  0.00     0.055 A 
ATOM     71  C   UNL A   1      52.453  27.817  27.420  1.00  0.00     0.041 A 
ATOM     72  F   UNL A   1      50.638  27.657  28.890  1.00  0.00    -0.206 F 
ATOM     73  C   UNL A   1      52.965  28.105  26.159  1.00  0.00     0.022 A 
BRANCH  70  74
ATOM     74  S   UNL A   1      52.714  28.825  23.479  1.00  0.00     0.124 S 
ATOM     75  O   UNL A   1      51.546  28.431  22.695  1.00  0.00    -0.237 OA
ATOM     76  O   UNL A   1      53.063  30.240  23.440  1.00  0.00    -0.237 OA
ATOM     77  O   UNL A   1      53.845  27.903  23.396  1.00  0.00    -0.744 OA
ENDBRANCH  70  74
ENDBRANCH  53  67
BRANCH  54  78
ATOM     78  C   UNL A   1      40.457  29.103  28.952  1.00  0.00     0.023 A 
ATOM     79  C   UNL A   1      40.058  29.002  30.294  1.00  0.00     0.031 A 
ATOM     80  C   UNL A   1      39.453  29.218  27.973  1.00  0.00     0.131 A 
ATOM     81  C   UNL A   1      38.691  28.970  30.616  1.00  0.00     0.055 A 
ATOM     82  C   UNL A   1      38.098  29.238  28.303  1.00  0.00     0.041 A 
ATOM     83  F   UNL A   1      39.779  29.317  26.674  1.00  0.00    -0.206 F 
ATOM     84  C   UNL A   1      37.709  29.099  29.631  1.00  0.00     0.022 A 
BRANCH  81  85
ATOM     85  S   UNL A   1      38.212  28.662  32.339  1.00  0.00     0.124 S 
ATOM     86  O   UNL A   1      38.485  27.237  32.476  1.00  0.00    -0.237 OA
ATOM     87  O   UNL A   1      39.105  29.560  33.066  1.00  0.00    -0.237 OA
ATOM     88  O   UNL A   1      36.798  29.034  32.370  1.00  0.00    -0.744 OA
ENDBRANCH  81  85
ENDBRANCH  54  78
BRANCH  66  89
ATOM     89  C   UNL A   1      45.807  33.507  29.645  1.00  0.00     0.023 A 
ATOM     90  C   UNL A   1      45.686  34.624  28.799  1.00  0.00     0.031 A 
ATOM     91  C   UNL A   1      46.037  33.734  31.013  1.00  0.00     0.131 A 
ATOM     92  C   UNL A   1      45.852  35.915  29.320  1.00  0.00     0.055 A 
ATOM     93  C   UNL A   1      46.147  35.023  31.536  1.00  0.00     0.041 A 
ATOM     94  F   UNL A   1      46.162  32.703  31.865  1.00  0.00    -0.206 F 
ATOM     95  C   UNL A   1      46.068  36.122  30.685  1.00  0.00     0.022 A 
BRANCH  92  96
ATOM     96  S   UNL A   1      45.873  37.322  28.174  1.00  0.00     0.124 S 
ATOM     97  O   UNL A   1      47.303  37.577  28.031  1.00  0.00    -0.237 OA
ATOM     98  O   UNL A   1      45.201  36.777  26.998  1.00  0.00    -0.237 OA
ATOM     99  O   UNL A   1      45.128  38.357  28.887  1.00  0.00    -0.744 OA
ENDBRANCH  92  96
ENDBRANCH  66  89
ENDBRANCH  40  41
ENDBRANCH  33  35
ENDBRANCH  32  33
ENDBRANCH  31  32
ENDBRANCH  30  31
ENDBRANCH  29  30
ENDBRANCH  27  29
ENDBRANCH   1  27
TORSDOF 23
ENDMDL
MODEL 2
REMARK VINA RESULT:      -9.9      4.902      8.742
REMARK SMILES CCCCCCNC(=O)Oc1cccc(-c2ccc([C@@H](C)C(=O)OCCOC(=O)c3ccc(-c4c5nc(c(-c6cc(S(=O)(=O)[O-])ccc6F)c6ccc([nH]6)c(-c6cc(S(=O)(=O)[O-])ccc6F)c6nc(c(-c7cc(S(=O)(=O)[O-])ccc7F)c7ccc4[nH]7)C=C6)C=C5)cc3)cc2F)c1
REMARK SMILES IDX 20 1 21 2 19 3 16 4 17 5 94 6 18 7 93 8 95 9 15 10 11 11
REMARK SMILES IDX 12 12 96 13 13 14 14 15 10 16 8 17 7 18 9 20 6 21 5 22 4 23
REMARK SMILES IDX 3 24 2 25 1 26 22 27 23 28 24 29 25 30 26 31 27 32 28 33
REMARK SMILES IDX 29 34 30 35 31 36 92 37 32 38 91 39 33 40 34 41 35 42 85 43
REMARK SMILES IDX 36 44 90 45 84 46 86 47 37 48 89 49 83 50 82 51 38 53 70 54
REMARK SMILES IDX 50 55 69 56 51 57 54 58 68 59 87 60 52 61 53 62 67 64 88 65
REMARK SMILES IDX 55 66 39 67 40 68 48 69 41 70 47 71 49 72 46 73 42 74 43 75
REMARK SMILES IDX 44 76 45 77 71 78 72 79 80 80 73 81 79 82 81 83 78 84 74 85
REMARK SMILES IDX 75 86 76 87 77 88 56 89 57 90 65 91 58 92 64 93 66 94 63 95
REMARK SMILES IDX 59 96 60 97 61 98 62 99
REMARK H PARENT 7 19 86 52 54 63
REMARK Flexibility Score: inf
ROOT
ATOM      1  C   UNL A   1      42.385  21.393  27.350  1.00  0.00     0.126 C 
ATOM      2  C   UNL A   1      41.283  20.336  27.353  1.00  0.00     0.025 C 
ENDROOT
BRANCH   1   3
ATOM      3  C   UNL A   1      41.843  22.795  27.588  1.00  0.00    -0.031 A 
ATOM      4  C   UNL A   1      40.802  25.424  27.968  1.00  0.00     0.018 A 
ATOM      5  C   UNL A   1      41.949  24.986  28.651  1.00  0.00     0.012 A 
ATOM      6  C   UNL A   1      40.186  24.511  27.105  1.00  0.00     0.131 A 
ATOM      7  C   UNL A   1      42.464  23.697  28.462  1.00  0.00     0.005 A 
ATOM      8  C   UNL A   1      40.693  23.225  26.910  1.00  0.00     0.044 A 
ATOM      9  F   UNL A   1      39.099  24.869  26.403  1.00  0.00    -0.206 F 
BRANCH   4  10
ATOM     10  C   UNL A   1      40.299  26.798  28.137  1.00  0.00    -0.012 A 
ATOM     11  C   UNL A   1      39.245  28.536  29.465  1.00  0.00     0.133 A 
ATOM     12  C   UNL A   1      39.297  29.427  28.397  1.00  0.00     0.047 A 
ATOM     13  C   UNL A   1      39.724  27.230  29.344  1.00  0.00     0.056 A 
ATOM     14  C   UNL A   1      39.863  29.017  27.195  1.00  0.00     0.004 A 
ATOM     15  C   UNL A   1      40.359  27.715  27.068  1.00  0.00     0.009 A 
BRANCH  11  16
ATOM     16  O   UNL A   1      38.570  28.968  30.618  1.00  0.00    -0.410 OA
BRANCH  16  17
ATOM     17  C   UNL A   1      39.078  30.066  31.296  1.00  0.00     0.412 C 
ATOM     18  N   UNL A   1      38.114  30.973  31.647  1.00  0.00    -0.321 N 
ATOM     19  H   UNL A   1      38.417  31.765  32.146  1.00  0.00     0.167 HD
ATOM     20  O   UNL A   1      40.259  30.273  31.548  1.00  0.00    -0.224 OA
BRANCH  18  21
ATOM     21  C   UNL A   1      36.694  30.891  31.359  1.00  0.00     0.119 C 
BRANCH  21  22
ATOM     22  C   UNL A   1      35.892  32.007  32.023  1.00  0.00     0.021 C 
BRANCH  22  23
ATOM     23  C   UNL A   1      36.286  32.320  33.471  1.00  0.00     0.002 C 
BRANCH  23  24
ATOM     24  C   UNL A   1      36.471  33.804  33.807  1.00  0.00    -0.000 C 
BRANCH  24  25
ATOM     25  C   UNL A   1      35.210  34.542  34.268  1.00  0.00    -0.003 C 
ATOM     26  C   UNL A   1      34.523  35.317  33.155  1.00  0.00     0.004 C 
ENDBRANCH  24  25
ENDBRANCH  23  24
ENDBRANCH  22  23
ENDBRANCH  21  22
ENDBRANCH  18  21
ENDBRANCH  16  17
ENDBRANCH  11  16
ENDBRANCH   4  10
ENDBRANCH   1   3
BRANCH   1  27
ATOM     27  C   UNL A   1      43.269  21.211  26.120  1.00  0.00     0.313 C 
ATOM     28  O   UNL A   1      43.003  20.395  25.243  1.00  0.00    -0.252 OA
BRANCH  27  29
ATOM     29  O   UNL A   1      44.321  22.069  26.064  1.00  0.00    -0.462 OA
BRANCH  29  30
ATOM     30  C   UNL A   1      44.653  22.607  24.769  1.00  0.00     0.274 C 
BRANCH  30  31
ATOM     31  C   UNL A   1      45.833  23.578  24.848  1.00  0.00     0.275 C 
BRANCH  31  32
ATOM     32  O   UNL A   1      45.445  24.915  24.479  1.00  0.00    -0.458 OA
BRANCH  32  33
ATOM     33  C   UNL A   1      46.326  25.875  24.847  1.00  0.00     0.338 C 
ATOM     34  O   UNL A   1      47.416  26.096  24.350  1.00  0.00    -0.246 OA
BRANCH  33  35
ATOM     35  C   UNL A   1      45.731  26.740  25.875  1.00  0.00     0.060 A 
ATOM     36  C   UNL A   1      46.596  27.354  26.783  1.00  0.00     0.016 A 
ATOM     37  C   UNL A   1      44.348  26.856  26.023  1.00  0.00     0.016 A 
ATOM     38  C   UNL A   1      46.088  28.057  27.870  1.00  0.00     0.010 A 
ATOM     39  C   UNL A   1      43.836  27.572  27.111  1.00  0.00     0.010 A 
ATOM     40  C   UNL A   1      44.704  28.154  28.055  1.00  0.00    -0.014 A 
BRANCH  40  41
ATOM     41  C   UNL A   1      44.183  28.784  29.294  1.00  0.00     0.031 A 
ATOM     42  C   UNL A   1      43.779  30.233  29.271  1.00  0.00     0.074 A 
ATOM     43  C   UNL A   1      44.023  28.048  30.409  1.00  0.00     0.049 A 
ATOM     44  N   UNL A   1      43.344  30.989  30.245  1.00  0.00    -0.248 NA
ATOM     45  C   UNL A   1      43.882  30.921  27.975  1.00  0.00     0.031 C 
ATOM     46  C   UNL A   1      44.330  26.622  30.528  1.00  0.00     0.029 A 
ATOM     47  N   UNL A   1      43.557  28.395  31.652  1.00  0.00    -0.354 N 
ATOM     48  C   UNL A   1      43.139  32.247  29.688  1.00  0.00     0.074 A 
ATOM     49  C   UNL A   1      43.520  32.155  28.294  1.00  0.00     0.031 C 
ATOM     50  C   UNL A   1      44.040  26.215  31.775  1.00  0.00     0.029 A 
ATOM     51  C   UNL A   1      43.573  27.357  32.555  1.00  0.00     0.049 A 
ATOM     52  H   UNL A   1      43.243  29.300  31.875  1.00  0.00     0.167 HD
ATOM     53  C   UNL A   1      42.673  33.372  30.286  1.00  0.00     0.034 A 
ATOM     54  C   UNL A   1      43.270  27.340  33.869  1.00  0.00     0.034 A 
ATOM     55  C   UNL A   1      42.293  33.442  31.677  1.00  0.00     0.049 A 
ATOM     56  C   UNL A   1      42.806  28.619  34.524  1.00  0.00     0.074 A 
ATOM     57  C   UNL A   1      41.811  34.527  32.388  1.00  0.00     0.029 A 
ATOM     58  N   UNL A   1      42.356  32.380  32.572  1.00  0.00    -0.354 N 
ATOM     59  N   UNL A   1      42.639  29.807  33.991  1.00  0.00    -0.248 NA
ATOM     60  C   UNL A   1      42.488  28.549  35.956  1.00  0.00     0.031 C 
ATOM     61  C   UNL A   1      41.638  34.138  33.723  1.00  0.00     0.029 A 
ATOM     62  C   UNL A   1      41.946  32.791  33.832  1.00  0.00     0.049 A 
ATOM     63  H   UNL A   1      42.650  31.468  32.346  1.00  0.00     0.167 HD
ATOM     64  C   UNL A   1      42.175  30.622  35.020  1.00  0.00     0.074 A 
ATOM     65  C   UNL A   1      42.070  29.783  36.197  1.00  0.00     0.031 C 
ATOM     66  C   UNL A   1      41.862  31.943  34.997  1.00  0.00     0.034 A 
BRANCH  53  67
ATOM     67  C   UNL A   1      42.619  34.628  29.450  1.00  0.00     0.023 A 
ATOM     68  C   UNL A   1      43.766  35.390  29.165  1.00  0.00     0.031 A 
ATOM     69  C   UNL A   1      41.384  35.089  28.959  1.00  0.00     0.131 A 
ATOM     70  C   UNL A   1      43.647  36.601  28.463  1.00  0.00     0.055 A 
ATOM     71  C   UNL A   1      41.282  36.256  28.200  1.00  0.00     0.041 A 
ATOM     72  F   UNL A   1      40.251  34.417  29.220  1.00  0.00    -0.206 F 
ATOM     73  C   UNL A   1      42.415  37.026  27.959  1.00  0.00     0.022 A 
BRANCH  70  74
ATOM     74  S   UNL A   1      45.102  37.676  28.315  1.00  0.00     0.124 S 
ATOM     75  O   UNL A   1      45.037  38.074  26.912  1.00  0.00    -0.237 OA
ATOM     76  O   UNL A   1      44.823  38.723  29.291  1.00  0.00    -0.237 OA
ATOM     77  O   UNL A   1      46.218  36.794  28.651  1.00  0.00    -0.744 OA
ENDBRANCH  70  74
ENDBRANCH  53  67
BRANCH  54  78
ATOM     78  C   UNL A   1      43.440  26.095  34.670  1.00  0.00     0.023 A 
ATOM     79  C   UNL A   1      44.715  25.596  34.981  1.00  0.00     0.031 A 
ATOM     80  C   UNL A   1      42.321  25.352  35.087  1.00  0.00     0.131 A 
ATOM     81  C   UNL A   1      44.840  24.365  35.646  1.00  0.00     0.055 A 
ATOM     82  C   UNL A   1      42.450  24.156  35.793  1.00  0.00     0.041 A 
ATOM     83  F   UNL A   1      41.079  25.783  34.815  1.00  0.00    -0.206 F 
ATOM     84  C   UNL A   1      43.717  23.648  36.064  1.00  0.00     0.022 A 
BRANCH  81  85
ATOM     85  S   UNL A   1      46.499  23.667  35.875  1.00  0.00     0.124 S 
ATOM     86  O   UNL A   1      46.203  22.255  36.084  1.00  0.00    -0.237 OA
ATOM     87  O   UNL A   1      47.146  24.007  34.613  1.00  0.00    -0.237 OA
ATOM     88  O   UNL A   1      47.008  24.378  37.046  1.00  0.00    -0.744 OA
ENDBRANCH  81  85
ENDBRANCH  54  78
BRANCH  66  89
ATOM     89  C   UNL A   1      41.340  32.537  36.281  1.00  0.00     0.023 A 
ATOM     90  C   UNL A   1      40.008  32.353  36.693  1.00  0.00     0.031 A 
ATOM     91  C   UNL A   1      42.180  33.323  37.089  1.00  0.00     0.131 A 
ATOM     92  C   UNL A   1      39.540  32.995  37.849  1.00  0.00     0.055 A 
ATOM     93  C   UNL A   1      41.724  33.915  38.267  1.00  0.00     0.041 A 
ATOM     94  F   UNL A   1      43.461  33.532  36.742  1.00  0.00    -0.206 F 
ATOM     95  C   UNL A   1      40.393  33.764  38.645  1.00  0.00     0.022 A 
BRANCH  92  96
ATOM     96  S   UNL A   1      37.774  32.888  38.250  1.00  0.00     0.124 S 
ATOM     97  O   UNL A   1      37.171  33.694  37.193  1.00  0.00    -0.237 OA
ATOM     98  O   UNL A   1      37.524  31.451  38.178  1.00  0.00    -0.237 OA
ATOM     99  O   UNL A   1      37.690  33.463  39.591  1.00  0.00    -0.744 OA
ENDBRANCH  92  96
ENDBRANCH  66  89
ENDBRANCH  40  41
ENDBRANCH  33  35
ENDBRANCH  32  33
ENDBRANCH  31  32
ENDBRANCH  30  31
ENDBRANCH  29  30
ENDBRANCH  27  29
ENDBRANCH   1  27
TORSDOF 23
ENDMDL
MODEL 3
REMARK VINA RESULT:      -9.8      6.476     12.097
REMARK SMILES CCCCCCNC(=O)Oc1cccc(-c2ccc([C@@H](C)C(=O)OCCOC(=O)c3ccc(-c4c5nc(c(-c6cc(S(=O)(=O)[O-])ccc6F)c6ccc([nH]6)c(-c6cc(S(=O)(=O)[O-])ccc6F)c6nc(c(-c7cc(S(=O)(=O)[O-])ccc7F)c7ccc4[nH]7)C=C6)C=C5)cc3)cc2F)c1
REMARK SMILES IDX 20 1 21 2 19 3 16 4 17 5 94 6 18 7 93 8 95 9 15 10 11 11
REMARK SMILES IDX 12 12 96 13 13 14 14 15 10 16 8 17 7 18 9 20 6 21 5 22 4 23
REMARK SMILES IDX 3 24 2 25 1 26 22 27 23 28 24 29 25 30 26 31 27 32 28 33
REMARK SMILES IDX 29 34 30 35 31 36 92 37 32 38 91 39 33 40 34 41 35 42 85 43
REMARK SMILES IDX 36 44 90 45 84 46 86 47 37 48 89 49 83 50 82 51 38 53 70 54
REMARK SMILES IDX 50 55 69 56 51 57 54 58 68 59 87 60 52 61 53 62 67 64 88 65
REMARK SMILES IDX 55 66 39 67 40 68 48 69 41 70 47 71 49 72 46 73 42 74 43 75
REMARK SMILES IDX 44 76 45 77 71 78 72 79 80 80 73 81 79 82 81 83 78 84 74 85
REMARK SMILES IDX 75 86 76 87 77 88 56 89 57 90 65 91 58 92 64 93 66 94 63 95
REMARK SMILES IDX 59 96 60 97 61 98 62 99
REMARK H PARENT 7 19 86 52 54 63
REMARK Flexibility Score: inf
ROOT
ATOM      1  C   UNL A   1      34.556  32.792  28.460  1.00  0.00     0.126 C 
ATOM      2  C   UNL A   1      36.014  33.172  28.208  1.00  0.00     0.025 C 
ENDROOT
BRANCH   1   3
ATOM      3  C   UNL A   1      34.215  31.414  27.912  1.00  0.00    -0.031 A 
ATOM      4  C   UNL A   1      33.507  28.842  26.899  1.00  0.00     0.018 A 
ATOM      5  C   UNL A   1      34.757  29.073  27.497  1.00  0.00     0.012 A 
ATOM      6  C   UNL A   1      32.631  29.930  26.810  1.00  0.00     0.131 A 
ATOM      7  C   UNL A   1      35.105  30.334  27.998  1.00  0.00     0.005 A 
ATOM      8  C   UNL A   1      32.969  31.190  27.308  1.00  0.00     0.044 A 
ATOM      9  F   UNL A   1      31.412  29.776  26.271  1.00  0.00    -0.206 F 
BRANCH   4  10
ATOM     10  C   UNL A   1      33.133  27.500  26.420  1.00  0.00    -0.012 A 
ATOM     11  C   UNL A   1      33.663  25.408  25.307  1.00  0.00     0.133 A 
ATOM     12  C   UNL A   1      32.356  24.955  25.470  1.00  0.00     0.047 A 
ATOM     13  C   UNL A   1      34.055  26.670  25.760  1.00  0.00     0.056 A 
ATOM     14  C   UNL A   1      31.432  25.764  26.121  1.00  0.00     0.004 A 
ATOM     15  C   UNL A   1      31.818  27.024  26.591  1.00  0.00     0.009 A 
BRANCH  11  16
ATOM     16  O   UNL A   1      34.525  24.597  24.552  1.00  0.00    -0.410 OA
BRANCH  16  17
ATOM     17  C   UNL A   1      34.013  23.985  23.417  1.00  0.00     0.412 C 
ATOM     18  N   UNL A   1      34.053  22.618  23.482  1.00  0.00    -0.321 N 
ATOM     19  H   UNL A   1      33.687  22.131  22.709  1.00  0.00     0.167 HD
ATOM     20  O   UNL A   1      33.594  24.556  22.418  1.00  0.00    -0.224 OA
BRANCH  18  21
ATOM     21  C   UNL A   1      34.579  21.812  24.567  1.00  0.00     0.119 C 
BRANCH  21  22
ATOM     22  C   UNL A   1      33.769  20.538  24.803  1.00  0.00     0.021 C 
BRANCH  22  23
ATOM     23  C   UNL A   1      32.570  20.347  23.867  1.00  0.00     0.002 C 
BRANCH  23  24
ATOM     24  C   UNL A   1      32.520  19.015  23.110  1.00  0.00    -0.000 C 
BRANCH  24  25
ATOM     25  C   UNL A   1      32.999  17.789  23.893  1.00  0.00    -0.003 C 
ATOM     26  C   UNL A   1      34.026  16.955  23.143  1.00  0.00     0.004 C 
ENDBRANCH  24  25
ENDBRANCH  23  24
ENDBRANCH  22  23
ENDBRANCH  21  22
ENDBRANCH  18  21
ENDBRANCH  16  17
ENDBRANCH  11  16
ENDBRANCH   4  10
ENDBRANCH   1   3
BRANCH   1  27
ATOM     27  C   UNL A   1      33.645  33.935  28.028  1.00  0.00     0.313 C 
ATOM     28  O   UNL A   1      32.496  33.741  27.640  1.00  0.00    -0.252 OA
BRANCH  27  29
ATOM     29  O   UNL A   1      34.198  35.168  28.173  1.00  0.00    -0.462 OA
BRANCH  29  30
ATOM     30  C   UNL A   1      33.293  36.261  28.418  1.00  0.00     0.274 C 
BRANCH  30  31
ATOM     31  C   UNL A   1      33.100  36.507  29.917  1.00  0.00     0.275 C 
BRANCH  31  32
ATOM     32  O   UNL A   1      32.686  35.310  30.601  1.00  0.00    -0.458 OA
BRANCH  32  33
ATOM     33  C   UNL A   1      33.150  35.200  31.869  1.00  0.00     0.338 C 
ATOM     34  O   UNL A   1      32.594  35.573  32.886  1.00  0.00    -0.246 OA
BRANCH  33  35
ATOM     35  C   UNL A   1      34.400  34.428  31.884  1.00  0.00     0.060 A 
ATOM     36  C   UNL A   1      34.338  33.105  32.325  1.00  0.00     0.016 A 
ATOM     37  C   UNL A   1      35.629  35.019  31.584  1.00  0.00     0.016 A 
ATOM     38  C   UNL A   1      35.505  32.372  32.511  1.00  0.00     0.010 A 
ATOM     39  C   UNL A   1      36.803  34.278  31.760  1.00  0.00     0.010 A 
ATOM     40  C   UNL A   1      36.749  32.959  32.249  1.00  0.00    -0.014 A 
BRANCH  40  41
ATOM     41  C   UNL A   1      37.986  32.211  32.587  1.00  0.00     0.031 A 
ATOM     42  C   UNL A   1      38.641  32.434  33.923  1.00  0.00     0.074 A 
ATOM     43  C   UNL A   1      38.480  31.302  31.727  1.00  0.00     0.049 A 
ATOM     44  N   UNL A   1      39.745  31.922  34.401  1.00  0.00    -0.248 NA
ATOM     45  C   UNL A   1      37.961  33.361  34.839  1.00  0.00     0.031 C 
ATOM     46  C   UNL A   1      37.895  30.965  30.429  1.00  0.00     0.029 A 
ATOM     47  N   UNL A   1      39.583  30.491  31.818  1.00  0.00    -0.354 N 
ATOM     48  C   UNL A   1      39.905  32.477  35.666  1.00  0.00     0.074 A 
ATOM     49  C   UNL A   1      38.794  33.383  35.870  1.00  0.00     0.031 C 
ATOM     50  C   UNL A   1      38.643  30.015  29.845  1.00  0.00     0.029 A 
ATOM     51  C   UNL A   1      39.783  29.708  30.704  1.00  0.00     0.049 A 
ATOM     52  H   UNL A   1      40.175  30.473  32.604  1.00  0.00     0.167 HD
ATOM     53  C   UNL A   1      40.887  32.249  36.574  1.00  0.00     0.034 A 
ATOM     54  C   UNL A   1      40.788  28.861  30.403  1.00  0.00     0.034 A 
ATOM     55  C   UNL A   1      41.985  31.337  36.354  1.00  0.00     0.049 A 
ATOM     56  C   UNL A   1      41.898  28.666  31.406  1.00  0.00     0.074 A 
ATOM     57  C   UNL A   1      43.035  31.029  37.201  1.00  0.00     0.029 A 
ATOM     58  N   UNL A   1      42.176  30.587  35.200  1.00  0.00    -0.354 N 
ATOM     59  N   UNL A   1      42.049  29.214  32.589  1.00  0.00    -0.248 NA
ATOM     60  C   UNL A   1      42.969  27.733  31.032  1.00  0.00     0.031 C 
ATOM     61  C   UNL A   1      43.890  30.138  36.538  1.00  0.00     0.029 A 
ATOM     62  C   UNL A   1      43.338  29.837  35.303  1.00  0.00     0.049 A 
ATOM     63  H   UNL A   1      41.573  30.587  34.421  1.00  0.00     0.167 HD
ATOM     64  C   UNL A   1      43.222  28.676  33.110  1.00  0.00     0.074 A 
ATOM     65  C   UNL A   1      43.726  27.745  32.120  1.00  0.00     0.031 C 
ATOM     66  C   UNL A   1      43.831  28.925  34.298  1.00  0.00     0.034 A 
BRANCH  53  67
ATOM     67  C   UNL A   1      40.849  33.051  37.852  1.00  0.00     0.023 A 
ATOM     68  C   UNL A   1      40.044  32.683  38.945  1.00  0.00     0.031 A 
ATOM     69  C   UNL A   1      41.611  34.228  37.963  1.00  0.00     0.131 A 
ATOM     70  C   UNL A   1      39.973  33.515  40.075  1.00  0.00     0.055 A 
ATOM     71  C   UNL A   1      41.592  35.014  39.118  1.00  0.00     0.041 A 
ATOM     72  F   UNL A   1      42.380  34.643  36.944  1.00  0.00    -0.206 F 
ATOM     73  C   UNL A   1      40.760  34.665  40.177  1.00  0.00     0.022 A 
BRANCH  70  74
ATOM     74  S   UNL A   1      38.752  33.141  41.365  1.00  0.00     0.124 S 
ATOM     75  O   UNL A   1      39.451  32.131  42.154  1.00  0.00    -0.237 OA
ATOM     76  O   UNL A   1      38.561  34.436  42.007  1.00  0.00    -0.237 OA
ATOM     77  O   UNL A   1      37.600  32.643  40.615  1.00  0.00    -0.744 OA
ENDBRANCH  70  74
ENDBRANCH  53  67
BRANCH  54  78
ATOM     78  C   UNL A   1      40.828  28.173  29.082  1.00  0.00     0.023 A 
ATOM     79  C   UNL A   1      40.314  26.877  28.918  1.00  0.00     0.031 A 
ATOM     80  C   UNL A   1      41.441  28.784  27.972  1.00  0.00     0.131 A 
ATOM     81  C   UNL A   1      40.463  26.216  27.688  1.00  0.00     0.055 A 
ATOM     82  C   UNL A   1      41.540  28.143  26.737  1.00  0.00     0.041 A 
ATOM     83  F   UNL A   1      41.951  30.022  28.074  1.00  0.00    -0.206 F 
ATOM     84  C   UNL A   1      41.062  26.845  26.594  1.00  0.00     0.022 A 
BRANCH  81  85
ATOM     85  S   UNL A   1      39.944  24.482  27.564  1.00  0.00     0.124 S 
ATOM     86  O   UNL A   1      41.086  23.786  28.145  1.00  0.00    -0.237 OA
ATOM     87  O   UNL A   1      38.718  24.477  28.356  1.00  0.00    -0.237 OA
ATOM     88  O   UNL A   1      39.757  24.284  26.128  1.00  0.00    -0.744 OA
ENDBRANCH  81  85
ENDBRANCH  54  78
BRANCH  66  89
ATOM     89  C   UNL A   1      45.086  28.142  34.593  1.00  0.00     0.023 A 
ATOM     90  C   UNL A   1      45.041  26.884  35.220  1.00  0.00     0.031 A 
ATOM     91  C   UNL A   1      46.345  28.677  34.270  1.00  0.00     0.131 A 
ATOM     92  C   UNL A   1      46.235  26.228  35.555  1.00  0.00     0.055 A 
ATOM     93  C   UNL A   1      47.528  27.996  34.557  1.00  0.00     0.041 A 
ATOM     94  F   UNL A   1      46.445  29.875  33.673  1.00  0.00    -0.206 F 
ATOM     95  C   UNL A   1      47.477  26.770  35.216  1.00  0.00     0.022 A 
BRANCH  92  96
ATOM     96  S   UNL A   1      46.146  24.697  36.525  1.00  0.00     0.124 S 
ATOM     97  O   UNL A   1      46.152  23.675  35.483  1.00  0.00    -0.237 OA
ATOM     98  O   UNL A   1      47.350  24.778  37.347  1.00  0.00    -0.237 OA
ATOM     99  O   UNL A   1      44.888  24.827  37.258  1.00  0.00    -0.744 OA
ENDBRANCH  92  96
ENDBRANCH  66  89
ENDBRANCH  40  41
ENDBRANCH  33  35
ENDBRANCH  32  33
ENDBRANCH  31  32
ENDBRANCH  30  31
ENDBRANCH  29  30
ENDBRANCH  27  29
ENDBRANCH   1  27
TORSDOF 23
ENDMDL
