MODEL 1
REMARK VINA RESULT:     -12.4      0.000      0.000
REMARK SMILES CC(C)c1cc2c(cc1Cl)C=C(C(=O)OCCOC(=O)c1ccc(-c3c4nc(c(-c5cc(S(=O)(=O)[O-])ccc5F)c5ccc([nH]5)c(-c5cc(S(=O)(=O)[O-])ccc5F)c5nc(c(-c6cc(S(=O)(=O)[O-])ccc6F)c6ccc3[nH]6)C=C5)C=C4)cc1)[C@@H](C(F)(F)F)O2
REMARK SMILES IDX 17 1 16 2 15 3 13 4 14 5 12 6 4 7 5 8 9 9 6 10 8 11 10 12
REMARK SMILES IDX 7 13 89 14 11 15 84 16 2 17 1 18 3 19 85 20 86 21 87 22
REMARK SMILES IDX 88 23 18 24 19 25 20 26 21 27 22 28 83 29 23 30 82 31 24 32
REMARK SMILES IDX 25 33 26 34 76 35 27 36 81 37 75 38 77 39 28 40 80 41 74 42
REMARK SMILES IDX 73 43 29 45 61 46 41 47 60 48 42 49 45 50 59 51 78 52 43 53
REMARK SMILES IDX 44 54 58 56 79 57 46 58 30 59 31 60 39 61 32 62 38 63 40 64
REMARK SMILES IDX 37 65 33 66 34 67 35 68 36 69 62 70 63 71 71 72 64 73 70 74
REMARK SMILES IDX 72 75 69 76 65 77 66 78 67 79 68 80 47 81 48 82 56 83 49 84
REMARK SMILES IDX 55 85 57 86 54 87 50 88 51 89 52 90 53 91
REMARK H PARENT 77 44 45 55
REMARK Flexibility Score: inf
ROOT
ATOM      1  C   UNL A   1      37.574  20.382  24.841  1.00  0.00     0.275 C 
ENDROOT
BRANCH   1   2
ATOM      2  C   UNL A   1      36.064  20.268  25.053  1.00  0.00     0.275 C 
BRANCH   2   3
ATOM      3  O   UNL A   1      35.352  21.351  24.411  1.00  0.00    -0.459 OA
BRANCH   3   4
ATOM      4  C   UNL A   1      34.004  21.296  24.517  1.00  0.00     0.338 C 
ATOM      5  O   UNL A   1      33.304  20.307  24.359  1.00  0.00    -0.246 OA
BRANCH   4   6
ATOM      6  C   UNL A   1      33.451  22.608  24.898  1.00  0.00     0.087 C 
ATOM      7  C   UNL A   1      32.774  27.588  25.350  1.00  0.00    -0.023 A 
ATOM      8  C   UNL A   1      32.362  26.457  26.101  1.00  0.00     0.052 A 
ATOM      9  C   UNL A   1      33.476  27.364  24.154  1.00  0.00     0.045 A 
ATOM     10  C   UNL A   1      32.666  25.157  25.693  1.00  0.00     0.128 A 
ATOM     11  C   UNL A   1      33.763  26.064  23.740  1.00  0.00     0.032 A 
ATOM     12  Cl  UNL A   1      34.075  28.621  23.134  1.00  0.00    -0.084 Cl
ATOM     13  C   UNL A   1      33.376  24.971  24.518  1.00  0.00     0.019 A 
ATOM     14  O   UNL A   1      32.243  24.125  26.486  1.00  0.00    -0.475 OA
ATOM     15  C   UNL A   1      33.770  23.643  24.117  1.00  0.00     0.027 C 
ATOM     16  C   UNL A   1      32.708  22.770  26.193  1.00  0.00     0.316 C 
BRANCH   7  17
ATOM     17  C   UNL A   1      32.457  28.965  25.918  1.00  0.00     0.014 C 
ATOM     18  C   UNL A   1      31.389  29.692  25.093  1.00  0.00     0.012 C 
ATOM     19  C   UNL A   1      32.118  28.961  27.411  1.00  0.00     0.012 C 
ENDBRANCH   7  17
BRANCH  16  20
ATOM     20  C   UNL A   1      33.549  22.270  27.378  1.00  0.00     0.430 C 
ATOM     21  F   UNL A   1      32.982  22.609  28.563  1.00  0.00    -0.167 F 
ATOM     22  F   UNL A   1      33.654  20.918  27.382  1.00  0.00    -0.167 F 
ATOM     23  F   UNL A   1      34.803  22.774  27.371  1.00  0.00    -0.167 F 
ENDBRANCH  16  20
ENDBRANCH   4   6
ENDBRANCH   3   4
ENDBRANCH   2   3
ENDBRANCH   1   2
BRANCH   1  24
ATOM     24  O   UNL A   1      38.103  21.505  25.566  1.00  0.00    -0.458 OA
BRANCH  24  25
ATOM     25  C   UNL A   1      39.290  21.292  26.179  1.00  0.00     0.338 C 
ATOM     26  O   UNL A   1      39.949  20.268  26.178  1.00  0.00    -0.246 OA
BRANCH  25  27
ATOM     27  C   UNL A   1      39.753  22.543  26.800  1.00  0.00     0.060 A 
ATOM     28  C   UNL A   1      40.798  22.564  27.715  1.00  0.00     0.016 A 
ATOM     29  C   UNL A   1      39.223  23.736  26.329  1.00  0.00     0.016 A 
ATOM     30  C   UNL A   1      41.288  23.800  28.160  1.00  0.00     0.010 A 
ATOM     31  C   UNL A   1      39.834  24.950  26.628  1.00  0.00     0.010 A 
ATOM     32  C   UNL A   1      40.843  25.014  27.593  1.00  0.00    -0.014 A 
BRANCH  32  33
ATOM     33  C   UNL A   1      41.400  26.339  28.011  1.00  0.00     0.031 A 
ATOM     34  C   UNL A   1      42.815  26.742  27.643  1.00  0.00     0.074 A 
ATOM     35  C   UNL A   1      40.655  27.177  28.766  1.00  0.00     0.049 A 
ATOM     36  N   UNL A   1      43.463  27.842  27.936  1.00  0.00    -0.248 NA
ATOM     37  C   UNL A   1      43.630  25.768  26.895  1.00  0.00     0.031 C 
ATOM     38  C   UNL A   1      39.322  26.874  29.289  1.00  0.00     0.029 A 
ATOM     39  N   UNL A   1      40.899  28.453  29.215  1.00  0.00    -0.354 N 
ATOM     40  C   UNL A   1      44.754  27.671  27.441  1.00  0.00     0.074 A 
ATOM     41  C   UNL A   1      44.827  26.331  26.914  1.00  0.00     0.031 C 
ATOM     42  C   UNL A   1      38.835  27.957  29.914  1.00  0.00     0.029 A 
ATOM     43  C   UNL A   1      39.839  29.018  29.890  1.00  0.00     0.049 A 
ATOM     44  H   UNL A   1      41.753  28.921  29.067  1.00  0.00     0.167 HD
ATOM     45  C   UNL A   1      45.770  28.564  27.375  1.00  0.00     0.034 A 
ATOM     46  C   UNL A   1      39.679  30.250  30.418  1.00  0.00     0.034 A 
ATOM     47  C   UNL A   1      45.659  29.927  27.822  1.00  0.00     0.049 A 
ATOM     48  C   UNL A   1      40.792  31.258  30.264  1.00  0.00     0.074 A 
ATOM     49  C   UNL A   1      46.591  30.941  27.705  1.00  0.00     0.029 A 
ATOM     50  N   UNL A   1      44.546  30.473  28.444  1.00  0.00    -0.354 N 
ATOM     51  N   UNL A   1      41.961  31.110  29.686  1.00  0.00    -0.248 NA
ATOM     52  C   UNL A   1      40.568  32.602  30.819  1.00  0.00     0.031 C 
ATOM     53  C   UNL A   1      46.067  32.084  28.304  1.00  0.00     0.029 A 
ATOM     54  C   UNL A   1      44.777  31.807  28.730  1.00  0.00     0.049 A 
ATOM     55  H   UNL A   1      43.717  29.985  28.650  1.00  0.00     0.167 HD
ATOM     56  C   UNL A   1      42.598  32.345  29.782  1.00  0.00     0.074 A 
ATOM     57  C   UNL A   1      41.674  33.237  30.451  1.00  0.00     0.031 C 
ATOM     58  C   UNL A   1      43.836  32.702  29.361  1.00  0.00     0.034 A 
BRANCH  45  59
ATOM     59  C   UNL A   1      47.076  28.146  26.734  1.00  0.00     0.023 A 
ATOM     60  C   UNL A   1      47.220  28.176  25.333  1.00  0.00     0.031 A 
ATOM     61  C   UNL A   1      48.118  27.582  27.494  1.00  0.00     0.131 A 
ATOM     62  C   UNL A   1      48.360  27.620  24.738  1.00  0.00     0.055 A 
ATOM     63  C   UNL A   1      49.276  27.081  26.899  1.00  0.00     0.041 A 
ATOM     64  F   UNL A   1      48.029  27.517  28.833  1.00  0.00    -0.206 F 
ATOM     65  C   UNL A   1      49.393  27.085  25.514  1.00  0.00     0.022 A 
BRANCH  62  66
ATOM     66  S   UNL A   1      48.517  27.497  22.935  1.00  0.00     0.124 S 
ATOM     67  O   UNL A   1      48.453  26.053  22.725  1.00  0.00    -0.237 OA
ATOM     68  O   UNL A   1      47.350  28.246  22.477  1.00  0.00    -0.237 OA
ATOM     69  O   UNL A   1      49.811  28.109  22.652  1.00  0.00    -0.744 OA
ENDBRANCH  62  66
ENDBRANCH  45  59
BRANCH  46  70
ATOM     70  C   UNL A   1      38.370  30.613  31.045  1.00  0.00     0.023 A 
ATOM     71  C   UNL A   1      37.361  31.259  30.307  1.00  0.00     0.031 A 
ATOM     72  C   UNL A   1      38.159  30.422  32.422  1.00  0.00     0.131 A 
ATOM     73  C   UNL A   1      36.223  31.750  30.963  1.00  0.00     0.055 A 
ATOM     74  C   UNL A   1      36.989  30.846  33.057  1.00  0.00     0.041 A 
ATOM     75  F   UNL A   1      39.097  29.827  33.175  1.00  0.00    -0.206 F 
ATOM     76  C   UNL A   1      36.022  31.531  32.329  1.00  0.00     0.022 A 
BRANCH  73  77
ATOM     77  S   UNL A   1      35.037  32.817  30.097  1.00  0.00     0.124 S 
ATOM     78  O   UNL A   1      35.902  33.867  29.569  1.00  0.00    -0.237 OA
ATOM     79  O   UNL A   1      34.479  31.901  29.105  1.00  0.00    -0.237 OA
ATOM     80  O   UNL A   1      34.112  33.229  31.148  1.00  0.00    -0.744 OA
ENDBRANCH  73  77
ENDBRANCH  46  70
BRANCH  58  81
ATOM     81  C   UNL A   1      44.306  34.121  29.574  1.00  0.00     0.023 A 
ATOM     82  C   UNL A   1      43.893  35.132  28.685  1.00  0.00     0.031 A 
ATOM     83  C   UNL A   1      45.305  34.426  30.512  1.00  0.00     0.131 A 
ATOM     84  C   UNL A   1      44.520  36.383  28.713  1.00  0.00     0.055 A 
ATOM     85  C   UNL A   1      45.889  35.692  30.573  1.00  0.00     0.041 A 
ATOM     86  F   UNL A   1      45.742  33.490  31.372  1.00  0.00    -0.206 F 
ATOM     87  C   UNL A   1      45.511  36.671  29.656  1.00  0.00     0.022 A 
BRANCH  84  88
ATOM     88  S   UNL A   1      44.156  37.641  27.458  1.00  0.00     0.124 S 
ATOM     89  O   UNL A   1      43.321  36.897  26.517  1.00  0.00    -0.237 OA
ATOM     90  O   UNL A   1      43.458  38.660  28.237  1.00  0.00    -0.237 OA
ATOM     91  O   UNL A   1      45.469  38.026  26.951  1.00  0.00    -0.744 OA
ENDBRANCH  84  88
ENDBRANCH  58  81
ENDBRANCH  32  33
ENDBRANCH  25  27
ENDBRANCH  24  25
ENDBRANCH   1  24
TORSDOF 16
ENDMDL
MODEL 2
REMARK VINA RESULT:     -12.3      5.092     10.267
REMARK SMILES CC(C)c1cc2c(cc1Cl)C=C(C(=O)OCCOC(=O)c1ccc(-c3c4nc(c(-c5cc(S(=O)(=O)[O-])ccc5F)c5ccc([nH]5)c(-c5cc(S(=O)(=O)[O-])ccc5F)c5nc(c(-c6cc(S(=O)(=O)[O-])ccc6F)c6ccc3[nH]6)C=C5)C=C4)cc1)[C@@H](C(F)(F)F)O2
REMARK SMILES IDX 17 1 16 2 15 3 13 4 14 5 12 6 4 7 5 8 9 9 6 10 8 11 10 12
REMARK SMILES IDX 7 13 89 14 11 15 84 16 2 17 1 18 3 19 85 20 86 21 87 22
REMARK SMILES IDX 88 23 18 24 19 25 20 26 21 27 22 28 83 29 23 30 82 31 24 32
REMARK SMILES IDX 25 33 26 34 76 35 27 36 81 37 75 38 77 39 28 40 80 41 74 42
REMARK SMILES IDX 73 43 29 45 61 46 41 47 60 48 42 49 45 50 59 51 78 52 43 53
REMARK SMILES IDX 44 54 58 56 79 57 46 58 30 59 31 60 39 61 32 62 38 63 40 64
REMARK SMILES IDX 37 65 33 66 34 67 35 68 36 69 62 70 63 71 71 72 64 73 70 74
REMARK SMILES IDX 72 75 69 76 65 77 66 78 67 79 68 80 47 81 48 82 56 83 49 84
REMARK SMILES IDX 55 85 57 86 54 87 50 88 51 89 52 90 53 91
REMARK H PARENT 77 44 45 55
REMARK Flexibility Score: inf
ROOT
ATOM      1  C   UNL A   1      31.586  31.092  26.399  1.00  0.00     0.275 C 
ENDROOT
BRANCH   1   2
ATOM      2  C   UNL A   1      31.223  30.316  25.132  1.00  0.00     0.275 C 
BRANCH   2   3
ATOM      3  O   UNL A   1      31.172  28.891  25.375  1.00  0.00    -0.459 OA
BRANCH   3   4
ATOM      4  C   UNL A   1      30.811  28.138  24.310  1.00  0.00     0.338 C 
ATOM      5  O   UNL A   1      29.878  28.354  23.552  1.00  0.00    -0.246 OA
BRANCH   4   6
ATOM      6  C   UNL A   1      31.731  27.000  24.133  1.00  0.00     0.087 C 
ATOM      7  C   UNL A   1      34.868  23.165  25.089  1.00  0.00    -0.023 A 
ATOM      8  C   UNL A   1      34.641  24.007  23.971  1.00  0.00     0.052 A 
ATOM      9  C   UNL A   1      34.029  23.313  26.207  1.00  0.00     0.045 A 
ATOM     10  C   UNL A   1      33.638  24.980  23.978  1.00  0.00     0.128 A 
ATOM     11  C   UNL A   1      33.018  24.274  26.205  1.00  0.00     0.032 A 
ATOM     12  Cl  UNL A   1      34.182  22.394  27.659  1.00  0.00    -0.084 Cl
ATOM     13  C   UNL A   1      32.841  25.113  25.103  1.00  0.00     0.019 A 
ATOM     14  O   UNL A   1      33.500  25.760  22.862  1.00  0.00    -0.475 OA
ATOM     15  C   UNL A   1      31.852  26.161  25.165  1.00  0.00     0.027 C 
ATOM     16  C   UNL A   1      32.595  26.908  22.909  1.00  0.00     0.316 C 
BRANCH   7  17
ATOM     17  C   UNL A   1      36.033  22.186  25.010  1.00  0.00     0.014 C 
ATOM     18  C   UNL A   1      35.555  20.730  25.006  1.00  0.00     0.012 C 
ATOM     19  C   UNL A   1      37.008  22.470  23.865  1.00  0.00     0.012 C 
ENDBRANCH   7  17
BRANCH  16  20
ATOM     20  C   UNL A   1      33.419  28.192  22.717  1.00  0.00     0.430 C 
ATOM     21  F   UNL A   1      32.639  29.223  22.310  1.00  0.00    -0.167 F 
ATOM     22  F   UNL A   1      34.001  28.590  23.875  1.00  0.00    -0.167 F 
ATOM     23  F   UNL A   1      34.402  28.042  21.801  1.00  0.00    -0.167 F 
ENDBRANCH  16  20
ENDBRANCH   4   6
ENDBRANCH   3   4
ENDBRANCH   2   3
ENDBRANCH   1   2
BRANCH   1  24
ATOM     24  O   UNL A   1      32.957  30.854  26.762  1.00  0.00    -0.458 OA
BRANCH  24  25
ATOM     25  C   UNL A   1      33.569  31.872  27.410  1.00  0.00     0.338 C 
ATOM     26  O   UNL A   1      33.100  32.963  27.683  1.00  0.00    -0.246 OA
BRANCH  25  27
ATOM     27  C   UNL A   1      34.905  31.442  27.849  1.00  0.00     0.060 A 
ATOM     28  C   UNL A   1      35.944  32.346  28.031  1.00  0.00     0.016 A 
ATOM     29  C   UNL A   1      35.066  30.118  28.235  1.00  0.00     0.016 A 
ATOM     30  C   UNL A   1      37.149  31.895  28.589  1.00  0.00     0.010 A 
ATOM     31  C   UNL A   1      36.188  29.721  28.956  1.00  0.00     0.010 A 
ATOM     32  C   UNL A   1      37.277  30.586  29.100  1.00  0.00    -0.014 A 
BRANCH  32  33
ATOM     33  C   UNL A   1      38.535  30.106  29.755  1.00  0.00     0.031 A 
ATOM     34  C   UNL A   1      38.908  30.562  31.152  1.00  0.00     0.074 A 
ATOM     35  C   UNL A   1      39.378  29.292  29.083  1.00  0.00     0.049 A 
ATOM     36  N   UNL A   1      39.966  30.260  31.864  1.00  0.00    -0.248 NA
ATOM     37  C   UNL A   1      38.010  31.519  31.823  1.00  0.00     0.031 C 
ATOM     38  C   UNL A   1      39.205  28.865  27.694  1.00  0.00     0.029 A 
ATOM     39  N   UNL A   1      40.539  28.667  29.473  1.00  0.00    -0.354 N 
ATOM     40  C   UNL A   1      39.870  31.011  33.033  1.00  0.00     0.074 A 
ATOM     41  C   UNL A   1      38.706  31.852  32.898  1.00  0.00     0.031 C 
ATOM     42  C   UNL A   1      40.171  27.990  27.376  1.00  0.00     0.029 A 
ATOM     43  C   UNL A   1      41.071  27.831  28.515  1.00  0.00     0.049 A 
ATOM     44  H   UNL A   1      40.953  28.804  30.356  1.00  0.00     0.167 HD
ATOM     45  C   UNL A   1      40.643  30.968  34.145  1.00  0.00     0.034 A 
ATOM     46  C   UNL A   1      42.147  27.016  28.548  1.00  0.00     0.034 A 
ATOM     47  C   UNL A   1      41.749  30.062  34.306  1.00  0.00     0.049 A 
ATOM     48  C   UNL A   1      42.950  26.920  29.822  1.00  0.00     0.074 A 
ATOM     49  C   UNL A   1      42.531  29.863  35.429  1.00  0.00     0.029 A 
ATOM     50  N   UNL A   1      42.214  29.190  33.333  1.00  0.00    -0.354 N 
ATOM     51  N   UNL A   1      42.768  27.554  30.957  1.00  0.00    -0.248 NA
ATOM     52  C   UNL A   1      44.092  25.995  29.833  1.00  0.00     0.031 C 
ATOM     53  C   UNL A   1      43.501  28.914  35.120  1.00  0.00     0.029 A 
ATOM     54  C   UNL A   1      43.281  28.462  33.828  1.00  0.00     0.049 A 
ATOM     55  H   UNL A   1      41.839  29.102  32.427  1.00  0.00     0.167 HD
ATOM     56  C   UNL A   1      43.753  27.084  31.823  1.00  0.00     0.074 A 
ATOM     57  C   UNL A   1      44.512  26.093  31.088  1.00  0.00     0.031 C 
ATOM     58  C   UNL A   1      44.009  27.447  33.104  1.00  0.00     0.034 A 
BRANCH  45  59
ATOM     59  C   UNL A   1      40.296  31.860  35.318  1.00  0.00     0.023 A 
ATOM     60  C   UNL A   1      39.324  31.455  36.253  1.00  0.00     0.031 A 
ATOM     61  C   UNL A   1      40.816  33.163  35.426  1.00  0.00     0.131 A 
ATOM     62  C   UNL A   1      38.878  32.356  37.229  1.00  0.00     0.055 A 
ATOM     63  C   UNL A   1      40.409  34.037  36.434  1.00  0.00     0.041 A 
ATOM     64  F   UNL A   1      41.737  33.606  34.555  1.00  0.00    -0.206 F 
ATOM     65  C   UNL A   1      39.424  33.639  37.332  1.00  0.00     0.022 A 
BRANCH  62  66
ATOM     66  S   UNL A   1      37.519  31.931  38.353  1.00  0.00     0.124 S 
ATOM     67  O   UNL A   1      37.207  30.563  37.946  1.00  0.00    -0.237 OA
ATOM     68  O   UNL A   1      38.155  32.062  39.661  1.00  0.00    -0.237 OA
ATOM     69  O   UNL A   1      36.490  32.919  38.050  1.00  0.00    -0.744 OA
ENDBRANCH  62  66
ENDBRANCH  45  59
BRANCH  46  70
ATOM     70  C   UNL A   1      42.450  26.158  27.360  1.00  0.00     0.023 A 
ATOM     71  C   UNL A   1      41.975  24.836  27.274  1.00  0.00     0.031 A 
ATOM     72  C   UNL A   1      43.317  26.613  26.351  1.00  0.00     0.131 A 
ATOM     73  C   UNL A   1      42.426  23.999  26.243  1.00  0.00     0.055 A 
ATOM     74  C   UNL A   1      43.702  25.798  25.284  1.00  0.00     0.041 A 
ATOM     75  F   UNL A   1      43.812  27.860  26.395  1.00  0.00    -0.206 F 
ATOM     76  C   UNL A   1      43.271  24.477  25.238  1.00  0.00     0.022 A 
BRANCH  73  77
ATOM     77  S   UNL A   1      42.049  22.223  26.255  1.00  0.00     0.124 S 
ATOM     78  O   UNL A   1      42.792  21.747  25.093  1.00  0.00    -0.237 OA
ATOM     79  O   UNL A   1      42.579  21.814  27.554  1.00  0.00    -0.237 OA
ATOM     80  O   UNL A   1      40.596  22.178  26.139  1.00  0.00    -0.744 OA
ENDBRANCH  73  77
ENDBRANCH  46  70
BRANCH  58  81
ATOM     81  C   UNL A   1      45.141  26.780  33.846  1.00  0.00     0.023 A 
ATOM     82  C   UNL A   1      44.874  25.677  34.680  1.00  0.00     0.031 A 
ATOM     83  C   UNL A   1      46.423  27.353  33.890  1.00  0.00     0.131 A 
ATOM     84  C   UNL A   1      45.855  25.220  35.566  1.00  0.00     0.055 A 
ATOM     85  C   UNL A   1      47.416  26.859  34.736  1.00  0.00     0.041 A 
ATOM     86  F   UNL A   1      46.721  28.415  33.124  1.00  0.00    -0.206 F 
ATOM     87  C   UNL A   1      47.127  25.800  35.594  1.00  0.00     0.022 A 
BRANCH  84  88
ATOM     88  S   UNL A   1      45.484  23.934  36.792  1.00  0.00     0.124 S 
ATOM     89  O   UNL A   1      46.811  23.631  37.324  1.00  0.00    -0.237 OA
ATOM     90  O   UNL A   1      44.590  24.635  37.710  1.00  0.00    -0.237 OA
ATOM     91  O   UNL A   1      44.871  22.866  36.010  1.00  0.00    -0.744 OA
ENDBRANCH  84  88
ENDBRANCH  58  81
ENDBRANCH  32  33
ENDBRANCH  25  27
ENDBRANCH  24  25
ENDBRANCH   1  24
TORSDOF 16
ENDMDL
MODEL 3
REMARK VINA RESULT:     -12.1      1.346      1.678
REMARK SMILES CC(C)c1cc2c(cc1Cl)C=C(C(=O)OCCOC(=O)c1ccc(-c3c4nc(c(-c5cc(S(=O)(=O)[O-])ccc5F)c5ccc([nH]5)c(-c5cc(S(=O)(=O)[O-])ccc5F)c5nc(c(-c6cc(S(=O)(=O)[O-])ccc6F)c6ccc3[nH]6)C=C5)C=C4)cc1)[C@@H](C(F)(F)F)O2
REMARK SMILES IDX 17 1 16 2 15 3 13 4 14 5 12 6 4 7 5 8 9 9 6 10 8 11 10 12
REMARK SMILES IDX 7 13 89 14 11 15 84 16 2 17 1 18 3 19 85 20 86 21 87 22
REMARK SMILES IDX 88 23 18 24 19 25 20 26 21 27 22 28 83 29 23 30 82 31 24 32
REMARK SMILES IDX 25 33 26 34 76 35 27 36 81 37 75 38 77 39 28 40 80 41 74 42
REMARK SMILES IDX 73 43 29 45 61 46 41 47 60 48 42 49 45 50 59 51 78 52 43 53
REMARK SMILES IDX 44 54 58 56 79 57 46 58 30 59 31 60 39 61 32 62 38 63 40 64
REMARK SMILES IDX 37 65 33 66 34 67 35 68 36 69 62 70 63 71 71 72 64 73 70 74
REMARK SMILES IDX 72 75 69 76 65 77 66 78 67 79 68 80 47 81 48 82 56 83 49 84
REMARK SMILES IDX 55 85 57 86 54 87 50 88 51 89 52 90 53 91
REMARK H PARENT 77 44 45 55
REMARK Flexibility Score: inf
ROOT
ATOM      1  C   UNL A   1      37.708  20.361  24.852  1.00  0.00     0.275 C 
ENDROOT
BRANCH   1   2
ATOM      2  C   UNL A   1      36.190  20.214  24.949  1.00  0.00     0.275 C 
BRANCH   2   3
ATOM      3  O   UNL A   1      35.514  21.462  24.670  1.00  0.00    -0.459 OA
BRANCH   3   4
ATOM      4  C   UNL A   1      34.165  21.382  24.595  1.00  0.00     0.338 C 
ATOM      5  O   UNL A   1      33.513  20.396  24.285  1.00  0.00    -0.246 OA
BRANCH   4   6
ATOM      6  C   UNL A   1      33.539  22.658  24.985  1.00  0.00     0.087 C 
ATOM      7  C   UNL A   1      32.620  27.590  25.529  1.00  0.00    -0.023 A 
ATOM      8  C   UNL A   1      32.230  26.423  26.234  1.00  0.00     0.052 A 
ATOM      9  C   UNL A   1      33.380  27.428  24.358  1.00  0.00     0.045 A 
ATOM     10  C   UNL A   1      32.609  25.148  25.808  1.00  0.00     0.128 A 
ATOM     11  C   UNL A   1      33.742  26.153  23.924  1.00  0.00     0.032 A 
ATOM     12  Cl  UNL A   1      33.962  28.736  23.394  1.00  0.00    -0.084 Cl
ATOM     13  C   UNL A   1      33.373  25.024  24.659  1.00  0.00     0.019 A 
ATOM     14  O   UNL A   1      32.201  24.079  26.558  1.00  0.00    -0.475 OA
ATOM     15  C   UNL A   1      33.842  23.726  24.243  1.00  0.00     0.027 C 
ATOM     16  C   UNL A   1      32.738  22.753  26.251  1.00  0.00     0.316 C 
BRANCH   7  17
ATOM     17  C   UNL A   1      32.219  28.937  26.117  1.00  0.00     0.014 C 
ATOM     18  C   UNL A   1      33.431  29.712  26.646  1.00  0.00     0.012 C 
ATOM     19  C   UNL A   1      31.357  29.792  25.185  1.00  0.00     0.012 C 
ENDBRANCH   7  17
BRANCH  16  20
ATOM     20  C   UNL A   1      33.552  22.260  27.458  1.00  0.00     0.430 C 
ATOM     21  F   UNL A   1      34.743  22.904  27.547  1.00  0.00    -0.167 F 
ATOM     22  F   UNL A   1      32.906  22.497  28.627  1.00  0.00    -0.167 F 
ATOM     23  F   UNL A   1      33.812  20.936  27.400  1.00  0.00    -0.167 F 
ENDBRANCH  16  20
ENDBRANCH   4   6
ENDBRANCH   3   4
ENDBRANCH   2   3
ENDBRANCH   1   2
BRANCH   1  24
ATOM     24  O   UNL A   1      38.164  21.453  25.668  1.00  0.00    -0.458 OA
BRANCH  24  25
ATOM     25  C   UNL A   1      39.369  21.274  26.257  1.00  0.00     0.338 C 
ATOM     26  O   UNL A   1      40.054  20.266  26.246  1.00  0.00    -0.246 OA
BRANCH  25  27
ATOM     27  C   UNL A   1      39.813  22.539  26.862  1.00  0.00     0.060 A 
ATOM     28  C   UNL A   1      40.814  22.579  27.824  1.00  0.00     0.016 A 
ATOM     29  C   UNL A   1      39.315  23.722  26.332  1.00  0.00     0.016 A 
ATOM     30  C   UNL A   1      41.293  23.825  28.255  1.00  0.00     0.010 A 
ATOM     31  C   UNL A   1      39.921  24.940  26.624  1.00  0.00     0.010 A 
ATOM     32  C   UNL A   1      40.885  25.024  27.632  1.00  0.00    -0.014 A 
BRANCH  32  33
ATOM     33  C   UNL A   1      41.432  26.358  28.038  1.00  0.00     0.031 A 
ATOM     34  C   UNL A   1      42.844  26.767  27.666  1.00  0.00     0.074 A 
ATOM     35  C   UNL A   1      40.682  27.197  28.784  1.00  0.00     0.049 A 
ATOM     36  N   UNL A   1      43.485  27.874  27.948  1.00  0.00    -0.248 NA
ATOM     37  C   UNL A   1      43.666  25.791  26.926  1.00  0.00     0.031 C 
ATOM     38  C   UNL A   1      39.351  26.891  29.311  1.00  0.00     0.029 A 
ATOM     39  N   UNL A   1      40.917  28.480  29.221  1.00  0.00    -0.354 N 
ATOM     40  C   UNL A   1      44.777  27.708  27.454  1.00  0.00     0.074 A 
ATOM     41  C   UNL A   1      44.860  26.363  26.940  1.00  0.00     0.031 C 
ATOM     42  C   UNL A   1      38.857  27.976  29.926  1.00  0.00     0.029 A 
ATOM     43  C   UNL A   1      39.853  29.044  29.891  1.00  0.00     0.049 A 
ATOM     44  H   UNL A   1      41.767  28.952  29.069  1.00  0.00     0.167 HD
ATOM     45  C   UNL A   1      45.787  28.607  27.378  1.00  0.00     0.034 A 
ATOM     46  C   UNL A   1      39.685  30.280  30.407  1.00  0.00     0.034 A 
ATOM     47  C   UNL A   1      45.666  29.973  27.812  1.00  0.00     0.049 A 
ATOM     48  C   UNL A   1      40.791  31.294  30.243  1.00  0.00     0.074 A 
ATOM     49  C   UNL A   1      46.591  30.993  27.685  1.00  0.00     0.029 A 
ATOM     50  N   UNL A   1      44.549  30.518  28.429  1.00  0.00    -0.354 N 
ATOM     51  N   UNL A   1      41.960  31.149  29.666  1.00  0.00    -0.248 NA
ATOM     52  C   UNL A   1      40.557  32.641  30.784  1.00  0.00     0.031 C 
ATOM     53  C   UNL A   1      46.059  32.138  28.273  1.00  0.00     0.029 A 
ATOM     54  C   UNL A   1      44.771  31.856  28.702  1.00  0.00     0.049 A 
ATOM     55  H   UNL A   1      43.724  30.026  28.640  1.00  0.00     0.167 HD
ATOM     56  C   UNL A   1      42.589  32.389  29.749  1.00  0.00     0.074 A 
ATOM     57  C   UNL A   1      41.659  33.281  30.410  1.00  0.00     0.031 C 
ATOM     58  C   UNL A   1      43.824  32.751  29.325  1.00  0.00     0.034 A 
BRANCH  45  59
ATOM     59  C   UNL A   1      47.096  28.192  26.741  1.00  0.00     0.023 A 
ATOM     60  C   UNL A   1      47.232  28.189  25.339  1.00  0.00     0.031 A 
ATOM     61  C   UNL A   1      48.149  27.663  27.510  1.00  0.00     0.131 A 
ATOM     62  C   UNL A   1      48.377  27.635  24.752  1.00  0.00     0.055 A 
ATOM     63  C   UNL A   1      49.311  27.164  26.921  1.00  0.00     0.041 A 
ATOM     64  F   UNL A   1      48.069  27.631  28.850  1.00  0.00    -0.206 F 
ATOM     65  C   UNL A   1      49.422  27.134  25.535  1.00  0.00     0.022 A 
BRANCH  62  66
ATOM     66  S   UNL A   1      48.526  27.468  22.952  1.00  0.00     0.124 S 
ATOM     67  O   UNL A   1      49.834  28.069  22.701  1.00  0.00    -0.237 OA
ATOM     68  O   UNL A   1      48.463  26.020  22.775  1.00  0.00    -0.237 OA
ATOM     69  O   UNL A   1      47.388  28.218  22.434  1.00  0.00    -0.744 OA
ENDBRANCH  62  66
ENDBRANCH  45  59
BRANCH  46  70
ATOM     70  C   UNL A   1      38.373  30.640  31.031  1.00  0.00     0.023 A 
ATOM     71  C   UNL A   1      37.374  31.306  30.298  1.00  0.00     0.031 A 
ATOM     72  C   UNL A   1      38.151  30.425  32.402  1.00  0.00     0.131 A 
ATOM     73  C   UNL A   1      36.234  31.792  30.954  1.00  0.00     0.055 A 
ATOM     74  C   UNL A   1      36.979  30.844  33.036  1.00  0.00     0.041 A 
ATOM     75  F   UNL A   1      39.079  29.809  33.151  1.00  0.00    -0.206 F 
ATOM     76  C   UNL A   1      36.022  31.549  32.314  1.00  0.00     0.022 A 
BRANCH  73  77
ATOM     77  S   UNL A   1      35.062  32.883  30.100  1.00  0.00     0.124 S 
ATOM     78  O   UNL A   1      35.935  33.950  29.619  1.00  0.00    -0.237 OA
ATOM     79  O   UNL A   1      34.524  31.996  29.070  1.00  0.00    -0.237 OA
ATOM     80  O   UNL A   1      34.118  33.261  31.145  1.00  0.00    -0.744 OA
ENDBRANCH  73  77
ENDBRANCH  46  70
BRANCH  58  81
ATOM     81  C   UNL A   1      44.284  34.175  29.523  1.00  0.00     0.023 A 
ATOM     82  C   UNL A   1      44.871  34.554  30.746  1.00  0.00     0.031 A 
ATOM     83  C   UNL A   1      43.959  35.181  28.599  1.00  0.00     0.131 A 
ATOM     84  C   UNL A   1      45.059  35.911  31.037  1.00  0.00     0.055 A 
ATOM     85  C   UNL A   1      44.198  36.529  28.871  1.00  0.00     0.041 A 
ATOM     86  F   UNL A   1      43.384  34.870  27.426  1.00  0.00    -0.206 F 
ATOM     87  C   UNL A   1      44.732  36.899  30.104  1.00  0.00     0.022 A 
BRANCH  84  88
ATOM     88  S   UNL A   1      45.625  36.446  32.675  1.00  0.00     0.124 S 
ATOM     89  O   UNL A   1      46.803  35.605  32.878  1.00  0.00    -0.237 OA
ATOM     90  O   UNL A   1      45.902  37.863  32.456  1.00  0.00    -0.237 OA
ATOM     91  O   UNL A   1      44.496  36.155  33.553  1.00  0.00    -0.744 OA
ENDBRANCH  84  88
ENDBRANCH  58  81
ENDBRANCH  32  33
ENDBRANCH  25  27
ENDBRANCH  24  25
ENDBRANCH   1  24
TORSDOF 16
ENDMDL
