MODEL 1
REMARK VINA RESULT:     -13.2      0.000      0.000
REMARK SMILES Cc1cccc2c1[C@H]1c3c(C)cccc3[C@H](CC(=O)OCCOC(=O)c3ccc(-c4c5nc(c(-c6cc(S(=O)(=O)[O-])ccc6F)c6ccc([nH]6)c(-c6cc(S(=O)(=O)[O-])ccc6F)c6nc(c(-c7cc(S(=O)(=O)[O-])ccc7F)c7ccc4[nH]7)C=C6)C=C5)cc3)C[C@H]1CC2
REMARK SMILES IDX 22 1 21 2 20 3 18 4 19 5 17 6 16 7 1 8 2 9 3 10 7 11 4 12
REMARK SMILES IDX 6 13 8 14 5 15 92 16 9 17 90 18 91 19 10 20 15 21 89 22
REMARK SMILES IDX 12 23 11 24 14 25 13 26 23 27 24 28 25 29 26 30 27 31 88 32
REMARK SMILES IDX 28 33 87 34 29 35 30 36 31 37 81 38 32 39 86 40 80 41 82 42
REMARK SMILES IDX 33 43 85 44 79 45 78 46 34 48 66 49 46 50 65 51 47 52 50 53
REMARK SMILES IDX 64 54 83 55 48 56 49 57 63 59 84 60 51 61 35 62 36 63 44 64
REMARK SMILES IDX 37 65 43 66 45 67 42 68 38 69 39 70 40 71 41 72 67 73 68 74
REMARK SMILES IDX 76 75 69 76 75 77 77 78 74 79 70 80 71 81 72 82 73 83 52 84
REMARK SMILES IDX 53 85 61 86 54 87 60 88 62 89 59 90 55 91 56 92 57 93 58 94
REMARK H PARENT 82 47 50 58
REMARK Flexibility Score: inf
ROOT
ATOM      1  C   UNL A   1      38.144  19.589  25.042  1.00  0.00     0.275 C 
ENDROOT
BRANCH   1   2
ATOM      2  C   UNL A   1      36.637  19.724  24.833  1.00  0.00     0.274 C 
BRANCH   2   3
ATOM      3  O   UNL A   1      36.294  21.096  25.052  1.00  0.00    -0.462 OA
BRANCH   3   4
ATOM      4  C   UNL A   1      35.207  21.448  25.784  1.00  0.00     0.306 C 
ATOM      5  O   UNL A   1      35.194  21.586  26.999  1.00  0.00    -0.252 OA
BRANCH   4   6
ATOM      6  C   UNL A   1      33.982  21.695  24.871  1.00  0.00     0.131 C 
BRANCH   6   7
ATOM      7  C   UNL A   1      33.692  23.189  24.845  1.00  0.00     0.031 C 
ATOM      8  C   UNL A   1      32.348  28.092  27.123  1.00  0.00     0.044 C 
ATOM      9  C   UNL A   1      32.085  28.275  25.649  1.00  0.00    -0.047 A 
ATOM     10  C   UNL A   1      31.361  29.393  25.219  1.00  0.00     0.004 A 
ATOM     11  C   UNL A   1      32.532  27.333  24.691  1.00  0.00    -0.034 A 
ATOM     12  C   UNL A   1      31.105  29.594  23.864  1.00  0.00     0.001 A 
ATOM     13  C   UNL A   1      32.375  27.602  23.314  1.00  0.00    -0.044 A 
ATOM     14  C   UNL A   1      33.095  25.998  25.137  1.00  0.00     0.053 C 
ATOM     15  C   UNL A   1      31.637  28.724  22.916  1.00  0.00     0.004 A 
ATOM     16  C   UNL A   1      33.040  26.765  22.247  1.00  0.00     0.036 C 
ATOM     17  C   UNL A   1      32.068  24.911  25.556  1.00  0.00    -0.034 A 
ATOM     18  C   UNL A   1      34.193  25.514  24.144  1.00  0.00     0.002 C 
ATOM     19  C   UNL A   1      33.597  25.427  22.723  1.00  0.00     0.009 C 
ATOM     20  C   UNL A   1      30.672  25.005  25.757  1.00  0.00    -0.047 A 
ATOM     21  C   UNL A   1      32.648  23.660  25.852  1.00  0.00    -0.040 A 
ATOM     22  C   UNL A   1      34.822  24.182  24.644  1.00  0.00     0.013 C 
ATOM     23  C   UNL A   1      29.986  23.956  26.414  1.00  0.00     0.004 A 
ATOM     24  C   UNL A   1      29.794  26.138  25.311  1.00  0.00     0.044 C 
ATOM     25  C   UNL A   1      32.008  22.737  26.697  1.00  0.00     0.004 A 
ATOM     26  C   UNL A   1      30.657  22.864  26.939  1.00  0.00     0.001 A 
ENDBRANCH   6   7
ENDBRANCH   4   6
ENDBRANCH   3   4
ENDBRANCH   2   3
ENDBRANCH   1   2
BRANCH   1  27
ATOM     27  O   UNL A   1      38.656  20.790  25.643  1.00  0.00    -0.458 OA
BRANCH  27  28
ATOM     28  C   UNL A   1      39.831  20.658  26.299  1.00  0.00     0.338 C 
ATOM     29  O   UNL A   1      40.562  19.677  26.353  1.00  0.00    -0.246 OA
BRANCH  28  30
ATOM     30  C   UNL A   1      40.210  21.978  26.804  1.00  0.00     0.060 A 
ATOM     31  C   UNL A   1      39.621  23.109  26.236  1.00  0.00     0.016 A 
ATOM     32  C   UNL A   1      41.168  22.101  27.804  1.00  0.00     0.016 A 
ATOM     33  C   UNL A   1      39.987  24.376  26.634  1.00  0.00     0.010 A 
ATOM     34  C   UNL A   1      41.542  23.379  28.215  1.00  0.00     0.010 A 
ATOM     35  C   UNL A   1      40.966  24.511  27.611  1.00  0.00    -0.014 A 
BRANCH  35  36
ATOM     36  C   UNL A   1      41.484  25.859  27.868  1.00  0.00     0.031 A 
ATOM     37  C   UNL A   1      42.841  26.199  27.346  1.00  0.00     0.074 A 
ATOM     38  C   UNL A   1      40.701  26.766  28.474  1.00  0.00     0.049 A 
ATOM     39  N   UNL A   1      43.527  27.295  27.503  1.00  0.00    -0.248 NA
ATOM     40  C   UNL A   1      43.517  25.171  26.533  1.00  0.00     0.031 C 
ATOM     41  C   UNL A   1      39.324  26.532  28.907  1.00  0.00     0.029 A 
ATOM     42  N   UNL A   1      40.952  28.064  28.825  1.00  0.00    -0.354 N 
ATOM     43  C   UNL A   1      44.725  27.080  26.838  1.00  0.00     0.074 A 
ATOM     44  C   UNL A   1      44.684  25.747  26.286  1.00  0.00     0.031 C 
ATOM     45  C   UNL A   1      38.854  27.650  29.483  1.00  0.00     0.029 A 
ATOM     46  C   UNL A   1      39.915  28.653  29.504  1.00  0.00     0.049 A 
ATOM     47  H   UNL A   1      41.793  28.529  28.611  1.00  0.00     0.167 HD
ATOM     48  C   UNL A   1      45.760  27.936  26.707  1.00  0.00     0.034 A 
ATOM     49  C   UNL A   1      39.850  29.858  30.104  1.00  0.00     0.034 A 
ATOM     50  C   UNL A   1      45.755  29.263  27.257  1.00  0.00     0.049 A 
ATOM     51  C   UNL A   1      41.045  30.769  29.999  1.00  0.00     0.074 A 
ATOM     52  C   UNL A   1      46.752  30.216  27.194  1.00  0.00     0.029 A 
ATOM     53  N   UNL A   1      44.700  29.824  27.965  1.00  0.00    -0.354 N 
ATOM     54  N   UNL A   1      42.186  30.559  29.383  1.00  0.00    -0.248 NA
ATOM     55  C   UNL A   1      40.950  32.078  30.656  1.00  0.00     0.031 C 
ATOM     56  C   UNL A   1      46.326  31.330  27.915  1.00  0.00     0.029 A 
ATOM     57  C   UNL A   1      45.032  31.106  28.360  1.00  0.00     0.049 A 
ATOM     58  H   UNL A   1      43.845  29.375  28.157  1.00  0.00     0.167 HD
ATOM     59  C   UNL A   1      42.931  31.721  29.546  1.00  0.00     0.074 A 
ATOM     60  C   UNL A   1      42.108  32.633  30.315  1.00  0.00     0.031 C 
ATOM     61  C   UNL A   1      44.178  32.008  29.098  1.00  0.00     0.034 A 
BRANCH  48  62
ATOM     62  C   UNL A   1      46.988  27.473  25.976  1.00  0.00     0.023 A 
ATOM     63  C   UNL A   1      47.154  27.821  24.624  1.00  0.00     0.031 A 
ATOM     64  C   UNL A   1      47.925  26.611  26.568  1.00  0.00     0.131 A 
ATOM     65  C   UNL A   1      48.210  27.270  23.891  1.00  0.00     0.055 A 
ATOM     66  C   UNL A   1      49.000  26.095  25.843  1.00  0.00     0.041 A 
ATOM     67  F   UNL A   1      47.815  26.266  27.861  1.00  0.00    -0.206 F 
ATOM     68  C   UNL A   1      49.137  26.413  24.494  1.00  0.00     0.022 A 
BRANCH  65  69
ATOM     69  S   UNL A   1      48.387  27.609  22.120  1.00  0.00     0.124 S 
ATOM     70  O   UNL A   1      47.105  28.236  21.802  1.00  0.00    -0.237 OA
ATOM     71  O   UNL A   1      49.541  28.501  22.096  1.00  0.00    -0.237 OA
ATOM     72  O   UNL A   1      48.591  26.290  21.530  1.00  0.00    -0.744 OA
ENDBRANCH  65  69
ENDBRANCH  48  62
BRANCH  49  73
ATOM     73  C   UNL A   1      38.604  30.244  30.818  1.00  0.00     0.023 A 
ATOM     74  C   UNL A   1      37.585  30.954  30.154  1.00  0.00     0.031 A 
ATOM     75  C   UNL A   1      38.459  30.010  32.194  1.00  0.00     0.131 A 
ATOM     76  C   UNL A   1      36.498  31.457  30.880  1.00  0.00     0.055 A 
ATOM     77  C   UNL A   1      37.344  30.461  32.903  1.00  0.00     0.041 A 
ATOM     78  F   UNL A   1      39.411  29.348  32.871  1.00  0.00    -0.206 F 
ATOM     79  C   UNL A   1      36.364  31.201  32.248  1.00  0.00     0.022 A 
BRANCH  76  80
ATOM     80  S   UNL A   1      35.274  32.539  30.092  1.00  0.00     0.124 S 
ATOM     81  O   UNL A   1      36.089  33.681  29.687  1.00  0.00    -0.237 OA
ATOM     82  O   UNL A   1      34.788  31.694  29.005  1.00  0.00    -0.237 OA
ATOM     83  O   UNL A   1      34.311  32.802  31.156  1.00  0.00    -0.744 OA
ENDBRANCH  76  80
ENDBRANCH  49  73
BRANCH  61  84
ATOM     84  C   UNL A   1      44.746  33.375  29.369  1.00  0.00     0.023 A 
ATOM     85  C   UNL A   1      44.579  34.391  28.407  1.00  0.00     0.031 A 
ATOM     86  C   UNL A   1      45.597  33.616  30.458  1.00  0.00     0.131 A 
ATOM     87  C   UNL A   1      45.301  35.582  28.523  1.00  0.00     0.055 A 
ATOM     88  C   UNL A   1      46.276  34.827  30.597  1.00  0.00     0.041 A 
ATOM     89  F   UNL A   1      45.794  32.672  31.392  1.00  0.00    -0.206 F 
ATOM     90  C   UNL A   1      46.143  35.809  29.617  1.00  0.00     0.022 A 
BRANCH  87  91
ATOM     91  S   UNL A   1      45.245  36.836  27.215  1.00  0.00     0.124 S 
ATOM     92  O   UNL A   1      46.166  36.283  26.226  1.00  0.00    -0.237 OA
ATOM     93  O   UNL A   1      43.835  36.819  26.836  1.00  0.00    -0.237 OA
ATOM     94  O   UNL A   1      45.704  38.054  27.875  1.00  0.00    -0.744 OA
ENDBRANCH  87  91
ENDBRANCH  61  84
ENDBRANCH  35  36
ENDBRANCH  28  30
ENDBRANCH  27  28
ENDBRANCH   1  27
TORSDOF 15
ENDMDL
MODEL 2
REMARK VINA RESULT:     -13.2      0.903      7.423
REMARK SMILES Cc1cccc2c1[C@H]1c3c(C)cccc3[C@H](CC(=O)OCCOC(=O)c3ccc(-c4c5nc(c(-c6cc(S(=O)(=O)[O-])ccc6F)c6ccc([nH]6)c(-c6cc(S(=O)(=O)[O-])ccc6F)c6nc(c(-c7cc(S(=O)(=O)[O-])ccc7F)c7ccc4[nH]7)C=C6)C=C5)cc3)C[C@H]1CC2
REMARK SMILES IDX 22 1 21 2 20 3 18 4 19 5 17 6 16 7 1 8 2 9 3 10 7 11 4 12
REMARK SMILES IDX 6 13 8 14 5 15 92 16 9 17 90 18 91 19 10 20 15 21 89 22
REMARK SMILES IDX 12 23 11 24 14 25 13 26 23 27 24 28 25 29 26 30 27 31 88 32
REMARK SMILES IDX 28 33 87 34 29 35 30 36 31 37 81 38 32 39 86 40 80 41 82 42
REMARK SMILES IDX 33 43 85 44 79 45 78 46 34 48 66 49 46 50 65 51 47 52 50 53
REMARK SMILES IDX 64 54 83 55 48 56 49 57 63 59 84 60 51 61 35 62 36 63 44 64
REMARK SMILES IDX 37 65 43 66 45 67 42 68 38 69 39 70 40 71 41 72 67 73 68 74
REMARK SMILES IDX 76 75 69 76 75 77 77 78 74 79 70 80 71 81 72 82 73 83 52 84
REMARK SMILES IDX 53 85 61 86 54 87 60 88 62 89 59 90 55 91 56 92 57 93 58 94
REMARK H PARENT 82 47 50 58
REMARK Flexibility Score: inf
ROOT
ATOM      1  C   UNL A   1      37.408  21.072  24.650  1.00  0.00     0.275 C 
ENDROOT
BRANCH   1   2
ATOM      2  C   UNL A   1      36.200  20.221  25.036  1.00  0.00     0.274 C 
BRANCH   2   3
ATOM      3  O   UNL A   1      35.087  20.680  24.261  1.00  0.00    -0.462 OA
BRANCH   3   4
ATOM      4  C   UNL A   1      33.872  20.901  24.825  1.00  0.00     0.306 C 
ATOM      5  O   UNL A   1      32.804  20.536  24.355  1.00  0.00    -0.252 OA
BRANCH   4   6
ATOM      6  C   UNL A   1      34.016  21.647  26.174  1.00  0.00     0.131 C 
BRANCH   6   7
ATOM      7  C   UNL A   1      33.725  23.123  25.943  1.00  0.00     0.031 C 
ATOM      8  C   UNL A   1      31.822  28.159  27.378  1.00  0.00     0.044 C 
ATOM      9  C   UNL A   1      31.919  28.205  25.874  1.00  0.00    -0.047 A 
ATOM     10  C   UNL A   1      31.308  29.258  25.184  1.00  0.00     0.004 A 
ATOM     11  C   UNL A   1      32.593  27.199  25.141  1.00  0.00    -0.034 A 
ATOM     12  C   UNL A   1      31.384  29.334  23.794  1.00  0.00     0.001 A 
ATOM     13  C   UNL A   1      32.769  27.343  23.747  1.00  0.00    -0.044 A 
ATOM     14  C   UNL A   1      33.047  25.926  25.827  1.00  0.00     0.053 C 
ATOM     15  C   UNL A   1      32.137  28.403  23.084  1.00  0.00     0.004 A 
ATOM     16  C   UNL A   1      33.680  26.440  22.950  1.00  0.00     0.036 C 
ATOM     17  C   UNL A   1      31.960  24.846  26.087  1.00  0.00    -0.034 A 
ATOM     18  C   UNL A   1      34.356  25.394  25.174  1.00  0.00     0.002 C 
ATOM     19  C   UNL A   1      34.119  25.166  23.665  1.00  0.00     0.009 C 
ATOM     20  C   UNL A   1      30.556  24.913  25.940  1.00  0.00    -0.047 A 
ATOM     21  C   UNL A   1      32.466  23.645  26.626  1.00  0.00    -0.040 A 
ATOM     22  C   UNL A   1      34.861  24.131  25.928  1.00  0.00     0.013 C 
ATOM     23  C   UNL A   1      29.744  23.903  26.507  1.00  0.00     0.004 A 
ATOM     24  C   UNL A   1      29.799  25.975  25.196  1.00  0.00     0.044 C 
ATOM     25  C   UNL A   1      31.651  22.778  27.374  1.00  0.00     0.004 A 
ATOM     26  C   UNL A   1      30.280  22.882  27.274  1.00  0.00     0.001 A 
ENDBRANCH   6   7
ENDBRANCH   4   6
ENDBRANCH   3   4
ENDBRANCH   2   3
ENDBRANCH   1   2
BRANCH   1  27
ATOM     27  O   UNL A   1      37.848  21.828  25.791  1.00  0.00    -0.458 OA
BRANCH  27  28
ATOM     28  C   UNL A   1      39.122  21.598  26.185  1.00  0.00     0.338 C 
ATOM     29  O   UNL A   1      39.813  20.610  25.975  1.00  0.00    -0.246 OA
BRANCH  28  30
ATOM     30  C   UNL A   1      39.638  22.838  26.765  1.00  0.00     0.060 A 
ATOM     31  C   UNL A   1      39.152  24.057  26.289  1.00  0.00     0.016 A 
ATOM     32  C   UNL A   1      40.622  22.800  27.747  1.00  0.00     0.016 A 
ATOM     33  C   UNL A   1      39.649  25.252  26.760  1.00  0.00     0.010 A 
ATOM     34  C   UNL A   1      41.128  24.005  28.231  1.00  0.00     0.010 A 
ATOM     35  C   UNL A   1      40.655  25.225  27.718  1.00  0.00    -0.014 A 
BRANCH  35  36
ATOM     36  C   UNL A   1      41.308  26.496  28.049  1.00  0.00     0.031 A 
ATOM     37  C   UNL A   1      40.517  27.515  28.801  1.00  0.00     0.074 A 
ATOM     38  C   UNL A   1      42.607  26.671  27.756  1.00  0.00     0.049 A 
ATOM     39  N   UNL A   1      40.858  28.724  29.145  1.00  0.00    -0.248 NA
ATOM     40  C   UNL A   1      39.161  27.122  29.227  1.00  0.00     0.031 C 
ATOM     41  C   UNL A   1      43.467  25.671  27.124  1.00  0.00     0.029 A 
ATOM     42  N   UNL A   1      43.426  27.748  27.953  1.00  0.00    -0.354 N 
ATOM     43  C   UNL A   1      39.753  29.248  29.800  1.00  0.00     0.074 A 
ATOM     44  C   UNL A   1      38.724  28.236  29.795  1.00  0.00     0.031 C 
ATOM     45  C   UNL A   1      44.696  26.189  26.972  1.00  0.00     0.029 A 
ATOM     46  C   UNL A   1      44.688  27.571  27.445  1.00  0.00     0.049 A 
ATOM     47  H   UNL A   1      43.138  28.569  28.415  1.00  0.00     0.167 HD
ATOM     48  C   UNL A   1      39.627  30.471  30.354  1.00  0.00     0.034 A 
ATOM     49  C   UNL A   1      45.709  28.445  27.346  1.00  0.00     0.034 A 
ATOM     50  C   UNL A   1      40.682  31.446  30.353  1.00  0.00     0.049 A 
ATOM     51  C   UNL A   1      45.519  29.826  27.913  1.00  0.00     0.074 A 
ATOM     52  C   UNL A   1      40.664  32.723  30.878  1.00  0.00     0.029 A 
ATOM     53  N   UNL A   1      41.943  31.249  29.805  1.00  0.00    -0.354 N 
ATOM     54  N   UNL A   1      44.467  30.327  28.518  1.00  0.00    -0.248 NA
ATOM     55  C   UNL A   1      46.646  30.760  27.797  1.00  0.00     0.031 C 
ATOM     56  C   UNL A   1      41.892  33.320  30.595  1.00  0.00     0.029 A 
ATOM     57  C   UNL A   1      42.706  32.390  29.965  1.00  0.00     0.049 A 
ATOM     58  H   UNL A   1      42.247  30.421  29.369  1.00  0.00     0.167 HD
ATOM     59  C   UNL A   1      44.816  31.621  28.889  1.00  0.00     0.074 A 
ATOM     60  C   UNL A   1      46.179  31.823  28.443  1.00  0.00     0.031 C 
ATOM     61  C   UNL A   1      44.077  32.553  29.541  1.00  0.00     0.034 A 
BRANCH  48  62
ATOM     62  C   UNL A   1      38.313  30.846  30.979  1.00  0.00     0.023 A 
ATOM     63  C   UNL A   1      37.351  31.517  30.204  1.00  0.00     0.031 A 
ATOM     64  C   UNL A   1      38.054  30.644  32.344  1.00  0.00     0.131 A 
ATOM     65  C   UNL A   1      36.191  32.009  30.812  1.00  0.00     0.055 A 
ATOM     66  C   UNL A   1      36.876  31.101  32.938  1.00  0.00     0.041 A 
ATOM     67  F   UNL A   1      38.937  29.992  33.118  1.00  0.00    -0.206 F 
ATOM     68  C   UNL A   1      35.946  31.799  32.173  1.00  0.00     0.022 A 
BRANCH  65  69
ATOM     69  S   UNL A   1      34.985  32.976  29.866  1.00  0.00     0.124 S 
ATOM     70  O   UNL A   1      34.075  33.434  30.915  1.00  0.00    -0.237 OA
ATOM     71  O   UNL A   1      35.825  34.010  29.273  1.00  0.00    -0.237 OA
ATOM     72  O   UNL A   1      34.414  32.009  28.935  1.00  0.00    -0.744 OA
ENDBRANCH  65  69
ENDBRANCH  48  62
BRANCH  49  73
ATOM     73  C   UNL A   1      46.977  28.005  26.705  1.00  0.00     0.023 A 
ATOM     74  C   UNL A   1      47.153  28.111  25.312  1.00  0.00     0.031 A 
ATOM     75  C   UNL A   1      47.983  27.373  27.453  1.00  0.00     0.131 A 
ATOM     76  C   UNL A   1      48.278  27.538  24.705  1.00  0.00     0.055 A 
ATOM     77  C   UNL A   1      49.132  26.857  26.851  1.00  0.00     0.041 A 
ATOM     78  F   UNL A   1      47.853  27.239  28.782  1.00  0.00    -0.206 F 
ATOM     79  C   UNL A   1      49.276  26.925  25.468  1.00  0.00     0.022 A 
BRANCH  76  80
ATOM     80  S   UNL A   1      48.435  27.486  22.899  1.00  0.00     0.124 S 
ATOM     81  O   UNL A   1      49.741  28.103  22.686  1.00  0.00    -0.237 OA
ATOM     82  O   UNL A   1      48.366  26.051  22.637  1.00  0.00    -0.237 OA
ATOM     83  O   UNL A   1      47.291  28.261  22.430  1.00  0.00    -0.744 OA
ENDBRANCH  76  80
ENDBRANCH  49  73
BRANCH  61  84
ATOM     84  C   UNL A   1      44.714  33.877  29.871  1.00  0.00     0.023 A 
ATOM     85  C   UNL A   1      44.686  34.909  28.913  1.00  0.00     0.031 A 
ATOM     86  C   UNL A   1      45.496  34.050  31.022  1.00  0.00     0.131 A 
ATOM     87  C   UNL A   1      45.475  36.048  29.098  1.00  0.00     0.055 A 
ATOM     88  C   UNL A   1      46.242  35.211  31.227  1.00  0.00     0.041 A 
ATOM     89  F   UNL A   1      45.561  33.087  31.955  1.00  0.00    -0.206 F 
ATOM     90  C   UNL A   1      46.248  36.208  30.253  1.00  0.00     0.022 A 
BRANCH  87  91
ATOM     91  S   UNL A   1      45.599  37.314  27.807  1.00  0.00     0.124 S 
ATOM     92  O   UNL A   1      46.360  38.362  28.482  1.00  0.00    -0.237 OA
ATOM     93  O   UNL A   1      46.313  36.605  26.750  1.00  0.00    -0.237 OA
ATOM     94  O   UNL A   1      44.210  37.652  27.510  1.00  0.00    -0.744 OA
ENDBRANCH  87  91
ENDBRANCH  61  84
ENDBRANCH  35  36
ENDBRANCH  28  30
ENDBRANCH  27  28
ENDBRANCH   1  27
TORSDOF 15
ENDMDL
MODEL 3
REMARK VINA RESULT:     -13.1      1.489      7.538
REMARK SMILES Cc1cccc2c1[C@H]1c3c(C)cccc3[C@H](CC(=O)OCCOC(=O)c3ccc(-c4c5nc(c(-c6cc(S(=O)(=O)[O-])ccc6F)c6ccc([nH]6)c(-c6cc(S(=O)(=O)[O-])ccc6F)c6nc(c(-c7cc(S(=O)(=O)[O-])ccc7F)c7ccc4[nH]7)C=C6)C=C5)cc3)C[C@H]1CC2
REMARK SMILES IDX 22 1 21 2 20 3 18 4 19 5 17 6 16 7 1 8 2 9 3 10 7 11 4 12
REMARK SMILES IDX 6 13 8 14 5 15 92 16 9 17 90 18 91 19 10 20 15 21 89 22
REMARK SMILES IDX 12 23 11 24 14 25 13 26 23 27 24 28 25 29 26 30 27 31 88 32
REMARK SMILES IDX 28 33 87 34 29 35 30 36 31 37 81 38 32 39 86 40 80 41 82 42
REMARK SMILES IDX 33 43 85 44 79 45 78 46 34 48 66 49 46 50 65 51 47 52 50 53
REMARK SMILES IDX 64 54 83 55 48 56 49 57 63 59 84 60 51 61 35 62 36 63 44 64
REMARK SMILES IDX 37 65 43 66 45 67 42 68 38 69 39 70 40 71 41 72 67 73 68 74
REMARK SMILES IDX 76 75 69 76 75 77 77 78 74 79 70 80 71 81 72 82 73 83 52 84
REMARK SMILES IDX 53 85 61 86 54 87 60 88 62 89 59 90 55 91 56 92 57 93 58 94
REMARK H PARENT 82 47 50 58
REMARK Flexibility Score: inf
ROOT
ATOM      1  C   UNL A   1      37.631  19.943  24.655  1.00  0.00     0.275 C 
ENDROOT
BRANCH   1   2
ATOM      2  C   UNL A   1      36.160  19.660  24.954  1.00  0.00     0.274 C 
BRANCH   2   3
ATOM      3  O   UNL A   1      35.419  20.838  24.620  1.00  0.00    -0.462 OA
BRANCH   3   4
ATOM      4  C   UNL A   1      34.086  20.928  24.857  1.00  0.00     0.306 C 
ATOM      5  O   UNL A   1      33.210  20.526  24.103  1.00  0.00    -0.252 OA
BRANCH   4   6
ATOM      6  C   UNL A   1      33.812  21.575  26.236  1.00  0.00     0.131 C 
BRANCH   6   7
ATOM      7  C   UNL A   1      33.584  23.066  26.034  1.00  0.00     0.031 C 
ATOM      8  C   UNL A   1      31.797  28.129  27.520  1.00  0.00     0.044 C 
ATOM      9  C   UNL A   1      31.964  28.212  26.024  1.00  0.00    -0.047 A 
ATOM     10  C   UNL A   1      31.423  29.304  25.336  1.00  0.00     0.004 A 
ATOM     11  C   UNL A   1      32.635  27.201  25.294  1.00  0.00    -0.034 A 
ATOM     12  C   UNL A   1      31.565  29.412  23.954  1.00  0.00     0.001 A 
ATOM     13  C   UNL A   1      32.880  27.375  23.914  1.00  0.00    -0.044 A 
ATOM     14  C   UNL A   1      33.011  25.895  25.965  1.00  0.00     0.053 C 
ATOM     15  C   UNL A   1      32.316  28.474  23.253  1.00  0.00     0.004 A 
ATOM     16  C   UNL A   1      33.793  26.459  23.134  1.00  0.00     0.036 C 
ATOM     17  C   UNL A   1      31.876  24.849  26.145  1.00  0.00    -0.034 A 
ATOM     18  C   UNL A   1      34.330  25.332  25.356  1.00  0.00     0.002 C 
ATOM     19  C   UNL A   1      34.154  25.152  23.833  1.00  0.00     0.009 C 
ATOM     20  C   UNL A   1      30.484  24.971  25.937  1.00  0.00    -0.047 A 
ATOM     21  C   UNL A   1      32.314  23.616  26.673  1.00  0.00    -0.040 A 
ATOM     22  C   UNL A   1      34.754  24.032  26.097  1.00  0.00     0.013 C 
ATOM     23  C   UNL A   1      29.611  23.977  26.440  1.00  0.00     0.004 A 
ATOM     24  C   UNL A   1      29.800  26.079  25.190  1.00  0.00     0.044 C 
ATOM     25  C   UNL A   1      31.436  22.761  27.360  1.00  0.00     0.004 A 
ATOM     26  C   UNL A   1      30.075  22.918  27.202  1.00  0.00     0.001 A 
ENDBRANCH   6   7
ENDBRANCH   4   6
ENDBRANCH   3   4
ENDBRANCH   2   3
ENDBRANCH   1   2
BRANCH   1  27
ATOM     27  O   UNL A   1      38.114  20.965  25.544  1.00  0.00    -0.458 OA
BRANCH  27  28
ATOM     28  C   UNL A   1      39.302  20.706  26.137  1.00  0.00     0.338 C 
ATOM     29  O   UNL A   1      39.940  19.662  26.131  1.00  0.00    -0.246 OA
BRANCH  28  30
ATOM     30  C   UNL A   1      39.825  21.971  26.655  1.00  0.00     0.060 A 
ATOM     31  C   UNL A   1      39.349  23.166  26.115  1.00  0.00     0.016 A 
ATOM     32  C   UNL A   1      40.806  21.976  27.641  1.00  0.00     0.016 A 
ATOM     33  C   UNL A   1      39.853  24.381  26.525  1.00  0.00     0.010 A 
ATOM     34  C   UNL A   1      41.318  23.200  28.064  1.00  0.00     0.010 A 
ATOM     35  C   UNL A   1      40.856  24.396  27.488  1.00  0.00    -0.014 A 
BRANCH  35  36
ATOM     36  C   UNL A   1      41.517  25.678  27.756  1.00  0.00     0.031 A 
ATOM     37  C   UNL A   1      40.762  26.707  28.531  1.00  0.00     0.074 A 
ATOM     38  C   UNL A   1      42.795  25.855  27.384  1.00  0.00     0.049 A 
ATOM     39  N   UNL A   1      41.114  27.925  28.831  1.00  0.00    -0.248 NA
ATOM     40  C   UNL A   1      39.437  26.313  29.043  1.00  0.00     0.031 C 
ATOM     41  C   UNL A   1      43.626  24.848  26.724  1.00  0.00     0.029 A 
ATOM     42  N   UNL A   1      43.616  26.941  27.513  1.00  0.00    -0.354 N 
ATOM     43  C   UNL A   1      40.044  28.454  29.538  1.00  0.00     0.074 A 
ATOM     44  C   UNL A   1      39.024  27.435  29.613  1.00  0.00     0.031 C 
ATOM     45  C   UNL A   1      44.839  25.371  26.491  1.00  0.00     0.029 A 
ATOM     46  C   UNL A   1      44.849  26.763  26.936  1.00  0.00     0.049 A 
ATOM     47  H   UNL A   1      43.349  27.769  27.974  1.00  0.00     0.167 HD
ATOM     48  C   UNL A   1      39.940  29.687  30.074  1.00  0.00     0.034 A 
ATOM     49  C   UNL A   1      45.855  27.641  26.761  1.00  0.00     0.034 A 
ATOM     50  C   UNL A   1      40.986  30.669  29.993  1.00  0.00     0.049 A 
ATOM     51  C   UNL A   1      45.687  29.032  27.311  1.00  0.00     0.074 A 
ATOM     52  C   UNL A   1      40.989  31.956  30.493  1.00  0.00     0.029 A 
ATOM     53  N   UNL A   1      42.215  30.469  29.378  1.00  0.00    -0.354 N 
ATOM     54  N   UNL A   1      44.668  29.539  27.966  1.00  0.00    -0.248 NA
ATOM     55  C   UNL A   1      46.798  29.971  27.112  1.00  0.00     0.031 C 
ATOM     56  C   UNL A   1      42.193  32.555  30.128  1.00  0.00     0.029 A 
ATOM     57  C   UNL A   1      42.977  31.618  29.470  1.00  0.00     0.049 A 
ATOM     58  H   UNL A   1      42.500  29.634  28.941  1.00  0.00     0.167 HD
ATOM     59  C   UNL A   1      45.027  30.841  28.290  1.00  0.00     0.074 A 
ATOM     60  C   UNL A   1      46.361  31.044  27.762  1.00  0.00     0.031 C 
ATOM     61  C   UNL A   1      44.320  31.782  28.965  1.00  0.00     0.034 A 
BRANCH  48  62
ATOM     62  C   UNL A   1      38.661  30.066  30.766  1.00  0.00     0.023 A 
ATOM     63  C   UNL A   1      37.686  30.790  30.058  1.00  0.00     0.031 A 
ATOM     64  C   UNL A   1      38.452  29.813  32.131  1.00  0.00     0.131 A 
ATOM     65  C   UNL A   1      36.563  31.283  30.732  1.00  0.00     0.055 A 
ATOM     66  C   UNL A   1      37.310  30.272  32.790  1.00  0.00     0.041 A 
ATOM     67  F   UNL A   1      39.348  29.110  32.842  1.00  0.00    -0.206 F 
ATOM     68  C   UNL A   1      36.367  31.023  32.092  1.00  0.00     0.022 A 
BRANCH  65  69
ATOM     69  S   UNL A   1      35.346  32.315  29.875  1.00  0.00     0.124 S 
ATOM     70  O   UNL A   1      34.866  31.413  28.829  1.00  0.00    -0.237 OA
ATOM     71  O   UNL A   1      34.390  32.601  30.939  1.00  0.00    -0.237 OA
ATOM     72  O   UNL A   1      36.125  33.452  29.398  1.00  0.00    -0.744 OA
ENDBRANCH  65  69
ENDBRANCH  48  62
BRANCH  49  73
ATOM     73  C   UNL A   1      47.088  27.197  26.057  1.00  0.00     0.023 A 
ATOM     74  C   UNL A   1      48.089  26.483  26.743  1.00  0.00     0.031 A 
ATOM     75  C   UNL A   1      47.335  27.572  24.728  1.00  0.00     0.131 A 
ATOM     76  C   UNL A   1      49.314  26.221  26.116  1.00  0.00     0.055 A 
ATOM     77  C   UNL A   1      48.534  27.256  24.086  1.00  0.00     0.041 A 
ATOM     78  F   UNL A   1      46.414  28.263  24.038  1.00  0.00    -0.206 F 
ATOM     79  C   UNL A   1      49.536  26.590  24.786  1.00  0.00     0.022 A 
BRANCH  76  80
ATOM     80  S   UNL A   1      50.691  25.480  27.035  1.00  0.00     0.124 S 
ATOM     81  O   UNL A   1      51.627  25.143  25.968  1.00  0.00    -0.237 OA
ATOM     82  O   UNL A   1      51.094  26.583  27.903  1.00  0.00    -0.237 OA
ATOM     83  O   UNL A   1      50.078  24.344  27.716  1.00  0.00    -0.744 OA
ENDBRANCH  76  80
ENDBRANCH  49  73
BRANCH  61  84
ATOM     84  C   UNL A   1      44.964  33.116  29.232  1.00  0.00     0.023 A 
ATOM     85  C   UNL A   1      44.840  34.142  28.274  1.00  0.00     0.031 A 
ATOM     86  C   UNL A   1      45.840  33.308  30.310  1.00  0.00     0.131 A 
ATOM     87  C   UNL A   1      45.626  35.292  28.384  1.00  0.00     0.055 A 
ATOM     88  C   UNL A   1      46.585  34.480  30.443  1.00  0.00     0.041 A 
ATOM     89  F   UNL A   1      45.998  32.352  31.239  1.00  0.00    -0.206 F 
ATOM     90  C   UNL A   1      46.493  35.471  29.467  1.00  0.00     0.022 A 
BRANCH  87  91
ATOM     91  S   UNL A   1      45.621  36.551  27.079  1.00  0.00     0.124 S 
ATOM     92  O   UNL A   1      46.303  35.860  25.988  1.00  0.00    -0.237 OA
ATOM     93  O   UNL A   1      44.192  36.778  26.880  1.00  0.00    -0.237 OA
ATOM     94  O   UNL A   1      46.359  37.667  27.663  1.00  0.00    -0.744 OA
ENDBRANCH  87  91
ENDBRANCH  61  84
ENDBRANCH  35  36
ENDBRANCH  28  30
ENDBRANCH  27  28
ENDBRANCH   1  27
TORSDOF 15
ENDMDL
