MODEL 1
REMARK VINA RESULT:     -10.4      0.000      0.000
REMARK SMILES CC(C)(C)C[C@@H](O)[C@@H](F)C(=O)OCCOC(=O)c1ccc(-c2c3nc(c(-c4cc(S(=O)(=O)[O-])ccc4F)c4ccc([nH]4)c(-c4cc(S(=O)(=O)[O-])ccc4F)c4nc(c(-c5cc(S(=O)(=O)[O-])ccc5F)c5ccc2[nH]5)C=C4)C=C3)cc1
REMARK SMILES IDX 13 1 12 2 10 3 11 4 8 5 9 6 6 7 5 8 2 9 1 10 3 11 4 12 7 13
REMARK SMILES IDX 14 15 15 16 16 17 17 18 18 19 19 20 80 21 20 22 79 23 21 24
REMARK SMILES IDX 22 25 23 26 73 27 24 28 78 29 72 30 74 31 25 32 77 33 71 34
REMARK SMILES IDX 70 35 26 37 58 38 38 39 57 40 39 41 42 42 56 43 75 44 40 45
REMARK SMILES IDX 41 46 55 48 76 49 43 50 27 51 28 52 36 53 29 54 35 55 37 56
REMARK SMILES IDX 34 57 30 58 31 59 32 60 33 61 59 62 60 63 68 64 61 65 67 66
REMARK SMILES IDX 69 67 66 68 62 69 63 70 64 71 65 72 44 73 45 74 53 75 46 76
REMARK SMILES IDX 52 77 54 78 51 79 47 80 48 81 49 82 50 83
REMARK H PARENT 7 14 74 36 42 47
REMARK Flexibility Score: inf
ROOT
ATOM      1  C   UNL A   1      42.338  19.489  26.266  1.00  0.00     0.274 C 
ENDROOT
BRANCH   1   2
ATOM      2  O   UNL A   1      42.845  19.206  24.947  1.00  0.00    -0.460 OA
BRANCH   2   3
ATOM      3  C   UNL A   1      44.153  18.823  24.880  1.00  0.00     0.343 C 
ATOM      4  O   UNL A   1      44.660  17.981  25.614  1.00  0.00    -0.249 OA
BRANCH   3   5
ATOM      5  C   UNL A   1      44.947  19.621  23.861  1.00  0.00     0.304 C 
ATOM      6  F   UNL A   1      45.437  18.797  22.883  1.00  0.00    -0.232 F 
BRANCH   5   7
ATOM      7  C   UNL A   1      46.113  20.420  24.462  1.00  0.00     0.160 C 
BRANCH   7   8
ATOM      8  C   UNL A   1      45.658  21.115  25.760  1.00  0.00     0.041 C 
BRANCH   8   9
ATOM      9  C   UNL A   1      45.287  22.623  25.648  1.00  0.00    -0.036 C 
ATOM     10  C   UNL A   1      43.780  22.859  25.462  1.00  0.00     0.011 C 
ATOM     11  C   UNL A   1      46.020  23.199  24.420  1.00  0.00     0.011 C 
ATOM     12  C   UNL A   1      45.764  23.378  26.901  1.00  0.00     0.011 C 
ENDBRANCH   8   9
ENDBRANCH   7   8
BRANCH   7  13
ATOM     13  O   UNL A   1      47.176  19.547  24.826  1.00  0.00    -0.389 OA
ATOM     14  H   UNL A   1      46.846  18.876  25.442  1.00  0.00     0.211 HD
ENDBRANCH   7  13
ENDBRANCH   5   7
ENDBRANCH   3   5
ENDBRANCH   2   3
ENDBRANCH   1   2
BRANCH   1  15
ATOM     15  C   UNL A   1      40.809  19.525  26.302  1.00  0.00     0.275 C 
BRANCH  15  16
ATOM     16  O   UNL A   1      40.319  20.586  27.140  1.00  0.00    -0.458 OA
BRANCH  16  17
ATOM     17  C   UNL A   1      39.582  21.522  26.496  1.00  0.00     0.338 C 
ATOM     18  O   UNL A   1      38.663  21.319  25.719  1.00  0.00    -0.246 OA
BRANCH  17  19
ATOM     19  C   UNL A   1      39.965  22.864  26.964  1.00  0.00     0.060 A 
ATOM     20  C   UNL A   1      39.479  23.974  26.270  1.00  0.00     0.016 A 
ATOM     21  C   UNL A   1      40.879  23.024  28.006  1.00  0.00     0.016 A 
ATOM     22  C   UNL A   1      39.931  25.251  26.588  1.00  0.00     0.010 A 
ATOM     23  C   UNL A   1      41.308  24.312  28.346  1.00  0.00     0.010 A 
ATOM     24  C   UNL A   1      40.850  25.431  27.628  1.00  0.00    -0.014 A 
BRANCH  24  25
ATOM     25  C   UNL A   1      41.351  26.793  27.935  1.00  0.00     0.031 A 
ATOM     26  C   UNL A   1      42.759  27.173  27.575  1.00  0.00     0.074 A 
ATOM     27  C   UNL A   1      40.533  27.690  28.518  1.00  0.00     0.049 A 
ATOM     28  N   UNL A   1      43.419  28.267  27.855  1.00  0.00    -0.248 NA
ATOM     29  C   UNL A   1      43.525  26.186  26.802  1.00  0.00     0.031 C 
ATOM     30  C   UNL A   1      39.131  27.450  28.865  1.00  0.00     0.029 A 
ATOM     31  N   UNL A   1      40.763  28.979  28.924  1.00  0.00    -0.354 N 
ATOM     32  C   UNL A   1      44.687  28.095  27.310  1.00  0.00     0.074 A 
ATOM     33  C   UNL A   1      44.706  26.779  26.704  1.00  0.00     0.031 C 
ATOM     34  C   UNL A   1      38.628  28.556  29.437  1.00  0.00     0.029 A 
ATOM     35  C   UNL A   1      39.682  29.558  29.546  1.00  0.00     0.049 A 
ATOM     36  H   UNL A   1      41.619  29.445  28.785  1.00  0.00     0.167 HD
ATOM     37  C   UNL A   1      45.733  28.959  27.314  1.00  0.00     0.034 A 
ATOM     38  C   UNL A   1      39.567  30.748  30.169  1.00  0.00     0.034 A 
ATOM     39  C   UNL A   1      45.694  30.268  27.921  1.00  0.00     0.049 A 
ATOM     40  C   UNL A   1      40.762  31.662  30.221  1.00  0.00     0.074 A 
ATOM     41  C   UNL A   1      46.695  31.223  27.986  1.00  0.00     0.029 A 
ATOM     42  N   UNL A   1      44.592  30.809  28.574  1.00  0.00    -0.354 N 
ATOM     43  N   UNL A   1      41.967  31.473  29.738  1.00  0.00    -0.248 NA
ATOM     44  C   UNL A   1      40.580  32.948  30.905  1.00  0.00     0.031 C 
ATOM     45  C   UNL A   1      46.217  32.313  28.722  1.00  0.00     0.029 A 
ATOM     46  C   UNL A   1      44.896  32.069  29.064  1.00  0.00     0.049 A 
ATOM     47  H   UNL A   1      43.720  30.360  28.673  1.00  0.00     0.167 HD
ATOM     48  C   UNL A   1      42.684  32.624  30.046  1.00  0.00     0.074 A 
ATOM     49  C   UNL A   1      41.771  33.507  30.743  1.00  0.00     0.031 C 
ATOM     50  C   UNL A   1      43.979  32.928  29.776  1.00  0.00     0.034 A 
BRANCH  37  51
ATOM     51  C   UNL A   1      47.023  28.479  26.694  1.00  0.00     0.023 A 
ATOM     52  C   UNL A   1      47.185  28.379  25.301  1.00  0.00     0.031 A 
ATOM     53  C   UNL A   1      48.093  28.076  27.513  1.00  0.00     0.131 A 
ATOM     54  C   UNL A   1      48.362  27.825  24.772  1.00  0.00     0.055 A 
ATOM     55  C   UNL A   1      49.288  27.592  26.979  1.00  0.00     0.041 A 
ATOM     56  F   UNL A   1      47.986  28.127  28.851  1.00  0.00    -0.206 F 
ATOM     57  C   UNL A   1      49.423  27.450  25.600  1.00  0.00     0.022 A 
BRANCH  54  58
ATOM     58  S   UNL A   1      48.434  27.472  22.994  1.00  0.00     0.124 S 
ATOM     59  O   UNL A   1      47.266  28.199  22.501  1.00  0.00    -0.237 OA
ATOM     60  O   UNL A   1      49.733  28.015  22.616  1.00  0.00    -0.237 OA
ATOM     61  O   UNL A   1      48.324  26.016  22.929  1.00  0.00    -0.744 OA
ENDBRANCH  54  58
ENDBRANCH  37  51
BRANCH  38  62
ATOM     62  C   UNL A   1      38.294  31.113  30.851  1.00  0.00     0.023 A 
ATOM     63  C   UNL A   1      37.268  31.780  30.167  1.00  0.00     0.031 A 
ATOM     64  C   UNL A   1      38.105  30.822  32.214  1.00  0.00     0.131 A 
ATOM     65  C   UNL A   1      36.107  32.166  30.858  1.00  0.00     0.055 A 
ATOM     66  C   UNL A   1      36.931  31.167  32.885  1.00  0.00     0.041 A 
ATOM     67  F   UNL A   1      39.058  30.184  32.911  1.00  0.00    -0.206 F 
ATOM     68  C   UNL A   1      35.928  31.853  32.208  1.00  0.00     0.022 A 
BRANCH  65  69
ATOM     69  S   UNL A   1      34.857  33.143  29.979  1.00  0.00     0.124 S 
ATOM     70  O   UNL A   1      34.265  32.144  29.095  1.00  0.00    -0.237 OA
ATOM     71  O   UNL A   1      34.013  33.612  31.073  1.00  0.00    -0.237 OA
ATOM     72  O   UNL A   1      35.642  34.178  29.312  1.00  0.00    -0.744 OA
ENDBRANCH  65  69
ENDBRANCH  38  62
BRANCH  50  73
ATOM     73  C   UNL A   1      44.460  34.287  30.211  1.00  0.00     0.023 A 
ATOM     74  C   UNL A   1      44.326  35.416  29.385  1.00  0.00     0.031 A 
ATOM     75  C   UNL A   1      45.083  34.447  31.462  1.00  0.00     0.131 A 
ATOM     76  C   UNL A   1      44.852  36.650  29.799  1.00  0.00     0.055 A 
ATOM     77  C   UNL A   1      45.562  35.686  31.888  1.00  0.00     0.041 A 
ATOM     78  F   UNL A   1      45.237  33.400  32.286  1.00  0.00    -0.206 F 
ATOM     79  C   UNL A   1      45.458  36.794  31.050  1.00  0.00     0.022 A 
BRANCH  76  80
ATOM     80  S   UNL A   1      44.805  38.050  28.647  1.00  0.00     0.124 S 
ATOM     81  O   UNL A   1      45.343  37.458  27.426  1.00  0.00    -0.237 OA
ATOM     82  O   UNL A   1      43.385  38.385  28.621  1.00  0.00    -0.237 OA
ATOM     83  O   UNL A   1      45.664  39.047  29.283  1.00  0.00    -0.744 OA
ENDBRANCH  76  80
ENDBRANCH  50  73
ENDBRANCH  24  25
ENDBRANCH  17  19
ENDBRANCH  16  17
ENDBRANCH  15  16
ENDBRANCH   1  15
TORSDOF 18
ENDMDL
MODEL 2
REMARK VINA RESULT:     -10.1      5.053     12.794
REMARK SMILES CC(C)(C)C[C@@H](O)[C@@H](F)C(=O)OCCOC(=O)c1ccc(-c2c3nc(c(-c4cc(S(=O)(=O)[O-])ccc4F)c4ccc([nH]4)c(-c4cc(S(=O)(=O)[O-])ccc4F)c4nc(c(-c5cc(S(=O)(=O)[O-])ccc5F)c5ccc2[nH]5)C=C4)C=C3)cc1
REMARK SMILES IDX 13 1 12 2 10 3 11 4 8 5 9 6 6 7 5 8 2 9 1 10 3 11 4 12 7 13
REMARK SMILES IDX 14 15 15 16 16 17 17 18 18 19 19 20 80 21 20 22 79 23 21 24
REMARK SMILES IDX 22 25 23 26 73 27 24 28 78 29 72 30 74 31 25 32 77 33 71 34
REMARK SMILES IDX 70 35 26 37 58 38 38 39 57 40 39 41 42 42 56 43 75 44 40 45
REMARK SMILES IDX 41 46 55 48 76 49 43 50 27 51 28 52 36 53 29 54 35 55 37 56
REMARK SMILES IDX 34 57 30 58 31 59 32 60 33 61 59 62 60 63 68 64 61 65 67 66
REMARK SMILES IDX 69 67 66 68 62 69 63 70 64 71 65 72 44 73 45 74 53 75 46 76
REMARK SMILES IDX 52 77 54 78 51 79 47 80 48 81 49 82 50 83
REMARK H PARENT 7 14 74 36 42 47
REMARK Flexibility Score: inf
ROOT
ATOM      1  C   UNL A   1      33.476  35.017  29.103  1.00  0.00     0.274 C 
ENDROOT
BRANCH   1   2
ATOM      2  O   UNL A   1      32.529  35.134  30.184  1.00  0.00    -0.460 OA
BRANCH   2   3
ATOM      3  C   UNL A   1      32.665  36.233  30.980  1.00  0.00     0.343 C 
ATOM      4  O   UNL A   1      32.892  37.363  30.558  1.00  0.00    -0.249 OA
BRANCH   3   5
ATOM      5  C   UNL A   1      32.605  35.898  32.460  1.00  0.00     0.304 C 
ATOM      6  F   UNL A   1      31.519  36.495  33.043  1.00  0.00    -0.232 F 
BRANCH   5   7
ATOM      7  C   UNL A   1      33.865  36.294  33.244  1.00  0.00     0.160 C 
BRANCH   7   8
ATOM      8  C   UNL A   1      35.119  35.771  32.518  1.00  0.00     0.041 C 
BRANCH   8   9
ATOM      9  C   UNL A   1      35.726  34.440  33.050  1.00  0.00    -0.036 C 
ATOM     10  C   UNL A   1      35.295  33.213  32.231  1.00  0.00     0.011 C 
ATOM     11  C   UNL A   1      35.240  34.246  34.501  1.00  0.00     0.011 C 
ATOM     12  C   UNL A   1      37.263  34.525  33.057  1.00  0.00     0.011 C 
ENDBRANCH   8   9
ENDBRANCH   7   8
BRANCH   7  13
ATOM     13  O   UNL A   1      33.991  37.710  33.296  1.00  0.00    -0.389 OA
ATOM     14  H   UNL A   1      33.229  38.118  32.857  1.00  0.00     0.211 HD
ENDBRANCH   7  13
ENDBRANCH   5   7
ENDBRANCH   3   5
ENDBRANCH   2   3
ENDBRANCH   1   2
BRANCH   1  15
ATOM     15  C   UNL A   1      33.035  33.991  28.058  1.00  0.00     0.275 C 
BRANCH  15  16
ATOM     16  O   UNL A   1      34.152  33.258  27.525  1.00  0.00    -0.458 OA
BRANCH  16  17
ATOM     17  C   UNL A   1      34.036  31.911  27.607  1.00  0.00     0.338 C 
ATOM     18  O   UNL A   1      33.080  31.239  27.256  1.00  0.00    -0.246 OA
BRANCH  17  19
ATOM     19  C   UNL A   1      35.304  31.332  28.077  1.00  0.00     0.060 A 
ATOM     20  C   UNL A   1      35.308  30.006  28.516  1.00  0.00     0.016 A 
ATOM     21  C   UNL A   1      36.452  32.117  28.185  1.00  0.00     0.016 A 
ATOM     22  C   UNL A   1      36.448  29.466  29.103  1.00  0.00     0.010 A 
ATOM     23  C   UNL A   1      37.609  31.561  28.745  1.00  0.00     0.010 A 
ATOM     24  C   UNL A   1      37.608  30.239  29.223  1.00  0.00    -0.014 A 
BRANCH  24  25
ATOM     25  C   UNL A   1      38.807  29.665  29.881  1.00  0.00     0.031 A 
ATOM     26  C   UNL A   1      39.222  30.149  31.241  1.00  0.00     0.074 A 
ATOM     27  C   UNL A   1      39.507  28.694  29.263  1.00  0.00     0.049 A 
ATOM     28  N   UNL A   1      40.292  29.857  31.934  1.00  0.00    -0.248 NA
ATOM     29  C   UNL A   1      38.311  31.093  31.904  1.00  0.00     0.031 C 
ATOM     30  C   UNL A   1      39.169  28.108  27.965  1.00  0.00     0.029 A 
ATOM     31  N   UNL A   1      40.649  28.034  29.641  1.00  0.00    -0.354 N 
ATOM     32  C   UNL A   1      40.196  30.595  33.108  1.00  0.00     0.074 A 
ATOM     33  C   UNL A   1      38.972  31.366  33.019  1.00  0.00     0.031 C 
ATOM     34  C   UNL A   1      40.087  27.179  27.653  1.00  0.00     0.029 A 
ATOM     35  C   UNL A   1      41.103  27.143  28.699  1.00  0.00     0.049 A 
ATOM     36  H   UNL A   1      41.098  28.185  30.504  1.00  0.00     0.167 HD
ATOM     37  C   UNL A   1      41.050  30.622  34.163  1.00  0.00     0.034 A 
ATOM     38  C   UNL A   1      42.233  26.409  28.664  1.00  0.00     0.034 A 
ATOM     39  C   UNL A   1      42.264  29.844  34.234  1.00  0.00     0.049 A 
ATOM     40  C   UNL A   1      43.200  26.506  29.813  1.00  0.00     0.074 A 
ATOM     41  C   UNL A   1      43.203  29.796  35.251  1.00  0.00     0.029 A 
ATOM     42  N   UNL A   1      42.712  28.976  33.245  1.00  0.00    -0.354 N 
ATOM     43  N   UNL A   1      43.120  27.237  30.900  1.00  0.00    -0.248 NA
ATOM     44  C   UNL A   1      44.412  25.681  29.729  1.00  0.00     0.031 C 
ATOM     45  C   UNL A   1      44.241  28.945  34.854  1.00  0.00     0.029 A 
ATOM     46  C   UNL A   1      43.922  28.409  33.615  1.00  0.00     0.049 A 
ATOM     47  H   UNL A   1      42.237  28.791  32.401  1.00  0.00     0.167 HD
ATOM     48  C   UNL A   1      44.264  26.948  31.638  1.00  0.00     0.074 A 
ATOM     49  C   UNL A   1      45.009  25.965  30.878  1.00  0.00     0.031 C 
ATOM     50  C   UNL A   1      44.662  27.446  32.835  1.00  0.00     0.034 A 
BRANCH  37  51
ATOM     51  C   UNL A   1      40.723  31.572  35.288  1.00  0.00     0.023 A 
ATOM     52  C   UNL A   1      39.659  31.333  36.176  1.00  0.00     0.031 A 
ATOM     53  C   UNL A   1      41.463  32.756  35.450  1.00  0.00     0.131 A 
ATOM     54  C   UNL A   1      39.322  32.297  37.139  1.00  0.00     0.055 A 
ATOM     55  C   UNL A   1      41.169  33.678  36.457  1.00  0.00     0.041 A 
ATOM     56  F   UNL A   1      42.477  33.048  34.618  1.00  0.00    -0.206 F 
ATOM     57  C   UNL A   1      40.083  33.458  37.300  1.00  0.00     0.022 A 
BRANCH  54  58
ATOM     58  S   UNL A   1      37.793  32.079  38.091  1.00  0.00     0.124 S 
ATOM     59  O   UNL A   1      37.413  30.715  37.730  1.00  0.00    -0.237 OA
ATOM     60  O   UNL A   1      38.244  32.275  39.463  1.00  0.00    -0.237 OA
ATOM     61  O   UNL A   1      36.912  33.121  37.569  1.00  0.00    -0.744 OA
ENDBRANCH  54  58
ENDBRANCH  37  51
BRANCH  38  62
ATOM     62  C   UNL A   1      42.543  25.572  27.472  1.00  0.00     0.023 A 
ATOM     63  C   UNL A   1      42.132  24.233  27.396  1.00  0.00     0.031 A 
ATOM     64  C   UNL A   1      43.288  26.100  26.402  1.00  0.00     0.131 A 
ATOM     65  C   UNL A   1      42.496  23.455  26.286  1.00  0.00     0.055 A 
ATOM     66  C   UNL A   1      43.608  25.335  25.280  1.00  0.00     0.041 A 
ATOM     67  F   UNL A   1      43.702  27.376  26.427  1.00  0.00    -0.206 F 
ATOM     68  C   UNL A   1      43.221  24.000  25.223  1.00  0.00     0.022 A 
BRANCH  65  69
ATOM     69  S   UNL A   1      42.064  21.693  26.279  1.00  0.00     0.124 S 
ATOM     70  O   UNL A   1      42.368  21.307  27.653  1.00  0.00    -0.237 OA
ATOM     71  O   UNL A   1      40.650  21.729  25.921  1.00  0.00    -0.237 OA
ATOM     72  O   UNL A   1      42.948  21.130  25.262  1.00  0.00    -0.744 OA
ENDBRANCH  65  69
ENDBRANCH  38  62
BRANCH  50  73
ATOM     73  C   UNL A   1      45.947  26.900  33.401  1.00  0.00     0.023 A 
ATOM     74  C   UNL A   1      47.184  27.519  33.150  1.00  0.00     0.031 A 
ATOM     75  C   UNL A   1      45.933  25.731  34.182  1.00  0.00     0.131 A 
ATOM     76  C   UNL A   1      48.366  26.938  33.636  1.00  0.00     0.055 A 
ATOM     77  C   UNL A   1      47.106  25.184  34.702  1.00  0.00     0.041 A 
ATOM     78  F   UNL A   1      44.778  25.102  34.448  1.00  0.00    -0.206 F 
ATOM     79  C   UNL A   1      48.333  25.781  34.421  1.00  0.00     0.022 A 
BRANCH  76  80
ATOM     80  S   UNL A   1      49.957  27.669  33.164  1.00  0.00     0.124 S 
ATOM     81  O   UNL A   1      50.373  28.319  34.402  1.00  0.00    -0.237 OA
ATOM     82  O   UNL A   1      50.733  26.497  32.768  1.00  0.00    -0.237 OA
ATOM     83  O   UNL A   1      49.608  28.577  32.073  1.00  0.00    -0.744 OA
ENDBRANCH  76  80
ENDBRANCH  50  73
ENDBRANCH  24  25
ENDBRANCH  17  19
ENDBRANCH  16  17
ENDBRANCH  15  16
ENDBRANCH   1  15
TORSDOF 18
ENDMDL
MODEL 3
REMARK VINA RESULT:      -9.9      5.319     11.143
REMARK SMILES CC(C)(C)C[C@@H](O)[C@@H](F)C(=O)OCCOC(=O)c1ccc(-c2c3nc(c(-c4cc(S(=O)(=O)[O-])ccc4F)c4ccc([nH]4)c(-c4cc(S(=O)(=O)[O-])ccc4F)c4nc(c(-c5cc(S(=O)(=O)[O-])ccc5F)c5ccc2[nH]5)C=C4)C=C3)cc1
REMARK SMILES IDX 13 1 12 2 10 3 11 4 8 5 9 6 6 7 5 8 2 9 1 10 3 11 4 12 7 13
REMARK SMILES IDX 14 15 15 16 16 17 17 18 18 19 19 20 80 21 20 22 79 23 21 24
REMARK SMILES IDX 22 25 23 26 73 27 24 28 78 29 72 30 74 31 25 32 77 33 71 34
REMARK SMILES IDX 70 35 26 37 58 38 38 39 57 40 39 41 42 42 56 43 75 44 40 45
REMARK SMILES IDX 41 46 55 48 76 49 43 50 27 51 28 52 36 53 29 54 35 55 37 56
REMARK SMILES IDX 34 57 30 58 31 59 32 60 33 61 59 62 60 63 68 64 61 65 67 66
REMARK SMILES IDX 69 67 66 68 62 69 63 70 64 71 65 72 44 73 45 74 53 75 46 76
REMARK SMILES IDX 52 77 54 78 51 79 47 80 48 81 49 82 50 83
REMARK H PARENT 7 14 74 36 42 47
REMARK Flexibility Score: inf
ROOT
ATOM      1  C   UNL A   1      33.458  34.970  28.576  1.00  0.00     0.274 C 
ENDROOT
BRANCH   1   2
ATOM      2  O   UNL A   1      32.567  35.560  29.543  1.00  0.00    -0.460 OA
BRANCH   2   3
ATOM      3  C   UNL A   1      32.971  36.748  30.079  1.00  0.00     0.343 C 
ATOM      4  O   UNL A   1      33.285  37.730  29.414  1.00  0.00    -0.249 OA
BRANCH   3   5
ATOM      5  C   UNL A   1      33.088  36.699  31.593  1.00  0.00     0.304 C 
ATOM      6  F   UNL A   1      34.185  37.404  32.012  1.00  0.00    -0.232 F 
BRANCH   5   7
ATOM      7  C   UNL A   1      33.167  35.277  32.169  1.00  0.00     0.160 C 
BRANCH   7   8
ATOM      8  C   UNL A   1      34.318  35.190  33.191  1.00  0.00     0.041 C 
BRANCH   8   9
ATOM      9  C   UNL A   1      35.462  34.186  32.864  1.00  0.00    -0.036 C 
ATOM     10  C   UNL A   1      36.813  34.876  32.614  1.00  0.00     0.011 C 
ATOM     11  C   UNL A   1      35.068  33.421  31.584  1.00  0.00     0.011 C 
ATOM     12  C   UNL A   1      35.619  33.172  34.011  1.00  0.00     0.011 C 
ENDBRANCH   8   9
ENDBRANCH   7   8
BRANCH   7  13
ATOM     13  O   UNL A   1      31.975  34.964  32.880  1.00  0.00    -0.389 OA
ATOM     14  H   UNL A   1      31.596  35.776  33.248  1.00  0.00     0.211 HD
ENDBRANCH   7  13
ENDBRANCH   5   7
ENDBRANCH   3   5
ENDBRANCH   2   3
ENDBRANCH   1   2
BRANCH   1  15
ATOM     15  C   UNL A   1      32.890  33.681  27.978  1.00  0.00     0.275 C 
BRANCH  15  16
ATOM     16  O   UNL A   1      33.890  32.940  27.258  1.00  0.00    -0.458 OA
BRANCH  16  17
ATOM     17  C   UNL A   1      33.873  31.604  27.478  1.00  0.00     0.338 C 
ATOM     18  O   UNL A   1      32.966  30.832  27.210  1.00  0.00    -0.246 OA
BRANCH  17  19
ATOM     19  C   UNL A   1      35.183  31.167  27.987  1.00  0.00     0.060 A 
ATOM     20  C   UNL A   1      35.296  29.881  28.519  1.00  0.00     0.016 A 
ATOM     21  C   UNL A   1      36.260  32.052  28.039  1.00  0.00     0.016 A 
ATOM     22  C   UNL A   1      36.474  29.482  29.142  1.00  0.00     0.010 A 
ATOM     23  C   UNL A   1      37.457  31.637  28.636  1.00  0.00     0.010 A 
ATOM     24  C   UNL A   1      37.564  30.356  29.206  1.00  0.00    -0.014 A 
BRANCH  24  25
ATOM     25  C   UNL A   1      38.804  29.933  29.902  1.00  0.00     0.031 A 
ATOM     26  C   UNL A   1      39.704  28.906  29.276  1.00  0.00     0.074 A 
ATOM     27  C   UNL A   1      39.128  30.488  31.085  1.00  0.00     0.049 A 
ATOM     28  N   UNL A   1      40.767  28.325  29.769  1.00  0.00    -0.248 NA
ATOM     29  C   UNL A   1      39.354  28.474  27.915  1.00  0.00     0.031 C 
ATOM     30  C   UNL A   1      38.358  31.532  31.764  1.00  0.00     0.029 A 
ATOM     31  N   UNL A   1      40.184  30.250  31.927  1.00  0.00    -0.354 N 
ATOM     32  C   UNL A   1      41.205  27.442  28.788  1.00  0.00     0.074 A 
ATOM     33  C   UNL A   1      40.274  27.550  27.682  1.00  0.00     0.031 C 
ATOM     34  C   UNL A   1      38.966  31.840  32.921  1.00  0.00     0.029 A 
ATOM     35  C   UNL A   1      40.133  30.981  33.090  1.00  0.00     0.049 A 
ATOM     36  H   UNL A   1      40.908  29.616  31.718  1.00  0.00     0.167 HD
ATOM     37  C   UNL A   1      42.285  26.621  28.810  1.00  0.00     0.034 A 
ATOM     38  C   UNL A   1      40.916  30.935  34.186  1.00  0.00     0.034 A 
ATOM     39  C   UNL A   1      43.203  26.529  29.921  1.00  0.00     0.049 A 
ATOM     40  C   UNL A   1      42.069  29.967  34.217  1.00  0.00     0.074 A 
ATOM     41  C   UNL A   1      44.327  25.730  30.052  1.00  0.00     0.029 A 
ATOM     42  N   UNL A   1      43.100  27.260  31.099  1.00  0.00    -0.354 N 
ATOM     43  N   UNL A   1      42.451  29.108  33.301  1.00  0.00    -0.248 NA
ATOM     44  C   UNL A   1      42.895  29.962  35.431  1.00  0.00     0.031 C 
ATOM     45  C   UNL A   1      44.870  25.939  31.325  1.00  0.00     0.029 A 
ATOM     46  C   UNL A   1      44.124  26.914  31.968  1.00  0.00     0.049 A 
ATOM     47  H   UNL A   1      42.401  27.928  31.288  1.00  0.00     0.167 HD
ATOM     48  C   UNL A   1      43.572  28.470  33.823  1.00  0.00     0.074 A 
ATOM     49  C   UNL A   1      43.812  29.055  35.127  1.00  0.00     0.031 C 
ATOM     50  C   UNL A   1      44.336  27.492  33.274  1.00  0.00     0.034 A 
BRANCH  37  51
ATOM     51  C   UNL A   1      42.487  25.717  27.619  1.00  0.00     0.023 A 
ATOM     52  C   UNL A   1      41.933  24.426  27.564  1.00  0.00     0.031 A 
ATOM     53  C   UNL A   1      43.280  26.141  26.537  1.00  0.00     0.131 A 
ATOM     54  C   UNL A   1      42.237  23.580  26.486  1.00  0.00     0.055 A 
ATOM     55  C   UNL A   1      43.520  25.320  25.433  1.00  0.00     0.041 A 
ATOM     56  F   UNL A   1      43.853  27.355  26.545  1.00  0.00    -0.206 F 
ATOM     57  C   UNL A   1      43.009  24.026  25.410  1.00  0.00     0.022 A 
BRANCH  54  58
ATOM     58  S   UNL A   1      41.722  21.842  26.572  1.00  0.00     0.124 S 
ATOM     59  O   UNL A   1      42.355  21.288  25.376  1.00  0.00    -0.237 OA
ATOM     60  O   UNL A   1      42.278  21.411  27.848  1.00  0.00    -0.237 OA
ATOM     61  O   UNL A   1      40.263  21.913  26.518  1.00  0.00    -0.744 OA
ENDBRANCH  54  58
ENDBRANCH  37  51
BRANCH  38  62
ATOM     62  C   UNL A   1      40.596  31.781  35.368  1.00  0.00     0.023 A 
ATOM     63  C   UNL A   1      39.478  31.516  36.172  1.00  0.00     0.031 A 
ATOM     64  C   UNL A   1      41.396  32.892  35.689  1.00  0.00     0.131 A 
ATOM     65  C   UNL A   1      39.169  32.373  37.241  1.00  0.00     0.055 A 
ATOM     66  C   UNL A   1      41.111  33.715  36.781  1.00  0.00     0.041 A 
ATOM     67  F   UNL A   1      42.478  33.186  34.951  1.00  0.00    -0.206 F 
ATOM     68  C   UNL A   1      39.985  33.462  37.557  1.00  0.00     0.022 A 
BRANCH  65  69
ATOM     69  S   UNL A   1      37.644  32.080  38.178  1.00  0.00     0.124 S 
ATOM     70  O   UNL A   1      38.046  32.462  39.528  1.00  0.00    -0.237 OA
ATOM     71  O   UNL A   1      36.702  32.973  37.512  1.00  0.00    -0.237 OA
ATOM     72  O   UNL A   1      37.394  30.654  37.982  1.00  0.00    -0.744 OA
ENDBRANCH  65  69
ENDBRANCH  38  62
BRANCH  50  73
ATOM     73  C   UNL A   1      45.521  27.028  34.081  1.00  0.00     0.023 A 
ATOM     74  C   UNL A   1      45.408  25.998  35.030  1.00  0.00     0.031 A 
ATOM     75  C   UNL A   1      46.774  27.643  33.910  1.00  0.00     0.131 A 
ATOM     76  C   UNL A   1      46.519  25.645  35.811  1.00  0.00     0.055 A 
ATOM     77  C   UNL A   1      47.887  27.255  34.656  1.00  0.00     0.041 A 
ATOM     78  F   UNL A   1      46.933  28.632  33.018  1.00  0.00    -0.206 F 
ATOM     79  C   UNL A   1      47.761  26.258  35.622  1.00  0.00     0.022 A 
BRANCH  76  80
ATOM     80  S   UNL A   1      46.303  24.425  37.136  1.00  0.00     0.124 S 
ATOM     81  O   UNL A   1      46.251  25.271  38.324  1.00  0.00    -0.237 OA
ATOM     82  O   UNL A   1      45.051  23.775  36.761  1.00  0.00    -0.237 OA
ATOM     83  O   UNL A   1      47.493  23.584  37.026  1.00  0.00    -0.744 OA
ENDBRANCH  76  80
ENDBRANCH  50  73
ENDBRANCH  24  25
ENDBRANCH  17  19
ENDBRANCH  16  17
ENDBRANCH  15  16
ENDBRANCH   1  15
TORSDOF 18
ENDMDL
