MODEL 1
REMARK VINA RESULT:     -13.4      0.000      0.000
REMARK SMILES O=C(OCCOC(=O)c1ccc(-c2c3nc(c(-c4cc(S(=O)(=O)[O-])ccc4F)c4ccc([nH]4)c(-c4cc(S(=O)(=O)[O-])ccc4F)c4nc(c(-c5cc(S(=O)(=O)[O-])ccc5F)c5ccc2[nH]5)C=C4)C=C3)cc1)C1=Cc2c(ccc(Cl)c2Sc2ccccc2)O[C@H]1C(F)(F)F
REMARK SMILES IDX 5 1 4 2 3 3 2 4 1 5 72 6 73 7 89 8 74 9 88 10 75 11 80 12
REMARK SMILES IDX 76 13 78 14 77 15 79 16 90 17 91 18 92 19 93 20 81 21 82 22
REMARK SMILES IDX 83 23 87 24 84 25 86 26 85 27 6 28 7 29 8 30 9 31 10 32
REMARK SMILES IDX 71 33 11 34 70 35 12 36 13 37 14 38 64 39 15 40 69 41 63 42
REMARK SMILES IDX 65 43 16 44 68 45 62 46 61 47 17 49 49 50 29 51 48 52 30 53
REMARK SMILES IDX 33 54 47 55 66 56 31 57 32 58 46 60 67 61 34 62 18 63 19 64
REMARK SMILES IDX 27 65 20 66 26 67 28 68 25 69 21 70 22 71 23 72 24 73 50 74
REMARK SMILES IDX 51 75 59 76 52 77 58 78 60 79 57 80 53 81 54 82 55 83 56 84
REMARK SMILES IDX 35 85 36 86 44 87 37 88 43 89 45 90 42 91 38 92 39 93 40 94
REMARK SMILES IDX 41 95
REMARK H PARENT 65 48 33 59
REMARK Flexibility Score: inf
ROOT
ATOM      1  C   UNL A   1      38.424  20.682  25.365  1.00  0.00     0.275 C 
ENDROOT
BRANCH   1   2
ATOM      2  C   UNL A   1      37.104  20.862  24.577  1.00  0.00     0.275 C 
BRANCH   2   3
ATOM      3  O   UNL A   1      35.919  20.346  25.187  1.00  0.00    -0.459 OA
BRANCH   3   4
ATOM      4  C   UNL A   1      34.904  21.112  25.593  1.00  0.00     0.338 C 
ATOM      5  O   UNL A   1      34.976  21.726  26.651  1.00  0.00    -0.246 OA
BRANCH   4   6
ATOM      6  C   UNL A   1      33.667  21.130  24.792  1.00  0.00     0.087 C 
ATOM      7  C   UNL A   1      33.085  22.150  24.130  1.00  0.00     0.028 C 
ATOM      8  C   UNL A   1      32.712  20.056  25.159  1.00  0.00     0.316 C 
ATOM      9  C   UNL A   1      32.321  23.036  25.020  1.00  0.00     0.033 A 
ATOM     10  O   UNL A   1      31.401  20.703  25.439  1.00  0.00    -0.475 OA
ATOM     11  C   UNL A   1      31.389  22.107  25.644  1.00  0.00     0.129 A 
ATOM     12  C   UNL A   1      32.302  24.509  25.208  1.00  0.00     0.042 A 
ATOM     13  C   UNL A   1      30.348  22.600  26.388  1.00  0.00     0.049 A 
ATOM     14  C   UNL A   1      31.175  24.911  25.984  1.00  0.00     0.055 A 
ATOM     15  C   UNL A   1      30.241  23.982  26.534  1.00  0.00     0.025 A 
ATOM     16  Cl  UNL A   1      30.755  26.572  26.309  1.00  0.00    -0.083 Cl
BRANCH   8  17
ATOM     17  C   UNL A   1      32.762  19.003  24.022  1.00  0.00     0.430 C 
ATOM     18  F   UNL A   1      32.217  19.482  22.871  1.00  0.00    -0.167 F 
ATOM     19  F   UNL A   1      34.025  18.629  23.723  1.00  0.00    -0.167 F 
ATOM     20  F   UNL A   1      32.064  17.887  24.342  1.00  0.00    -0.167 F 
ENDBRANCH   8  17
BRANCH  12  21
ATOM     21  S   UNL A   1      33.311  26.142  24.588  1.00  0.00    -0.088 SA
BRANCH  21  22
ATOM     22  C   UNL A   1      33.436  27.875  25.293  1.00  0.00     0.012 A 
ATOM     23  C   UNL A   1      32.737  29.014  24.816  1.00  0.00     0.015 A 
ATOM     24  C   UNL A   1      34.200  28.099  26.480  1.00  0.00     0.015 A 
ATOM     25  C   UNL A   1      32.541  30.170  25.642  1.00  0.00     0.001 A 
ATOM     26  C   UNL A   1      34.003  29.255  27.298  1.00  0.00     0.001 A 
ATOM     27  C   UNL A   1      33.123  30.260  26.905  1.00  0.00     0.000 A 
ENDBRANCH  21  22
ENDBRANCH  12  21
ENDBRANCH   4   6
ENDBRANCH   3   4
ENDBRANCH   2   3
ENDBRANCH   1   2
BRANCH   1  28
ATOM     28  O   UNL A   1      38.796  21.780  26.101  1.00  0.00    -0.458 OA
BRANCH  28  29
ATOM     29  C   UNL A   1      39.909  21.385  26.722  1.00  0.00     0.338 C 
ATOM     30  O   UNL A   1      40.407  20.304  26.865  1.00  0.00    -0.246 OA
BRANCH  29  31
ATOM     31  C   UNL A   1      40.444  22.607  27.172  1.00  0.00     0.060 A 
ATOM     32  C   UNL A   1      39.859  23.632  26.465  1.00  0.00     0.016 A 
ATOM     33  C   UNL A   1      41.462  22.670  28.145  1.00  0.00     0.016 A 
ATOM     34  C   UNL A   1      40.424  24.826  26.640  1.00  0.00     0.010 A 
ATOM     35  C   UNL A   1      41.935  23.904  28.425  1.00  0.00     0.010 A 
ATOM     36  C   UNL A   1      41.414  24.925  27.633  1.00  0.00    -0.014 A 
BRANCH  36  37
ATOM     37  C   UNL A   1      41.912  26.244  27.792  1.00  0.00     0.031 A 
ATOM     38  C   UNL A   1      41.096  27.123  28.637  1.00  0.00     0.074 A 
ATOM     39  C   UNL A   1      43.141  26.371  27.289  1.00  0.00     0.049 A 
ATOM     40  N   UNL A   1      41.359  28.334  28.993  1.00  0.00    -0.248 NA
ATOM     41  C   UNL A   1      39.811  26.592  29.140  1.00  0.00     0.031 C 
ATOM     42  C   UNL A   1      43.868  25.328  26.529  1.00  0.00     0.029 A 
ATOM     43  N   UNL A   1      44.021  27.375  27.409  1.00  0.00    -0.354 N 
ATOM     44  C   UNL A   1      40.259  28.737  29.725  1.00  0.00     0.074 A 
ATOM     45  C   UNL A   1      39.312  27.651  29.754  1.00  0.00     0.031 C 
ATOM     46  C   UNL A   1      45.114  25.750  26.302  1.00  0.00     0.029 A 
ATOM     47  C   UNL A   1      45.206  27.116  26.780  1.00  0.00     0.049 A 
ATOM     48  H   UNL A   1      43.834  28.209  27.897  1.00  0.00     0.167 HD
ATOM     49  C   UNL A   1      40.114  29.952  30.286  1.00  0.00     0.034 A 
ATOM     50  C   UNL A   1      46.209  27.971  26.569  1.00  0.00     0.034 A 
ATOM     51  C   UNL A   1      41.154  30.937  30.131  1.00  0.00     0.049 A 
ATOM     52  C   UNL A   1      45.990  29.330  27.163  1.00  0.00     0.074 A 
ATOM     53  C   UNL A   1      41.197  32.238  30.573  1.00  0.00     0.029 A 
ATOM     54  N   UNL A   1      42.355  30.702  29.444  1.00  0.00    -0.354 N 
ATOM     55  N   UNL A   1      44.940  29.769  27.831  1.00  0.00    -0.248 NA
ATOM     56  C   UNL A   1      47.058  30.302  26.989  1.00  0.00     0.031 C 
ATOM     57  C   UNL A   1      42.383  32.807  30.088  1.00  0.00     0.029 A 
ATOM     58  C   UNL A   1      43.132  31.840  29.422  1.00  0.00     0.049 A 
ATOM     59  H   UNL A   1      42.608  29.844  29.034  1.00  0.00     0.167 HD
ATOM     60  C   UNL A   1      45.216  31.076  28.173  1.00  0.00     0.074 A 
ATOM     61  C   UNL A   1      46.553  31.339  27.646  1.00  0.00     0.031 C 
ATOM     62  C   UNL A   1      44.459  31.984  28.848  1.00  0.00     0.034 A 
BRANCH  49  63
ATOM     63  C   UNL A   1      38.788  30.244  30.931  1.00  0.00     0.023 A 
ATOM     64  C   UNL A   1      37.774  30.967  30.271  1.00  0.00     0.031 A 
ATOM     65  C   UNL A   1      38.589  29.929  32.285  1.00  0.00     0.131 A 
ATOM     66  C   UNL A   1      36.658  31.427  30.990  1.00  0.00     0.055 A 
ATOM     67  C   UNL A   1      37.432  30.307  32.970  1.00  0.00     0.041 A 
ATOM     68  F   UNL A   1      39.543  29.296  32.987  1.00  0.00    -0.206 F 
ATOM     69  C   UNL A   1      36.465  31.076  32.327  1.00  0.00     0.022 A 
BRANCH  66  70
ATOM     70  S   UNL A   1      35.561  32.647  30.209  1.00  0.00     0.124 S 
ATOM     71  O   UNL A   1      35.481  32.139  28.841  1.00  0.00    -0.237 OA
ATOM     72  O   UNL A   1      34.344  32.533  31.005  1.00  0.00    -0.237 OA
ATOM     73  O   UNL A   1      36.287  33.907  30.357  1.00  0.00    -0.744 OA
ENDBRANCH  66  70
ENDBRANCH  49  63
BRANCH  50  74
ATOM     74  C   UNL A   1      47.360  27.550  25.742  1.00  0.00     0.023 A 
ATOM     75  C   UNL A   1      47.397  27.811  24.370  1.00  0.00     0.031 A 
ATOM     76  C   UNL A   1      48.494  26.955  26.336  1.00  0.00     0.131 A 
ATOM     77  C   UNL A   1      48.532  27.454  23.628  1.00  0.00     0.055 A 
ATOM     78  C   UNL A   1      49.642  26.655  25.605  1.00  0.00     0.041 A 
ATOM     79  F   UNL A   1      48.522  26.708  27.657  1.00  0.00    -0.206 F 
ATOM     80  C   UNL A   1      49.659  26.893  24.236  1.00  0.00     0.022 A 
BRANCH  77  81
ATOM     81  S   UNL A   1      48.481  27.666  21.831  1.00  0.00     0.124 S 
ATOM     82  O   UNL A   1      47.137  28.197  21.633  1.00  0.00    -0.237 OA
ATOM     83  O   UNL A   1      49.580  28.599  21.605  1.00  0.00    -0.237 OA
ATOM     84  O   UNL A   1      48.698  26.312  21.324  1.00  0.00    -0.744 OA
ENDBRANCH  77  81
ENDBRANCH  50  74
BRANCH  62  85
ATOM     85  C   UNL A   1      45.117  33.309  29.065  1.00  0.00     0.023 A 
ATOM     86  C   UNL A   1      45.044  34.320  28.098  1.00  0.00     0.031 A 
ATOM     87  C   UNL A   1      45.799  33.557  30.267  1.00  0.00     0.131 A 
ATOM     88  C   UNL A   1      45.698  35.530  28.329  1.00  0.00     0.055 A 
ATOM     89  C   UNL A   1      46.379  34.792  30.524  1.00  0.00     0.041 A 
ATOM     90  F   UNL A   1      45.889  32.606  31.211  1.00  0.00    -0.206 F 
ATOM     91  C   UNL A   1      46.340  35.784  29.546  1.00  0.00     0.022 A 
BRANCH  88  92
ATOM     92  S   UNL A   1      45.777  36.730  26.978  1.00  0.00     0.124 S 
ATOM     93  O   UNL A   1      44.398  37.206  26.919  1.00  0.00    -0.237 OA
ATOM     94  O   UNL A   1      46.762  37.689  27.468  1.00  0.00    -0.237 OA
ATOM     95  O   UNL A   1      46.207  35.927  25.836  1.00  0.00    -0.744 OA
ENDBRANCH  88  92
ENDBRANCH  62  85
ENDBRANCH  36  37
ENDBRANCH  29  31
ENDBRANCH  28  29
ENDBRANCH   1  28
TORSDOF 17
ENDMDL
MODEL 2
REMARK VINA RESULT:     -13.4      5.398     10.717
REMARK SMILES O=C(OCCOC(=O)c1ccc(-c2c3nc(c(-c4cc(S(=O)(=O)[O-])ccc4F)c4ccc([nH]4)c(-c4cc(S(=O)(=O)[O-])ccc4F)c4nc(c(-c5cc(S(=O)(=O)[O-])ccc5F)c5ccc2[nH]5)C=C4)C=C3)cc1)C1=Cc2c(ccc(Cl)c2Sc2ccccc2)O[C@H]1C(F)(F)F
REMARK SMILES IDX 5 1 4 2 3 3 2 4 1 5 72 6 73 7 89 8 74 9 88 10 75 11 80 12
REMARK SMILES IDX 76 13 78 14 77 15 79 16 90 17 91 18 92 19 93 20 81 21 82 22
REMARK SMILES IDX 83 23 87 24 84 25 86 26 85 27 6 28 7 29 8 30 9 31 10 32
REMARK SMILES IDX 71 33 11 34 70 35 12 36 13 37 14 38 64 39 15 40 69 41 63 42
REMARK SMILES IDX 65 43 16 44 68 45 62 46 61 47 17 49 49 50 29 51 48 52 30 53
REMARK SMILES IDX 33 54 47 55 66 56 31 57 32 58 46 60 67 61 34 62 18 63 19 64
REMARK SMILES IDX 27 65 20 66 26 67 28 68 25 69 21 70 22 71 23 72 24 73 50 74
REMARK SMILES IDX 51 75 59 76 52 77 58 78 60 79 57 80 53 81 54 82 55 83 56 84
REMARK SMILES IDX 35 85 36 86 44 87 37 88 43 89 45 90 42 91 38 92 39 93 40 94
REMARK SMILES IDX 41 95
REMARK H PARENT 65 48 33 59
REMARK Flexibility Score: inf
ROOT
ATOM      1  C   UNL A   1      32.002  31.839  27.073  1.00  0.00     0.275 C 
ENDROOT
BRANCH   1   2
ATOM      2  C   UNL A   1      31.319  31.078  25.911  1.00  0.00     0.275 C 
BRANCH   2   3
ATOM      3  O   UNL A   1      31.667  29.702  25.754  1.00  0.00    -0.459 OA
BRANCH   3   4
ATOM      4  C   UNL A   1      31.947  29.140  24.577  1.00  0.00     0.338 C 
ATOM      5  O   UNL A   1      32.968  29.445  23.971  1.00  0.00    -0.246 OA
BRANCH   4   6
ATOM      6  C   UNL A   1      30.963  28.218  23.981  1.00  0.00     0.087 C 
ATOM      7  C   UNL A   1      30.808  26.890  24.158  1.00  0.00     0.028 C 
ATOM      8  C   UNL A   1      30.413  28.700  22.690  1.00  0.00     0.316 C 
ATOM      9  C   UNL A   1      31.769  26.103  23.373  1.00  0.00     0.033 A 
ATOM     10  O   UNL A   1      30.603  27.612  21.692  1.00  0.00    -0.475 OA
ATOM     11  C   UNL A   1      31.508  26.568  22.019  1.00  0.00     0.129 A 
ATOM     12  C   UNL A   1      32.695  24.996  23.725  1.00  0.00     0.042 A 
ATOM     13  C   UNL A   1      32.064  25.898  20.960  1.00  0.00     0.049 A 
ATOM     14  C   UNL A   1      33.204  24.363  22.552  1.00  0.00     0.055 A 
ATOM     15  C   UNL A   1      32.883  24.802  21.232  1.00  0.00     0.025 A 
ATOM     16  Cl  UNL A   1      34.223  22.948  22.569  1.00  0.00    -0.083 Cl
BRANCH   8  17
ATOM     17  C   UNL A   1      28.962  29.170  22.968  1.00  0.00     0.430 C 
ATOM     18  F   UNL A   1      28.927  30.172  23.888  1.00  0.00    -0.167 F 
ATOM     19  F   UNL A   1      28.353  29.644  21.859  1.00  0.00    -0.167 F 
ATOM     20  F   UNL A   1      28.198  28.168  23.464  1.00  0.00    -0.167 F 
ENDBRANCH   8  17
BRANCH  12  21
ATOM     21  S   UNL A   1      33.355  24.015  25.359  1.00  0.00    -0.088 SA
BRANCH  21  22
ATOM     22  C   UNL A   1      34.942  23.075  25.695  1.00  0.00     0.012 A 
ATOM     23  C   UNL A   1      35.084  21.663  25.683  1.00  0.00     0.015 A 
ATOM     24  C   UNL A   1      36.163  23.794  25.875  1.00  0.00     0.015 A 
ATOM     25  C   UNL A   1      36.366  21.042  25.515  1.00  0.00     0.001 A 
ATOM     26  C   UNL A   1      37.439  23.171  25.709  1.00  0.00     0.001 A 
ATOM     27  C   UNL A   1      37.533  21.803  25.466  1.00  0.00     0.000 A 
ENDBRANCH  21  22
ENDBRANCH  12  21
ENDBRANCH   4   6
ENDBRANCH   3   4
ENDBRANCH   2   3
ENDBRANCH   1   2
BRANCH   1  28
ATOM     28  O   UNL A   1      33.321  31.506  27.267  1.00  0.00    -0.458 OA
BRANCH  28  29
ATOM     29  C   UNL A   1      33.877  32.643  27.688  1.00  0.00     0.338 C 
ATOM     30  O   UNL A   1      33.486  33.776  27.686  1.00  0.00    -0.246 OA
BRANCH  29  31
ATOM     31  C   UNL A   1      35.100  32.193  28.223  1.00  0.00     0.060 A 
ATOM     32  C   UNL A   1      34.940  30.896  28.654  1.00  0.00     0.016 A 
ATOM     33  C   UNL A   1      36.230  33.028  28.324  1.00  0.00     0.016 A 
ATOM     34  C   UNL A   1      35.955  30.417  29.372  1.00  0.00     0.010 A 
ATOM     35  C   UNL A   1      37.310  32.487  28.928  1.00  0.00     0.010 A 
ATOM     36  C   UNL A   1      37.111  31.212  29.454  1.00  0.00    -0.014 A 
BRANCH  36  37
ATOM     37  C   UNL A   1      38.160  30.595  30.183  1.00  0.00     0.031 A 
ATOM     38  C   UNL A   1      39.069  29.763  29.388  1.00  0.00     0.074 A 
ATOM     39  C   UNL A   1      38.226  31.052  31.435  1.00  0.00     0.049 A 
ATOM     40  N   UNL A   1      40.132  29.154  29.793  1.00  0.00    -0.248 NA
ATOM     41  C   UNL A   1      38.748  29.568  27.958  1.00  0.00     0.031 C 
ATOM     42  C   UNL A   1      37.257  31.981  32.060  1.00  0.00     0.029 A 
ATOM     43  N   UNL A   1      39.173  30.877  32.368  1.00  0.00    -0.354 N 
ATOM     44  C   UNL A   1      40.590  28.465  28.687  1.00  0.00     0.074 A 
ATOM     45  C   UNL A   1      39.685  28.712  27.593  1.00  0.00     0.031 C 
ATOM     46  C   UNL A   1      37.709  32.328  33.268  1.00  0.00     0.029 A 
ATOM     47  C   UNL A   1      38.903  31.547  33.527  1.00  0.00     0.049 A 
ATOM     48  H   UNL A   1      39.977  30.325  32.231  1.00  0.00     0.167 HD
ATOM     49  C   UNL A   1      41.686  27.683  28.670  1.00  0.00     0.034 A 
ATOM     50  C   UNL A   1      39.551  31.439  34.688  1.00  0.00     0.034 A 
ATOM     51  C   UNL A   1      42.464  27.521  29.872  1.00  0.00     0.049 A 
ATOM     52  C   UNL A   1      40.735  30.521  34.646  1.00  0.00     0.074 A 
ATOM     53  C   UNL A   1      43.578  26.747  30.093  1.00  0.00     0.029 A 
ATOM     54  N   UNL A   1      42.169  28.163  31.085  1.00  0.00    -0.354 N 
ATOM     55  N   UNL A   1      41.182  29.812  33.627  1.00  0.00    -0.248 NA
ATOM     56  C   UNL A   1      41.499  30.378  35.875  1.00  0.00     0.031 C 
ATOM     57  C   UNL A   1      43.907  26.861  31.450  1.00  0.00     0.029 A 
ATOM     58  C   UNL A   1      43.059  27.781  32.065  1.00  0.00     0.049 A 
ATOM     59  H   UNL A   1      41.430  28.798  31.217  1.00  0.00     0.167 HD
ATOM     60  C   UNL A   1      42.294  29.136  34.081  1.00  0.00     0.074 A 
ATOM     61  C   UNL A   1      42.454  29.548  35.473  1.00  0.00     0.031 C 
ATOM     62  C   UNL A   1      43.111  28.259  33.436  1.00  0.00     0.034 A 
BRANCH  49  63
ATOM     63  C   UNL A   1      41.946  26.911  27.406  1.00  0.00     0.023 A 
ATOM     64  C   UNL A   1      41.720  25.523  27.313  1.00  0.00     0.031 A 
ATOM     65  C   UNL A   1      42.576  27.544  26.322  1.00  0.00     0.131 A 
ATOM     66  C   UNL A   1      42.204  24.805  26.207  1.00  0.00     0.055 A 
ATOM     67  C   UNL A   1      42.969  26.839  25.182  1.00  0.00     0.041 A 
ATOM     68  F   UNL A   1      42.875  28.852  26.374  1.00  0.00    -0.206 F 
ATOM     69  C   UNL A   1      42.799  25.459  25.127  1.00  0.00     0.022 A 
BRANCH  66  70
ATOM     70  S   UNL A   1      42.217  22.991  26.284  1.00  0.00     0.124 S 
ATOM     71  O   UNL A   1      40.808  22.696  26.537  1.00  0.00    -0.237 OA
ATOM     72  O   UNL A   1      42.719  22.622  24.965  1.00  0.00    -0.237 OA
ATOM     73  O   UNL A   1      43.116  22.700  27.398  1.00  0.00    -0.744 OA
ENDBRANCH  66  70
ENDBRANCH  49  63
BRANCH  50  74
ATOM     74  C   UNL A   1      39.027  32.140  35.880  1.00  0.00     0.023 A 
ATOM     75  C   UNL A   1      38.310  31.453  36.863  1.00  0.00     0.031 A 
ATOM     76  C   UNL A   1      39.317  33.504  36.100  1.00  0.00     0.131 A 
ATOM     77  C   UNL A   1      37.881  32.137  38.011  1.00  0.00     0.055 A 
ATOM     78  C   UNL A   1      38.940  34.163  37.269  1.00  0.00     0.041 A 
ATOM     79  F   UNL A   1      40.028  34.203  35.199  1.00  0.00    -0.206 F 
ATOM     80  C   UNL A   1      38.203  33.480  38.228  1.00  0.00     0.022 A 
BRANCH  77  81
ATOM     81  S   UNL A   1      36.824  31.255  39.187  1.00  0.00     0.124 S 
ATOM     82  O   UNL A   1      37.647  31.265  40.391  1.00  0.00    -0.237 OA
ATOM     83  O   UNL A   1      35.634  32.100  39.216  1.00  0.00    -0.237 OA
ATOM     84  O   UNL A   1      36.644  29.946  38.564  1.00  0.00    -0.744 OA
ENDBRANCH  77  81
ENDBRANCH  50  74
BRANCH  62  85
ATOM     85  C   UNL A   1      44.255  27.751  34.255  1.00  0.00     0.023 A 
ATOM     86  C   UNL A   1      44.152  26.556  34.979  1.00  0.00     0.031 A 
ATOM     87  C   UNL A   1      45.462  28.467  34.281  1.00  0.00     0.131 A 
ATOM     88  C   UNL A   1      45.233  26.135  35.753  1.00  0.00     0.055 A 
ATOM     89  C   UNL A   1      46.561  28.000  34.989  1.00  0.00     0.041 A 
ATOM     90  F   UNL A   1      45.589  29.617  33.599  1.00  0.00    -0.206 F 
ATOM     91  C   UNL A   1      46.445  26.833  35.741  1.00  0.00     0.022 A 
BRANCH  88  92
ATOM     92  S   UNL A   1      44.998  24.716  36.850  1.00  0.00     0.124 S 
ATOM     93  O   UNL A   1      44.053  25.248  37.828  1.00  0.00    -0.237 OA
ATOM     94  O   UNL A   1      44.473  23.702  35.942  1.00  0.00    -0.237 OA
ATOM     95  O   UNL A   1      46.342  24.457  37.362  1.00  0.00    -0.744 OA
ENDBRANCH  88  92
ENDBRANCH  62  85
ENDBRANCH  36  37
ENDBRANCH  29  31
ENDBRANCH  28  29
ENDBRANCH   1  28
TORSDOF 17
ENDMDL
MODEL 3
REMARK VINA RESULT:     -13.4      5.005      8.052
REMARK SMILES O=C(OCCOC(=O)c1ccc(-c2c3nc(c(-c4cc(S(=O)(=O)[O-])ccc4F)c4ccc([nH]4)c(-c4cc(S(=O)(=O)[O-])ccc4F)c4nc(c(-c5cc(S(=O)(=O)[O-])ccc5F)c5ccc2[nH]5)C=C4)C=C3)cc1)C1=Cc2c(ccc(Cl)c2Sc2ccccc2)O[C@H]1C(F)(F)F
REMARK SMILES IDX 5 1 4 2 3 3 2 4 1 5 72 6 73 7 89 8 74 9 88 10 75 11 80 12
REMARK SMILES IDX 76 13 78 14 77 15 79 16 90 17 91 18 92 19 93 20 81 21 82 22
REMARK SMILES IDX 83 23 87 24 84 25 86 26 85 27 6 28 7 29 8 30 9 31 10 32
REMARK SMILES IDX 71 33 11 34 70 35 12 36 13 37 14 38 64 39 15 40 69 41 63 42
REMARK SMILES IDX 65 43 16 44 68 45 62 46 61 47 17 49 49 50 29 51 48 52 30 53
REMARK SMILES IDX 33 54 47 55 66 56 31 57 32 58 46 60 67 61 34 62 18 63 19 64
REMARK SMILES IDX 27 65 20 66 26 67 28 68 25 69 21 70 22 71 23 72 24 73 50 74
REMARK SMILES IDX 51 75 59 76 52 77 58 78 60 79 57 80 53 81 54 82 55 83 56 84
REMARK SMILES IDX 35 85 36 86 44 87 37 88 43 89 45 90 42 91 38 92 39 93 40 94
REMARK SMILES IDX 41 95
REMARK H PARENT 65 48 33 59
REMARK Flexibility Score: inf
ROOT
ATOM      1  C   UNL A   1      32.378  29.531  26.618  1.00  0.00     0.275 C 
ENDROOT
BRANCH   1   2
ATOM      2  C   UNL A   1      31.950  28.171  27.221  1.00  0.00     0.275 C 
BRANCH   2   3
ATOM      3  O   UNL A   1      31.074  27.367  26.430  1.00  0.00    -0.459 OA
BRANCH   3   4
ATOM      4  C   UNL A   1      31.341  26.107  26.081  1.00  0.00     0.338 C 
ATOM      5  O   UNL A   1      31.416  25.230  26.935  1.00  0.00    -0.246 OA
BRANCH   4   6
ATOM      6  C   UNL A   1      31.632  25.810  24.667  1.00  0.00     0.087 C 
ATOM      7  C   UNL A   1      31.707  24.622  24.034  1.00  0.00     0.028 C 
ATOM      8  C   UNL A   1      32.406  26.879  23.989  1.00  0.00     0.316 C 
ATOM      9  C   UNL A   1      32.988  23.940  24.266  1.00  0.00     0.033 A 
ATOM     10  O   UNL A   1      33.601  26.241  23.373  1.00  0.00    -0.475 OA
ATOM     11  C   UNL A   1      33.948  24.934  23.806  1.00  0.00     0.129 A 
ATOM     12  C   UNL A   1      33.337  22.563  24.698  1.00  0.00     0.042 A 
ATOM     13  C   UNL A   1      35.263  24.578  23.656  1.00  0.00     0.049 A 
ATOM     14  C   UNL A   1      34.723  22.296  24.488  1.00  0.00     0.055 A 
ATOM     15  C   UNL A   1      35.632  23.272  23.977  1.00  0.00     0.025 A 
ATOM     16  Cl  UNL A   1      35.472  20.746  24.762  1.00  0.00    -0.083 Cl
BRANCH   8  17
ATOM     17  C   UNL A   1      31.421  27.615  23.045  1.00  0.00     0.430 C 
ATOM     18  F   UNL A   1      31.035  26.824  22.008  1.00  0.00    -0.167 F 
ATOM     19  F   UNL A   1      30.291  27.999  23.678  1.00  0.00    -0.167 F 
ATOM     20  F   UNL A   1      31.984  28.719  22.497  1.00  0.00    -0.167 F 
ENDBRANCH   8  17
BRANCH  12  21
ATOM     21  S   UNL A   1      32.425  20.894  25.369  1.00  0.00    -0.088 SA
BRANCH  21  22
ATOM     22  C   UNL A   1      32.515  19.108  24.804  1.00  0.00     0.012 A 
ATOM     23  C   UNL A   1      32.557  18.669  23.456  1.00  0.00     0.015 A 
ATOM     24  C   UNL A   1      32.669  18.069  25.773  1.00  0.00     0.015 A 
ATOM     25  C   UNL A   1      33.055  17.370  23.108  1.00  0.00     0.001 A 
ATOM     26  C   UNL A   1      33.162  16.775  25.421  1.00  0.00     0.001 A 
ATOM     27  C   UNL A   1      33.415  16.450  24.091  1.00  0.00     0.000 A 
ENDBRANCH  21  22
ENDBRANCH  12  21
ENDBRANCH   4   6
ENDBRANCH   3   4
ENDBRANCH   2   3
ENDBRANCH   1   2
BRANCH   1  28
ATOM     28  O   UNL A   1      33.730  29.767  26.662  1.00  0.00    -0.458 OA
BRANCH  28  29
ATOM     29  C   UNL A   1      33.831  30.919  27.327  1.00  0.00     0.338 C 
ATOM     30  O   UNL A   1      33.056  31.818  27.495  1.00  0.00    -0.246 OA
BRANCH  29  31
ATOM     31  C   UNL A   1      35.125  30.830  27.876  1.00  0.00     0.060 A 
ATOM     32  C   UNL A   1      35.327  29.544  28.320  1.00  0.00     0.016 A 
ATOM     33  C   UNL A   1      35.978  31.948  27.975  1.00  0.00     0.016 A 
ATOM     34  C   UNL A   1      36.428  29.372  29.051  1.00  0.00     0.010 A 
ATOM     35  C   UNL A   1      37.159  31.733  28.593  1.00  0.00     0.010 A 
ATOM     36  C   UNL A   1      37.317  30.458  29.133  1.00  0.00    -0.014 A 
BRANCH  36  37
ATOM     37  C   UNL A   1      38.488  30.163  29.876  1.00  0.00     0.031 A 
ATOM     38  C   UNL A   1      38.505  30.681  31.248  1.00  0.00     0.074 A 
ATOM     39  C   UNL A   1      39.274  29.296  29.235  1.00  0.00     0.049 A 
ATOM     40  N   UNL A   1      39.412  30.496  32.146  1.00  0.00    -0.248 NA
ATOM     41  C   UNL A   1      37.374  31.532  31.675  1.00  0.00     0.031 C 
ATOM     42  C   UNL A   1      39.053  28.794  27.860  1.00  0.00     0.029 A 
ATOM     43  N   UNL A   1      40.350  28.624  29.669  1.00  0.00    -0.354 N 
ATOM     44  C   UNL A   1      38.994  31.237  33.233  1.00  0.00     0.074 A 
ATOM     45  C   UNL A   1      37.759  31.894  32.886  1.00  0.00     0.031 C 
ATOM     46  C   UNL A   1      39.955  27.845  27.596  1.00  0.00     0.029 A 
ATOM     47  C   UNL A   1      40.867  27.787  28.722  1.00  0.00     0.049 A 
ATOM     48  H   UNL A   1      40.726  28.724  30.573  1.00  0.00     0.167 HD
ATOM     49  C   UNL A   1      39.660  31.332  34.400  1.00  0.00     0.034 A 
ATOM     50  C   UNL A   1      42.021  27.119  28.782  1.00  0.00     0.034 A 
ATOM     51  C   UNL A   1      40.907  30.629  34.567  1.00  0.00     0.049 A 
ATOM     52  C   UNL A   1      42.761  27.289  30.074  1.00  0.00     0.074 A 
ATOM     53  C   UNL A   1      41.766  30.618  35.640  1.00  0.00     0.029 A 
ATOM     54  N   UNL A   1      41.476  29.805  33.584  1.00  0.00    -0.354 N 
ATOM     55  N   UNL A   1      42.420  28.018  31.120  1.00  0.00    -0.248 NA
ATOM     56  C   UNL A   1      44.015  26.567  30.212  1.00  0.00     0.031 C 
ATOM     57  C   UNL A   1      42.883  29.855  35.276  1.00  0.00     0.029 A 
ATOM     58  C   UNL A   1      42.688  29.306  34.011  1.00  0.00     0.049 A 
ATOM     59  H   UNL A   1      41.068  29.611  32.710  1.00  0.00     0.167 HD
ATOM     60  C   UNL A   1      43.415  27.843  32.058  1.00  0.00     0.074 A 
ATOM     61  C   UNL A   1      44.362  26.913  31.446  1.00  0.00     0.031 C 
ATOM     62  C   UNL A   1      43.556  28.385  33.298  1.00  0.00     0.034 A 
BRANCH  49  63
ATOM     63  C   UNL A   1      39.110  32.294  35.416  1.00  0.00     0.023 A 
ATOM     64  C   UNL A   1      39.546  33.631  35.498  1.00  0.00     0.031 A 
ATOM     65  C   UNL A   1      38.247  31.826  36.421  1.00  0.00     0.131 A 
ATOM     66  C   UNL A   1      39.194  34.419  36.606  1.00  0.00     0.055 A 
ATOM     67  C   UNL A   1      37.823  32.645  37.470  1.00  0.00     0.041 A 
ATOM     68  F   UNL A   1      37.844  30.545  36.434  1.00  0.00    -0.206 F 
ATOM     69  C   UNL A   1      38.309  33.944  37.576  1.00  0.00     0.022 A 
BRANCH  66  70
ATOM     70  S   UNL A   1      40.053  35.998  36.862  1.00  0.00     0.124 S 
ATOM     71  O   UNL A   1      39.770  36.695  35.609  1.00  0.00    -0.237 OA
ATOM     72  O   UNL A   1      39.394  36.529  38.050  1.00  0.00    -0.237 OA
ATOM     73  O   UNL A   1      41.448  35.605  37.046  1.00  0.00    -0.744 OA
ENDBRANCH  66  70
ENDBRANCH  49  63
BRANCH  50  74
ATOM     74  C   UNL A   1      42.488  26.369  27.596  1.00  0.00     0.023 A 
ATOM     75  C   UNL A   1      42.169  25.019  27.426  1.00  0.00     0.031 A 
ATOM     76  C   UNL A   1      43.191  27.021  26.561  1.00  0.00     0.131 A 
ATOM     77  C   UNL A   1      42.576  24.355  26.259  1.00  0.00     0.055 A 
ATOM     78  C   UNL A   1      43.541  26.372  25.378  1.00  0.00     0.041 A 
ATOM     79  F   UNL A   1      43.497  28.326  26.662  1.00  0.00    -0.206 F 
ATOM     80  C   UNL A   1      43.244  25.023  25.229  1.00  0.00     0.022 A 
BRANCH  77  81
ATOM     81  S   UNL A   1      42.280  22.572  26.143  1.00  0.00     0.124 S 
ATOM     82  O   UNL A   1      42.928  22.245  24.877  1.00  0.00    -0.237 OA
ATOM     83  O   UNL A   1      42.939  22.077  27.347  1.00  0.00    -0.237 OA
ATOM     84  O   UNL A   1      40.823  22.469  26.143  1.00  0.00    -0.744 OA
ENDBRANCH  77  81
ENDBRANCH  50  74
BRANCH  62  85
ATOM     85  C   UNL A   1      44.764  27.924  34.049  1.00  0.00     0.023 A 
ATOM     86  C   UNL A   1      44.707  26.810  34.897  1.00  0.00     0.031 A 
ATOM     87  C   UNL A   1      45.983  28.601  33.886  1.00  0.00     0.131 A 
ATOM     88  C   UNL A   1      45.851  26.433  35.601  1.00  0.00     0.055 A 
ATOM     89  C   UNL A   1      47.137  28.170  34.527  1.00  0.00     0.041 A 
ATOM     90  F   UNL A   1      46.067  29.673  33.082  1.00  0.00    -0.206 F 
ATOM     91  C   UNL A   1      47.071  27.087  35.401  1.00  0.00     0.022 A 
BRANCH  88  92
ATOM     92  S   UNL A   1      45.695  25.136  36.853  1.00  0.00     0.124 S 
ATOM     93  O   UNL A   1      44.629  24.310  36.296  1.00  0.00    -0.237 OA
ATOM     94  O   UNL A   1      47.028  24.542  36.856  1.00  0.00    -0.237 OA
ATOM     95  O   UNL A   1      45.341  25.875  38.063  1.00  0.00    -0.744 OA
ENDBRANCH  88  92
ENDBRANCH  62  85
ENDBRANCH  36  37
ENDBRANCH  29  31
ENDBRANCH  28  29
ENDBRANCH   1  28
TORSDOF 17
ENDMDL
