MODEL 1
REMARK VINA RESULT:     -11.5      0.000      0.000
REMARK SMILES O=C(COCC(=O)N1CCC([NH+]2CCN(c3ccc(F)cc3)CC2)CC1)OCCOC(=O)c1ccc(-c2c3nc(c(-c4cc(S(=O)(=O)[O-])ccc4F)c4ccc([nH]4)c(-c4cc(S(=O)(=O)[O-])ccc4F)c4nc(c(-c5cc(S(=O)(=O)[O-])ccc5F)c5ccc2[nH]5)C=C4)C=C3)cc1
REMARK SMILES IDX 28 1 27 2 2 3 1 4 3 5 4 6 5 7 6 8 7 9 8 10 9 11 26 12 10 13
REMARK SMILES IDX 25 14 11 15 12 16 13 17 24 18 14 20 23 21 15 22 16 23 17 24
REMARK SMILES IDX 22 25 18 26 21 27 19 28 20 29 29 30 30 31 31 32 32 33 33 34
REMARK SMILES IDX 34 35 95 36 35 37 94 38 36 39 37 40 38 41 88 42 39 43 93 44
REMARK SMILES IDX 87 45 89 46 40 47 92 48 86 49 85 50 41 52 73 53 53 54 72 55
REMARK SMILES IDX 54 56 57 57 71 58 90 59 55 60 56 61 70 63 91 64 58 65 42 66
REMARK SMILES IDX 43 67 51 68 44 69 50 70 52 71 49 72 45 73 46 74 47 75 48 76
REMARK SMILES IDX 74 77 75 78 83 79 76 80 82 81 84 82 81 83 77 84 78 85 79 86
REMARK SMILES IDX 80 87 59 88 60 89 68 90 61 91 67 92 69 93 66 94 62 95 63 96
REMARK SMILES IDX 64 97 65 98
REMARK H PARENT 12 19 89 51 57 62
REMARK Flexibility Score: inf
ROOT
ATOM      1  C   UNL A   1      36.315  20.578  24.975  1.00  0.00     0.274 C 
ENDROOT
BRANCH   1   2
ATOM      2  O   UNL A   1      35.672  19.358  24.564  1.00  0.00    -0.460 OA
BRANCH   2   3
ATOM      3  C   UNL A   1      34.350  19.120  24.743  1.00  0.00     0.332 C 
ATOM      4  O   UNL A   1      33.856  18.055  24.377  1.00  0.00    -0.250 OA
BRANCH   3   5
ATOM      5  C   UNL A   1      33.500  20.198  25.418  1.00  0.00     0.283 C 
BRANCH   5   6
ATOM      6  O   UNL A   1      32.257  20.510  24.823  1.00  0.00    -0.360 OA
BRANCH   6   7
ATOM      7  C   UNL A   1      32.437  21.279  23.650  1.00  0.00     0.261 C 
BRANCH   7   8
ATOM      8  C   UNL A   1      32.386  22.820  23.759  1.00  0.00     0.248 C 
ATOM      9  O   UNL A   1      33.338  23.484  23.346  1.00  0.00    -0.272 OA
ATOM     10  N   UNL A   1      31.176  23.391  24.148  1.00  0.00    -0.340 N 
ATOM     11  C   UNL A   1      30.562  24.355  23.279  1.00  0.00     0.125 C 
ATOM     12  C   UNL A   1      30.671  23.443  25.504  1.00  0.00     0.125 C 
ATOM     13  C   UNL A   1      29.918  25.581  23.997  1.00  0.00     0.086 C 
ATOM     14  C   UNL A   1      31.064  24.772  26.191  1.00  0.00     0.086 C 
ATOM     15  C   UNL A   1      30.851  26.427  25.404  1.00  0.00     0.187 C 
BRANCH  15  16
ATOM     16  N   UNL A   1      32.248  28.086  25.271  1.00  0.00    -0.329 N 
ATOM     17  C   UNL A   1      32.087  29.743  25.356  1.00  0.00     0.284 C 
ATOM     18  C   UNL A   1      33.843  28.203  25.812  1.00  0.00     0.284 C 
ATOM     19  H   UNL A   1      31.878  27.544  24.489  1.00  0.00     0.348 HD
ATOM     20  C   UNL A   1      32.353  30.499  26.693  1.00  0.00     0.178 C 
ATOM     21  C   UNL A   1      34.032  28.751  27.238  1.00  0.00     0.178 C 
ATOM     22  N   UNL A   1      33.620  30.130  27.278  1.00  0.00    -0.360 N 
BRANCH  22  23
ATOM     23  C   UNL A   1      34.524  31.002  27.813  1.00  0.00     0.037 A 
ATOM     24  C   UNL A   1      34.142  32.342  27.980  1.00  0.00     0.029 A 
ATOM     25  C   UNL A   1      35.846  30.630  28.042  1.00  0.00     0.029 A 
ATOM     26  C   UNL A   1      35.073  33.315  28.301  1.00  0.00     0.041 A 
ATOM     27  C   UNL A   1      36.787  31.603  28.373  1.00  0.00     0.041 A 
ATOM     28  C   UNL A   1      36.392  32.935  28.486  1.00  0.00     0.123 A 
ATOM     29  F   UNL A   1      37.309  33.871  28.762  1.00  0.00    -0.207 F 
ENDBRANCH  22  23
ENDBRANCH  15  16
ENDBRANCH   7   8
ENDBRANCH   6   7
ENDBRANCH   5   6
ENDBRANCH   3   5
ENDBRANCH   2   3
ENDBRANCH   1   2
BRANCH   1  30
ATOM     30  C   UNL A   1      37.840  20.424  25.078  1.00  0.00     0.275 C 
BRANCH  30  31
ATOM     31  O   UNL A   1      38.415  21.231  26.124  1.00  0.00    -0.458 OA
BRANCH  31  32
ATOM     32  C   UNL A   1      39.744  21.065  26.379  1.00  0.00     0.338 C 
ATOM     33  O   UNL A   1      40.436  20.133  26.019  1.00  0.00    -0.246 OA
BRANCH  32  34
ATOM     34  C   UNL A   1      40.259  22.317  26.989  1.00  0.00     0.060 A 
ATOM     35  C   UNL A   1      41.243  22.251  27.991  1.00  0.00     0.016 A 
ATOM     36  C   UNL A   1      39.840  23.554  26.502  1.00  0.00     0.016 A 
ATOM     37  C   UNL A   1      41.845  23.421  28.478  1.00  0.00     0.010 A 
ATOM     38  C   UNL A   1      40.431  24.713  26.994  1.00  0.00     0.010 A 
ATOM     39  C   UNL A   1      41.444  24.661  27.978  1.00  0.00    -0.014 A 
BRANCH  39  40
ATOM     40  C   UNL A   1      42.030  25.968  28.357  1.00  0.00     0.031 A 
ATOM     41  C   UNL A   1      43.469  26.259  27.904  1.00  0.00     0.074 A 
ATOM     42  C   UNL A   1      41.302  26.945  28.986  1.00  0.00     0.049 A 
ATOM     43  N   UNL A   1      44.195  27.350  27.982  1.00  0.00    -0.248 NA
ATOM     44  C   UNL A   1      44.082  25.214  27.060  1.00  0.00     0.031 C 
ATOM     45  C   UNL A   1      39.422  27.552  28.757  1.00  0.00     0.029 A 
ATOM     46  N   UNL A   1      42.082  28.117  30.157  1.00  0.00    -0.354 N 
ATOM     47  C   UNL A   1      45.304  27.144  27.154  1.00  0.00     0.074 A 
ATOM     48  C   UNL A   1      45.184  25.805  26.625  1.00  0.00     0.031 C 
ATOM     49  C   UNL A   1      39.183  28.966  29.730  1.00  0.00     0.029 A 
ATOM     50  C   UNL A   1      40.864  29.387  30.697  1.00  0.00     0.049 A 
ATOM     51  H   UNL A   1      43.020  28.074  30.455  1.00  0.00     0.167 HD
ATOM     52  C   UNL A   1      46.312  27.983  26.799  1.00  0.00     0.034 A 
ATOM     53  C   UNL A   1      41.218  30.545  31.328  1.00  0.00     0.034 A 
ATOM     54  C   UNL A   1      46.491  29.321  27.307  1.00  0.00     0.049 A 
ATOM     55  C   UNL A   1      42.571  31.230  30.999  1.00  0.00     0.074 A 
ATOM     56  C   UNL A   1      47.541  30.187  27.044  1.00  0.00     0.029 A 
ATOM     57  N   UNL A   1      45.632  29.987  28.175  1.00  0.00    -0.354 N 
ATOM     58  N   UNL A   1      43.535  30.898  30.159  1.00  0.00    -0.248 NA
ATOM     59  C   UNL A   1      42.751  32.579  31.571  1.00  0.00     0.031 C 
ATOM     60  C   UNL A   1      47.364  31.337  27.812  1.00  0.00     0.029 A 
ATOM     61  C   UNL A   1      46.155  31.235  28.486  1.00  0.00     0.049 A 
ATOM     62  H   UNL A   1      44.781  29.628  28.516  1.00  0.00     0.167 HD
ATOM     63  C   UNL A   1      44.383  32.018  30.057  1.00  0.00     0.074 A 
ATOM     64  C   UNL A   1      43.791  33.042  30.892  1.00  0.00     0.031 C 
ATOM     65  C   UNL A   1      45.529  32.221  29.342  1.00  0.00     0.034 A 
BRANCH  52  66
ATOM     66  C   UNL A   1      47.366  27.466  25.835  1.00  0.00     0.023 A 
ATOM     67  C   UNL A   1      47.394  27.847  24.480  1.00  0.00     0.031 A 
ATOM     68  C   UNL A   1      48.393  26.625  26.303  1.00  0.00     0.131 A 
ATOM     69  C   UNL A   1      48.412  27.362  23.636  1.00  0.00     0.055 A 
ATOM     70  C   UNL A   1      49.429  26.191  25.473  1.00  0.00     0.041 A 
ATOM     71  F   UNL A   1      48.414  26.226  27.583  1.00  0.00    -0.206 F 
ATOM     72  C   UNL A   1      49.440  26.554  24.130  1.00  0.00     0.022 A 
BRANCH  69  73
ATOM     73  S   UNL A   1      48.349  27.742  21.861  1.00  0.00     0.124 S 
ATOM     74  O   UNL A   1      47.014  28.321  21.731  1.00  0.00    -0.237 OA
ATOM     75  O   UNL A   1      49.467  28.661  21.691  1.00  0.00    -0.237 OA
ATOM     76  O   UNL A   1      48.515  26.435  21.224  1.00  0.00    -0.744 OA
ENDBRANCH  69  73
ENDBRANCH  52  66
BRANCH  53  77
ATOM     77  C   UNL A   1      40.122  31.307  31.965  1.00  0.00     0.023 A 
ATOM     78  C   UNL A   1      39.810  31.176  33.323  1.00  0.00     0.031 A 
ATOM     79  C   UNL A   1      39.365  32.198  31.189  1.00  0.00     0.131 A 
ATOM     80  C   UNL A   1      38.789  31.952  33.880  1.00  0.00     0.055 A 
ATOM     81  C   UNL A   1      38.354  32.976  31.749  1.00  0.00     0.041 A 
ATOM     82  F   UNL A   1      39.621  32.341  29.878  1.00  0.00    -0.206 F 
ATOM     83  C   UNL A   1      38.063  32.858  33.105  1.00  0.00     0.022 A 
BRANCH  80  84
ATOM     84  S   UNL A   1      38.446  31.756  35.644  1.00  0.00     0.124 S 
ATOM     85  O   UNL A   1      37.164  32.439  35.778  1.00  0.00    -0.237 OA
ATOM     86  O   UNL A   1      38.416  30.303  35.771  1.00  0.00    -0.237 OA
ATOM     87  O   UNL A   1      39.581  32.417  36.282  1.00  0.00    -0.744 OA
ENDBRANCH  80  84
ENDBRANCH  53  77
BRANCH  65  88
ATOM     88  C   UNL A   1      46.241  33.572  29.463  1.00  0.00     0.023 A 
ATOM     89  C   UNL A   1      47.233  33.784  30.437  1.00  0.00     0.031 A 
ATOM     90  C   UNL A   1      46.000  34.625  28.555  1.00  0.00     0.131 A 
ATOM     91  C   UNL A   1      47.900  35.019  30.523  1.00  0.00     0.055 A 
ATOM     92  C   UNL A   1      46.714  35.831  28.602  1.00  0.00     0.041 A 
ATOM     93  F   UNL A   1      45.088  34.494  27.578  1.00  0.00    -0.206 F 
ATOM     94  C   UNL A   1      47.661  36.038  29.599  1.00  0.00     0.022 A 
BRANCH  91  95
ATOM     95  S   UNL A   1      49.047  35.291  31.902  1.00  0.00     0.124 S 
ATOM     96  O   UNL A   1      49.837  36.419  31.419  1.00  0.00    -0.237 OA
ATOM     97  O   UNL A   1      48.141  35.578  33.010  1.00  0.00    -0.237 OA
ATOM     98  O   UNL A   1      49.771  34.026  32.007  1.00  0.00    -0.744 OA
ENDBRANCH  91  95
ENDBRANCH  65  88
ENDBRANCH  39  40
ENDBRANCH  32  34
ENDBRANCH  31  32
ENDBRANCH  30  31
ENDBRANCH   1  30
TORSDOF 19
ENDMDL
MODEL 2
REMARK VINA RESULT:     -10.6      4.775      7.128
REMARK SMILES O=C(COCC(=O)N1CCC([NH+]2CCN(c3ccc(F)cc3)CC2)CC1)OCCOC(=O)c1ccc(-c2c3nc(c(-c4cc(S(=O)(=O)[O-])ccc4F)c4ccc([nH]4)c(-c4cc(S(=O)(=O)[O-])ccc4F)c4nc(c(-c5cc(S(=O)(=O)[O-])ccc5F)c5ccc2[nH]5)C=C4)C=C3)cc1
REMARK SMILES IDX 28 1 27 2 2 3 1 4 3 5 4 6 5 7 6 8 7 9 8 10 9 11 26 12 10 13
REMARK SMILES IDX 25 14 11 15 12 16 13 17 24 18 14 20 23 21 15 22 16 23 17 24
REMARK SMILES IDX 22 25 18 26 21 27 19 28 20 29 29 30 30 31 31 32 32 33 33 34
REMARK SMILES IDX 34 35 95 36 35 37 94 38 36 39 37 40 38 41 88 42 39 43 93 44
REMARK SMILES IDX 87 45 89 46 40 47 92 48 86 49 85 50 41 52 73 53 53 54 72 55
REMARK SMILES IDX 54 56 57 57 71 58 90 59 55 60 56 61 70 63 91 64 58 65 42 66
REMARK SMILES IDX 43 67 51 68 44 69 50 70 52 71 49 72 45 73 46 74 47 75 48 76
REMARK SMILES IDX 74 77 75 78 83 79 76 80 82 81 84 82 81 83 77 84 78 85 79 86
REMARK SMILES IDX 80 87 59 88 60 89 68 90 61 91 67 92 69 93 66 94 62 95 63 96
REMARK SMILES IDX 64 97 65 98
REMARK H PARENT 12 19 89 51 57 62
REMARK Flexibility Score: inf
ROOT
ATOM      1  C   UNL A   1      42.343  19.307  26.174  1.00  0.00     0.274 C 
ENDROOT
BRANCH   1   2
ATOM      2  O   UNL A   1      41.266  20.123  26.670  1.00  0.00    -0.460 OA
BRANCH   2   3
ATOM      3  C   UNL A   1      40.061  20.213  26.057  1.00  0.00     0.332 C 
ATOM      4  O   UNL A   1      39.586  19.239  25.476  1.00  0.00    -0.250 OA
BRANCH   3   5
ATOM      5  C   UNL A   1      39.311  21.545  26.117  1.00  0.00     0.283 C 
BRANCH   5   6
ATOM      6  O   UNL A   1      38.166  21.681  25.300  1.00  0.00    -0.360 OA
BRANCH   6   7
ATOM      7  C   UNL A   1      37.527  22.921  25.529  1.00  0.00     0.261 C 
BRANCH   7   8
ATOM      8  C   UNL A   1      36.022  23.050  25.199  1.00  0.00     0.248 C 
ATOM      9  O   UNL A   1      35.619  24.058  24.616  1.00  0.00    -0.272 OA
ATOM     10  N   UNL A   1      35.226  21.927  25.410  1.00  0.00    -0.340 N 
ATOM     11  C   UNL A   1      34.477  21.399  24.304  1.00  0.00     0.125 C 
ATOM     12  C   UNL A   1      34.737  21.476  26.697  1.00  0.00     0.125 C 
ATOM     13  C   UNL A   1      33.033  20.923  24.647  1.00  0.00     0.086 C 
ATOM     14  C   UNL A   1      33.325  22.040  26.980  1.00  0.00     0.086 C 
ATOM     15  C   UNL A   1      31.943  21.991  25.759  1.00  0.00     0.187 C 
BRANCH  15  16
ATOM     16  N   UNL A   1      30.566  23.564  25.164  1.00  0.00    -0.329 N 
ATOM     17  C   UNL A   1      30.021  24.959  25.894  1.00  0.00     0.284 C 
ATOM     18  C   UNL A   1      30.287  24.239  23.641  1.00  0.00     0.284 C 
ATOM     19  H   UNL A   1      30.312  22.637  25.507  1.00  0.00     0.348 HD
ATOM     20  C   UNL A   1      30.680  26.335  25.570  1.00  0.00     0.178 C 
ATOM     21  C   UNL A   1      31.136  25.472  23.285  1.00  0.00     0.178 C 
ATOM     22  N   UNL A   1      30.773  26.566  24.148  1.00  0.00    -0.360 N 
BRANCH  22  23
ATOM     23  C   UNL A   1      30.468  27.739  23.520  1.00  0.00     0.037 A 
ATOM     24  C   UNL A   1      29.120  28.118  23.427  1.00  0.00     0.029 A 
ATOM     25  C   UNL A   1      31.437  28.474  22.841  1.00  0.00     0.029 A 
ATOM     26  C   UNL A   1      28.728  29.167  22.615  1.00  0.00     0.041 A 
ATOM     27  C   UNL A   1      31.050  29.537  22.028  1.00  0.00     0.041 A 
ATOM     28  C   UNL A   1      29.699  29.863  21.914  1.00  0.00     0.123 A 
ATOM     29  F   UNL A   1      29.330  30.858  21.098  1.00  0.00    -0.207 F 
ENDBRANCH  22  23
ENDBRANCH  15  16
ENDBRANCH   7   8
ENDBRANCH   6   7
ENDBRANCH   5   6
ENDBRANCH   3   5
ENDBRANCH   2   3
ENDBRANCH   1   2
BRANCH   1  30
ATOM     30  C   UNL A   1      43.398  20.133  25.422  1.00  0.00     0.275 C 
BRANCH  30  31
ATOM     31  O   UNL A   1      43.726  21.365  26.093  1.00  0.00    -0.458 OA
BRANCH  31  32
ATOM     32  C   UNL A   1      43.490  22.525  25.417  1.00  0.00     0.338 C 
ATOM     33  O   UNL A   1      43.416  22.653  24.210  1.00  0.00    -0.246 OA
BRANCH  32  34
ATOM     34  C   UNL A   1      43.124  23.572  26.404  1.00  0.00     0.060 A 
ATOM     35  C   UNL A   1      42.100  23.325  27.335  1.00  0.00     0.016 A 
ATOM     36  C   UNL A   1      43.858  24.756  26.470  1.00  0.00     0.016 A 
ATOM     37  C   UNL A   1      41.836  24.242  28.365  1.00  0.00     0.010 A 
ATOM     38  C   UNL A   1      43.587  25.666  27.485  1.00  0.00     0.010 A 
ATOM     39  C   UNL A   1      42.583  25.418  28.448  1.00  0.00    -0.014 A 
BRANCH  39  40
ATOM     40  C   UNL A   1      42.452  26.443  29.510  1.00  0.00     0.031 A 
ATOM     41  C   UNL A   1      43.300  26.262  30.779  1.00  0.00     0.074 A 
ATOM     42  C   UNL A   1      41.702  27.579  29.347  1.00  0.00     0.049 A 
ATOM     43  N   UNL A   1      43.484  27.049  31.813  1.00  0.00    -0.248 NA
ATOM     44  C   UNL A   1      44.221  25.108  30.756  1.00  0.00     0.031 C 
ATOM     45  C   UNL A   1      41.437  28.779  27.784  1.00  0.00     0.029 A 
ATOM     46  N   UNL A   1      40.857  28.380  30.760  1.00  0.00    -0.354 N 
ATOM     47  C   UNL A   1      44.574  26.523  32.517  1.00  0.00     0.074 A 
ATOM     48  C   UNL A   1      44.975  25.321  31.824  1.00  0.00     0.031 C 
ATOM     49  C   UNL A   1      40.514  30.152  28.301  1.00  0.00     0.029 A 
ATOM     50  C   UNL A   1      40.073  29.957  30.225  1.00  0.00     0.049 A 
ATOM     51  H   UNL A   1      40.827  28.018  31.676  1.00  0.00     0.167 HD
ATOM     52  C   UNL A   1      45.238  26.998  33.603  1.00  0.00     0.034 A 
ATOM     53  C   UNL A   1      39.628  30.908  31.099  1.00  0.00     0.034 A 
ATOM     54  C   UNL A   1      44.873  28.181  34.343  1.00  0.00     0.049 A 
ATOM     55  C   UNL A   1      40.355  31.122  32.453  1.00  0.00     0.074 A 
ATOM     56  C   UNL A   1      45.463  28.662  35.501  1.00  0.00     0.029 A 
ATOM     57  N   UNL A   1      43.841  29.056  34.027  1.00  0.00    -0.354 N 
ATOM     58  N   UNL A   1      41.408  30.526  32.982  1.00  0.00    -0.248 NA
ATOM     59  C   UNL A   1      39.929  32.312  33.217  1.00  0.00     0.031 C 
ATOM     60  C   UNL A   1      44.740  29.775  35.931  1.00  0.00     0.029 A 
ATOM     61  C   UNL A   1      43.755  30.049  34.993  1.00  0.00     0.049 A 
ATOM     62  H   UNL A   1      43.259  28.983  33.236  1.00  0.00     0.167 HD
ATOM     63  C   UNL A   1      41.801  31.307  34.086  1.00  0.00     0.074 A 
ATOM     64  C   UNL A   1      40.893  32.434  34.118  1.00  0.00     0.031 C 
ATOM     65  C   UNL A   1      42.815  31.151  34.989  1.00  0.00     0.034 A 
BRANCH  52  66
ATOM     66  C   UNL A   1      46.425  26.202  34.118  1.00  0.00     0.023 A 
ATOM     67  C   UNL A   1      46.272  25.096  34.976  1.00  0.00     0.031 A 
ATOM     68  C   UNL A   1      47.726  26.525  33.689  1.00  0.00     0.131 A 
ATOM     69  C   UNL A   1      47.405  24.374  35.398  1.00  0.00     0.055 A 
ATOM     70  C   UNL A   1      48.839  25.772  34.069  1.00  0.00     0.041 A 
ATOM     71  F   UNL A   1      47.933  27.572  32.874  1.00  0.00    -0.206 F 
ATOM     72  C   UNL A   1      48.684  24.693  34.933  1.00  0.00     0.022 A 
BRANCH  69  73
ATOM     73  S   UNL A   1      47.204  23.046  36.621  1.00  0.00     0.124 S 
ATOM     74  O   UNL A   1      48.094  23.492  37.690  1.00  0.00    -0.237 OA
ATOM     75  O   UNL A   1      45.777  23.092  36.912  1.00  0.00    -0.237 OA
ATOM     76  O   UNL A   1      47.655  21.851  35.906  1.00  0.00    -0.744 OA
ENDBRANCH  69  73
ENDBRANCH  52  66
BRANCH  53  77
ATOM     77  C   UNL A   1      38.756  31.961  30.536  1.00  0.00     0.023 A 
ATOM     78  C   UNL A   1      37.360  31.884  30.586  1.00  0.00     0.031 A 
ATOM     79  C   UNL A   1      39.341  33.084  29.932  1.00  0.00     0.131 A 
ATOM     80  C   UNL A   1      36.587  32.929  30.072  1.00  0.00     0.055 A 
ATOM     81  C   UNL A   1      38.568  34.128  29.428  1.00  0.00     0.041 A 
ATOM     82  F   UNL A   1      40.678  33.189  29.848  1.00  0.00    -0.206 F 
ATOM     83  C   UNL A   1      37.180  34.055  29.501  1.00  0.00     0.022 A 
BRANCH  80  84
ATOM     84  S   UNL A   1      34.789  32.783  30.184  1.00  0.00     0.124 S 
ATOM     85  O   UNL A   1      34.491  31.881  29.077  1.00  0.00    -0.237 OA
ATOM     86  O   UNL A   1      34.628  32.229  31.525  1.00  0.00    -0.237 OA
ATOM     87  O   UNL A   1      34.329  34.159  30.016  1.00  0.00    -0.744 OA
ENDBRANCH  80  84
ENDBRANCH  53  77
BRANCH  65  88
ATOM     88  C   UNL A   1      42.969  32.186  36.107  1.00  0.00     0.023 A 
ATOM     89  C   UNL A   1      42.307  32.028  37.338  1.00  0.00     0.031 A 
ATOM     90  C   UNL A   1      43.843  33.287  35.987  1.00  0.00     0.131 A 
ATOM     91  C   UNL A   1      42.476  32.969  38.368  1.00  0.00     0.055 A 
ATOM     92  C   UNL A   1      44.061  34.188  37.040  1.00  0.00     0.041 A 
ATOM     93  F   UNL A   1      44.534  33.495  34.854  1.00  0.00    -0.206 F 
ATOM     94  C   UNL A   1      43.364  34.039  38.235  1.00  0.00     0.022 A 
BRANCH  91  95
ATOM     95  S   UNL A   1      41.469  32.804  39.868  1.00  0.00     0.124 S 
ATOM     96  O   UNL A   1      42.078  31.646  40.514  1.00  0.00    -0.237 OA
ATOM     97  O   UNL A   1      41.682  34.087  40.531  1.00  0.00    -0.237 OA
ATOM     98  O   UNL A   1      40.117  32.590  39.357  1.00  0.00    -0.744 OA
ENDBRANCH  91  95
ENDBRANCH  65  88
ENDBRANCH  39  40
ENDBRANCH  32  34
ENDBRANCH  31  32
ENDBRANCH  30  31
ENDBRANCH   1  30
TORSDOF 19
ENDMDL
MODEL 3
REMARK VINA RESULT:     -10.5      5.693     10.185
REMARK SMILES O=C(COCC(=O)N1CCC([NH+]2CCN(c3ccc(F)cc3)CC2)CC1)OCCOC(=O)c1ccc(-c2c3nc(c(-c4cc(S(=O)(=O)[O-])ccc4F)c4ccc([nH]4)c(-c4cc(S(=O)(=O)[O-])ccc4F)c4nc(c(-c5cc(S(=O)(=O)[O-])ccc5F)c5ccc2[nH]5)C=C4)C=C3)cc1
REMARK SMILES IDX 28 1 27 2 2 3 1 4 3 5 4 6 5 7 6 8 7 9 8 10 9 11 26 12 10 13
REMARK SMILES IDX 25 14 11 15 12 16 13 17 24 18 14 20 23 21 15 22 16 23 17 24
REMARK SMILES IDX 22 25 18 26 21 27 19 28 20 29 29 30 30 31 31 32 32 33 33 34
REMARK SMILES IDX 34 35 95 36 35 37 94 38 36 39 37 40 38 41 88 42 39 43 93 44
REMARK SMILES IDX 87 45 89 46 40 47 92 48 86 49 85 50 41 52 73 53 53 54 72 55
REMARK SMILES IDX 54 56 57 57 71 58 90 59 55 60 56 61 70 63 91 64 58 65 42 66
REMARK SMILES IDX 43 67 51 68 44 69 50 70 52 71 49 72 45 73 46 74 47 75 48 76
REMARK SMILES IDX 74 77 75 78 83 79 76 80 82 81 84 82 81 83 77 84 78 85 79 86
REMARK SMILES IDX 80 87 59 88 60 89 68 90 61 91 67 92 69 93 66 94 62 95 63 96
REMARK SMILES IDX 64 97 65 98
REMARK H PARENT 12 19 89 51 57 62
REMARK Flexibility Score: inf
ROOT
ATOM      1  C   UNL A   1      34.054  35.170  31.777  1.00  0.00     0.274 C 
ENDROOT
BRANCH   1   2
ATOM      2  O   UNL A   1      32.962  34.986  30.858  1.00  0.00    -0.460 OA
BRANCH   2   3
ATOM      3  C   UNL A   1      33.038  35.306  29.543  1.00  0.00     0.332 C 
ATOM      4  O   UNL A   1      32.858  36.466  29.176  1.00  0.00    -0.250 OA
BRANCH   3   5
ATOM      5  C   UNL A   1      33.362  34.198  28.540  1.00  0.00     0.283 C 
BRANCH   5   6
ATOM      6  O   UNL A   1      34.641  34.220  27.940  1.00  0.00    -0.360 OA
BRANCH   6   7
ATOM      7  C   UNL A   1      35.655  34.344  28.917  1.00  0.00     0.261 C 
BRANCH   7   8
ATOM      8  C   UNL A   1      36.619  33.156  29.139  1.00  0.00     0.248 C 
ATOM      9  O   UNL A   1      37.782  33.381  29.481  1.00  0.00    -0.272 OA
ATOM     10  N   UNL A   1      36.066  31.877  29.126  1.00  0.00    -0.340 N 
ATOM     11  C   UNL A   1      36.246  31.041  30.279  1.00  0.00     0.125 C 
ATOM     12  C   UNL A   1      35.693  31.138  27.938  1.00  0.00     0.125 C 
ATOM     13  C   UNL A   1      36.543  29.541  29.973  1.00  0.00     0.086 C 
ATOM     14  C   UNL A   1      36.844  30.215  27.475  1.00  0.00     0.086 C 
ATOM     15  C   UNL A   1      37.775  29.099  28.612  1.00  0.00     0.187 C 
BRANCH  15  16
ATOM     16  N   UNL A   1      39.918  28.793  28.801  1.00  0.00    -0.329 N 
ATOM     17  C   UNL A   1      40.862  27.528  29.337  1.00  0.00     0.284 C 
ATOM     18  C   UNL A   1      41.179  29.330  27.813  1.00  0.00     0.284 C 
ATOM     19  H   UNL A   1      39.328  29.336  29.433  1.00  0.00     0.348 HD
ATOM     20  C   UNL A   1      41.483  26.516  28.326  1.00  0.00     0.178 C 
ATOM     21  C   UNL A   1      41.601  28.375  26.682  1.00  0.00     0.178 C 
ATOM     22  N   UNL A   1      42.177  27.185  27.252  1.00  0.00    -0.360 N 
BRANCH  22  23
ATOM     23  C   UNL A   1      43.400  26.827  26.763  1.00  0.00     0.037 A 
ATOM     24  C   UNL A   1      43.461  25.832  25.775  1.00  0.00     0.029 A 
ATOM     25  C   UNL A   1      44.579  27.306  27.330  1.00  0.00     0.029 A 
ATOM     26  C   UNL A   1      44.669  25.268  25.403  1.00  0.00     0.041 A 
ATOM     27  C   UNL A   1      45.799  26.748  26.954  1.00  0.00     0.041 A 
ATOM     28  C   UNL A   1      45.829  25.727  26.006  1.00  0.00     0.123 A 
ATOM     29  F   UNL A   1      47.000  25.165  25.681  1.00  0.00    -0.207 F 
ENDBRANCH  22  23
ENDBRANCH  15  16
ENDBRANCH   7   8
ENDBRANCH   6   7
ENDBRANCH   5   6
ENDBRANCH   3   5
ENDBRANCH   2   3
ENDBRANCH   1   2
BRANCH   1  30
ATOM     30  C   UNL A   1      34.293  33.928  32.650  1.00  0.00     0.275 C 
BRANCH  30  31
ATOM     31  O   UNL A   1      35.681  33.549  32.715  1.00  0.00    -0.458 OA
BRANCH  31  32
ATOM     32  C   UNL A   1      36.178  33.213  33.939  1.00  0.00     0.338 C 
ATOM     33  O   UNL A   1      35.627  33.378  35.010  1.00  0.00    -0.246 OA
BRANCH  32  34
ATOM     34  C   UNL A   1      37.415  32.417  33.736  1.00  0.00     0.060 A 
ATOM     35  C   UNL A   1      37.320  31.052  33.414  1.00  0.00     0.016 A 
ATOM     36  C   UNL A   1      38.661  33.043  33.769  1.00  0.00     0.016 A 
ATOM     37  C   UNL A   1      38.467  30.316  33.079  1.00  0.00     0.010 A 
ATOM     38  C   UNL A   1      39.797  32.308  33.446  1.00  0.00     0.010 A 
ATOM     39  C   UNL A   1      39.714  30.944  33.088  1.00  0.00    -0.014 A 
BRANCH  39  40
ATOM     40  C   UNL A   1      40.996  30.308  32.703  1.00  0.00     0.031 A 
ATOM     41  C   UNL A   1      41.688  30.822  31.431  1.00  0.00     0.074 A 
ATOM     42  C   UNL A   1      41.623  29.379  33.493  1.00  0.00     0.049 A 
ATOM     43  N   UNL A   1      42.864  30.546  30.917  1.00  0.00    -0.248 NA
ATOM     44  C   UNL A   1      41.021  31.964  30.774  1.00  0.00     0.031 C 
ATOM     45  C   UNL A   1      41.842  29.246  35.465  1.00  0.00     0.029 A 
ATOM     46  N   UNL A   1      42.638  28.037  32.771  1.00  0.00    -0.354 N 
ATOM     47  C   UNL A   1      43.097  31.512  29.930  1.00  0.00     0.074 A 
ATOM     48  C   UNL A   1      41.920  32.347  29.881  1.00  0.00     0.031 C 
ATOM     49  C   UNL A   1      42.911  27.926  35.807  1.00  0.00     0.029 A 
ATOM     50  C   UNL A   1      43.456  27.067  34.104  1.00  0.00     0.049 A 
ATOM     51  H   UNL A   1      42.733  27.861  31.807  1.00  0.00     0.167 HD
ATOM     52  C   UNL A   1      44.194  31.745  29.163  1.00  0.00     0.034 A 
ATOM     53  C   UNL A   1      44.490  26.203  33.877  1.00  0.00     0.034 A 
ATOM     54  C   UNL A   1      45.388  30.936  29.158  1.00  0.00     0.049 A 
ATOM     55  C   UNL A   1      45.508  26.488  32.742  1.00  0.00     0.074 A 
ATOM     56  C   UNL A   1      46.497  31.080  28.340  1.00  0.00     0.029 A 
ATOM     57  N   UNL A   1      45.636  29.842  29.980  1.00  0.00    -0.354 N 
ATOM     58  N   UNL A   1      45.594  27.482  31.876  1.00  0.00    -0.248 NA
ATOM     59  C   UNL A   1      46.698  25.614  32.728  1.00  0.00     0.031 C 
ATOM     60  C   UNL A   1      47.376  30.030  28.606  1.00  0.00     0.029 A 
ATOM     61  C   UNL A   1      46.864  29.281  29.656  1.00  0.00     0.049 A 
ATOM     62  H   UNL A   1      45.032  29.516  30.686  1.00  0.00     0.167 HD
ATOM     63  C   UNL A   1      46.865  27.384  31.276  1.00  0.00     0.074 A 
ATOM     64  C   UNL A   1      47.518  26.259  31.910  1.00  0.00     0.031 C 
ATOM     65  C   UNL A   1      47.469  28.141  30.312  1.00  0.00     0.034 A 
BRANCH  52  66
ATOM     66  C   UNL A   1      44.151  32.915  28.194  1.00  0.00     0.023 A 
ATOM     67  C   UNL A   1      44.361  34.243  28.612  1.00  0.00     0.031 A 
ATOM     68  C   UNL A   1      43.957  32.682  26.820  1.00  0.00     0.131 A 
ATOM     69  C   UNL A   1      44.340  35.287  27.668  1.00  0.00     0.055 A 
ATOM     70  C   UNL A   1      43.992  33.716  25.882  1.00  0.00     0.041 A 
ATOM     71  F   UNL A   1      43.748  31.437  26.365  1.00  0.00    -0.206 F 
ATOM     72  C   UNL A   1      44.179  35.028  26.304  1.00  0.00     0.022 A 
BRANCH  69  73
ATOM     73  S   UNL A   1      44.463  37.006  28.243  1.00  0.00     0.124 S 
ATOM     74  O   UNL A   1      45.688  37.451  27.583  1.00  0.00    -0.237 OA
ATOM     75  O   UNL A   1      43.222  37.594  27.757  1.00  0.00    -0.237 OA
ATOM     76  O   UNL A   1      44.563  36.875  29.696  1.00  0.00    -0.744 OA
ENDBRANCH  69  73
ENDBRANCH  52  66
BRANCH  53  77
ATOM     77  C   UNL A   1      44.829  25.281  34.982  1.00  0.00     0.023 A 
ATOM     78  C   UNL A   1      45.541  25.697  36.113  1.00  0.00     0.031 A 
ATOM     79  C   UNL A   1      44.422  23.940  34.906  1.00  0.00     0.131 A 
ATOM     80  C   UNL A   1      45.798  24.791  37.145  1.00  0.00     0.055 A 
ATOM     81  C   UNL A   1      44.673  23.041  35.941  1.00  0.00     0.041 A 
ATOM     82  F   UNL A   1      43.751  23.496  33.830  1.00  0.00    -0.206 F 
ATOM     83  C   UNL A   1      45.362  23.467  37.072  1.00  0.00     0.022 A 
BRANCH  80  84
ATOM     84  S   UNL A   1      46.704  25.391  38.590  1.00  0.00     0.124 S 
ATOM     85  O   UNL A   1      46.326  24.417  39.607  1.00  0.00    -0.237 OA
ATOM     86  O   UNL A   1      48.082  25.323  38.114  1.00  0.00    -0.237 OA
ATOM     87  O   UNL A   1      46.174  26.738  38.782  1.00  0.00    -0.744 OA
ENDBRANCH  80  84
ENDBRANCH  53  77
BRANCH  65  88
ATOM     88  C   UNL A   1      48.879  27.756  29.853  1.00  0.00     0.023 A 
ATOM     89  C   UNL A   1      49.075  26.889  28.763  1.00  0.00     0.031 A 
ATOM     90  C   UNL A   1      50.033  28.319  30.439  1.00  0.00     0.131 A 
ATOM     91  C   UNL A   1      50.372  26.563  28.331  1.00  0.00     0.055 A 
ATOM     92  C   UNL A   1      51.323  28.044  29.963  1.00  0.00     0.041 A 
ATOM     93  F   UNL A   1      49.932  29.177  31.467  1.00  0.00    -0.206 F 
ATOM     94  C   UNL A   1      51.499  27.150  28.912  1.00  0.00     0.022 A 
BRANCH  91  95
ATOM     95  S   UNL A   1      50.566  25.311  27.033  1.00  0.00     0.124 S 
ATOM     96  O   UNL A   1      49.852  24.173  27.603  1.00  0.00    -0.237 OA
ATOM     97  O   UNL A   1      49.930  25.950  25.885  1.00  0.00    -0.237 OA
ATOM     98  O   UNL A   1      52.013  25.145  26.924  1.00  0.00    -0.744 OA
ENDBRANCH  91  95
ENDBRANCH  65  88
ENDBRANCH  39  40
ENDBRANCH  32  34
ENDBRANCH  31  32
ENDBRANCH  30  31
ENDBRANCH   1  30
TORSDOF 19
ENDMDL
