MODEL 1
REMARK VINA RESULT:     -11.1      0.000      0.000
REMARK SMILES O=C(OCCOC(=O)[C@@H](CCOC(F)(F)F)Cc1ccccc1Cl)c1ccc(-c2c3nc(c(-c4cc(S(=O)(=O)[O-])ccc4F)c4ccc([nH]4)c(-c4cc(S(=O)(=O)[O-])ccc4F)c4nc(c(-c5cc(S(=O)(=O)[O-])ccc5F)c5ccc2[nH]5)C=C4)C=C3)cc1
REMARK SMILES IDX 5 1 4 2 3 3 2 4 1 5 25 6 26 7 87 8 27 9 86 10 28 11 29 12
REMARK SMILES IDX 30 13 80 14 31 15 85 16 79 17 81 18 32 19 84 20 78 21 77 22
REMARK SMILES IDX 33 24 65 25 45 26 64 27 46 28 49 29 63 30 82 31 47 32 48 33
REMARK SMILES IDX 62 35 83 36 50 37 34 38 35 39 43 40 36 41 42 42 44 43 41 44
REMARK SMILES IDX 37 45 38 46 39 47 40 48 66 49 67 50 75 51 68 52 74 53 76 54
REMARK SMILES IDX 73 55 69 56 70 57 71 58 72 59 51 60 52 61 60 62 53 63 59 64
REMARK SMILES IDX 61 65 58 66 54 67 55 68 56 69 57 70 6 71 7 72 8 73 9 74
REMARK SMILES IDX 10 75 11 76 12 77 13 78 14 79 15 80 16 81 17 82 18 83 19 84
REMARK SMILES IDX 23 85 20 86 22 87 24 88 21 89
REMARK H PARENT 81 23 49 34
REMARK Flexibility Score: inf
ROOT
ATOM      1  C   UNL A   1      31.940  30.212  25.816  1.00  0.00     0.274 C 
ENDROOT
BRANCH   1   2
ATOM      2  C   UNL A   1      31.323  31.446  26.508  1.00  0.00     0.275 C 
BRANCH   2   3
ATOM      3  O   UNL A   1      32.190  32.572  26.464  1.00  0.00    -0.458 OA
BRANCH   3   4
ATOM      4  C   UNL A   1      32.800  33.070  27.551  1.00  0.00     0.338 C 
ATOM      5  O   UNL A   1      32.488  34.179  27.979  1.00  0.00    -0.246 OA
BRANCH   4   6
ATOM      6  C   UNL A   1      33.949  32.385  28.212  1.00  0.00     0.060 A 
ATOM      7  C   UNL A   1      34.243  30.593  28.423  1.00  0.00     0.016 A 
ATOM      8  C   UNL A   1      35.331  33.508  28.371  1.00  0.00     0.016 A 
ATOM      9  C   UNL A   1      35.941  29.986  28.653  1.00  0.00     0.010 A 
ATOM     10  C   UNL A   1      36.973  32.899  28.631  1.00  0.00     0.010 A 
ATOM     11  C   UNL A   1      37.301  31.175  28.856  1.00  0.00    -0.014 A 
BRANCH  11  12
ATOM     12  C   UNL A   1      38.513  30.772  29.637  1.00  0.00     0.031 A 
ATOM     13  C   UNL A   1      38.667  31.118  31.116  1.00  0.00     0.074 A 
ATOM     14  C   UNL A   1      39.297  29.847  29.065  1.00  0.00     0.049 A 
ATOM     15  N   UNL A   1      39.551  30.663  31.972  1.00  0.00    -0.248 NA
ATOM     16  C   UNL A   1      37.719  32.055  31.746  1.00  0.00     0.031 C 
ATOM     17  C   UNL A   1      39.162  29.414  27.678  1.00  0.00     0.029 A 
ATOM     18  N   UNL A   1      40.290  29.053  29.564  1.00  0.00    -0.354 N 
ATOM     19  C   UNL A   1      39.266  31.273  33.195  1.00  0.00     0.074 A 
ATOM     20  C   UNL A   1      38.101  32.086  33.010  1.00  0.00     0.031 C 
ATOM     21  C   UNL A   1      39.920  28.333  27.486  1.00  0.00     0.029 A 
ATOM     22  C   UNL A   1      40.761  28.142  28.649  1.00  0.00     0.049 A 
ATOM     23  H   UNL A   1      40.633  29.126  30.485  1.00  0.00     0.167 HD
ATOM     24  C   UNL A   1      39.957  31.217  34.357  1.00  0.00     0.034 A 
ATOM     25  C   UNL A   1      41.821  27.315  28.687  1.00  0.00     0.034 A 
ATOM     26  C   UNL A   1      41.168  30.459  34.484  1.00  0.00     0.049 A 
ATOM     27  C   UNL A   1      42.647  27.369  29.934  1.00  0.00     0.074 A 
ATOM     28  C   UNL A   1      42.036  30.393  35.555  1.00  0.00     0.029 A 
ATOM     29  N   UNL A   1      41.704  29.669  33.474  1.00  0.00    -0.354 N 
ATOM     30  N   UNL A   1      42.396  28.014  31.051  1.00  0.00    -0.248 NA
ATOM     31  C   UNL A   1      43.919  26.645  29.915  1.00  0.00     0.031 C 
ATOM     32  C   UNL A   1      43.152  29.659  35.150  1.00  0.00     0.029 A 
ATOM     33  C   UNL A   1      42.925  29.167  33.873  1.00  0.00     0.049 A 
ATOM     34  H   UNL A   1      41.275  29.495  32.605  1.00  0.00     0.167 HD
ATOM     35  C   UNL A   1      43.498  27.799  31.861  1.00  0.00     0.074 A 
ATOM     36  C   UNL A   1      44.384  26.915  31.125  1.00  0.00     0.031 C 
ATOM     37  C   UNL A   1      43.772  28.304  33.089  1.00  0.00     0.034 A 
BRANCH  24  38
ATOM     38  C   UNL A   1      39.542  32.143  35.478  1.00  0.00     0.023 A 
ATOM     39  C   UNL A   1      40.070  33.435  35.657  1.00  0.00     0.031 A 
ATOM     40  C   UNL A   1      38.603  31.682  36.424  1.00  0.00     0.131 A 
ATOM     41  C   UNL A   1      39.677  34.202  36.770  1.00  0.00     0.055 A 
ATOM     42  C   UNL A   1      38.162  32.477  37.482  1.00  0.00     0.041 A 
ATOM     43  F   UNL A   1      38.109  30.437  36.339  1.00  0.00    -0.206 F 
ATOM     44  C   UNL A   1      38.704  33.743  37.663  1.00  0.00     0.022 A 
BRANCH  41  45
ATOM     45  S   UNL A   1      40.540  35.761  37.119  1.00  0.00     0.124 S 
ATOM     46  O   UNL A   1      39.686  36.731  36.438  1.00  0.00    -0.237 OA
ATOM     47  O   UNL A   1      40.529  35.811  38.576  1.00  0.00    -0.237 OA
ATOM     48  O   UNL A   1      41.857  35.569  36.513  1.00  0.00    -0.744 OA
ENDBRANCH  41  45
ENDBRANCH  24  38
BRANCH  25  49
ATOM     49  C   UNL A   1      42.240  26.558  27.468  1.00  0.00     0.023 A 
ATOM     50  C   UNL A   1      41.920  25.206  27.291  1.00  0.00     0.031 A 
ATOM     51  C   UNL A   1      43.015  27.178  26.461  1.00  0.00     0.131 A 
ATOM     52  C   UNL A   1      42.395  24.520  26.158  1.00  0.00     0.055 A 
ATOM     53  C   UNL A   1      43.383  26.524  25.287  1.00  0.00     0.041 A 
ATOM     54  F   UNL A   1      43.411  28.456  26.591  1.00  0.00    -0.206 F 
ATOM     55  C   UNL A   1      43.086  25.178  25.138  1.00  0.00     0.022 A 
BRANCH  52  56
ATOM     56  S   UNL A   1      42.247  22.714  26.116  1.00  0.00     0.124 S 
ATOM     57  O   UNL A   1      40.817  22.530  26.338  1.00  0.00    -0.237 OA
ATOM     58  O   UNL A   1      42.734  22.398  24.778  1.00  0.00    -0.237 OA
ATOM     59  O   UNL A   1      43.108  22.277  27.213  1.00  0.00    -0.744 OA
ENDBRANCH  52  56
ENDBRANCH  25  49
BRANCH  37  60
ATOM     60  C   UNL A   1      45.073  27.884  33.697  1.00  0.00     0.023 A 
ATOM     61  C   UNL A   1      45.183  26.687  34.418  1.00  0.00     0.031 A 
ATOM     62  C   UNL A   1      46.209  28.695  33.551  1.00  0.00     0.131 A 
ATOM     63  C   UNL A   1      46.397  26.363  35.027  1.00  0.00     0.055 A 
ATOM     64  C   UNL A   1      47.437  28.325  34.088  1.00  0.00     0.041 A 
ATOM     65  F   UNL A   1      46.141  29.853  32.872  1.00  0.00    -0.206 F 
ATOM     66  C   UNL A   1      47.532  27.159  34.844  1.00  0.00     0.022 A 
BRANCH  63  67
ATOM     67  S   UNL A   1      46.438  24.951  36.158  1.00  0.00     0.124 S 
ATOM     68  O   UNL A   1      45.096  24.987  36.730  1.00  0.00    -0.237 OA
ATOM     69  O   UNL A   1      46.718  23.835  35.259  1.00  0.00    -0.237 OA
ATOM     70  O   UNL A   1      47.518  25.288  37.083  1.00  0.00    -0.744 OA
ENDBRANCH  63  67
ENDBRANCH  37  60
ENDBRANCH  11  12
ENDBRANCH   4   6
ENDBRANCH   3   4
ENDBRANCH   2   3
ENDBRANCH   1   2
BRANCH   1  71
ATOM     71  O   UNL A   1      31.155  28.986  25.873  1.00  0.00    -0.462 OA
BRANCH  71  72
ATOM     72  C   UNL A   1      31.708  27.842  26.360  1.00  0.00     0.309 C 
ATOM     73  O   UNL A   1      31.486  27.430  27.493  1.00  0.00    -0.252 OA
BRANCH  72  74
ATOM     74  C   UNL A   1      32.605  27.069  25.323  1.00  0.00     0.106 C 
BRANCH  74  75
ATOM     75  C   UNL A   1      32.920  27.762  23.629  1.00  0.00     0.044 C 
BRANCH  75  76
ATOM     76  C   UNL A   1      31.724  28.978  22.252  1.00  0.00     0.171 C 
BRANCH  76  77
ATOM     77  O   UNL A   1      30.175  28.932  21.873  1.00  0.00    -0.292 OA
BRANCH  77  78
ATOM     78  C   UNL A   1      29.085  29.004  22.803  1.00  0.00     0.522 C 
ATOM     79  F   UNL A   1      28.951  27.882  23.544  1.00  0.00    -0.144 F 
ATOM     80  F   UNL A   1      29.243  30.057  23.639  1.00  0.00    -0.144 F 
ATOM     81  F   UNL A   1      27.928  29.201  22.142  1.00  0.00    -0.144 F 
ENDBRANCH  77  78
ENDBRANCH  76  77
ENDBRANCH  75  76
ENDBRANCH  74  75
BRANCH  74  82
ATOM     82  C   UNL A   1      33.775  26.206  25.900  1.00  0.00     0.052 C 
BRANCH  82  83
ATOM     83  C   UNL A   1      34.051  24.780  25.455  1.00  0.00    -0.028 A 
ATOM     84  C   UNL A   1      35.153  24.433  24.667  1.00  0.00     0.005 A 
ATOM     85  C   UNL A   1      33.170  23.736  25.816  1.00  0.00     0.044 A 
ATOM     86  C   UNL A   1      35.250  23.161  24.091  1.00  0.00     0.000 A 
ATOM     87  C   UNL A   1      33.279  22.460  25.260  1.00  0.00     0.021 A 
ATOM     88  Cl  UNL A   1      31.915  23.937  26.975  1.00  0.00    -0.084 Cl
ATOM     89  C   UNL A   1      34.295  22.186  24.359  1.00  0.00     0.002 A 
ENDBRANCH  82  83
ENDBRANCH  74  82
ENDBRANCH  72  74
ENDBRANCH  71  72
ENDBRANCH   1  71
TORSDOF 20
ENDMDL
MODEL 2
REMARK VINA RESULT:     -10.8      2.838      8.290
REMARK SMILES O=C(OCCOC(=O)[C@@H](CCOC(F)(F)F)Cc1ccccc1Cl)c1ccc(-c2c3nc(c(-c4cc(S(=O)(=O)[O-])ccc4F)c4ccc([nH]4)c(-c4cc(S(=O)(=O)[O-])ccc4F)c4nc(c(-c5cc(S(=O)(=O)[O-])ccc5F)c5ccc2[nH]5)C=C4)C=C3)cc1
REMARK SMILES IDX 5 1 4 2 3 3 2 4 1 5 25 6 26 7 87 8 27 9 86 10 28 11 29 12
REMARK SMILES IDX 30 13 80 14 31 15 85 16 79 17 81 18 32 19 84 20 78 21 77 22
REMARK SMILES IDX 33 24 65 25 45 26 64 27 46 28 49 29 63 30 82 31 47 32 48 33
REMARK SMILES IDX 62 35 83 36 50 37 34 38 35 39 43 40 36 41 42 42 44 43 41 44
REMARK SMILES IDX 37 45 38 46 39 47 40 48 66 49 67 50 75 51 68 52 74 53 76 54
REMARK SMILES IDX 73 55 69 56 70 57 71 58 72 59 51 60 52 61 60 62 53 63 59 64
REMARK SMILES IDX 61 65 58 66 54 67 55 68 56 69 57 70 6 71 7 72 8 73 9 74
REMARK SMILES IDX 10 75 11 76 12 77 13 78 14 79 15 80 16 81 17 82 18 83 19 84
REMARK SMILES IDX 23 85 20 86 22 87 24 88 21 89
REMARK H PARENT 81 23 49 34
REMARK Flexibility Score: inf
ROOT
ATOM      1  C   UNL A   1      31.491  27.791  25.595  1.00  0.00     0.274 C 
ENDROOT
BRANCH   1   2
ATOM      2  C   UNL A   1      31.383  29.105  24.794  1.00  0.00     0.275 C 
BRANCH   2   3
ATOM      3  O   UNL A   1      32.456  29.993  25.077  1.00  0.00    -0.458 OA
BRANCH   3   4
ATOM      4  C   UNL A   1      32.588  30.635  26.249  1.00  0.00     0.338 C 
ATOM      5  O   UNL A   1      31.662  31.312  26.688  1.00  0.00    -0.246 OA
BRANCH   4   6
ATOM      6  C   UNL A   1      33.873  30.667  27.006  1.00  0.00     0.060 A 
ATOM      7  C   UNL A   1      34.769  32.111  27.677  1.00  0.00     0.016 A 
ATOM      8  C   UNL A   1      34.248  29.045  27.657  1.00  0.00     0.016 A 
ATOM      9  C   UNL A   1      35.913  31.887  29.073  1.00  0.00     0.010 A 
ATOM     10  C   UNL A   1      35.392  28.842  28.994  1.00  0.00     0.010 A 
ATOM     11  C   UNL A   1      36.292  30.210  29.662  1.00  0.00    -0.014 A 
BRANCH  11  12
ATOM     12  C   UNL A   1      37.612  29.947  30.318  1.00  0.00     0.031 A 
ATOM     13  C   UNL A   1      38.804  29.402  29.533  1.00  0.00     0.074 A 
ATOM     14  C   UNL A   1      37.783  30.493  31.530  1.00  0.00     0.049 A 
ATOM     15  N   UNL A   1      40.059  29.322  29.908  1.00  0.00    -0.248 NA
ATOM     16  C   UNL A   1      38.605  28.912  28.158  1.00  0.00     0.031 C 
ATOM     17  C   UNL A   1      36.705  31.097  32.307  1.00  0.00     0.029 A 
ATOM     18  N   UNL A   1      38.898  30.707  32.289  1.00  0.00    -0.354 N 
ATOM     19  C   UNL A   1      40.756  28.764  28.835  1.00  0.00     0.074 A 
ATOM     20  C   UNL A   1      39.820  28.572  27.767  1.00  0.00     0.031 C 
ATOM     21  C   UNL A   1      37.232  31.750  33.345  1.00  0.00     0.029 A 
ATOM     22  C   UNL A   1      38.639  31.418  33.437  1.00  0.00     0.049 A 
ATOM     23  H   UNL A   1      39.795  30.387  32.039  1.00  0.00     0.167 HD
ATOM     24  C   UNL A   1      42.050  28.377  28.769  1.00  0.00     0.034 A 
ATOM     25  C   UNL A   1      39.408  31.685  34.507  1.00  0.00     0.034 A 
ATOM     26  C   UNL A   1      42.939  28.507  29.887  1.00  0.00     0.049 A 
ATOM     27  C   UNL A   1      40.799  31.131  34.466  1.00  0.00     0.074 A 
ATOM     28  C   UNL A   1      44.240  28.061  30.010  1.00  0.00     0.029 A 
ATOM     29  N   UNL A   1      42.590  29.091  31.098  1.00  0.00    -0.354 N 
ATOM     30  N   UNL A   1      41.411  30.539  33.465  1.00  0.00    -0.248 NA
ATOM     31  C   UNL A   1      41.582  31.220  35.699  1.00  0.00     0.031 C 
ATOM     32  C   UNL A   1      44.635  28.272  31.332  1.00  0.00     0.029 A 
ATOM     33  C   UNL A   1      43.628  28.957  31.997  1.00  0.00     0.049 A 
ATOM     34  H   UNL A   1      41.731  29.533  31.285  1.00  0.00     0.167 HD
ATOM     35  C   UNL A   1      42.646  30.154  33.958  1.00  0.00     0.074 A 
ATOM     36  C   UNL A   1      42.711  30.636  35.327  1.00  0.00     0.031 C 
ATOM     37  C   UNL A   1      43.629  29.444  33.353  1.00  0.00     0.034 A 
BRANCH  24  38
ATOM     38  C   UNL A   1      42.502  27.606  27.548  1.00  0.00     0.023 A 
ATOM     39  C   UNL A   1      42.571  26.202  27.496  1.00  0.00     0.031 A 
ATOM     40  C   UNL A   1      42.915  28.325  26.408  1.00  0.00     0.131 A 
ATOM     41  C   UNL A   1      43.069  25.570  26.342  1.00  0.00     0.055 A 
ATOM     42  C   UNL A   1      43.337  27.689  25.241  1.00  0.00     0.041 A 
ATOM     43  F   UNL A   1      42.928  29.667  26.419  1.00  0.00    -0.206 F 
ATOM     44  C   UNL A   1      43.421  26.303  25.205  1.00  0.00     0.022 A 
BRANCH  41  45
ATOM     45  S   UNL A   1      43.376  23.780  26.376  1.00  0.00     0.124 S 
ATOM     46  O   UNL A   1      42.211  23.266  25.659  1.00  0.00    -0.237 OA
ATOM     47  O   UNL A   1      44.656  23.663  25.685  1.00  0.00    -0.237 OA
ATOM     48  O   UNL A   1      43.409  23.463  27.803  1.00  0.00    -0.744 OA
ENDBRANCH  41  45
ENDBRANCH  24  38
BRANCH  25  49
ATOM     49  C   UNL A   1      38.822  32.315  35.730  1.00  0.00     0.023 A 
ATOM     50  C   UNL A   1      38.337  31.547  36.796  1.00  0.00     0.031 A 
ATOM     51  C   UNL A   1      38.702  33.719  35.834  1.00  0.00     0.131 A 
ATOM     52  C   UNL A   1      37.734  32.185  37.895  1.00  0.00     0.055 A 
ATOM     53  C   UNL A   1      38.210  34.348  36.975  1.00  0.00     0.041 A 
ATOM     54  F   UNL A   1      39.091  34.517  34.825  1.00  0.00    -0.206 F 
ATOM     55  C   UNL A   1      37.705  33.576  38.011  1.00  0.00     0.022 A 
BRANCH  52  56
ATOM     56  S   UNL A   1      36.829  31.170  39.095  1.00  0.00     0.124 S 
ATOM     57  O   UNL A   1      35.555  31.877  39.176  1.00  0.00    -0.237 OA
ATOM     58  O   UNL A   1      36.800  29.870  38.436  1.00  0.00    -0.237 OA
ATOM     59  O   UNL A   1      37.660  31.244  40.295  1.00  0.00    -0.744 OA
ENDBRANCH  52  56
ENDBRANCH  25  49
BRANCH  37  60
ATOM     60  C   UNL A   1      44.849  29.176  34.175  1.00  0.00     0.023 A 
ATOM     61  C   UNL A   1      44.986  27.985  34.903  1.00  0.00     0.031 A 
ATOM     62  C   UNL A   1      45.882  30.126  34.228  1.00  0.00     0.131 A 
ATOM     63  C   UNL A   1      46.110  27.801  35.712  1.00  0.00     0.055 A 
ATOM     64  C   UNL A   1      47.037  29.899  34.968  1.00  0.00     0.041 A 
ATOM     65  F   UNL A   1      45.785  31.281  33.549  1.00  0.00    -0.206 F 
ATOM     66  C   UNL A   1      47.149  28.737  35.728  1.00  0.00     0.022 A 
BRANCH  63  67
ATOM     67  S   UNL A   1      46.136  26.380  36.831  1.00  0.00     0.124 S 
ATOM     68  O   UNL A   1      44.730  26.266  37.203  1.00  0.00    -0.237 OA
ATOM     69  O   UNL A   1      46.658  25.317  35.977  1.00  0.00    -0.237 OA
ATOM     70  O   UNL A   1      47.030  26.810  37.904  1.00  0.00    -0.744 OA
ENDBRANCH  63  67
ENDBRANCH  37  60
ENDBRANCH  11  12
ENDBRANCH   4   6
ENDBRANCH   3   4
ENDBRANCH   2   3
ENDBRANCH   1   2
BRANCH   1  71
ATOM     71  O   UNL A   1      30.839  26.627  25.009  1.00  0.00    -0.462 OA
BRANCH  71  72
ATOM     72  C   UNL A   1      30.816  25.445  25.684  1.00  0.00     0.309 C 
ATOM     73  O   UNL A   1      30.053  25.231  26.619  1.00  0.00    -0.252 OA
BRANCH  72  74
ATOM     74  C   UNL A   1      31.809  24.363  25.118  1.00  0.00     0.106 C 
BRANCH  74  75
ATOM     75  C   UNL A   1      31.356  23.326  23.645  1.00  0.00     0.044 C 
BRANCH  75  76
ATOM     76  C   UNL A   1      32.295  21.602  22.669  1.00  0.00     0.171 C 
BRANCH  76  77
ATOM     77  O   UNL A   1      32.186  20.037  22.955  1.00  0.00    -0.292 OA
BRANCH  77  78
ATOM     78  C   UNL A   1      32.611  19.376  24.155  1.00  0.00     0.522 C 
ATOM     79  F   UNL A   1      33.916  19.026  24.129  1.00  0.00    -0.144 F 
ATOM     80  F   UNL A   1      32.399  20.165  25.234  1.00  0.00    -0.144 F 
ATOM     81  F   UNL A   1      31.889  18.255  24.344  1.00  0.00    -0.144 F 
ENDBRANCH  77  78
ENDBRANCH  76  77
ENDBRANCH  75  76
ENDBRANCH  74  75
BRANCH  74  82
ATOM     82  C   UNL A   1      33.339  24.661  25.258  1.00  0.00     0.052 C 
BRANCH  82  83
ATOM     83  C   UNL A   1      34.408  23.591  25.120  1.00  0.00    -0.028 A 
ATOM     84  C   UNL A   1      35.296  23.543  24.041  1.00  0.00     0.005 A 
ATOM     85  C   UNL A   1      34.529  22.573  26.093  1.00  0.00     0.044 A 
ATOM     86  C   UNL A   1      36.110  22.424  23.833  1.00  0.00     0.000 A 
ATOM     87  C   UNL A   1      35.357  21.467  25.896  1.00  0.00     0.021 A 
ATOM     88  Cl  UNL A   1      33.693  22.618  27.595  1.00  0.00    -0.084 Cl
ATOM     89  C   UNL A   1      36.116  21.370  24.740  1.00  0.00     0.002 A 
ENDBRANCH  82  83
ENDBRANCH  74  82
ENDBRANCH  72  74
ENDBRANCH  71  72
ENDBRANCH   1  71
TORSDOF 20
ENDMDL
MODEL 3
REMARK VINA RESULT:     -10.8      2.740      3.549
REMARK SMILES O=C(OCCOC(=O)[C@@H](CCOC(F)(F)F)Cc1ccccc1Cl)c1ccc(-c2c3nc(c(-c4cc(S(=O)(=O)[O-])ccc4F)c4ccc([nH]4)c(-c4cc(S(=O)(=O)[O-])ccc4F)c4nc(c(-c5cc(S(=O)(=O)[O-])ccc5F)c5ccc2[nH]5)C=C4)C=C3)cc1
REMARK SMILES IDX 5 1 4 2 3 3 2 4 1 5 25 6 26 7 87 8 27 9 86 10 28 11 29 12
REMARK SMILES IDX 30 13 80 14 31 15 85 16 79 17 81 18 32 19 84 20 78 21 77 22
REMARK SMILES IDX 33 24 65 25 45 26 64 27 46 28 49 29 63 30 82 31 47 32 48 33
REMARK SMILES IDX 62 35 83 36 50 37 34 38 35 39 43 40 36 41 42 42 44 43 41 44
REMARK SMILES IDX 37 45 38 46 39 47 40 48 66 49 67 50 75 51 68 52 74 53 76 54
REMARK SMILES IDX 73 55 69 56 70 57 71 58 72 59 51 60 52 61 60 62 53 63 59 64
REMARK SMILES IDX 61 65 58 66 54 67 55 68 56 69 57 70 6 71 7 72 8 73 9 74
REMARK SMILES IDX 10 75 11 76 12 77 13 78 14 79 15 80 16 81 17 82 18 83 19 84
REMARK SMILES IDX 23 85 20 86 22 87 24 88 21 89
REMARK H PARENT 81 23 49 34
REMARK Flexibility Score: inf
ROOT
ATOM      1  C   UNL A   1      31.605  27.958  24.197  1.00  0.00     0.274 C 
ENDROOT
BRANCH   1   2
ATOM      2  C   UNL A   1      31.177  29.392  24.576  1.00  0.00     0.275 C 
BRANCH   2   3
ATOM      3  O   UNL A   1      32.280  30.187  24.990  1.00  0.00    -0.458 OA
BRANCH   3   4
ATOM      4  C   UNL A   1      32.371  30.735  26.212  1.00  0.00     0.338 C 
ATOM      5  O   UNL A   1      31.394  31.283  26.716  1.00  0.00    -0.246 OA
BRANCH   4   6
ATOM      6  C   UNL A   1      33.660  30.822  26.958  1.00  0.00     0.060 A 
ATOM      7  C   UNL A   1      34.500  32.304  27.621  1.00  0.00     0.016 A 
ATOM      8  C   UNL A   1      34.109  29.218  27.607  1.00  0.00     0.016 A 
ATOM      9  C   UNL A   1      35.663  32.130  29.007  1.00  0.00     0.010 A 
ATOM     10  C   UNL A   1      35.272  29.065  28.934  1.00  0.00     0.010 A 
ATOM     11  C   UNL A   1      36.118  30.471  29.594  1.00  0.00    -0.014 A 
BRANCH  11  12
ATOM     12  C   UNL A   1      37.454  30.265  30.238  1.00  0.00     0.031 A 
ATOM     13  C   UNL A   1      37.715  30.660  31.691  1.00  0.00     0.074 A 
ATOM     14  C   UNL A   1      38.299  29.452  29.588  1.00  0.00     0.049 A 
ATOM     15  N   UNL A   1      38.744  30.355  32.446  1.00  0.00    -0.248 NA
ATOM     16  C   UNL A   1      36.714  31.461  32.417  1.00  0.00     0.031 C 
ATOM     17  C   UNL A   1      38.080  28.976  28.226  1.00  0.00     0.029 A 
ATOM     18  N   UNL A   1      39.446  28.822  29.977  1.00  0.00    -0.354 N 
ATOM     19  C   UNL A   1      38.507  30.942  33.690  1.00  0.00     0.074 A 
ATOM     20  C   UNL A   1      37.221  31.572  33.631  1.00  0.00     0.031 C 
ATOM     21  C   UNL A   1      38.962  28.013  27.956  1.00  0.00     0.029 A 
ATOM     22  C   UNL A   1      39.943  27.970  29.020  1.00  0.00     0.049 A 
ATOM     23  H   UNL A   1      39.872  28.963  30.854  1.00  0.00     0.167 HD
ATOM     24  C   UNL A   1      39.320  31.011  34.769  1.00  0.00     0.034 A 
ATOM     25  C   UNL A   1      41.111  27.307  28.944  1.00  0.00     0.034 A 
ATOM     26  C   UNL A   1      40.636  30.439  34.764  1.00  0.00     0.049 A 
ATOM     27  C   UNL A   1      42.051  27.506  30.092  1.00  0.00     0.074 A 
ATOM     28  C   UNL A   1      41.615  30.523  35.734  1.00  0.00     0.029 A 
ATOM     29  N   UNL A   1      41.169  29.716  33.705  1.00  0.00    -0.354 N 
ATOM     30  N   UNL A   1      41.830  28.130  31.228  1.00  0.00    -0.248 NA
ATOM     31  C   UNL A   1      43.406  26.975  29.936  1.00  0.00     0.031 C 
ATOM     32  C   UNL A   1      42.777  29.951  35.211  1.00  0.00     0.029 A 
ATOM     33  C   UNL A   1      42.487  29.405  33.969  1.00  0.00     0.049 A 
ATOM     34  H   UNL A   1      40.679  29.464  32.889  1.00  0.00     0.167 HD
ATOM     35  C   UNL A   1      43.033  28.095  31.913  1.00  0.00     0.074 A 
ATOM     36  C   UNL A   1      43.955  27.335  31.087  1.00  0.00     0.031 C 
ATOM     37  C   UNL A   1      43.361  28.658  33.101  1.00  0.00     0.034 A 
BRANCH  24  38
ATOM     38  C   UNL A   1      38.897  31.889  35.925  1.00  0.00     0.023 A 
ATOM     39  C   UNL A   1      38.156  31.422  37.026  1.00  0.00     0.031 A 
ATOM     40  C   UNL A   1      39.226  33.259  35.889  1.00  0.00     0.131 A 
ATOM     41  C   UNL A   1      37.746  32.326  38.024  1.00  0.00     0.055 A 
ATOM     42  C   UNL A   1      38.880  34.134  36.920  1.00  0.00     0.041 A 
ATOM     43  F   UNL A   1      39.881  33.774  34.837  1.00  0.00    -0.206 F 
ATOM     44  C   UNL A   1      38.131  33.669  37.993  1.00  0.00     0.022 A 
BRANCH  41  45
ATOM     45  S   UNL A   1      36.592  31.761  39.308  1.00  0.00     0.124 S 
ATOM     46  O   UNL A   1      37.404  31.895  40.515  1.00  0.00    -0.237 OA
ATOM     47  O   UNL A   1      35.483  32.700  39.175  1.00  0.00    -0.237 OA
ATOM     48  O   UNL A   1      36.290  30.384  38.920  1.00  0.00    -0.744 OA
ENDBRANCH  41  45
ENDBRANCH  24  38
BRANCH  25  49
ATOM     49  C   UNL A   1      41.503  26.595  27.689  1.00  0.00     0.023 A 
ATOM     50  C   UNL A   1      41.387  25.205  27.562  1.00  0.00     0.031 A 
ATOM     51  C   UNL A   1      42.045  27.304  26.593  1.00  0.00     0.131 A 
ATOM     52  C   UNL A   1      41.831  24.575  26.386  1.00  0.00     0.055 A 
ATOM     53  C   UNL A   1      42.374  26.686  25.389  1.00  0.00     0.041 A 
ATOM     54  F   UNL A   1      42.242  28.631  26.665  1.00  0.00    -0.206 F 
ATOM     55  C   UNL A   1      42.283  25.307  25.286  1.00  0.00     0.022 A 
BRANCH  52  56
ATOM     56  S   UNL A   1      41.973  22.767  26.374  1.00  0.00     0.124 S 
ATOM     57  O   UNL A   1      42.779  22.543  25.179  1.00  0.00    -0.237 OA
ATOM     58  O   UNL A   1      42.630  22.503  27.649  1.00  0.00    -0.237 OA
ATOM     59  O   UNL A   1      40.585  22.318  26.282  1.00  0.00    -0.744 OA
ENDBRANCH  52  56
ENDBRANCH  25  49
BRANCH  37  60
ATOM     60  C   UNL A   1      44.768  28.446  33.563  1.00  0.00     0.023 A 
ATOM     61  C   UNL A   1      45.110  27.341  34.357  1.00  0.00     0.031 A 
ATOM     62  C   UNL A   1      45.771  29.360  33.205  1.00  0.00     0.131 A 
ATOM     63  C   UNL A   1      46.420  27.213  34.824  1.00  0.00     0.055 A 
ATOM     64  C   UNL A   1      47.091  29.181  33.603  1.00  0.00     0.041 A 
ATOM     65  F   UNL A   1      45.480  30.434  32.451  1.00  0.00    -0.206 F 
ATOM     66  C   UNL A   1      47.418  28.109  34.431  1.00  0.00     0.022 A 
BRANCH  63  67
ATOM     67  S   UNL A   1      46.770  25.927  36.048  1.00  0.00     0.124 S 
ATOM     68  O   UNL A   1      45.468  25.755  36.682  1.00  0.00    -0.237 OA
ATOM     69  O   UNL A   1      47.226  24.817  35.217  1.00  0.00    -0.237 OA
ATOM     70  O   UNL A   1      47.798  26.533  36.892  1.00  0.00    -0.744 OA
ENDBRANCH  63  67
ENDBRANCH  37  60
ENDBRANCH  11  12
ENDBRANCH   4   6
ENDBRANCH   3   4
ENDBRANCH   2   3
ENDBRANCH   1   2
BRANCH   1  71
ATOM     71  O   UNL A   1      30.678  27.212  23.358  1.00  0.00    -0.462 OA
BRANCH  71  72
ATOM     72  C   UNL A   1      29.988  26.157  23.872  1.00  0.00     0.309 C 
ATOM     73  O   UNL A   1      28.763  26.133  23.930  1.00  0.00    -0.252 OA
BRANCH  72  74
ATOM     74  C   UNL A   1      30.896  24.955  24.325  1.00  0.00     0.106 C 
BRANCH  74  75
ATOM     75  C   UNL A   1      31.898  23.995  23.091  1.00  0.00     0.044 C 
BRANCH  75  76
ATOM     76  C   UNL A   1      32.273  21.856  22.791  1.00  0.00     0.171 C 
BRANCH  76  77
ATOM     77  O   UNL A   1      32.154  20.612  23.782  1.00  0.00    -0.292 OA
BRANCH  77  78
ATOM     78  C   UNL A   1      33.240  20.010  24.500  1.00  0.00     0.522 C 
ATOM     79  F   UNL A   1      32.911  19.677  25.768  1.00  0.00    -0.144 F 
ATOM     80  F   UNL A   1      33.674  18.898  23.862  1.00  0.00    -0.144 F 
ATOM     81  F   UNL A   1      34.283  20.861  24.557  1.00  0.00    -0.144 F 
ENDBRANCH  77  78
ENDBRANCH  76  77
ENDBRANCH  75  76
ENDBRANCH  74  75
BRANCH  74  82
ATOM     82  C   UNL A   1      31.533  25.045  25.751  1.00  0.00     0.052 C 
BRANCH  82  83
ATOM     83  C   UNL A   1      32.472  23.989  26.308  1.00  0.00    -0.028 A 
ATOM     84  C   UNL A   1      32.023  22.898  27.059  1.00  0.00     0.005 A 
ATOM     85  C   UNL A   1      33.865  24.089  26.097  1.00  0.00     0.044 A 
ATOM     86  C   UNL A   1      32.928  22.078  27.742  1.00  0.00     0.000 A 
ATOM     87  C   UNL A   1      34.769  23.257  26.760  1.00  0.00     0.021 A 
ATOM     88  Cl  UNL A   1      34.561  25.217  25.000  1.00  0.00    -0.084 Cl
ATOM     89  C   UNL A   1      34.299  22.278  27.622  1.00  0.00     0.002 A 
ENDBRANCH  82  83
ENDBRANCH  74  82
ENDBRANCH  72  74
ENDBRANCH  71  72
ENDBRANCH   1  71
TORSDOF 20
ENDMDL
