MODEL 1
REMARK VINA RESULT:     -11.6      0.000      0.000
REMARK SMILES O=C(OCCOC(=O)c1nn(-c2ccc([N+](=O)[O-])cc2)cc1CCO)c1ccc(-c2c3nc(c(-c4cc(S(=O)(=O)[O-])ccc4F)c4ccc([nH]4)c(-c4cc(S(=O)(=O)[O-])ccc4F)c4nc(c(-c5cc(S(=O)(=O)[O-])ccc5F)c5ccc2[nH]5)C=C4)C=C3)cc1
REMARK SMILES IDX 4 1 3 2 2 3 1 4 26 5 27 6 88 7 28 8 87 9 29 10 30 11 31 12
REMARK SMILES IDX 81 13 32 14 86 15 80 16 82 17 33 18 85 19 79 20 78 21 34 23
REMARK SMILES IDX 66 24 46 25 65 26 47 27 50 28 64 29 83 30 48 31 49 32 63 34
REMARK SMILES IDX 84 35 51 36 35 37 36 38 44 39 37 40 43 41 45 42 42 43 38 44
REMARK SMILES IDX 39 45 40 46 41 47 67 48 68 49 76 50 69 51 75 52 77 53 74 54
REMARK SMILES IDX 70 55 71 56 72 57 73 58 52 59 53 60 61 61 54 62 60 63 62 64
REMARK SMILES IDX 59 65 55 66 56 67 57 68 58 69 5 70 6 71 7 72 8 73 9 74 10 75
REMARK SMILES IDX 22 76 11 77 21 78 23 79 24 80 25 81 12 83 13 84 20 85 14 86
REMARK SMILES IDX 19 87 15 88 16 89 17 90 18 91
REMARK H PARENT 82 22 50 33 25 82
REMARK Flexibility Score: inf
ROOT
ATOM      1  C   UNL A   1      33.090  31.354  27.209  1.00  0.00     0.275 C 
ENDROOT
BRANCH   1   2
ATOM      2  O   UNL A   1      34.041  31.720  28.226  1.00  0.00    -0.458 OA
BRANCH   2   3
ATOM      3  C   UNL A   1      35.327  32.040  27.984  1.00  0.00     0.338 C 
ATOM      4  O   UNL A   1      35.637  33.182  27.654  1.00  0.00    -0.246 OA
BRANCH   3   5
ATOM      5  C   UNL A   1      36.407  31.076  28.355  1.00  0.00     0.060 A 
ATOM      6  C   UNL A   1      36.473  29.721  28.030  1.00  0.00     0.016 A 
ATOM      7  C   UNL A   1      37.521  31.663  28.976  1.00  0.00     0.016 A 
ATOM      8  C   UNL A   1      37.618  28.974  28.354  1.00  0.00     0.010 A 
ATOM      9  C   UNL A   1      38.693  30.950  29.185  1.00  0.00     0.010 A 
ATOM     10  C   UNL A   1      38.738  29.585  28.944  1.00  0.00    -0.014 A 
BRANCH  10  11
ATOM     11  C   UNL A   1      39.955  28.812  29.249  1.00  0.00     0.031 A 
ATOM     12  C   UNL A   1      40.237  28.590  30.699  1.00  0.00     0.074 A 
ATOM     13  C   UNL A   1      40.765  28.240  28.323  1.00  0.00     0.049 A 
ATOM     14  N   UNL A   1      41.139  29.176  31.414  1.00  0.00    -0.248 NA
ATOM     15  C   UNL A   1      39.339  27.729  31.484  1.00  0.00     0.031 C 
ATOM     16  C   UNL A   1      40.591  28.151  26.868  1.00  0.00     0.029 A 
ATOM     17  N   UNL A   1      41.931  27.550  28.511  1.00  0.00    -0.354 N 
ATOM     18  C   UNL A   1      41.089  28.597  32.680  1.00  0.00     0.074 A 
ATOM     19  C   UNL A   1      39.862  27.844  32.709  1.00  0.00     0.031 C 
ATOM     20  C   UNL A   1      41.474  27.271  26.342  1.00  0.00     0.029 A 
ATOM     21  C   UNL A   1      42.410  26.883  27.380  1.00  0.00     0.049 A 
ATOM     22  H   UNL A   1      42.398  27.525  29.377  1.00  0.00     0.167 HD
ATOM     23  C   UNL A   1      42.167  28.636  33.517  1.00  0.00     0.034 A 
ATOM     24  C   UNL A   1      43.537  26.128  27.253  1.00  0.00     0.034 A 
ATOM     25  C   UNL A   1      43.120  29.635  33.083  1.00  0.00     0.049 A 
ATOM     26  C   UNL A   1      44.466  26.595  28.307  1.00  0.00     0.074 A 
ATOM     27  C   UNL A   1      43.056  31.001  32.878  1.00  0.00     0.029 A 
ATOM     28  N   UNL A   1      44.231  29.218  32.384  1.00  0.00    -0.354 N 
ATOM     29  N   UNL A   1      44.980  27.794  28.314  1.00  0.00    -0.248 NA
ATOM     30  C   UNL A   1      44.420  25.928  29.599  1.00  0.00     0.031 C 
ATOM     31  C   UNL A   1      43.762  31.214  31.657  1.00  0.00     0.029 A 
ATOM     32  C   UNL A   1      44.310  29.995  31.252  1.00  0.00     0.049 A 
ATOM     33  H   UNL A   1      44.851  28.498  32.646  1.00  0.00     0.167 HD
ATOM     34  C   UNL A   1      44.906  28.203  29.635  1.00  0.00     0.074 A 
ATOM     35  C   UNL A   1      44.631  26.982  30.393  1.00  0.00     0.031 C 
ATOM     36  C   UNL A   1      44.803  29.524  29.970  1.00  0.00     0.034 A 
BRANCH  23  37
ATOM     37  C   UNL A   1      42.534  27.575  34.534  1.00  0.00     0.023 A 
ATOM     38  C   UNL A   1      43.340  26.500  34.104  1.00  0.00     0.031 A 
ATOM     39  C   UNL A   1      41.918  27.410  35.794  1.00  0.00     0.131 A 
ATOM     40  C   UNL A   1      43.429  25.313  34.854  1.00  0.00     0.055 A 
ATOM     41  C   UNL A   1      42.059  26.252  36.566  1.00  0.00     0.041 A 
ATOM     42  F   UNL A   1      41.077  28.314  36.309  1.00  0.00    -0.206 F 
ATOM     43  C   UNL A   1      42.792  25.181  36.085  1.00  0.00     0.022 A 
BRANCH  40  44
ATOM     44  S   UNL A   1      44.244  23.873  34.111  1.00  0.00     0.124 S 
ATOM     45  O   UNL A   1      45.649  24.161  34.375  1.00  0.00    -0.237 OA
ATOM     46  O   UNL A   1      43.659  22.773  34.870  1.00  0.00    -0.237 OA
ATOM     47  O   UNL A   1      43.845  23.944  32.708  1.00  0.00    -0.744 OA
ENDBRANCH  40  44
ENDBRANCH  23  37
BRANCH  24  48
ATOM     48  C   UNL A   1      43.684  24.826  26.537  1.00  0.00     0.023 A 
ATOM     49  C   UNL A   1      42.930  23.669  26.848  1.00  0.00     0.031 A 
ATOM     50  C   UNL A   1      44.417  24.792  25.328  1.00  0.00     0.131 A 
ATOM     51  C   UNL A   1      42.926  22.557  25.968  1.00  0.00     0.055 A 
ATOM     52  C   UNL A   1      44.401  23.697  24.460  1.00  0.00     0.041 A 
ATOM     53  F   UNL A   1      45.106  25.864  24.907  1.00  0.00    -0.206 F 
ATOM     54  C   UNL A   1      43.647  22.577  24.771  1.00  0.00     0.022 A 
BRANCH  51  55
ATOM     55  S   UNL A   1      41.913  21.078  26.323  1.00  0.00     0.124 S 
ATOM     56  O   UNL A   1      42.233  20.810  27.720  1.00  0.00    -0.237 OA
ATOM     57  O   UNL A   1      40.561  21.548  26.044  1.00  0.00    -0.237 OA
ATOM     58  O   UNL A   1      42.420  20.081  25.378  1.00  0.00    -0.744 OA
ENDBRANCH  51  55
ENDBRANCH  24  48
BRANCH  36  59
ATOM     59  C   UNL A   1      45.035  30.574  28.897  1.00  0.00     0.023 A 
ATOM     60  C   UNL A   1      46.297  31.084  28.506  1.00  0.00     0.031 A 
ATOM     61  C   UNL A   1      43.914  30.975  28.148  1.00  0.00     0.131 A 
ATOM     62  C   UNL A   1      46.392  31.960  27.402  1.00  0.00     0.055 A 
ATOM     63  C   UNL A   1      44.016  31.821  27.045  1.00  0.00     0.041 A 
ATOM     64  F   UNL A   1      42.691  30.511  28.455  1.00  0.00    -0.206 F 
ATOM     65  C   UNL A   1      45.256  32.321  26.670  1.00  0.00     0.022 A 
BRANCH  62  66
ATOM     66  S   UNL A   1      47.999  32.663  26.895  1.00  0.00     0.124 S 
ATOM     67  O   UNL A   1      47.660  33.492  25.744  1.00  0.00    -0.237 OA
ATOM     68  O   UNL A   1      48.425  33.379  28.094  1.00  0.00    -0.237 OA
ATOM     69  O   UNL A   1      48.803  31.481  26.578  1.00  0.00    -0.744 OA
ENDBRANCH  62  66
ENDBRANCH  36  59
ENDBRANCH  10  11
ENDBRANCH   3   5
ENDBRANCH   2   3
ENDBRANCH   1   2
BRANCH   1  70
ATOM     70  C   UNL A   1      33.115  29.896  26.743  1.00  0.00     0.275 C 
BRANCH  70  71
ATOM     71  O   UNL A   1      31.794  29.391  26.496  1.00  0.00    -0.457 OA
BRANCH  71  72
ATOM     72  C   UNL A   1      31.533  28.116  26.932  1.00  0.00     0.359 C 
ATOM     73  O   UNL A   1      30.994  27.851  27.990  1.00  0.00    -0.244 OA
BRANCH  72  74
ATOM     74  C   UNL A   1      31.896  27.118  25.916  1.00  0.00     0.174 A 
ATOM     75  N   UNL A   1      32.747  26.117  26.200  1.00  0.00    -0.161 NA
ATOM     76  C   UNL A   1      31.475  27.060  24.549  1.00  0.00     0.008 A 
ATOM     77  N   UNL A   1      33.014  25.547  25.009  1.00  0.00    -0.240 N 
ATOM     78  C   UNL A   1      32.319  26.126  23.981  1.00  0.00     0.119 A 
BRANCH  76  79
ATOM     79  C   UNL A   1      30.497  27.935  23.847  1.00  0.00     0.068 C 
BRANCH  79  80
ATOM     80  C   UNL A   1      31.047  28.942  22.845  1.00  0.00     0.161 C 
BRANCH  80  81
ATOM     81  O   UNL A   1      30.315  28.990  21.630  1.00  0.00    -0.396 OA
ATOM     82  H   UNL A   1      29.384  29.181  21.821  1.00  0.00     0.210 HD
ENDBRANCH  80  81
ENDBRANCH  79  80
ENDBRANCH  76  79
BRANCH  77  83
ATOM     83  C   UNL A   1      33.876  24.438  24.927  1.00  0.00     0.065 A 
ATOM     84  C   UNL A   1      34.354  23.884  26.122  1.00  0.00     0.035 A 
ATOM     85  C   UNL A   1      34.226  23.894  23.686  1.00  0.00     0.035 A 
ATOM     86  C   UNL A   1      35.156  22.746  26.082  1.00  0.00     0.088 A 
ATOM     87  C   UNL A   1      35.084  22.790  23.642  1.00  0.00     0.088 A 
ATOM     88  C   UNL A   1      35.530  22.210  24.841  1.00  0.00     0.269 A 
BRANCH  88  89
ATOM     89  N   UNL A   1      36.395  21.026  24.805  1.00  0.00     0.062 N 
ATOM     90  O   UNL A   1      37.604  21.203  24.586  1.00  0.00    -0.258 OA
ATOM     91  O   UNL A   1      35.873  19.921  24.999  1.00  0.00    -0.258 OA
ENDBRANCH  88  89
ENDBRANCH  77  83
ENDBRANCH  72  74
ENDBRANCH  71  72
ENDBRANCH  70  71
ENDBRANCH   1  70
TORSDOF 19
ENDMDL
MODEL 2
REMARK VINA RESULT:     -11.5      3.866      6.530
REMARK SMILES O=C(OCCOC(=O)c1nn(-c2ccc([N+](=O)[O-])cc2)cc1CCO)c1ccc(-c2c3nc(c(-c4cc(S(=O)(=O)[O-])ccc4F)c4ccc([nH]4)c(-c4cc(S(=O)(=O)[O-])ccc4F)c4nc(c(-c5cc(S(=O)(=O)[O-])ccc5F)c5ccc2[nH]5)C=C4)C=C3)cc1
REMARK SMILES IDX 4 1 3 2 2 3 1 4 26 5 27 6 88 7 28 8 87 9 29 10 30 11 31 12
REMARK SMILES IDX 81 13 32 14 86 15 80 16 82 17 33 18 85 19 79 20 78 21 34 23
REMARK SMILES IDX 66 24 46 25 65 26 47 27 50 28 64 29 83 30 48 31 49 32 63 34
REMARK SMILES IDX 84 35 51 36 35 37 36 38 44 39 37 40 43 41 45 42 42 43 38 44
REMARK SMILES IDX 39 45 40 46 41 47 67 48 68 49 76 50 69 51 75 52 77 53 74 54
REMARK SMILES IDX 70 55 71 56 72 57 73 58 52 59 53 60 61 61 54 62 60 63 62 64
REMARK SMILES IDX 59 65 55 66 56 67 57 68 58 69 5 70 6 71 7 72 8 73 9 74 10 75
REMARK SMILES IDX 22 76 11 77 21 78 23 79 24 80 25 81 12 83 13 84 20 85 14 86
REMARK SMILES IDX 19 87 15 88 16 89 17 90 18 91
REMARK H PARENT 82 22 50 33 25 82
REMARK Flexibility Score: inf
ROOT
ATOM      1  C   UNL A   1      34.021  34.301  29.813  1.00  0.00     0.275 C 
ENDROOT
BRANCH   1   2
ATOM      2  O   UNL A   1      35.142  33.628  29.212  1.00  0.00    -0.458 OA
BRANCH   2   3
ATOM      3  C   UNL A   1      35.125  32.347  28.794  1.00  0.00     0.338 C 
ATOM      4  O   UNL A   1      34.342  31.985  27.919  1.00  0.00    -0.246 OA
BRANCH   3   5
ATOM      5  C   UNL A   1      36.219  31.420  29.214  1.00  0.00     0.060 A 
ATOM      6  C   UNL A   1      36.081  30.209  29.893  1.00  0.00     0.016 A 
ATOM      7  C   UNL A   1      37.492  31.772  28.737  1.00  0.00     0.016 A 
ATOM      8  C   UNL A   1      37.204  29.394  30.112  1.00  0.00     0.010 A 
ATOM      9  C   UNL A   1      38.572  30.908  28.852  1.00  0.00     0.010 A 
ATOM     10  C   UNL A   1      38.465  29.744  29.598  1.00  0.00    -0.014 A 
BRANCH  10  11
ATOM     11  C   UNL A   1      39.636  28.871  29.793  1.00  0.00     0.031 A 
ATOM     12  C   UNL A   1      40.017  28.603  31.212  1.00  0.00     0.074 A 
ATOM     13  C   UNL A   1      40.319  28.251  28.797  1.00  0.00     0.049 A 
ATOM     14  N   UNL A   1      41.019  29.102  31.856  1.00  0.00    -0.248 NA
ATOM     15  C   UNL A   1      39.119  27.804  32.061  1.00  0.00     0.031 C 
ATOM     16  C   UNL A   1      40.019  28.201  27.361  1.00  0.00     0.029 A 
ATOM     17  N   UNL A   1      41.436  27.467  28.881  1.00  0.00    -0.354 N 
ATOM     18  C   UNL A   1      41.027  28.509  33.115  1.00  0.00     0.074 A 
ATOM     19  C   UNL A   1      39.749  27.856  33.239  1.00  0.00     0.031 C 
ATOM     20  C   UNL A   1      40.781  27.261  26.755  1.00  0.00     0.029 A 
ATOM     21  C   UNL A   1      41.765  26.783  27.708  1.00  0.00     0.049 A 
ATOM     22  H   UNL A   1      41.969  27.390  29.705  1.00  0.00     0.167 HD
ATOM     23  C   UNL A   1      42.168  28.448  33.860  1.00  0.00     0.034 A 
ATOM     24  C   UNL A   1      42.812  25.941  27.480  1.00  0.00     0.034 A 
ATOM     25  C   UNL A   1      43.161  29.373  33.359  1.00  0.00     0.049 A 
ATOM     26  C   UNL A   1      43.860  26.315  28.458  1.00  0.00     0.074 A 
ATOM     27  C   UNL A   1      43.191  30.743  33.174  1.00  0.00     0.029 A 
ATOM     28  N   UNL A   1      44.173  28.881  32.566  1.00  0.00    -0.354 N 
ATOM     29  N   UNL A   1      44.468  27.469  28.434  1.00  0.00    -0.248 NA
ATOM     30  C   UNL A   1      43.865  25.633  29.742  1.00  0.00     0.031 C 
ATOM     31  C   UNL A   1      43.810  30.919  31.900  1.00  0.00     0.029 A 
ATOM     32  C   UNL A   1      44.222  29.667  31.439  1.00  0.00     0.049 A 
ATOM     33  H   UNL A   1      44.753  28.109  32.768  1.00  0.00     0.167 HD
ATOM     34  C   UNL A   1      44.536  27.861  29.761  1.00  0.00     0.074 A 
ATOM     35  C   UNL A   1      44.225  26.653  30.527  1.00  0.00     0.031 C 
ATOM     36  C   UNL A   1      44.568  29.180  30.116  1.00  0.00     0.034 A 
BRANCH  23  37
ATOM     37  C   UNL A   1      42.530  27.344  34.833  1.00  0.00     0.023 A 
ATOM     38  C   UNL A   1      43.332  26.284  34.360  1.00  0.00     0.031 A 
ATOM     39  C   UNL A   1      41.913  27.130  36.085  1.00  0.00     0.131 A 
ATOM     40  C   UNL A   1      43.416  25.066  35.060  1.00  0.00     0.055 A 
ATOM     41  C   UNL A   1      42.048  25.940  36.809  1.00  0.00     0.041 A 
ATOM     42  F   UNL A   1      41.075  28.015  36.637  1.00  0.00    -0.206 F 
ATOM     43  C   UNL A   1      42.777  24.887  36.284  1.00  0.00     0.022 A 
BRANCH  40  44
ATOM     44  S   UNL A   1      44.226  23.655  34.259  1.00  0.00     0.124 S 
ATOM     45  O   UNL A   1      45.169  23.234  35.288  1.00  0.00    -0.237 OA
ATOM     46  O   UNL A   1      43.098  22.762  34.015  1.00  0.00    -0.237 OA
ATOM     47  O   UNL A   1      44.826  24.242  33.063  1.00  0.00    -0.744 OA
ENDBRANCH  40  44
ENDBRANCH  23  37
BRANCH  24  48
ATOM     48  C   UNL A   1      42.794  24.644  26.741  1.00  0.00     0.023 A 
ATOM     49  C   UNL A   1      43.717  24.309  25.722  1.00  0.00     0.031 A 
ATOM     50  C   UNL A   1      41.991  23.590  27.233  1.00  0.00     0.131 A 
ATOM     51  C   UNL A   1      43.811  22.974  25.251  1.00  0.00     0.055 A 
ATOM     52  C   UNL A   1      42.095  22.275  26.771  1.00  0.00     0.041 A 
ATOM     53  F   UNL A   1      41.134  23.789  28.248  1.00  0.00    -0.206 F 
ATOM     54  C   UNL A   1      43.014  21.959  25.784  1.00  0.00     0.022 A 
BRANCH  51  55
ATOM     55  S   UNL A   1      45.038  22.509  23.979  1.00  0.00     0.124 S 
ATOM     56  O   UNL A   1      45.680  21.344  24.577  1.00  0.00    -0.237 OA
ATOM     57  O   UNL A   1      44.202  22.261  22.810  1.00  0.00    -0.237 OA
ATOM     58  O   UNL A   1      45.893  23.694  23.878  1.00  0.00    -0.744 OA
ENDBRANCH  51  55
ENDBRANCH  24  48
BRANCH  36  59
ATOM     59  C   UNL A   1      44.797  30.225  29.038  1.00  0.00     0.023 A 
ATOM     60  C   UNL A   1      46.058  30.719  28.626  1.00  0.00     0.031 A 
ATOM     61  C   UNL A   1      43.669  30.639  28.306  1.00  0.00     0.131 A 
ATOM     62  C   UNL A   1      46.147  31.592  27.519  1.00  0.00     0.055 A 
ATOM     63  C   UNL A   1      43.764  31.482  27.200  1.00  0.00     0.041 A 
ATOM     64  F   UNL A   1      42.445  30.191  28.634  1.00  0.00    -0.206 F 
ATOM     65  C   UNL A   1      45.004  31.966  26.805  1.00  0.00     0.022 A 
BRANCH  62  66
ATOM     66  S   UNL A   1      47.754  32.275  26.985  1.00  0.00     0.124 S 
ATOM     67  O   UNL A   1      48.287  32.881  28.199  1.00  0.00    -0.237 OA
ATOM     68  O   UNL A   1      48.457  31.090  26.501  1.00  0.00    -0.237 OA
ATOM     69  O   UNL A   1      47.386  33.230  25.938  1.00  0.00    -0.744 OA
ENDBRANCH  62  66
ENDBRANCH  36  59
ENDBRANCH  10  11
ENDBRANCH   3   5
ENDBRANCH   2   3
ENDBRANCH   1   2
BRANCH   1  70
ATOM     70  C   UNL A   1      34.117  34.581  31.315  1.00  0.00     0.275 C 
BRANCH  70  71
ATOM     71  O   UNL A   1      35.477  34.579  31.774  1.00  0.00    -0.457 OA
BRANCH  71  72
ATOM     72  C   UNL A   1      35.889  33.468  32.468  1.00  0.00     0.359 C 
ATOM     73  O   UNL A   1      35.148  32.744  33.105  1.00  0.00    -0.244 OA
BRANCH  72  74
ATOM     74  C   UNL A   1      37.321  33.210  32.262  1.00  0.00     0.174 A 
ATOM     75  N   UNL A   1      38.049  33.971  31.427  1.00  0.00    -0.161 NA
ATOM     76  C   UNL A   1      38.119  32.169  32.834  1.00  0.00     0.008 A 
ATOM     77  N   UNL A   1      39.228  33.326  31.318  1.00  0.00    -0.240 N 
ATOM     78  C   UNL A   1      39.288  32.203  32.098  1.00  0.00     0.119 A 
BRANCH  76  79
ATOM     79  C   UNL A   1      37.723  31.153  33.848  1.00  0.00     0.068 C 
BRANCH  79  80
ATOM     80  C   UNL A   1      38.276  31.315  35.258  1.00  0.00     0.161 C 
BRANCH  80  81
ATOM     81  O   UNL A   1      38.019  30.200  36.098  1.00  0.00    -0.396 OA
ATOM     82  H   UNL A   1      38.469  29.418  35.744  1.00  0.00     0.210 HD
ENDBRANCH  80  81
ENDBRANCH  79  80
ENDBRANCH  76  79
BRANCH  77  83
ATOM     83  C   UNL A   1      40.258  33.854  30.516  1.00  0.00     0.065 A 
ATOM     84  C   UNL A   1      41.556  33.361  30.701  1.00  0.00     0.035 A 
ATOM     85  C   UNL A   1      39.983  34.827  29.549  1.00  0.00     0.035 A 
ATOM     86  C   UNL A   1      42.588  33.813  29.881  1.00  0.00     0.088 A 
ATOM     87  C   UNL A   1      41.030  35.329  28.769  1.00  0.00     0.088 A 
ATOM     88  C   UNL A   1      42.324  34.805  28.926  1.00  0.00     0.269 A 
BRANCH  88  89
ATOM     89  N   UNL A   1      43.420  35.294  28.082  1.00  0.00     0.062 N 
ATOM     90  O   UNL A   1      44.577  35.173  28.514  1.00  0.00    -0.258 OA
ATOM     91  O   UNL A   1      43.130  35.795  26.988  1.00  0.00    -0.258 OA
ENDBRANCH  88  89
ENDBRANCH  77  83
ENDBRANCH  72  74
ENDBRANCH  71  72
ENDBRANCH  70  71
ENDBRANCH   1  70
TORSDOF 19
ENDMDL
MODEL 3
REMARK VINA RESULT:     -11.5      2.668      7.549
REMARK SMILES O=C(OCCOC(=O)c1nn(-c2ccc([N+](=O)[O-])cc2)cc1CCO)c1ccc(-c2c3nc(c(-c4cc(S(=O)(=O)[O-])ccc4F)c4ccc([nH]4)c(-c4cc(S(=O)(=O)[O-])ccc4F)c4nc(c(-c5cc(S(=O)(=O)[O-])ccc5F)c5ccc2[nH]5)C=C4)C=C3)cc1
REMARK SMILES IDX 4 1 3 2 2 3 1 4 26 5 27 6 88 7 28 8 87 9 29 10 30 11 31 12
REMARK SMILES IDX 81 13 32 14 86 15 80 16 82 17 33 18 85 19 79 20 78 21 34 23
REMARK SMILES IDX 66 24 46 25 65 26 47 27 50 28 64 29 83 30 48 31 49 32 63 34
REMARK SMILES IDX 84 35 51 36 35 37 36 38 44 39 37 40 43 41 45 42 42 43 38 44
REMARK SMILES IDX 39 45 40 46 41 47 67 48 68 49 76 50 69 51 75 52 77 53 74 54
REMARK SMILES IDX 70 55 71 56 72 57 73 58 52 59 53 60 61 61 54 62 60 63 62 64
REMARK SMILES IDX 59 65 55 66 56 67 57 68 58 69 5 70 6 71 7 72 8 73 9 74 10 75
REMARK SMILES IDX 22 76 11 77 21 78 23 79 24 80 25 81 12 83 13 84 20 85 14 86
REMARK SMILES IDX 19 87 15 88 16 89 17 90 18 91
REMARK H PARENT 82 22 50 33 25 82
REMARK Flexibility Score: inf
ROOT
ATOM      1  C   UNL A   1      34.373  29.479  27.120  1.00  0.00     0.275 C 
ENDROOT
BRANCH   1   2
ATOM      2  O   UNL A   1      35.709  29.031  27.410  1.00  0.00    -0.458 OA
BRANCH   2   3
ATOM      3  C   UNL A   1      36.423  29.413  28.487  1.00  0.00     0.338 C 
ATOM      4  O   UNL A   1      35.864  29.879  29.476  1.00  0.00    -0.246 OA
BRANCH   3   5
ATOM      5  C   UNL A   1      37.869  29.046  28.580  1.00  0.00     0.060 A 
ATOM      6  C   UNL A   1      38.464  28.201  29.517  1.00  0.00     0.016 A 
ATOM      7  C   UNL A   1      38.656  29.511  27.514  1.00  0.00     0.016 A 
ATOM      8  C   UNL A   1      39.822  27.862  29.397  1.00  0.00     0.010 A 
ATOM      9  C   UNL A   1      39.962  29.078  27.335  1.00  0.00     0.010 A 
ATOM     10  C   UNL A   1      40.586  28.308  28.305  1.00  0.00    -0.014 A 
BRANCH  10  11
ATOM     11  C   UNL A   1      42.000  27.922  28.157  1.00  0.00     0.031 A 
ATOM     12  C   UNL A   1      42.254  26.667  27.388  1.00  0.00     0.074 A 
ATOM     13  C   UNL A   1      43.056  28.654  28.595  1.00  0.00     0.049 A 
ATOM     14  N   UNL A   1      42.601  25.518  27.866  1.00  0.00    -0.248 NA
ATOM     15  C   UNL A   1      41.962  26.634  25.947  1.00  0.00     0.031 C 
ATOM     16  C   UNL A   1      43.070  29.995  29.192  1.00  0.00     0.029 A 
ATOM     17  N   UNL A   1      44.390  28.354  28.543  1.00  0.00    -0.354 N 
ATOM     18  C   UNL A   1      42.802  24.673  26.779  1.00  0.00     0.074 A 
ATOM     19  C   UNL A   1      42.233  25.360  25.648  1.00  0.00     0.031 C 
ATOM     20  C   UNL A   1      44.333  30.477  29.236  1.00  0.00     0.029 A 
ATOM     21  C   UNL A   1      45.245  29.412  28.861  1.00  0.00     0.049 A 
ATOM     22  H   UNL A   1      44.722  27.460  28.300  1.00  0.00     0.167 HD
ATOM     23  C   UNL A   1      43.597  23.568  26.881  1.00  0.00     0.034 A 
ATOM     24  C   UNL A   1      46.607  29.420  28.904  1.00  0.00     0.034 A 
ATOM     25  C   UNL A   1      43.830  23.228  28.268  1.00  0.00     0.049 A 
ATOM     26  C   UNL A   1      47.019  28.017  29.136  1.00  0.00     0.074 A 
ATOM     27  C   UNL A   1      43.007  22.903  29.330  1.00  0.00     0.029 A 
ATOM     28  N   UNL A   1      45.025  23.602  28.840  1.00  0.00    -0.354 N 
ATOM     29  N   UNL A   1      46.747  27.375  30.239  1.00  0.00    -0.248 NA
ATOM     30  C   UNL A   1      47.272  27.182  27.973  1.00  0.00     0.031 C 
ATOM     31  C   UNL A   1      43.547  23.624  30.437  1.00  0.00     0.029 A 
ATOM     32  C   UNL A   1      44.724  24.247  30.017  1.00  0.00     0.049 A 
ATOM     33  H   UNL A   1      45.926  23.439  28.476  1.00  0.00     0.167 HD
ATOM     34  C   UNL A   1      46.356  26.112  29.825  1.00  0.00     0.074 A 
ATOM     35  C   UNL A   1      46.781  26.025  28.427  1.00  0.00     0.031 C 
ATOM     36  C   UNL A   1      45.488  25.355  30.561  1.00  0.00     0.034 A 
BRANCH  23  37
ATOM     37  C   UNL A   1      44.434  22.976  25.765  1.00  0.00     0.023 A 
ATOM     38  C   UNL A   1      44.403  21.577  25.588  1.00  0.00     0.031 A 
ATOM     39  C   UNL A   1      45.456  23.657  25.068  1.00  0.00     0.131 A 
ATOM     40  C   UNL A   1      45.396  20.916  24.841  1.00  0.00     0.055 A 
ATOM     41  C   UNL A   1      46.405  23.002  24.275  1.00  0.00     0.041 A 
ATOM     42  F   UNL A   1      45.653  24.975  25.182  1.00  0.00    -0.206 F 
ATOM     43  C   UNL A   1      46.399  21.621  24.183  1.00  0.00     0.022 A 
BRANCH  40  44
ATOM     44  S   UNL A   1      45.462  19.104  24.892  1.00  0.00     0.124 S 
ATOM     45  O   UNL A   1      44.299  18.790  25.716  1.00  0.00    -0.237 OA
ATOM     46  O   UNL A   1      45.360  18.761  23.478  1.00  0.00    -0.237 OA
ATOM     47  O   UNL A   1      46.757  18.828  25.509  1.00  0.00    -0.744 OA
ENDBRANCH  40  44
ENDBRANCH  23  37
BRANCH  24  48
ATOM     48  C   UNL A   1      47.527  30.482  28.398  1.00  0.00     0.023 A 
ATOM     49  C   UNL A   1      47.122  31.521  27.527  1.00  0.00     0.031 A 
ATOM     50  C   UNL A   1      48.799  30.624  28.997  1.00  0.00     0.131 A 
ATOM     51  C   UNL A   1      47.969  32.636  27.299  1.00  0.00     0.055 A 
ATOM     52  C   UNL A   1      49.625  31.730  28.776  1.00  0.00     0.041 A 
ATOM     53  F   UNL A   1      49.246  29.729  29.893  1.00  0.00    -0.206 F 
ATOM     54  C   UNL A   1      49.208  32.747  27.933  1.00  0.00     0.022 A 
BRANCH  51  55
ATOM     55  S   UNL A   1      47.439  34.017  26.225  1.00  0.00     0.124 S 
ATOM     56  O   UNL A   1      47.258  35.103  27.182  1.00  0.00    -0.237 OA
ATOM     57  O   UNL A   1      48.559  34.146  25.301  1.00  0.00    -0.237 OA
ATOM     58  O   UNL A   1      46.201  33.524  25.619  1.00  0.00    -0.744 OA
ENDBRANCH  51  55
ENDBRANCH  24  48
BRANCH  36  59
ATOM     59  C   UNL A   1      45.151  25.793  31.976  1.00  0.00     0.023 A 
ATOM     60  C   UNL A   1      43.973  26.475  32.368  1.00  0.00     0.031 A 
ATOM     61  C   UNL A   1      46.025  25.372  32.995  1.00  0.00     0.131 A 
ATOM     62  C   UNL A   1      43.715  26.707  33.736  1.00  0.00     0.055 A 
ATOM     63  C   UNL A   1      45.754  25.584  34.346  1.00  0.00     0.041 A 
ATOM     64  F   UNL A   1      47.150  24.703  32.692  1.00  0.00    -0.206 F 
ATOM     65  C   UNL A   1      44.599  26.257  34.722  1.00  0.00     0.022 A 
BRANCH  62  66
ATOM     66  S   UNL A   1      42.223  27.614  34.271  1.00  0.00     0.124 S 
ATOM     67  O   UNL A   1      41.398  26.581  34.884  1.00  0.00    -0.237 OA
ATOM     68  O   UNL A   1      42.771  28.617  35.181  1.00  0.00    -0.237 OA
ATOM     69  O   UNL A   1      41.690  28.159  33.022  1.00  0.00    -0.744 OA
ENDBRANCH  62  66
ENDBRANCH  36  59
ENDBRANCH  10  11
ENDBRANCH   3   5
ENDBRANCH   2   3
ENDBRANCH   1   2
BRANCH   1  70
ATOM     70  C   UNL A   1      33.623  28.727  26.018  1.00  0.00     0.275 C 
BRANCH  70  71
ATOM     71  O   UNL A   1      33.801  27.306  26.123  1.00  0.00    -0.457 OA
BRANCH  71  72
ATOM     72  C   UNL A   1      33.723  26.590  24.954  1.00  0.00     0.359 C 
ATOM     73  O   UNL A   1      33.447  27.072  23.873  1.00  0.00    -0.244 OA
BRANCH  72  74
ATOM     74  C   UNL A   1      34.112  25.187  25.161  1.00  0.00     0.174 A 
ATOM     75  N   UNL A   1      35.387  24.853  25.426  1.00  0.00    -0.161 NA
ATOM     76  C   UNL A   1      33.282  24.024  25.084  1.00  0.00     0.008 A 
ATOM     77  N   UNL A   1      35.413  23.509  25.334  1.00  0.00    -0.240 N 
ATOM     78  C   UNL A   1      34.181  22.975  25.066  1.00  0.00     0.119 A 
BRANCH  76  79
ATOM     79  C   UNL A   1      31.810  23.951  24.873  1.00  0.00     0.068 C 
BRANCH  79  80
ATOM     80  C   UNL A   1      30.914  24.418  26.013  1.00  0.00     0.161 C 
BRANCH  80  81
ATOM     81  O   UNL A   1      31.499  24.255  27.296  1.00  0.00    -0.396 OA
ATOM     82  H   UNL A   1      31.464  23.320  27.551  1.00  0.00     0.210 HD
ENDBRANCH  80  81
ENDBRANCH  79  80
ENDBRANCH  76  79
BRANCH  77  83
ATOM     83  C   UNL A   1      36.608  22.802  25.567  1.00  0.00     0.065 A 
ATOM     84  C   UNL A   1      36.624  21.427  25.300  1.00  0.00     0.035 A 
ATOM     85  C   UNL A   1      37.751  23.463  26.031  1.00  0.00     0.035 A 
ATOM     86  C   UNL A   1      37.807  20.708  25.457  1.00  0.00     0.088 A 
ATOM     87  C   UNL A   1      38.921  22.731  26.250  1.00  0.00     0.088 A 
ATOM     88  C   UNL A   1      38.949  21.360  25.943  1.00  0.00     0.269 A 
BRANCH  88  89
ATOM     89  N   UNL A   1      40.185  20.592  26.129  1.00  0.00     0.062 N 
ATOM     90  O   UNL A   1      41.101  21.123  26.776  1.00  0.00    -0.258 OA
ATOM     91  O   UNL A   1      40.243  19.458  25.635  1.00  0.00    -0.258 OA
ENDBRANCH  88  89
ENDBRANCH  77  83
ENDBRANCH  72  74
ENDBRANCH  71  72
ENDBRANCH  70  71
ENDBRANCH   1  70
TORSDOF 19
ENDMDL
