MODEL 1
REMARK VINA RESULT:     -12.0      0.000      0.000
REMARK SMILES CC[C@]1(C(=O)OCCOC(=O)c2ccc(-c3c4nc(c(-c5cc(S(=O)(=O)[O-])ccc5F)c5ccc([nH]5)c(-c5cc(S(=O)(=O)[O-])ccc5F)c5nc(c(-c6cc(S(=O)(=O)[O-])ccc6F)c6ccc3[nH]6)C=C5)C=C4)cc2)CC[N@@H+](Cc2ccc(CC(C)C)cc2)C1
REMARK SMILES IDX 7 1 6 2 4 3 5 4 3 5 75 6 89 7 76 8 77 9 2 11 1 12 78 13
REMARK SMILES IDX 79 14 80 15 88 16 81 17 87 18 82 19 83 20 84 21 85 22 86 23
REMARK SMILES IDX 8 24 9 25 10 26 11 27 12 28 13 29 74 30 14 31 73 32 15 33
REMARK SMILES IDX 16 34 17 35 67 36 18 37 72 38 66 39 68 40 19 41 71 42 65 43
REMARK SMILES IDX 64 44 20 46 52 47 32 48 51 49 33 50 36 51 50 52 69 53 34 54
REMARK SMILES IDX 35 55 49 57 70 58 37 59 21 60 22 61 30 62 23 63 29 64 31 65
REMARK SMILES IDX 28 66 24 67 25 68 26 69 27 70 53 71 54 72 62 73 55 74 61 75
REMARK SMILES IDX 63 76 60 77 56 78 57 79 58 80 59 81 38 82 39 83 47 84 40 85
REMARK SMILES IDX 46 86 48 87 45 88 41 89 42 90 43 91 44 92
REMARK H PARENT 77 10 68 45 36 56
REMARK Flexibility Score: inf
ROOT
ATOM      1  C   UNL A   1      35.936  22.400  23.859  1.00  0.00     0.274 C 
ENDROOT
BRANCH   1   2
ATOM      2  O   UNL A   1      34.860  23.180  24.419  1.00  0.00    -0.461 OA
BRANCH   2   3
ATOM      3  C   UNL A   1      33.821  23.411  23.564  1.00  0.00     0.318 C 
ATOM      4  O   UNL A   1      33.931  24.059  22.529  1.00  0.00    -0.251 OA
BRANCH   3   5
ATOM      5  C   UNL A   1      32.521  22.736  24.019  1.00  0.00     0.122 C 
ATOM      6  C   UNL A   1      32.427  22.621  25.552  1.00  0.00     0.086 C 
ATOM      7  C   UNL A   1      31.322  23.643  23.651  1.00  0.00     0.281 C 
ATOM      8  C   UNL A   1      30.979  22.943  25.870  1.00  0.00     0.263 C 
ATOM      9  N   UNL A   1      30.570  23.935  24.879  1.00  0.00    -0.330 N 
ATOM     10  H   UNL A   1      29.568  23.843  24.712  1.00  0.00     0.348 HD
BRANCH   5  11
ATOM     11  C   UNL A   1      32.366  21.323  23.406  1.00  0.00     0.021 C 
ATOM     12  C   UNL A   1      31.925  21.276  21.948  1.00  0.00     0.005 C 
ENDBRANCH   5  11
BRANCH   9  13
ATOM     13  C   UNL A   1      30.624  25.338  25.315  1.00  0.00     0.299 C 
BRANCH  13  14
ATOM     14  C   UNL A   1      30.128  26.386  24.341  1.00  0.00     0.006 A 
ATOM     15  C   UNL A   1      28.754  26.548  24.118  1.00  0.00     0.010 A 
ATOM     16  C   UNL A   1      31.019  27.249  23.692  1.00  0.00     0.010 A 
ATOM     17  C   UNL A   1      28.278  27.612  23.352  1.00  0.00     0.004 A 
ATOM     18  C   UNL A   1      30.544  28.301  22.905  1.00  0.00     0.004 A 
ATOM     19  C   UNL A   1      29.169  28.518  22.765  1.00  0.00    -0.048 A 
BRANCH  19  20
ATOM     20  C   UNL A   1      28.648  29.728  22.034  1.00  0.00     0.038 C 
BRANCH  20  21
ATOM     21  C   UNL A   1      28.686  31.033  22.846  1.00  0.00    -0.013 C 
ATOM     22  C   UNL A   1      28.758  32.270  21.949  1.00  0.00     0.008 C 
ATOM     23  C   UNL A   1      27.440  31.111  23.734  1.00  0.00     0.008 C 
ENDBRANCH  20  21
ENDBRANCH  19  20
ENDBRANCH  13  14
ENDBRANCH   9  13
ENDBRANCH   3   5
ENDBRANCH   2   3
ENDBRANCH   1   2
BRANCH   1  24
ATOM     24  C   UNL A   1      36.202  21.185  24.744  1.00  0.00     0.275 C 
BRANCH  24  25
ATOM     25  O   UNL A   1      36.978  21.653  25.857  1.00  0.00    -0.458 OA
BRANCH  25  26
ATOM     26  C   UNL A   1      38.280  21.302  25.870  1.00  0.00     0.338 C 
ATOM     27  O   UNL A   1      38.796  20.310  25.384  1.00  0.00    -0.246 OA
BRANCH  26  28
ATOM     28  C   UNL A   1      39.013  22.435  26.453  1.00  0.00     0.060 A 
ATOM     29  C   UNL A   1      38.540  23.717  26.174  1.00  0.00     0.016 A 
ATOM     30  C   UNL A   1      40.171  22.258  27.202  1.00  0.00     0.016 A 
ATOM     31  C   UNL A   1      39.260  24.834  26.579  1.00  0.00     0.010 A 
ATOM     32  C   UNL A   1      40.845  23.388  27.686  1.00  0.00     0.010 A 
ATOM     33  C   UNL A   1      40.415  24.688  27.353  1.00  0.00    -0.014 A 
BRANCH  33  34
ATOM     34  C   UNL A   1      41.212  25.892  27.727  1.00  0.00     0.031 A 
ATOM     35  C   UNL A   1      40.592  26.946  28.604  1.00  0.00     0.074 A 
ATOM     36  C   UNL A   1      42.497  26.024  27.340  1.00  0.00     0.049 A 
ATOM     37  N   UNL A   1      41.015  28.152  28.881  1.00  0.00    -0.248 NA
ATOM     38  C   UNL A   1      39.310  26.599  29.236  1.00  0.00     0.031 C 
ATOM     39  C   UNL A   1      43.255  25.047  26.553  1.00  0.00     0.029 A 
ATOM     40  N   UNL A   1      43.405  27.029  27.573  1.00  0.00    -0.354 N 
ATOM     41  C   UNL A   1      40.016  28.736  29.656  1.00  0.00     0.074 A 
ATOM     42  C   UNL A   1      38.969  27.746  29.804  1.00  0.00     0.031 C 
ATOM     43  C   UNL A   1      44.518  25.476  26.414  1.00  0.00     0.029 A 
ATOM     44  C   UNL A   1      44.640  26.801  27.010  1.00  0.00     0.049 A 
ATOM     45  H   UNL A   1      43.191  27.837  28.093  1.00  0.00     0.167 HD
ATOM     46  C   UNL A   1      39.976  29.985  30.182  1.00  0.00     0.034 A 
ATOM     47  C   UNL A   1      45.733  27.588  26.942  1.00  0.00     0.034 A 
ATOM     48  C   UNL A   1      41.058  30.936  30.075  1.00  0.00     0.049 A 
ATOM     49  C   UNL A   1      45.666  28.973  27.529  1.00  0.00     0.074 A 
ATOM     50  C   UNL A   1      41.121  32.234  30.549  1.00  0.00     0.029 A 
ATOM     51  N   UNL A   1      42.281  30.678  29.466  1.00  0.00    -0.354 N 
ATOM     52  N   UNL A   1      44.667  29.561  28.146  1.00  0.00    -0.248 NA
ATOM     53  C   UNL A   1      46.866  29.807  27.390  1.00  0.00     0.031 C 
ATOM     54  C   UNL A   1      42.362  32.774  30.193  1.00  0.00     0.029 A 
ATOM     55  C   UNL A   1      43.099  31.795  29.547  1.00  0.00     0.049 A 
ATOM     56  H   UNL A   1      42.530  29.827  29.041  1.00  0.00     0.167 HD
ATOM     57  C   UNL A   1      45.116  30.840  28.458  1.00  0.00     0.074 A 
ATOM     58  C   UNL A   1      46.490  30.921  28.000  1.00  0.00     0.031 C 
ATOM     59  C   UNL A   1      44.454  31.864  29.054  1.00  0.00     0.034 A 
BRANCH  46  60
ATOM     60  C   UNL A   1      38.689  30.411  30.846  1.00  0.00     0.023 A 
ATOM     61  C   UNL A   1      37.632  30.997  30.129  1.00  0.00     0.031 A 
ATOM     62  C   UNL A   1      38.547  30.280  32.239  1.00  0.00     0.131 A 
ATOM     63  C   UNL A   1      36.515  31.498  30.817  1.00  0.00     0.055 A 
ATOM     64  C   UNL A   1      37.400  30.709  32.909  1.00  0.00     0.041 A 
ATOM     65  F   UNL A   1      39.534  29.752  32.980  1.00  0.00    -0.206 F 
ATOM     66  C   UNL A   1      36.381  31.337  32.199  1.00  0.00     0.022 A 
BRANCH  63  67
ATOM     67  S   UNL A   1      35.306  32.496  29.902  1.00  0.00     0.124 S 
ATOM     68  O   UNL A   1      36.126  33.625  29.468  1.00  0.00    -0.237 OA
ATOM     69  O   UNL A   1      34.870  31.581  28.855  1.00  0.00    -0.237 OA
ATOM     70  O   UNL A   1      34.297  32.820  30.909  1.00  0.00    -0.744 OA
ENDBRANCH  63  67
ENDBRANCH  46  60
BRANCH  47  71
ATOM     71  C   UNL A   1      46.954  27.127  26.218  1.00  0.00     0.023 A 
ATOM     72  C   UNL A   1      47.986  26.451  26.888  1.00  0.00     0.031 A 
ATOM     73  C   UNL A   1      47.123  27.396  24.847  1.00  0.00     0.131 A 
ATOM     74  C   UNL A   1      49.153  26.094  26.194  1.00  0.00     0.055 A 
ATOM     75  C   UNL A   1      48.262  26.993  24.151  1.00  0.00     0.041 A 
ATOM     76  F   UNL A   1      46.168  28.043  24.160  1.00  0.00    -0.206 F 
ATOM     77  C   UNL A   1      49.291  26.347  24.827  1.00  0.00     0.022 A 
BRANCH  74  78
ATOM     78  S   UNL A   1      50.527  25.354  27.120  1.00  0.00     0.124 S 
ATOM     79  O   UNL A   1      51.439  24.973  26.048  1.00  0.00    -0.237 OA
ATOM     80  O   UNL A   1      50.956  26.466  27.964  1.00  0.00    -0.237 OA
ATOM     81  O   UNL A   1      49.899  24.243  27.831  1.00  0.00    -0.744 OA
ENDBRANCH  74  78
ENDBRANCH  47  71
BRANCH  59  82
ATOM     82  C   UNL A   1      45.227  33.143  29.243  1.00  0.00     0.023 A 
ATOM     83  C   UNL A   1      45.210  34.157  28.269  1.00  0.00     0.031 A 
ATOM     84  C   UNL A   1      46.026  33.330  30.383  1.00  0.00     0.131 A 
ATOM     85  C   UNL A   1      46.027  35.287  28.422  1.00  0.00     0.055 A 
ATOM     86  C   UNL A   1      46.797  34.480  30.556  1.00  0.00     0.041 A 
ATOM     87  F   UNL A   1      46.079  32.391  31.342  1.00  0.00    -0.206 F 
ATOM     88  C   UNL A   1      46.812  35.460  29.566  1.00  0.00     0.022 A 
BRANCH  85  89
ATOM     89  S   UNL A   1      46.129  36.480  27.060  1.00  0.00     0.124 S 
ATOM     90  O   UNL A   1      44.794  37.069  27.071  1.00  0.00    -0.237 OA
ATOM     91  O   UNL A   1      47.215  37.353  27.491  1.00  0.00    -0.237 OA
ATOM     92  O   UNL A   1      46.428  35.647  25.897  1.00  0.00    -0.744 OA
ENDBRANCH  85  89
ENDBRANCH  59  82
ENDBRANCH  33  34
ENDBRANCH  26  28
ENDBRANCH  25  26
ENDBRANCH  24  25
ENDBRANCH   1  24
TORSDOF 19
ENDMDL
MODEL 2
REMARK VINA RESULT:     -11.7      4.975     10.248
REMARK SMILES CC[C@]1(C(=O)OCCOC(=O)c2ccc(-c3c4nc(c(-c5cc(S(=O)(=O)[O-])ccc5F)c5ccc([nH]5)c(-c5cc(S(=O)(=O)[O-])ccc5F)c5nc(c(-c6cc(S(=O)(=O)[O-])ccc6F)c6ccc3[nH]6)C=C5)C=C4)cc2)CC[N@@H+](Cc2ccc(CC(C)C)cc2)C1
REMARK SMILES IDX 7 1 6 2 4 3 5 4 3 5 75 6 89 7 76 8 77 9 2 11 1 12 78 13
REMARK SMILES IDX 79 14 80 15 88 16 81 17 87 18 82 19 83 20 84 21 85 22 86 23
REMARK SMILES IDX 8 24 9 25 10 26 11 27 12 28 13 29 74 30 14 31 73 32 15 33
REMARK SMILES IDX 16 34 17 35 67 36 18 37 72 38 66 39 68 40 19 41 71 42 65 43
REMARK SMILES IDX 64 44 20 46 52 47 32 48 51 49 33 50 36 51 50 52 69 53 34 54
REMARK SMILES IDX 35 55 49 57 70 58 37 59 21 60 22 61 30 62 23 63 29 64 31 65
REMARK SMILES IDX 28 66 24 67 25 68 26 69 27 70 53 71 54 72 62 73 55 74 61 75
REMARK SMILES IDX 63 76 60 77 56 78 57 79 58 80 59 81 38 82 39 83 47 84 40 85
REMARK SMILES IDX 46 86 48 87 45 88 41 89 42 90 43 91 44 92
REMARK H PARENT 77 10 68 45 36 56
REMARK Flexibility Score: inf
ROOT
ATOM      1  C   UNL A   1      32.084  28.093  26.582  1.00  0.00     0.274 C 
ENDROOT
BRANCH   1   2
ATOM      2  O   UNL A   1      32.294  27.182  25.483  1.00  0.00    -0.461 OA
BRANCH   2   3
ATOM      3  C   UNL A   1      31.311  26.249  25.323  1.00  0.00     0.318 C 
ATOM      4  O   UNL A   1      30.898  25.542  26.235  1.00  0.00    -0.251 OA
BRANCH   3   5
ATOM      5  C   UNL A   1      30.755  26.216  23.893  1.00  0.00     0.122 C 
ATOM      6  C   UNL A   1      31.627  27.018  22.909  1.00  0.00     0.086 C 
ATOM      7  C   UNL A   1      30.835  24.770  23.351  1.00  0.00     0.281 C 
ATOM      8  C   UNL A   1      31.657  26.172  21.650  1.00  0.00     0.263 C 
ATOM      9  N   UNL A   1      31.619  24.785  22.108  1.00  0.00    -0.330 N 
ATOM     10  H   UNL A   1      31.166  24.213  21.395  1.00  0.00     0.348 HD
BRANCH   5  11
ATOM     11  C   UNL A   1      29.307  26.762  23.830  1.00  0.00     0.021 C 
ATOM     12  C   UNL A   1      29.160  28.198  23.342  1.00  0.00     0.005 C 
ENDBRANCH   5  11
BRANCH   9  13
ATOM     13  C   UNL A   1      32.919  24.102  22.191  1.00  0.00     0.299 C 
BRANCH  13  14
ATOM     14  C   UNL A   1      32.991  22.854  23.045  1.00  0.00     0.006 A 
ATOM     15  C   UNL A   1      32.237  21.722  22.706  1.00  0.00     0.010 A 
ATOM     16  C   UNL A   1      33.850  22.780  24.148  1.00  0.00     0.010 A 
ATOM     17  C   UNL A   1      32.417  20.517  23.386  1.00  0.00     0.004 A 
ATOM     18  C   UNL A   1      34.013  21.580  24.845  1.00  0.00     0.004 A 
ATOM     19  C   UNL A   1      33.332  20.427  24.441  1.00  0.00    -0.048 A 
BRANCH  19  20
ATOM     20  C   UNL A   1      33.605  19.098  25.097  1.00  0.00     0.038 C 
BRANCH  20  21
ATOM     21  C   UNL A   1      33.201  17.875  24.257  1.00  0.00    -0.013 C 
ATOM     22  C   UNL A   1      34.416  17.082  23.771  1.00  0.00     0.008 C 
ATOM     23  C   UNL A   1      32.293  16.967  25.092  1.00  0.00     0.008 C 
ENDBRANCH  20  21
ENDBRANCH  19  20
ENDBRANCH  13  14
ENDBRANCH   9  13
ENDBRANCH   3   5
ENDBRANCH   2   3
ENDBRANCH   1   2
BRANCH   1  24
ATOM     24  C   UNL A   1      31.780  29.488  26.041  1.00  0.00     0.275 C 
BRANCH  24  25
ATOM     25  O   UNL A   1      33.033  30.187  25.989  1.00  0.00    -0.458 OA
BRANCH  25  26
ATOM     26  C   UNL A   1      33.189  31.201  26.865  1.00  0.00     0.338 C 
ATOM     27  O   UNL A   1      32.373  32.046  27.191  1.00  0.00    -0.246 OA
BRANCH  26  28
ATOM     28  C   UNL A   1      34.504  31.011  27.494  1.00  0.00     0.060 A 
ATOM     29  C   UNL A   1      34.870  29.709  27.836  1.00  0.00     0.016 A 
ATOM     30  C   UNL A   1      35.337  32.081  27.803  1.00  0.00     0.016 A 
ATOM     31  C   UNL A   1      36.036  29.473  28.554  1.00  0.00     0.010 A 
ATOM     32  C   UNL A   1      36.556  31.828  28.446  1.00  0.00     0.010 A 
ATOM     33  C   UNL A   1      36.904  30.526  28.858  1.00  0.00    -0.014 A 
BRANCH  33  34
ATOM     34  C   UNL A   1      38.120  30.268  29.683  1.00  0.00     0.031 A 
ATOM     35  C   UNL A   1      39.249  29.459  29.103  1.00  0.00     0.074 A 
ATOM     36  C   UNL A   1      38.247  30.795  30.918  1.00  0.00     0.049 A 
ATOM     37  N   UNL A   1      40.293  28.943  29.697  1.00  0.00    -0.248 NA
ATOM     38  C   UNL A   1      39.177  29.177  27.661  1.00  0.00     0.031 C 
ATOM     39  C   UNL A   1      37.269  31.663  31.579  1.00  0.00     0.029 A 
ATOM     40  N   UNL A   1      39.267  30.695  31.834  1.00  0.00    -0.354 N 
ATOM     41  C   UNL A   1      40.962  28.211  28.721  1.00  0.00     0.074 A 
ATOM     42  C   UNL A   1      40.203  28.356  27.496  1.00  0.00     0.031 C 
ATOM     43  C   UNL A   1      37.757  32.053  32.767  1.00  0.00     0.029 A 
ATOM     44  C   UNL A   1      39.034  31.388  33.000  1.00  0.00     0.049 A 
ATOM     45  H   UNL A   1      40.087  30.175  31.671  1.00  0.00     0.167 HD
ATOM     46  C   UNL A   1      42.098  27.479  28.842  1.00  0.00     0.034 A 
ATOM     47  C   UNL A   1      39.743  31.446  34.145  1.00  0.00     0.034 A 
ATOM     48  C   UNL A   1      42.873  27.397  30.057  1.00  0.00     0.049 A 
ATOM     49  C   UNL A   1      40.999  30.622  34.260  1.00  0.00     0.074 A 
ATOM     50  C   UNL A   1      44.026  26.673  30.303  1.00  0.00     0.029 A 
ATOM     51  N   UNL A   1      42.584  28.088  31.228  1.00  0.00    -0.354 N 
ATOM     52  N   UNL A   1      41.552  29.829  33.370  1.00  0.00    -0.248 NA
ATOM     53  C   UNL A   1      41.713  30.684  35.541  1.00  0.00     0.031 C 
ATOM     54  C   UNL A   1      44.410  26.892  31.631  1.00  0.00     0.029 A 
ATOM     55  C   UNL A   1      43.531  27.800  32.199  1.00  0.00     0.049 A 
ATOM     56  H   UNL A   1      41.819  28.695  31.351  1.00  0.00     0.167 HD
ATOM     57  C   UNL A   1      42.673  29.288  33.992  1.00  0.00     0.074 A 
ATOM     58  C   UNL A   1      42.740  29.879  35.314  1.00  0.00     0.031 C 
ATOM     59  C   UNL A   1      43.560  28.375  33.523  1.00  0.00     0.034 A 
BRANCH  46  60
ATOM     60  C   UNL A   1      42.512  26.649  27.651  1.00  0.00     0.023 A 
ATOM     61  C   UNL A   1      42.051  25.336  27.452  1.00  0.00     0.031 A 
ATOM     62  C   UNL A   1      43.437  27.169  26.727  1.00  0.00     0.131 A 
ATOM     63  C   UNL A   1      42.575  24.564  26.403  1.00  0.00     0.055 A 
ATOM     64  C   UNL A   1      43.895  26.423  25.640  1.00  0.00     0.041 A 
ATOM     65  F   UNL A   1      43.932  28.408  26.880  1.00  0.00    -0.206 F 
ATOM     66  C   UNL A   1      43.476  25.106  25.482  1.00  0.00     0.022 A 
BRANCH  63  67
ATOM     67  S   UNL A   1      42.176  22.795  26.343  1.00  0.00     0.124 S 
ATOM     68  O   UNL A   1      42.642  22.433  25.006  1.00  0.00    -0.237 OA
ATOM     69  O   UNL A   1      42.949  22.259  27.457  1.00  0.00    -0.237 OA
ATOM     70  O   UNL A   1      40.726  22.765  26.518  1.00  0.00    -0.744 OA
ENDBRANCH  63  67
ENDBRANCH  46  60
BRANCH  47  71
ATOM     71  C   UNL A   1      39.245  32.239  35.306  1.00  0.00     0.023 A 
ATOM     72  C   UNL A   1      38.605  31.618  36.390  1.00  0.00     0.031 A 
ATOM     73  C   UNL A   1      39.368  33.640  35.327  1.00  0.00     0.131 A 
ATOM     74  C   UNL A   1      38.084  32.399  37.434  1.00  0.00     0.055 A 
ATOM     75  C   UNL A   1      38.894  34.407  36.391  1.00  0.00     0.041 A 
ATOM     76  F   UNL A   1      39.968  34.284  34.312  1.00  0.00    -0.206 F 
ATOM     77  C   UNL A   1      38.238  33.788  37.448  1.00  0.00     0.022 A 
BRANCH  74  78
ATOM     78  S   UNL A   1      37.134  31.581  38.746  1.00  0.00     0.124 S 
ATOM     79  O   UNL A   1      38.021  31.729  39.894  1.00  0.00    -0.237 OA
ATOM     80  O   UNL A   1      35.910  32.376  38.773  1.00  0.00    -0.237 OA
ATOM     81  O   UNL A   1      36.975  30.215  38.250  1.00  0.00    -0.744 OA
ENDBRANCH  74  78
ENDBRANCH  47  71
BRANCH  59  82
ATOM     82  C   UNL A   1      44.675  27.982  34.457  1.00  0.00     0.023 A 
ATOM     83  C   UNL A   1      44.553  26.871  35.311  1.00  0.00     0.031 A 
ATOM     84  C   UNL A   1      45.848  28.751  34.529  1.00  0.00     0.131 A 
ATOM     85  C   UNL A   1      45.561  26.597  36.247  1.00  0.00     0.055 A 
ATOM     86  C   UNL A   1      46.871  28.443  35.427  1.00  0.00     0.041 A 
ATOM     87  F   UNL A   1      46.012  29.823  33.737  1.00  0.00    -0.206 F 
ATOM     88  C   UNL A   1      46.725  27.370  36.302  1.00  0.00     0.022 A 
BRANCH  85  89
ATOM     89  S   UNL A   1      45.287  25.279  37.462  1.00  0.00     0.124 S 
ATOM     90  O   UNL A   1      46.639  24.772  37.672  1.00  0.00    -0.237 OA
ATOM     91  O   UNL A   1      44.696  26.005  38.582  1.00  0.00    -0.237 OA
ATOM     92  O   UNL A   1      44.381  24.361  36.773  1.00  0.00    -0.744 OA
ENDBRANCH  85  89
ENDBRANCH  59  82
ENDBRANCH  33  34
ENDBRANCH  26  28
ENDBRANCH  25  26
ENDBRANCH  24  25
ENDBRANCH   1  24
TORSDOF 19
ENDMDL
MODEL 3
REMARK VINA RESULT:     -11.2      2.045      2.406
REMARK SMILES CC[C@]1(C(=O)OCCOC(=O)c2ccc(-c3c4nc(c(-c5cc(S(=O)(=O)[O-])ccc5F)c5ccc([nH]5)c(-c5cc(S(=O)(=O)[O-])ccc5F)c5nc(c(-c6cc(S(=O)(=O)[O-])ccc6F)c6ccc3[nH]6)C=C5)C=C4)cc2)CC[N@@H+](Cc2ccc(CC(C)C)cc2)C1
REMARK SMILES IDX 7 1 6 2 4 3 5 4 3 5 75 6 89 7 76 8 77 9 2 11 1 12 78 13
REMARK SMILES IDX 79 14 80 15 88 16 81 17 87 18 82 19 83 20 84 21 85 22 86 23
REMARK SMILES IDX 8 24 9 25 10 26 11 27 12 28 13 29 74 30 14 31 73 32 15 33
REMARK SMILES IDX 16 34 17 35 67 36 18 37 72 38 66 39 68 40 19 41 71 42 65 43
REMARK SMILES IDX 64 44 20 46 52 47 32 48 51 49 33 50 36 51 50 52 69 53 34 54
REMARK SMILES IDX 35 55 49 57 70 58 37 59 21 60 22 61 30 62 23 63 29 64 31 65
REMARK SMILES IDX 28 66 24 67 25 68 26 69 27 70 53 71 54 72 62 73 55 74 61 75
REMARK SMILES IDX 63 76 60 77 56 78 57 79 58 80 59 81 38 82 39 83 47 84 40 85
REMARK SMILES IDX 46 86 48 87 45 88 41 89 42 90 43 91 44 92
REMARK H PARENT 77 10 68 45 36 56
REMARK Flexibility Score: inf
ROOT
ATOM      1  C   UNL A   1      35.509  21.750  24.326  1.00  0.00     0.274 C 
ENDROOT
BRANCH   1   2
ATOM      2  O   UNL A   1      34.944  22.619  25.329  1.00  0.00    -0.461 OA
BRANCH   2   3
ATOM      3  C   UNL A   1      34.033  22.021  26.151  1.00  0.00     0.318 C 
ATOM      4  O   UNL A   1      34.336  21.469  27.203  1.00  0.00    -0.251 OA
BRANCH   3   5
ATOM      5  C   UNL A   1      32.594  22.155  25.636  1.00  0.00     0.122 C 
ATOM      6  C   UNL A   1      31.629  22.662  26.725  1.00  0.00     0.086 C 
ATOM      7  C   UNL A   1      32.541  23.266  24.561  1.00  0.00     0.281 C 
ATOM      8  C   UNL A   1      30.721  23.639  26.003  1.00  0.00     0.263 C 
ATOM      9  N   UNL A   1      31.553  24.270  24.981  1.00  0.00    -0.330 N 
ATOM     10  H   UNL A   1      30.964  24.540  24.194  1.00  0.00     0.348 HD
BRANCH   5  11
ATOM     11  C   UNL A   1      32.057  20.812  25.085  1.00  0.00     0.021 C 
ATOM     12  C   UNL A   1      32.506  20.447  23.675  1.00  0.00     0.005 C 
ENDBRANCH   5  11
BRANCH   9  13
ATOM     13  C   UNL A   1      32.118  25.580  25.335  1.00  0.00     0.299 C 
BRANCH  13  14
ATOM     14  C   UNL A   1      31.637  26.778  24.543  1.00  0.00     0.006 A 
ATOM     15  C   UNL A   1      31.127  26.610  23.248  1.00  0.00     0.010 A 
ATOM     16  C   UNL A   1      31.633  28.061  25.103  1.00  0.00     0.010 A 
ATOM     17  C   UNL A   1      30.532  27.676  22.574  1.00  0.00     0.004 A 
ATOM     18  C   UNL A   1      31.059  29.135  24.418  1.00  0.00     0.004 A 
ATOM     19  C   UNL A   1      30.463  28.942  23.167  1.00  0.00    -0.048 A 
BRANCH  19  20
ATOM     20  C   UNL A   1      29.721  30.061  22.484  1.00  0.00     0.038 C 
BRANCH  20  21
ATOM     21  C   UNL A   1      28.483  30.566  23.243  1.00  0.00    -0.013 C 
ATOM     22  C   UNL A   1      28.076  31.975  22.811  1.00  0.00     0.008 C 
ATOM     23  C   UNL A   1      27.319  29.598  23.012  1.00  0.00     0.008 C 
ENDBRANCH  20  21
ENDBRANCH  19  20
ENDBRANCH  13  14
ENDBRANCH   9  13
ENDBRANCH   3   5
ENDBRANCH   2   3
ENDBRANCH   1   2
BRANCH   1  24
ATOM     24  C   UNL A   1      36.568  20.853  24.962  1.00  0.00     0.275 C 
BRANCH  24  25
ATOM     25  O   UNL A   1      37.352  21.695  25.821  1.00  0.00    -0.458 OA
BRANCH  25  26
ATOM     26  C   UNL A   1      38.636  21.326  26.012  1.00  0.00     0.338 C 
ATOM     27  O   UNL A   1      39.174  20.282  25.687  1.00  0.00    -0.246 OA
BRANCH  26  28
ATOM     28  C   UNL A   1      39.331  22.500  26.559  1.00  0.00     0.060 A 
ATOM     29  C   UNL A   1      38.856  23.758  26.188  1.00  0.00     0.016 A 
ATOM     30  C   UNL A   1      40.459  22.382  27.363  1.00  0.00     0.016 A 
ATOM     31  C   UNL A   1      39.546  24.906  26.557  1.00  0.00     0.010 A 
ATOM     32  C   UNL A   1      41.099  23.546  27.809  1.00  0.00     0.010 A 
ATOM     33  C   UNL A   1      40.669  24.819  27.385  1.00  0.00    -0.014 A 
BRANCH  33  34
ATOM     34  C   UNL A   1      41.437  26.053  27.722  1.00  0.00     0.031 A 
ATOM     35  C   UNL A   1      40.816  27.088  28.620  1.00  0.00     0.074 A 
ATOM     36  C   UNL A   1      42.700  26.229  27.281  1.00  0.00     0.049 A 
ATOM     37  N   UNL A   1      41.206  28.310  28.875  1.00  0.00    -0.248 NA
ATOM     38  C   UNL A   1      39.574  26.698  29.306  1.00  0.00     0.031 C 
ATOM     39  C   UNL A   1      43.459  25.276  26.467  1.00  0.00     0.029 A 
ATOM     40  N   UNL A   1      43.579  27.268  27.472  1.00  0.00    -0.354 N 
ATOM     41  C   UNL A   1      40.220  28.861  29.688  1.00  0.00     0.074 A 
ATOM     42  C   UNL A   1      39.216  27.835  29.883  1.00  0.00     0.031 C 
ATOM     43  C   UNL A   1      44.699  25.750  26.274  1.00  0.00     0.029 A 
ATOM     44  C   UNL A   1      44.797  27.082  26.860  1.00  0.00     0.049 A 
ATOM     45  H   UNL A   1      43.357  28.070  27.998  1.00  0.00     0.167 HD
ATOM     46  C   UNL A   1      40.156  30.111  30.212  1.00  0.00     0.034 A 
ATOM     47  C   UNL A   1      45.857  27.907  26.744  1.00  0.00     0.034 A 
ATOM     48  C   UNL A   1      41.196  31.099  30.056  1.00  0.00     0.049 A 
ATOM     49  C   UNL A   1      45.764  29.292  27.329  1.00  0.00     0.074 A 
ATOM     50  C   UNL A   1      41.232  32.401  30.523  1.00  0.00     0.029 A 
ATOM     51  N   UNL A   1      42.402  30.883  29.399  1.00  0.00    -0.354 N 
ATOM     52  N   UNL A   1      44.771  29.847  27.985  1.00  0.00    -0.248 NA
ATOM     53  C   UNL A   1      46.927  30.168  27.137  1.00  0.00     0.031 C 
ATOM     54  C   UNL A   1      42.437  32.984  30.114  1.00  0.00     0.029 A 
ATOM     55  C   UNL A   1      43.182  32.029  29.441  1.00  0.00     0.049 A 
ATOM     56  H   UNL A   1      42.664  30.039  28.966  1.00  0.00     0.167 HD
ATOM     57  C   UNL A   1      45.186  31.143  28.272  1.00  0.00     0.074 A 
ATOM     58  C   UNL A   1      46.535  31.271  27.758  1.00  0.00     0.031 C 
ATOM     59  C   UNL A   1      44.512  32.144  28.892  1.00  0.00     0.034 A 
BRANCH  46  60
ATOM     60  C   UNL A   1      38.882  30.493  30.927  1.00  0.00     0.023 A 
ATOM     61  C   UNL A   1      37.776  31.037  30.253  1.00  0.00     0.031 A 
ATOM     62  C   UNL A   1      38.803  30.363  32.325  1.00  0.00     0.131 A 
ATOM     63  C   UNL A   1      36.671  31.501  30.985  1.00  0.00     0.055 A 
ATOM     64  C   UNL A   1      37.669  30.754  33.040  1.00  0.00     0.041 A 
ATOM     65  F   UNL A   1      39.838  29.874  33.026  1.00  0.00    -0.206 F 
ATOM     66  C   UNL A   1      36.600  31.342  32.371  1.00  0.00     0.022 A 
BRANCH  63  67
ATOM     67  S   UNL A   1      35.391  32.450  30.118  1.00  0.00     0.124 S 
ATOM     68  O   UNL A   1      34.387  32.617  31.167  1.00  0.00    -0.237 OA
ATOM     69  O   UNL A   1      36.107  33.656  29.719  1.00  0.00    -0.237 OA
ATOM     70  O   UNL A   1      34.994  31.568  29.022  1.00  0.00    -0.744 OA
ENDBRANCH  63  67
ENDBRANCH  46  60
BRANCH  47  71
ATOM     71  C   UNL A   1      47.063  27.487  25.971  1.00  0.00     0.023 A 
ATOM     72  C   UNL A   1      47.212  27.822  24.616  1.00  0.00     0.031 A 
ATOM     73  C   UNL A   1      48.068  26.707  26.572  1.00  0.00     0.131 A 
ATOM     74  C   UNL A   1      48.323  27.352  23.899  1.00  0.00     0.055 A 
ATOM     75  C   UNL A   1      49.196  26.286  25.868  1.00  0.00     0.041 A 
ATOM     76  F   UNL A   1      47.972  26.356  27.865  1.00  0.00    -0.206 F 
ATOM     77  C   UNL A   1      49.323  26.599  24.520  1.00  0.00     0.022 A 
BRANCH  74  78
ATOM     78  S   UNL A   1      48.412  27.677  22.116  1.00  0.00     0.124 S 
ATOM     79  O   UNL A   1      49.548  28.588  22.034  1.00  0.00    -0.237 OA
ATOM     80  O   UNL A   1      48.623  26.338  21.574  1.00  0.00    -0.237 OA
ATOM     81  O   UNL A   1      47.112  28.271  21.812  1.00  0.00    -0.744 OA
ENDBRANCH  74  78
ENDBRANCH  47  71
BRANCH  59  82
ATOM     82  C   UNL A   1      45.245  33.452  29.045  1.00  0.00     0.023 A 
ATOM     83  C   UNL A   1      46.026  33.722  30.182  1.00  0.00     0.031 A 
ATOM     84  C   UNL A   1      45.122  34.454  28.069  1.00  0.00     0.131 A 
ATOM     85  C   UNL A   1      46.604  34.990  30.347  1.00  0.00     0.055 A 
ATOM     86  C   UNL A   1      45.743  35.696  28.213  1.00  0.00     0.041 A 
ATOM     87  F   UNL A   1      44.385  34.247  26.965  1.00  0.00    -0.206 F 
ATOM     88  C   UNL A   1      46.477  35.974  29.363  1.00  0.00     0.022 A 
BRANCH  85  89
ATOM     89  S   UNL A   1      47.441  35.369  31.911  1.00  0.00     0.124 S 
ATOM     90  O   UNL A   1      46.967  34.295  32.778  1.00  0.00    -0.237 OA
ATOM     91  O   UNL A   1      48.849  35.309  31.533  1.00  0.00    -0.237 OA
ATOM     92  O   UNL A   1      46.946  36.702  32.249  1.00  0.00    -0.744 OA
ENDBRANCH  85  89
ENDBRANCH  59  82
ENDBRANCH  33  34
ENDBRANCH  26  28
ENDBRANCH  25  26
ENDBRANCH  24  25
ENDBRANCH   1  24
TORSDOF 19
ENDMDL
