MODEL 1
REMARK VINA RESULT:     -10.7      0.000      0.000
REMARK SMILES O=C(OCCOC(=O)[C@@H]([NH2+]CC1CC1)c1cccc(C2CC2)c1)c1ccc(-c2c3nc(c(-c4cc(S(=O)(=O)[O-])ccc4F)c4ccc([nH]4)c(-c4cc(S(=O)(=O)[O-])ccc4F)c4nc(c(-c5cc(S(=O)(=O)[O-])ccc5F)c5ccc2[nH]5)C=C4)C=C3)cc1
REMARK SMILES IDX 4 1 3 2 2 3 1 4 24 5 25 6 86 7 26 8 85 9 27 10 28 11 29 12
REMARK SMILES IDX 79 13 30 14 84 15 78 16 80 17 31 18 83 19 77 20 76 21 32 23
REMARK SMILES IDX 64 24 44 25 63 26 45 27 48 28 62 29 81 30 46 31 47 32 61 34
REMARK SMILES IDX 82 35 49 36 33 37 34 38 42 39 35 40 41 41 43 42 40 43 36 44
REMARK SMILES IDX 37 45 38 46 39 47 65 48 66 49 74 50 67 51 73 52 75 53 72 54
REMARK SMILES IDX 68 55 69 56 70 57 71 58 50 59 51 60 59 61 52 62 58 63 60 64
REMARK SMILES IDX 57 65 53 66 54 67 55 68 56 69 5 70 6 71 7 72 8 73 9 74 10 75
REMARK SMILES IDX 11 78 12 79 13 80 14 81 15 82 16 83 23 84 17 85 19 86 18 87
REMARK SMILES IDX 20 88 21 89 22 90
REMARK H PARENT 80 22 48 33 10 76 10 77
REMARK Flexibility Score: inf
ROOT
ATOM      1  C   UNL A   1      36.973  21.475  25.729  1.00  0.00     0.275 C 
ENDROOT
BRANCH   1   2
ATOM      2  O   UNL A   1      38.348  21.785  25.474  1.00  0.00    -0.458 OA
BRANCH   2   3
ATOM      3  C   UNL A   1      39.365  21.991  26.342  1.00  0.00     0.338 C 
ATOM      4  O   UNL A   1      40.019  21.004  26.687  1.00  0.00    -0.246 OA
BRANCH   3   5
ATOM      5  C   UNL A   1      39.695  23.305  26.993  1.00  0.00     0.060 A 
ATOM      6  C   UNL A   1      40.638  23.547  27.999  1.00  0.00     0.016 A 
ATOM      7  C   UNL A   1      39.012  24.419  26.476  1.00  0.00     0.016 A 
ATOM      8  C   UNL A   1      40.996  24.850  28.371  1.00  0.00     0.010 A 
ATOM      9  C   UNL A   1      39.374  25.719  26.839  1.00  0.00     0.010 A 
ATOM     10  C   UNL A   1      40.406  25.951  27.758  1.00  0.00    -0.014 A 
BRANCH  10  11
ATOM     11  C   UNL A   1      40.785  27.339  28.133  1.00  0.00     0.031 A 
ATOM     12  C   UNL A   1      42.226  27.738  28.001  1.00  0.00     0.074 A 
ATOM     13  C   UNL A   1      39.877  28.218  28.608  1.00  0.00     0.049 A 
ATOM     14  N   UNL A   1      42.820  28.850  28.347  1.00  0.00    -0.248 NA
ATOM     15  C   UNL A   1      43.128  26.723  27.434  1.00  0.00     0.031 C 
ATOM     16  C   UNL A   1      38.450  27.951  28.802  1.00  0.00     0.029 A 
ATOM     17  N   UNL A   1      40.022  29.520  29.028  1.00  0.00    -0.354 N 
ATOM     18  C   UNL A   1      44.161  28.661  28.039  1.00  0.00     0.074 A 
ATOM     19  C   UNL A   1      44.309  27.292  27.600  1.00  0.00     0.031 C 
ATOM     20  C   UNL A   1      37.856  29.052  29.297  1.00  0.00     0.029 A 
ATOM     21  C   UNL A   1      38.855  30.096  29.487  1.00  0.00     0.049 A 
ATOM     22  H   UNL A   1      40.881  30.000  29.001  1.00  0.00     0.167 HD
ATOM     23  C   UNL A   1      45.172  29.563  28.052  1.00  0.00     0.034 A 
ATOM     24  C   UNL A   1      38.630  31.320  30.011  1.00  0.00     0.034 A 
ATOM     25  C   UNL A   1      45.010  30.929  28.465  1.00  0.00     0.049 A 
ATOM     26  C   UNL A   1      39.788  32.289  30.096  1.00  0.00     0.074 A 
ATOM     27  C   UNL A   1      45.951  31.940  28.501  1.00  0.00     0.029 A 
ATOM     28  N   UNL A   1      43.815  31.475  28.917  1.00  0.00    -0.354 N 
ATOM     29  N   UNL A   1      41.042  32.113  29.743  1.00  0.00    -0.248 NA
ATOM     30  C   UNL A   1      39.498  33.630  30.624  1.00  0.00     0.031 C 
ATOM     31  C   UNL A   1      45.335  33.087  29.016  1.00  0.00     0.029 A 
ATOM     32  C   UNL A   1      43.996  32.806  29.246  1.00  0.00     0.049 A 
ATOM     33  H   UNL A   1      42.963  30.986  28.992  1.00  0.00     0.167 HD
ATOM     34  C   UNL A   1      41.671  33.338  29.951  1.00  0.00     0.074 A 
ATOM     35  C   UNL A   1      40.663  34.241  30.464  1.00  0.00     0.031 C 
ATOM     36  C   UNL A   1      42.964  33.691  29.729  1.00  0.00     0.034 A 
BRANCH  23  37
ATOM     37  C   UNL A   1      46.518  29.061  27.596  1.00  0.00     0.023 A 
ATOM     38  C   UNL A   1      46.741  28.723  26.247  1.00  0.00     0.031 A 
ATOM     39  C   UNL A   1      47.537  28.794  28.522  1.00  0.00     0.131 A 
ATOM     40  C   UNL A   1      47.899  28.023  25.886  1.00  0.00     0.055 A 
ATOM     41  C   UNL A   1      48.733  28.185  28.136  1.00  0.00     0.041 A 
ATOM     42  F   UNL A   1      47.371  29.076  29.824  1.00  0.00    -0.206 F 
ATOM     43  C   UNL A   1      48.909  27.774  26.816  1.00  0.00     0.022 A 
BRANCH  40  44
ATOM     44  S   UNL A   1      47.972  27.281  24.232  1.00  0.00     0.124 S 
ATOM     45  O   UNL A   1      46.643  27.599  23.711  1.00  0.00    -0.237 OA
ATOM     46  O   UNL A   1      49.085  27.984  23.614  1.00  0.00    -0.237 OA
ATOM     47  O   UNL A   1      48.202  25.861  24.506  1.00  0.00    -0.744 OA
ENDBRANCH  40  44
ENDBRANCH  23  37
BRANCH  24  48
ATOM     48  C   UNL A   1      37.280  31.718  30.519  1.00  0.00     0.023 A 
ATOM     49  C   UNL A   1      36.366  32.407  29.702  1.00  0.00     0.031 A 
ATOM     50  C   UNL A   1      36.928  31.518  31.866  1.00  0.00     0.131 A 
ATOM     51  C   UNL A   1      35.183  32.931  30.253  1.00  0.00     0.055 A 
ATOM     52  C   UNL A   1      35.727  31.995  32.397  1.00  0.00     0.041 A 
ATOM     53  F   UNL A   1      37.760  30.870  32.696  1.00  0.00    -0.206 F 
ATOM     54  C   UNL A   1      34.855  32.724  31.594  1.00  0.00     0.022 A 
BRANCH  51  55
ATOM     55  S   UNL A   1      34.135  33.997  29.221  1.00  0.00     0.124 S 
ATOM     56  O   UNL A   1      35.105  34.950  28.695  1.00  0.00    -0.237 OA
ATOM     57  O   UNL A   1      33.586  33.044  28.263  1.00  0.00    -0.237 OA
ATOM     58  O   UNL A   1      33.171  34.548  30.171  1.00  0.00    -0.744 OA
ENDBRANCH  51  55
ENDBRANCH  24  48
BRANCH  36  59
ATOM     59  C   UNL A   1      43.330  35.135  29.954  1.00  0.00     0.023 A 
ATOM     60  C   UNL A   1      43.206  36.100  28.941  1.00  0.00     0.031 A 
ATOM     61  C   UNL A   1      43.797  35.549  31.215  1.00  0.00     0.131 A 
ATOM     62  C   UNL A   1      43.590  37.425  29.194  1.00  0.00     0.055 A 
ATOM     63  C   UNL A   1      44.121  36.879  31.478  1.00  0.00     0.041 A 
ATOM     64  F   UNL A   1      43.933  34.664  32.217  1.00  0.00    -0.206 F 
ATOM     65  C   UNL A   1      44.028  37.824  30.460  1.00  0.00     0.022 A 
BRANCH  62  66
ATOM     66  S   UNL A   1      43.573  38.612  27.824  1.00  0.00     0.124 S 
ATOM     67  O   UNL A   1      44.952  38.550  27.353  1.00  0.00    -0.237 OA
ATOM     68  O   UNL A   1      42.569  38.044  26.929  1.00  0.00    -0.237 OA
ATOM     69  O   UNL A   1      43.191  39.869  28.463  1.00  0.00    -0.744 OA
ENDBRANCH  62  66
ENDBRANCH  36  59
ENDBRANCH  10  11
ENDBRANCH   3   5
ENDBRANCH   2   3
ENDBRANCH   1   2
BRANCH   1  70
ATOM     70  C   UNL A   1      36.094  22.704  25.966  1.00  0.00     0.274 C 
BRANCH  70  71
ATOM     71  O   UNL A   1      34.870  22.420  26.664  1.00  0.00    -0.457 OA
BRANCH  71  72
ATOM     72  C   UNL A   1      33.710  22.434  25.928  1.00  0.00     0.369 C 
ATOM     73  O   UNL A   1      32.838  21.573  26.013  1.00  0.00    -0.245 OA
BRANCH  72  74
ATOM     74  C   UNL A   1      33.653  23.618  24.902  1.00  0.00     0.324 C 
BRANCH  74  75
ATOM     75  N   UNL A   1      32.987  23.129  23.678  1.00  0.00    -0.330 N 
ATOM     76  H   UNL A   1      31.983  23.243  23.819  1.00  0.00     0.347 HD
ATOM     77  H   UNL A   1      33.328  22.174  23.578  1.00  0.00     0.347 HD
BRANCH  75  78
ATOM     78  C   UNL A   1      33.311  23.752  22.402  1.00  0.00     0.264 C 
BRANCH  78  79
ATOM     79  C   UNL A   1      32.550  25.019  22.178  1.00  0.00     0.044 C 
ATOM     80  C   UNL A   1      33.269  26.301  21.834  1.00  0.00     0.010 C 
ATOM     81  C   UNL A   1      32.465  25.588  20.783  1.00  0.00     0.010 C 
ENDBRANCH  78  79
ENDBRANCH  75  78
ENDBRANCH  74  75
BRANCH  74  82
ATOM     82  C   UNL A   1      33.070  24.897  25.513  1.00  0.00     0.021 A 
ATOM     83  C   UNL A   1      31.713  24.967  25.864  1.00  0.00     0.010 A 
ATOM     84  C   UNL A   1      33.825  26.074  25.669  1.00  0.00     0.014 A 
ATOM     85  C   UNL A   1      31.166  26.114  26.433  1.00  0.00     0.001 A 
ATOM     86  C   UNL A   1      33.279  27.285  26.144  1.00  0.00    -0.044 A 
ATOM     87  C   UNL A   1      31.944  27.259  26.567  1.00  0.00     0.004 A 
BRANCH  86  88
ATOM     88  C   UNL A   1      34.037  28.596  26.130  1.00  0.00     0.019 C 
ATOM     89  C   UNL A   1      33.523  29.898  26.694  1.00  0.00     0.009 C 
ATOM     90  C   UNL A   1      34.526  29.103  27.474  1.00  0.00     0.009 C 
ENDBRANCH  86  88
ENDBRANCH  74  82
ENDBRANCH  72  74
ENDBRANCH  71  72
ENDBRANCH  70  71
ENDBRANCH   1  70
TORSDOF 19
ENDMDL
MODEL 2
REMARK VINA RESULT:     -10.7      2.169      3.083
REMARK SMILES O=C(OCCOC(=O)[C@@H]([NH2+]CC1CC1)c1cccc(C2CC2)c1)c1ccc(-c2c3nc(c(-c4cc(S(=O)(=O)[O-])ccc4F)c4ccc([nH]4)c(-c4cc(S(=O)(=O)[O-])ccc4F)c4nc(c(-c5cc(S(=O)(=O)[O-])ccc5F)c5ccc2[nH]5)C=C4)C=C3)cc1
REMARK SMILES IDX 4 1 3 2 2 3 1 4 24 5 25 6 86 7 26 8 85 9 27 10 28 11 29 12
REMARK SMILES IDX 79 13 30 14 84 15 78 16 80 17 31 18 83 19 77 20 76 21 32 23
REMARK SMILES IDX 64 24 44 25 63 26 45 27 48 28 62 29 81 30 46 31 47 32 61 34
REMARK SMILES IDX 82 35 49 36 33 37 34 38 42 39 35 40 41 41 43 42 40 43 36 44
REMARK SMILES IDX 37 45 38 46 39 47 65 48 66 49 74 50 67 51 73 52 75 53 72 54
REMARK SMILES IDX 68 55 69 56 70 57 71 58 50 59 51 60 59 61 52 62 58 63 60 64
REMARK SMILES IDX 57 65 53 66 54 67 55 68 56 69 5 70 6 71 7 72 8 73 9 74 10 75
REMARK SMILES IDX 11 78 12 79 13 80 14 81 15 82 16 83 23 84 17 85 19 86 18 87
REMARK SMILES IDX 20 88 21 89 22 90
REMARK H PARENT 80 22 48 33 10 76 10 77
REMARK Flexibility Score: inf
ROOT
ATOM      1  C   UNL A   1      37.973  20.123  24.616  1.00  0.00     0.275 C 
ENDROOT
BRANCH   1   2
ATOM      2  O   UNL A   1      38.833  19.482  25.564  1.00  0.00    -0.458 OA
BRANCH   2   3
ATOM      3  C   UNL A   1      40.066  19.836  25.994  1.00  0.00     0.338 C 
ATOM      4  O   UNL A   1      40.944  18.971  25.960  1.00  0.00    -0.246 OA
BRANCH   3   5
ATOM      5  C   UNL A   1      40.423  21.166  26.599  1.00  0.00     0.060 A 
ATOM      6  C   UNL A   1      41.248  21.406  27.704  1.00  0.00     0.016 A 
ATOM      7  C   UNL A   1      39.909  22.289  25.929  1.00  0.00     0.016 A 
ATOM      8  C   UNL A   1      41.666  22.701  28.039  1.00  0.00     0.010 A 
ATOM      9  C   UNL A   1      40.333  23.579  26.254  1.00  0.00     0.010 A 
ATOM     10  C   UNL A   1      41.256  23.797  27.286  1.00  0.00    -0.014 A 
BRANCH  10  11
ATOM     11  C   UNL A   1      41.702  25.175  27.621  1.00  0.00     0.031 A 
ATOM     12  C   UNL A   1      43.097  25.578  27.240  1.00  0.00     0.074 A 
ATOM     13  C   UNL A   1      40.899  26.042  28.274  1.00  0.00     0.049 A 
ATOM     14  N   UNL A   1      43.748  26.681  27.501  1.00  0.00    -0.248 NA
ATOM     15  C   UNL A   1      43.877  24.578  26.494  1.00  0.00     0.031 C 
ATOM     16  C   UNL A   1      39.529  25.769  28.717  1.00  0.00     0.029 A 
ATOM     17  N   UNL A   1      41.122  27.333  28.694  1.00  0.00    -0.354 N 
ATOM     18  C   UNL A   1      45.011  26.501  26.950  1.00  0.00     0.074 A 
ATOM     19  C   UNL A   1      45.071  25.144  26.458  1.00  0.00     0.031 C 
ATOM     20  C   UNL A   1      39.039  26.857  29.338  1.00  0.00     0.029 A 
ATOM     21  C   UNL A   1      40.061  27.896  29.371  1.00  0.00     0.049 A 
ATOM     22  H   UNL A   1      41.965  27.814  28.524  1.00  0.00     0.167 HD
ATOM     23  C   UNL A   1      46.011  27.402  26.803  1.00  0.00     0.034 A 
ATOM     24  C   UNL A   1      39.939  29.106  29.957  1.00  0.00     0.034 A 
ATOM     25  C   UNL A   1      45.932  28.758  27.273  1.00  0.00     0.049 A 
ATOM     26  C   UNL A   1      41.097  30.074  29.855  1.00  0.00     0.074 A 
ATOM     27  C   UNL A   1      46.868  29.768  27.164  1.00  0.00     0.029 A 
ATOM     28  N   UNL A   1      44.841  29.291  27.948  1.00  0.00    -0.354 N 
ATOM     29  N   UNL A   1      42.266  29.907  29.278  1.00  0.00    -0.248 NA
ATOM     30  C   UNL A   1      40.913  31.401  30.460  1.00  0.00     0.031 C 
ATOM     31  C   UNL A   1      46.360  30.901  27.810  1.00  0.00     0.029 A 
ATOM     32  C   UNL A   1      45.084  30.614  28.271  1.00  0.00     0.049 A 
ATOM     33  H   UNL A   1      44.015  28.800  28.163  1.00  0.00     0.167 HD
ATOM     34  C   UNL A   1      42.928  31.127  29.399  1.00  0.00     0.074 A 
ATOM     35  C   UNL A   1      42.032  32.016  30.108  1.00  0.00     0.031 C 
ATOM     36  C   UNL A   1      44.160  31.486  28.955  1.00  0.00     0.034 A 
BRANCH  23  37
ATOM     37  C   UNL A   1      47.250  26.913  26.098  1.00  0.00     0.023 A 
ATOM     38  C   UNL A   1      48.229  26.177  26.792  1.00  0.00     0.031 A 
ATOM     39  C   UNL A   1      47.520  27.289  24.774  1.00  0.00     0.131 A 
ATOM     40  C   UNL A   1      49.480  25.952  26.203  1.00  0.00     0.055 A 
ATOM     41  C   UNL A   1      48.733  26.974  24.158  1.00  0.00     0.041 A 
ATOM     42  F   UNL A   1      46.632  28.010  24.072  1.00  0.00    -0.206 F 
ATOM     43  C   UNL A   1      49.730  26.323  24.881  1.00  0.00     0.022 A 
BRANCH  40  44
ATOM     44  S   UNL A   1      50.826  25.342  27.254  1.00  0.00     0.124 S 
ATOM     45  O   UNL A   1      51.769  24.833  26.257  1.00  0.00    -0.237 OA
ATOM     46  O   UNL A   1      51.240  26.537  27.972  1.00  0.00    -0.237 OA
ATOM     47  O   UNL A   1      50.181  24.311  28.071  1.00  0.00    -0.744 OA
ENDBRANCH  40  44
ENDBRANCH  23  37
BRANCH  24  48
ATOM     48  C   UNL A   1      38.705  29.491  30.711  1.00  0.00     0.023 A 
ATOM     49  C   UNL A   1      37.728  30.325  30.137  1.00  0.00     0.031 A 
ATOM     50  C   UNL A   1      38.539  29.123  32.058  1.00  0.00     0.131 A 
ATOM     51  C   UNL A   1      36.674  30.820  30.924  1.00  0.00     0.055 A 
ATOM     52  C   UNL A   1      37.460  29.576  32.822  1.00  0.00     0.041 A 
ATOM     53  F   UNL A   1      39.438  28.331  32.662  1.00  0.00    -0.206 F 
ATOM     54  C   UNL A   1      36.530  30.446  32.262  1.00  0.00     0.022 A 
BRANCH  51  55
ATOM     55  S   UNL A   1      35.559  32.064  30.210  1.00  0.00     0.124 S 
ATOM     56  O   UNL A   1      36.470  33.175  29.963  1.00  0.00    -0.237 OA
ATOM     57  O   UNL A   1      35.054  31.372  29.029  1.00  0.00    -0.237 OA
ATOM     58  O   UNL A   1      34.575  32.287  31.267  1.00  0.00    -0.744 OA
ENDBRANCH  51  55
ENDBRANCH  24  48
BRANCH  36  59
ATOM     59  C   UNL A   1      44.566  32.924  29.146  1.00  0.00     0.023 A 
ATOM     60  C   UNL A   1      44.415  33.881  28.130  1.00  0.00     0.031 A 
ATOM     61  C   UNL A   1      45.102  33.340  30.380  1.00  0.00     0.131 A 
ATOM     62  C   UNL A   1      44.838  35.200  28.350  1.00  0.00     0.055 A 
ATOM     63  C   UNL A   1      45.466  34.666  30.611  1.00  0.00     0.041 A 
ATOM     64  F   UNL A   1      45.267  32.462  31.383  1.00  0.00    -0.206 F 
ATOM     65  C   UNL A   1      45.344  35.602  29.589  1.00  0.00     0.022 A 
BRANCH  62  66
ATOM     66  S   UNL A   1      44.781  36.373  26.968  1.00  0.00     0.124 S 
ATOM     67  O   UNL A   1      43.357  36.392  26.647  1.00  0.00    -0.237 OA
ATOM     68  O   UNL A   1      45.314  37.592  27.569  1.00  0.00    -0.237 OA
ATOM     69  O   UNL A   1      45.637  35.755  25.958  1.00  0.00    -0.744 OA
ENDBRANCH  62  66
ENDBRANCH  36  59
ENDBRANCH  10  11
ENDBRANCH   3   5
ENDBRANCH   2   3
ENDBRANCH   1   2
BRANCH   1  70
ATOM     70  C   UNL A   1      36.598  20.493  25.175  1.00  0.00     0.274 C 
BRANCH  70  71
ATOM     71  O   UNL A   1      36.478  21.873  25.561  1.00  0.00    -0.457 OA
BRANCH  71  72
ATOM     72  C   UNL A   1      35.999  22.748  24.616  1.00  0.00     0.369 C 
ATOM     73  O   UNL A   1      36.709  23.308  23.784  1.00  0.00    -0.245 OA
BRANCH  72  74
ATOM     74  C   UNL A   1      34.464  23.027  24.764  1.00  0.00     0.324 C 
BRANCH  74  75
ATOM     75  N   UNL A   1      34.017  22.449  26.048  1.00  0.00    -0.330 N 
ATOM     76  H   UNL A   1      34.164  23.162  26.763  1.00  0.00     0.347 HD
ATOM     77  H   UNL A   1      34.567  21.595  26.137  1.00  0.00     0.347 HD
BRANCH  75  78
ATOM     78  C   UNL A   1      32.640  21.994  26.175  1.00  0.00     0.264 C 
BRANCH  78  79
ATOM     79  C   UNL A   1      31.766  23.007  26.844  1.00  0.00     0.044 C 
ATOM     80  C   UNL A   1      30.855  23.896  26.031  1.00  0.00     0.010 C 
ATOM     81  C   UNL A   1      30.273  22.789  26.865  1.00  0.00     0.010 C 
ENDBRANCH  78  79
ENDBRANCH  75  78
ENDBRANCH  74  75
BRANCH  74  82
ATOM     82  C   UNL A   1      34.110  24.501  24.538  1.00  0.00     0.021 A 
ATOM     83  C   UNL A   1      33.839  24.982  23.248  1.00  0.00     0.010 A 
ATOM     84  C   UNL A   1      34.127  25.451  25.576  1.00  0.00     0.014 A 
ATOM     85  C   UNL A   1      33.502  26.314  23.022  1.00  0.00     0.001 A 
ATOM     86  C   UNL A   1      33.894  26.826  25.368  1.00  0.00    -0.044 A 
ATOM     87  C   UNL A   1      33.534  27.224  24.074  1.00  0.00     0.004 A 
BRANCH  86  88
ATOM     88  C   UNL A   1      34.101  27.873  26.443  1.00  0.00     0.019 C 
ATOM     89  C   UNL A   1      33.652  29.310  26.349  1.00  0.00     0.009 C 
ATOM     90  C   UNL A   1      32.854  28.343  27.170  1.00  0.00     0.009 C 
ENDBRANCH  86  88
ENDBRANCH  74  82
ENDBRANCH  72  74
ENDBRANCH  71  72
ENDBRANCH  70  71
ENDBRANCH   1  70
TORSDOF 19
ENDMDL
MODEL 3
REMARK VINA RESULT:     -10.6      2.157      3.806
REMARK SMILES O=C(OCCOC(=O)[C@@H]([NH2+]CC1CC1)c1cccc(C2CC2)c1)c1ccc(-c2c3nc(c(-c4cc(S(=O)(=O)[O-])ccc4F)c4ccc([nH]4)c(-c4cc(S(=O)(=O)[O-])ccc4F)c4nc(c(-c5cc(S(=O)(=O)[O-])ccc5F)c5ccc2[nH]5)C=C4)C=C3)cc1
REMARK SMILES IDX 4 1 3 2 2 3 1 4 24 5 25 6 86 7 26 8 85 9 27 10 28 11 29 12
REMARK SMILES IDX 79 13 30 14 84 15 78 16 80 17 31 18 83 19 77 20 76 21 32 23
REMARK SMILES IDX 64 24 44 25 63 26 45 27 48 28 62 29 81 30 46 31 47 32 61 34
REMARK SMILES IDX 82 35 49 36 33 37 34 38 42 39 35 40 41 41 43 42 40 43 36 44
REMARK SMILES IDX 37 45 38 46 39 47 65 48 66 49 74 50 67 51 73 52 75 53 72 54
REMARK SMILES IDX 68 55 69 56 70 57 71 58 50 59 51 60 59 61 52 62 58 63 60 64
REMARK SMILES IDX 57 65 53 66 54 67 55 68 56 69 5 70 6 71 7 72 8 73 9 74 10 75
REMARK SMILES IDX 11 78 12 79 13 80 14 81 15 82 16 83 23 84 17 85 19 86 18 87
REMARK SMILES IDX 20 88 21 89 22 90
REMARK H PARENT 80 22 48 33 10 76 10 77
REMARK Flexibility Score: inf
ROOT
ATOM      1  C   UNL A   1      37.868  20.612  25.414  1.00  0.00     0.275 C 
ENDROOT
BRANCH   1   2
ATOM      2  O   UNL A   1      39.296  20.668  25.499  1.00  0.00    -0.458 OA
BRANCH   2   3
ATOM      3  C   UNL A   1      40.094  20.859  26.575  1.00  0.00     0.338 C 
ATOM      4  O   UNL A   1      40.493  19.853  27.164  1.00  0.00    -0.246 OA
BRANCH   3   5
ATOM      5  C   UNL A   1      40.447  22.196  27.164  1.00  0.00     0.060 A 
ATOM      6  C   UNL A   1      41.323  22.457  28.224  1.00  0.00     0.016 A 
ATOM      7  C   UNL A   1      39.868  23.306  26.525  1.00  0.00     0.016 A 
ATOM      8  C   UNL A   1      41.725  23.763  28.540  1.00  0.00     0.010 A 
ATOM      9  C   UNL A   1      40.275  24.607  26.832  1.00  0.00     0.010 A 
ATOM     10  C   UNL A   1      41.245  24.848  27.813  1.00  0.00    -0.014 A 
BRANCH  10  11
ATOM     11  C   UNL A   1      41.673  26.237  28.128  1.00  0.00     0.031 A 
ATOM     12  C   UNL A   1      43.066  26.650  27.752  1.00  0.00     0.074 A 
ATOM     13  C   UNL A   1      40.854  27.105  28.758  1.00  0.00     0.049 A 
ATOM     14  N   UNL A   1      43.702  27.765  27.999  1.00  0.00    -0.248 NA
ATOM     15  C   UNL A   1      43.865  25.646  27.031  1.00  0.00     0.031 C 
ATOM     16  C   UNL A   1      39.483  26.824  29.193  1.00  0.00     0.029 A 
ATOM     17  N   UNL A   1      41.058  28.406  29.157  1.00  0.00    -0.354 N 
ATOM     18  C   UNL A   1      44.972  27.590  27.463  1.00  0.00     0.074 A 
ATOM     19  C   UNL A   1      45.052  26.225  26.995  1.00  0.00     0.031 C 
ATOM     20  C   UNL A   1      38.974  27.917  29.791  1.00  0.00     0.029 A 
ATOM     21  C   UNL A   1      39.984  28.968  29.814  1.00  0.00     0.049 A 
ATOM     22  H   UNL A   1      41.896  28.894  28.986  1.00  0.00     0.167 HD
ATOM     23  C   UNL A   1      45.963  28.500  27.309  1.00  0.00     0.034 A 
ATOM     24  C   UNL A   1      39.842  30.187  30.378  1.00  0.00     0.034 A 
ATOM     25  C   UNL A   1      45.864  29.862  27.754  1.00  0.00     0.049 A 
ATOM     26  C   UNL A   1      40.990  31.166  30.270  1.00  0.00     0.074 A 
ATOM     27  C   UNL A   1      46.789  30.882  27.636  1.00  0.00     0.029 A 
ATOM     28  N   UNL A   1      44.761  30.395  28.410  1.00  0.00    -0.354 N 
ATOM     29  N   UNL A   1      42.166  31.004  29.705  1.00  0.00    -0.248 NA
ATOM     30  C   UNL A   1      40.785  32.501  30.849  1.00  0.00     0.031 C 
ATOM     31  C   UNL A   1      46.262  32.020  28.257  1.00  0.00     0.029 A 
ATOM     32  C   UNL A   1      44.985  31.726  28.712  1.00  0.00     0.049 A 
ATOM     33  H   UNL A   1      43.938  29.898  28.627  1.00  0.00     0.167 HD
ATOM     34  C   UNL A   1      42.812  32.233  29.811  1.00  0.00     0.074 A 
ATOM     35  C   UNL A   1      41.900  33.124  30.496  1.00  0.00     0.031 C 
ATOM     36  C   UNL A   1      44.044  32.599  29.372  1.00  0.00     0.034 A 
BRANCH  23  37
ATOM     37  C   UNL A   1      47.214  28.013  26.624  1.00  0.00     0.023 A 
ATOM     38  C   UNL A   1      47.395  28.197  25.240  1.00  0.00     0.031 A 
ATOM     39  C   UNL A   1      48.165  27.252  27.321  1.00  0.00     0.131 A 
ATOM     40  C   UNL A   1      48.428  27.522  24.577  1.00  0.00     0.055 A 
ATOM     41  C   UNL A   1      49.250  26.664  26.668  1.00  0.00     0.041 A 
ATOM     42  F   UNL A   1      48.032  27.028  28.638  1.00  0.00    -0.206 F 
ATOM     43  C   UNL A   1      49.372  26.777  25.284  1.00  0.00     0.022 A 
BRANCH  40  44
ATOM     44  S   UNL A   1      48.398  27.480  22.763  1.00  0.00     0.124 S 
ATOM     45  O   UNL A   1      47.158  28.201  22.475  1.00  0.00    -0.237 OA
ATOM     46  O   UNL A   1      49.631  28.163  22.407  1.00  0.00    -0.237 OA
ATOM     47  O   UNL A   1      48.362  26.048  22.456  1.00  0.00    -0.744 OA
ENDBRANCH  40  44
ENDBRANCH  23  37
BRANCH  24  48
ATOM     48  C   UNL A   1      38.597  30.570  31.114  1.00  0.00     0.023 A 
ATOM     49  C   UNL A   1      37.655  31.448  30.548  1.00  0.00     0.031 A 
ATOM     50  C   UNL A   1      38.387  30.155  32.441  1.00  0.00     0.131 A 
ATOM     51  C   UNL A   1      36.591  31.937  31.326  1.00  0.00     0.055 A 
ATOM     52  C   UNL A   1      37.298  30.602  33.194  1.00  0.00     0.041 A 
ATOM     53  F   UNL A   1      39.252  29.319  33.037  1.00  0.00    -0.206 F 
ATOM     54  C   UNL A   1      36.402  31.514  32.643  1.00  0.00     0.022 A 
BRANCH  51  55
ATOM     55  S   UNL A   1      35.523  33.232  30.632  1.00  0.00     0.124 S 
ATOM     56  O   UNL A   1      35.867  34.380  31.462  1.00  0.00    -0.237 OA
ATOM     57  O   UNL A   1      35.973  33.283  29.245  1.00  0.00    -0.237 OA
ATOM     58  O   UNL A   1      34.174  32.702  30.828  1.00  0.00    -0.744 OA
ENDBRANCH  51  55
ENDBRANCH  24  48
BRANCH  36  59
ATOM     59  C   UNL A   1      44.432  34.045  29.541  1.00  0.00     0.023 A 
ATOM     60  C   UNL A   1      44.019  35.036  28.638  1.00  0.00     0.031 A 
ATOM     61  C   UNL A   1      45.220  34.432  30.641  1.00  0.00     0.131 A 
ATOM     62  C   UNL A   1      44.433  36.363  28.825  1.00  0.00     0.055 A 
ATOM     63  C   UNL A   1      45.580  35.762  30.854  1.00  0.00     0.041 A 
ATOM     64  F   UNL A   1      45.642  33.520  31.534  1.00  0.00    -0.206 F 
ATOM     65  C   UNL A   1      45.195  36.735  29.936  1.00  0.00     0.022 A 
BRANCH  62  66
ATOM     66  S   UNL A   1      44.020  37.590  27.556  1.00  0.00     0.124 S 
ATOM     67  O   UNL A   1      43.460  38.675  28.355  1.00  0.00    -0.237 OA
ATOM     68  O   UNL A   1      45.317  37.856  26.942  1.00  0.00    -0.237 OA
ATOM     69  O   UNL A   1      43.063  36.890  26.701  1.00  0.00    -0.744 OA
ENDBRANCH  62  66
ENDBRANCH  36  59
ENDBRANCH  10  11
ENDBRANCH   3   5
ENDBRANCH   2   3
ENDBRANCH   1   2
BRANCH   1  70
ATOM     70  C   UNL A   1      37.247  21.753  24.606  1.00  0.00     0.274 C 
BRANCH  70  71
ATOM     71  O   UNL A   1      36.138  22.394  25.258  1.00  0.00    -0.457 OA
BRANCH  71  72
ATOM     72  C   UNL A   1      34.907  22.277  24.660  1.00  0.00     0.369 C 
ATOM     73  O   UNL A   1      34.552  22.945  23.692  1.00  0.00    -0.245 OA
BRANCH  72  74
ATOM     74  C   UNL A   1      33.966  21.261  25.396  1.00  0.00     0.324 C 
BRANCH  74  75
ATOM     75  N   UNL A   1      32.842  22.021  25.980  1.00  0.00    -0.330 N 
ATOM     76  H   UNL A   1      32.345  21.386  26.605  1.00  0.00     0.347 HD
ATOM     77  H   UNL A   1      32.326  22.357  25.167  1.00  0.00     0.347 HD
BRANCH  75  78
ATOM     78  C   UNL A   1      33.127  23.231  26.738  1.00  0.00     0.264 C 
BRANCH  78  79
ATOM     79  C   UNL A   1      32.005  24.217  26.680  1.00  0.00     0.044 C 
ATOM     80  C   UNL A   1      31.964  25.277  25.606  1.00  0.00     0.010 C 
ATOM     81  C   UNL A   1      31.002  24.122  25.556  1.00  0.00     0.010 C 
ENDBRANCH  78  79
ENDBRANCH  75  78
ENDBRANCH  74  75
BRANCH  74  82
ATOM     82  C   UNL A   1      33.578  20.072  24.509  1.00  0.00     0.021 A 
ATOM     83  C   UNL A   1      32.497  20.166  23.620  1.00  0.00     0.010 A 
ATOM     84  C   UNL A   1      34.213  18.820  24.602  1.00  0.00     0.014 A 
ATOM     85  C   UNL A   1      32.137  19.103  22.796  1.00  0.00     0.001 A 
ATOM     86  C   UNL A   1      33.808  17.691  23.860  1.00  0.00    -0.044 A 
ATOM     87  C   UNL A   1      32.786  17.880  22.920  1.00  0.00     0.004 A 
BRANCH  86  88
ATOM     88  C   UNL A   1      34.361  16.302  24.098  1.00  0.00     0.019 C 
ATOM     89  C   UNL A   1      35.208  15.898  25.280  1.00  0.00     0.009 C 
ATOM     90  C   UNL A   1      33.755  15.528  25.255  1.00  0.00     0.009 C 
ENDBRANCH  86  88
ENDBRANCH  74  82
ENDBRANCH  72  74
ENDBRANCH  71  72
ENDBRANCH  70  71
ENDBRANCH   1  70
TORSDOF 19
ENDMDL
