MODEL 1
REMARK VINA RESULT:     -12.3      0.000      0.000
REMARK SMILES O=C(OCCOC(=O)C1CCN(S(=O)(=O)c2ccc3nc(O)sc3c2)CC1)c1ccc(-c2c3nc(c(-c4cc(S(=O)(=O)[O-])ccc4F)c4ccc([nH]4)c(-c4cc(S(=O)(=O)[O-])ccc4F)c4nc(c(-c5cc(S(=O)(=O)[O-])ccc5F)c5ccc2[nH]5)C=C4)C=C3)cc1
REMARK SMILES IDX 4 1 3 2 2 3 1 4 28 5 29 6 90 7 30 8 89 9 31 10 32 11 33 12
REMARK SMILES IDX 83 13 34 14 88 15 82 16 84 17 35 18 87 19 81 20 80 21 36 23
REMARK SMILES IDX 68 24 48 25 67 26 49 27 52 28 66 29 85 30 50 31 51 32 65 34
REMARK SMILES IDX 86 35 53 36 37 37 38 38 46 39 39 40 45 41 47 42 44 43 40 44
REMARK SMILES IDX 41 45 42 46 43 47 69 48 70 49 78 50 71 51 77 52 79 53 76 54
REMARK SMILES IDX 72 55 73 56 74 57 75 58 54 59 55 60 63 61 56 62 62 63 64 64
REMARK SMILES IDX 61 65 57 66 58 67 59 68 60 69 5 70 6 71 7 72 8 73 9 74 10 75
REMARK SMILES IDX 27 76 11 77 26 78 12 79 13 80 14 81 15 82 16 83 17 84 25 85
REMARK SMILES IDX 18 86 24 87 19 88 23 89 20 90 21 91 22 92
REMARK H PARENT 84 22 52 33 22 93
REMARK Flexibility Score: inf
ROOT
ATOM      1  C   UNL A   1      33.665  29.821  27.045  1.00  0.00     0.275 C 
ENDROOT
BRANCH   1   2
ATOM      2  O   UNL A   1      33.839  30.917  27.969  1.00  0.00    -0.458 OA
BRANCH   2   3
ATOM      3  C   UNL A   1      35.076  31.477  27.977  1.00  0.00     0.338 C 
ATOM      4  O   UNL A   1      35.423  32.455  27.331  1.00  0.00    -0.246 OA
BRANCH   3   5
ATOM      5  C   UNL A   1      36.049  30.559  28.641  1.00  0.00     0.060 A 
ATOM      6  C   UNL A   1      35.892  30.274  30.010  1.00  0.00     0.016 A 
ATOM      7  C   UNL A   1      37.298  30.373  28.038  1.00  0.00     0.016 A 
ATOM      8  C   UNL A   1      37.014  29.930  30.785  1.00  0.00     0.010 A 
ATOM      9  C   UNL A   1      38.418  30.128  28.825  1.00  0.00     0.010 A 
ATOM     10  C   UNL A   1      38.296  29.917  30.209  1.00  0.00    -0.014 A 
BRANCH  10  11
ATOM     11  C   UNL A   1      39.436  29.390  31.017  1.00  0.00     0.031 A 
ATOM     12  C   UNL A   1      39.667  27.994  30.481  1.00  0.00     0.074 A 
ATOM     13  C   UNL A   1      40.560  30.062  31.376  1.00  0.00     0.049 A 
ATOM     14  N   UNL A   1      40.335  27.743  29.392  1.00  0.00    -0.248 NA
ATOM     15  C   UNL A   1      38.720  26.942  30.860  1.00  0.00     0.031 C 
ATOM     16  C   UNL A   1      41.352  30.954  30.522  1.00  0.00     0.029 A 
ATOM     17  N   UNL A   1      41.378  29.841  32.482  1.00  0.00    -0.354 N 
ATOM     18  C   UNL A   1      39.809  26.574  28.867  1.00  0.00     0.074 A 
ATOM     19  C   UNL A   1      38.817  26.111  29.814  1.00  0.00     0.031 C 
ATOM     20  C   UNL A   1      42.594  31.061  31.042  1.00  0.00     0.029 A 
ATOM     21  C   UNL A   1      42.684  30.293  32.288  1.00  0.00     0.049 A 
ATOM     22  H   UNL A   1      41.067  29.411  33.311  1.00  0.00     0.167 HD
ATOM     23  C   UNL A   1      40.164  26.059  27.661  1.00  0.00     0.034 A 
ATOM     24  C   UNL A   1      43.805  29.644  32.734  1.00  0.00     0.034 A 
ATOM     25  C   UNL A   1      41.207  26.750  26.961  1.00  0.00     0.049 A 
ATOM     26  C   UNL A   1      44.093  28.723  31.571  1.00  0.00     0.074 A 
ATOM     27  C   UNL A   1      41.367  27.508  25.822  1.00  0.00     0.029 A 
ATOM     28  N   UNL A   1      42.471  26.674  27.499  1.00  0.00    -0.354 N 
ATOM     29  N   UNL A   1      44.686  29.023  30.445  1.00  0.00    -0.248 NA
ATOM     30  C   UNL A   1      43.324  27.478  31.540  1.00  0.00     0.031 C 
ATOM     31  C   UNL A   1      42.615  28.193  25.984  1.00  0.00     0.029 A 
ATOM     32  C   UNL A   1      43.135  27.841  27.230  1.00  0.00     0.049 A 
ATOM     33  H   UNL A   1      42.836  25.907  27.998  1.00  0.00     0.167 HD
ATOM     34  C   UNL A   1      44.099  28.181  29.490  1.00  0.00     0.074 A 
ATOM     35  C   UNL A   1      43.316  27.225  30.242  1.00  0.00     0.031 C 
ATOM     36  C   UNL A   1      44.101  28.426  28.145  1.00  0.00     0.034 A 
BRANCH  23  37
ATOM     37  C   UNL A   1      39.729  24.711  27.236  1.00  0.00     0.023 A 
ATOM     38  C   UNL A   1      38.597  24.443  26.452  1.00  0.00     0.031 A 
ATOM     39  C   UNL A   1      40.563  23.644  27.616  1.00  0.00     0.131 A 
ATOM     40  C   UNL A   1      38.346  23.117  26.061  1.00  0.00     0.055 A 
ATOM     41  C   UNL A   1      40.317  22.338  27.213  1.00  0.00     0.041 A 
ATOM     42  F   UNL A   1      41.640  23.873  28.387  1.00  0.00    -0.206 F 
ATOM     43  C   UNL A   1      39.206  22.070  26.428  1.00  0.00     0.022 A 
BRANCH  40  44
ATOM     44  S   UNL A   1      36.901  22.669  25.056  1.00  0.00     0.124 S 
ATOM     45  O   UNL A   1      37.269  21.346  24.559  1.00  0.00    -0.237 OA
ATOM     46  O   UNL A   1      35.829  22.687  26.048  1.00  0.00    -0.237 OA
ATOM     47  O   UNL A   1      36.838  23.723  24.049  1.00  0.00    -0.744 OA
ENDBRANCH  40  44
ENDBRANCH  23  37
BRANCH  24  48
ATOM     48  C   UNL A   1      43.825  29.197  34.166  1.00  0.00     0.023 A 
ATOM     49  C   UNL A   1      43.301  27.988  34.649  1.00  0.00     0.031 A 
ATOM     50  C   UNL A   1      44.339  30.087  35.131  1.00  0.00     0.131 A 
ATOM     51  C   UNL A   1      43.100  27.798  36.026  1.00  0.00     0.055 A 
ATOM     52  C   UNL A   1      44.221  29.857  36.507  1.00  0.00     0.041 A 
ATOM     53  F   UNL A   1      44.958  31.215  34.746  1.00  0.00    -0.206 F 
ATOM     54  C   UNL A   1      43.555  28.726  36.961  1.00  0.00     0.022 A 
BRANCH  51  55
ATOM     55  S   UNL A   1      42.109  26.396  36.620  1.00  0.00     0.124 S 
ATOM     56  O   UNL A   1      41.767  25.705  35.380  1.00  0.00    -0.237 OA
ATOM     57  O   UNL A   1      43.072  25.715  37.481  1.00  0.00    -0.237 OA
ATOM     58  O   UNL A   1      40.995  27.037  37.310  1.00  0.00    -0.744 OA
ENDBRANCH  51  55
ENDBRANCH  24  48
BRANCH  36  59
ATOM     59  C   UNL A   1      45.027  29.496  27.655  1.00  0.00     0.023 A 
ATOM     60  C   UNL A   1      44.546  30.759  27.263  1.00  0.00     0.031 A 
ATOM     61  C   UNL A   1      46.383  29.205  27.444  1.00  0.00     0.131 A 
ATOM     62  C   UNL A   1      45.395  31.650  26.596  1.00  0.00     0.055 A 
ATOM     63  C   UNL A   1      47.241  30.124  26.838  1.00  0.00     0.041 A 
ATOM     64  F   UNL A   1      46.884  28.000  27.764  1.00  0.00    -0.206 F 
ATOM     65  C   UNL A   1      46.745  31.345  26.392  1.00  0.00     0.022 A 
BRANCH  62  66
ATOM     66  S   UNL A   1      44.754  33.190  25.885  1.00  0.00     0.124 S 
ATOM     67  O   UNL A   1      44.067  32.723  24.683  1.00  0.00    -0.237 OA
ATOM     68  O   UNL A   1      43.882  33.673  26.953  1.00  0.00    -0.237 OA
ATOM     69  O   UNL A   1      45.950  33.991  25.642  1.00  0.00    -0.744 OA
ENDBRANCH  62  66
ENDBRANCH  36  59
ENDBRANCH  10  11
ENDBRANCH   3   5
ENDBRANCH   2   3
ENDBRANCH   1   2
BRANCH   1  70
ATOM     70  C   UNL A   1      32.585  30.188  26.015  1.00  0.00     0.274 C 
BRANCH  70  71
ATOM     71  O   UNL A   1      32.836  29.538  24.752  1.00  0.00    -0.462 OA
BRANCH  71  72
ATOM     72  C   UNL A   1      31.808  29.048  24.012  1.00  0.00     0.309 C 
ATOM     73  O   UNL A   1      30.624  29.221  24.257  1.00  0.00    -0.252 OA
BRANCH  72  74
ATOM     74  C   UNL A   1      32.371  28.219  22.857  1.00  0.00     0.102 C 
ATOM     75  C   UNL A   1      31.419  27.147  22.384  1.00  0.00     0.032 C 
ATOM     76  C   UNL A   1      33.672  27.513  23.139  1.00  0.00     0.032 C 
ATOM     77  C   UNL A   1      31.172  25.991  23.316  1.00  0.00     0.103 C 
ATOM     78  C   UNL A   1      33.495  26.417  24.174  1.00  0.00     0.103 C 
ATOM     79  N   UNL A   1      32.414  25.425  23.878  1.00  0.00    -0.198 NA
BRANCH  79  80
ATOM     80  S   UNL A   1      32.018  24.364  25.191  1.00  0.00     0.243 S 
ATOM     81  O   UNL A   1      32.999  24.531  26.247  1.00  0.00    -0.207 OA
ATOM     82  O   UNL A   1      30.605  24.489  25.464  1.00  0.00    -0.207 OA
BRANCH  80  83
ATOM     83  C   UNL A   1      32.279  22.767  24.469  1.00  0.00     0.084 A 
ATOM     84  C   UNL A   1      32.190  22.636  23.085  1.00  0.00     0.024 A 
ATOM     85  C   UNL A   1      32.500  21.669  25.305  1.00  0.00     0.043 A 
ATOM     86  C   UNL A   1      32.139  21.371  22.509  1.00  0.00     0.031 A 
ATOM     87  C   UNL A   1      32.524  20.407  24.698  1.00  0.00     0.059 A 
ATOM     88  C   UNL A   1      32.313  20.237  23.324  1.00  0.00     0.085 A 
ATOM     89  S   UNL A   1      32.776  18.858  25.414  1.00  0.00    -0.077 S 
ATOM     90  N   UNL A   1      32.305  18.929  22.879  1.00  0.00    -0.203 NA
ATOM     91  C   UNL A   1      32.542  18.145  23.894  1.00  0.00     0.271 A 
BRANCH  91  92
ATOM     92  O   UNL A   1      32.598  16.846  23.683  1.00  0.00    -0.486 OA
ATOM     93  H   UNL A   1      32.476  16.250  24.395  1.00  0.00     0.296 HD
ENDBRANCH  91  92
ENDBRANCH  80  83
ENDBRANCH  79  80
ENDBRANCH  72  74
ENDBRANCH  71  72
ENDBRANCH  70  71
ENDBRANCH   1  70
TORSDOF 17
ENDMDL
MODEL 2
REMARK VINA RESULT:     -12.2      2.347      8.121
REMARK SMILES O=C(OCCOC(=O)C1CCN(S(=O)(=O)c2ccc3nc(O)sc3c2)CC1)c1ccc(-c2c3nc(c(-c4cc(S(=O)(=O)[O-])ccc4F)c4ccc([nH]4)c(-c4cc(S(=O)(=O)[O-])ccc4F)c4nc(c(-c5cc(S(=O)(=O)[O-])ccc5F)c5ccc2[nH]5)C=C4)C=C3)cc1
REMARK SMILES IDX 4 1 3 2 2 3 1 4 28 5 29 6 90 7 30 8 89 9 31 10 32 11 33 12
REMARK SMILES IDX 83 13 34 14 88 15 82 16 84 17 35 18 87 19 81 20 80 21 36 23
REMARK SMILES IDX 68 24 48 25 67 26 49 27 52 28 66 29 85 30 50 31 51 32 65 34
REMARK SMILES IDX 86 35 53 36 37 37 38 38 46 39 39 40 45 41 47 42 44 43 40 44
REMARK SMILES IDX 41 45 42 46 43 47 69 48 70 49 78 50 71 51 77 52 79 53 76 54
REMARK SMILES IDX 72 55 73 56 74 57 75 58 54 59 55 60 63 61 56 62 62 63 64 64
REMARK SMILES IDX 61 65 57 66 58 67 59 68 60 69 5 70 6 71 7 72 8 73 9 74 10 75
REMARK SMILES IDX 27 76 11 77 26 78 12 79 13 80 14 81 15 82 16 83 17 84 25 85
REMARK SMILES IDX 18 86 24 87 19 88 23 89 20 90 21 91 22 92
REMARK H PARENT 84 22 52 33 22 93
REMARK Flexibility Score: inf
ROOT
ATOM      1  C   UNL A   1      37.634  22.884  25.869  1.00  0.00     0.275 C 
ENDROOT
BRANCH   1   2
ATOM      2  O   UNL A   1      38.931  22.253  25.822  1.00  0.00    -0.458 OA
BRANCH   2   3
ATOM      3  C   UNL A   1      39.761  22.555  26.852  1.00  0.00     0.338 C 
ATOM      4  O   UNL A   1      40.036  21.820  27.789  1.00  0.00    -0.246 OA
BRANCH   3   5
ATOM      5  C   UNL A   1      40.055  24.018  26.860  1.00  0.00     0.060 A 
ATOM      6  C   UNL A   1      40.949  24.539  25.906  1.00  0.00     0.016 A 
ATOM      7  C   UNL A   1      39.809  24.736  28.037  1.00  0.00     0.016 A 
ATOM      8  C   UNL A   1      41.682  25.703  26.197  1.00  0.00     0.010 A 
ATOM      9  C   UNL A   1      40.605  25.829  28.360  1.00  0.00     0.010 A 
ATOM     10  C   UNL A   1      41.561  26.321  27.454  1.00  0.00    -0.014 A 
BRANCH  10  11
ATOM     11  C   UNL A   1      42.226  27.641  27.669  1.00  0.00     0.031 A 
ATOM     12  C   UNL A   1      41.092  28.643  27.657  1.00  0.00     0.074 A 
ATOM     13  C   UNL A   1      43.229  27.916  28.541  1.00  0.00     0.049 A 
ATOM     14  N   UNL A   1      40.326  28.873  28.685  1.00  0.00    -0.248 NA
ATOM     15  C   UNL A   1      40.488  28.990  26.369  1.00  0.00     0.031 C 
ATOM     16  C   UNL A   1      43.332  27.444  29.926  1.00  0.00     0.029 A 
ATOM     17  N   UNL A   1      44.196  28.914  28.453  1.00  0.00    -0.354 N 
ATOM     18  C   UNL A   1      39.097  29.265  28.180  1.00  0.00     0.074 A 
ATOM     19  C   UNL A   1      39.248  29.330  26.743  1.00  0.00     0.031 C 
ATOM     20  C   UNL A   1      44.171  28.261  30.601  1.00  0.00     0.029 A 
ATOM     21  C   UNL A   1      44.709  29.283  29.697  1.00  0.00     0.049 A 
ATOM     22  H   UNL A   1      44.486  29.318  27.603  1.00  0.00     0.167 HD
ATOM     23  C   UNL A   1      37.994  29.469  28.948  1.00  0.00     0.034 A 
ATOM     24  C   UNL A   1      45.023  30.566  30.059  1.00  0.00     0.034 A 
ATOM     25  C   UNL A   1      38.177  29.345  30.364  1.00  0.00     0.049 A 
ATOM     26  C   UNL A   1      43.701  31.048  30.610  1.00  0.00     0.074 A 
ATOM     27  C   UNL A   1      37.792  28.511  31.390  1.00  0.00     0.029 A 
ATOM     28  N   UNL A   1      38.933  30.315  30.980  1.00  0.00    -0.354 N 
ATOM     29  N   UNL A   1      43.198  30.813  31.793  1.00  0.00    -0.248 NA
ATOM     30  C   UNL A   1      42.730  31.512  29.618  1.00  0.00     0.031 C 
ATOM     31  C   UNL A   1      38.691  28.785  32.472  1.00  0.00     0.029 A 
ATOM     32  C   UNL A   1      39.599  29.751  32.035  1.00  0.00     0.049 A 
ATOM     33  H   UNL A   1      38.987  31.260  30.705  1.00  0.00     0.167 HD
ATOM     34  C   UNL A   1      41.810  30.789  31.600  1.00  0.00     0.074 A 
ATOM     35  C   UNL A   1      41.595  31.280  30.257  1.00  0.00     0.031 C 
ATOM     36  C   UNL A   1      40.926  30.176  32.446  1.00  0.00     0.034 A 
BRANCH  23  37
ATOM     37  C   UNL A   1      36.767  30.081  28.392  1.00  0.00     0.023 A 
ATOM     38  C   UNL A   1      35.686  29.365  27.856  1.00  0.00     0.031 A 
ATOM     39  C   UNL A   1      36.684  31.482  28.471  1.00  0.00     0.131 A 
ATOM     40  C   UNL A   1      34.550  30.076  27.431  1.00  0.00     0.055 A 
ATOM     41  C   UNL A   1      35.553  32.177  28.064  1.00  0.00     0.041 A 
ATOM     42  F   UNL A   1      37.716  32.192  28.959  1.00  0.00    -0.206 F 
ATOM     43  C   UNL A   1      34.477  31.473  27.545  1.00  0.00     0.022 A 
BRANCH  40  44
ATOM     44  S   UNL A   1      33.107  29.239  26.715  1.00  0.00     0.124 S 
ATOM     45  O   UNL A   1      33.543  28.991  25.343  1.00  0.00    -0.237 OA
ATOM     46  O   UNL A   1      32.999  28.052  27.559  1.00  0.00    -0.237 OA
ATOM     47  O   UNL A   1      32.030  30.213  26.865  1.00  0.00    -0.744 OA
ENDBRANCH  40  44
ENDBRANCH  23  37
BRANCH  24  48
ATOM     48  C   UNL A   1      45.864  31.370  29.110  1.00  0.00     0.023 A 
ATOM     49  C   UNL A   1      45.382  32.335  28.213  1.00  0.00     0.031 A 
ATOM     50  C   UNL A   1      47.243  31.087  29.046  1.00  0.00     0.131 A 
ATOM     51  C   UNL A   1      46.196  32.808  27.170  1.00  0.00     0.055 A 
ATOM     52  C   UNL A   1      48.078  31.629  28.062  1.00  0.00     0.041 A 
ATOM     53  F   UNL A   1      47.805  30.259  29.942  1.00  0.00    -0.206 F 
ATOM     54  C   UNL A   1      47.544  32.461  27.087  1.00  0.00     0.022 A 
BRANCH  51  55
ATOM     55  S   UNL A   1      45.474  33.779  25.816  1.00  0.00     0.124 S 
ATOM     56  O   UNL A   1      44.749  32.767  25.054  1.00  0.00    -0.237 OA
ATOM     57  O   UNL A   1      44.648  34.727  26.558  1.00  0.00    -0.237 OA
ATOM     58  O   UNL A   1      46.640  34.350  25.150  1.00  0.00    -0.744 OA
ENDBRANCH  51  55
ENDBRANCH  24  48
BRANCH  36  59
ATOM     59  C   UNL A   1      41.450  29.768  33.787  1.00  0.00     0.023 A 
ATOM     60  C   UNL A   1      41.679  28.416  34.105  1.00  0.00     0.031 A 
ATOM     61  C   UNL A   1      41.586  30.723  34.806  1.00  0.00     0.131 A 
ATOM     62  C   UNL A   1      41.943  28.048  35.429  1.00  0.00     0.055 A 
ATOM     63  C   UNL A   1      41.915  30.357  36.112  1.00  0.00     0.041 A 
ATOM     64  F   UNL A   1      41.340  32.022  34.566  1.00  0.00    -0.206 F 
ATOM     65  C   UNL A   1      42.075  29.012  36.434  1.00  0.00     0.022 A 
BRANCH  62  66
ATOM     66  S   UNL A   1      42.027  26.302  35.910  1.00  0.00     0.124 S 
ATOM     67  O   UNL A   1      43.169  25.814  35.140  1.00  0.00    -0.237 OA
ATOM     68  O   UNL A   1      42.243  26.398  37.352  1.00  0.00    -0.237 OA
ATOM     69  O   UNL A   1      40.732  25.762  35.506  1.00  0.00    -0.744 OA
ENDBRANCH  62  66
ENDBRANCH  36  59
ENDBRANCH  10  11
ENDBRANCH   3   5
ENDBRANCH   2   3
ENDBRANCH   1   2
BRANCH   1  70
ATOM     70  C   UNL A   1      36.603  21.990  25.163  1.00  0.00     0.274 C 
BRANCH  70  71
ATOM     71  O   UNL A   1      35.484  21.710  26.029  1.00  0.00    -0.462 OA
BRANCH  71  72
ATOM     72  C   UNL A   1      34.376  21.090  25.546  1.00  0.00     0.309 C 
ATOM     73  O   UNL A   1      34.368  20.288  24.625  1.00  0.00    -0.252 OA
BRANCH  72  74
ATOM     74  C   UNL A   1      33.149  21.587  26.311  1.00  0.00     0.102 C 
ATOM     75  C   UNL A   1      31.916  21.688  25.445  1.00  0.00     0.032 C 
ATOM     76  C   UNL A   1      33.295  22.934  26.968  1.00  0.00     0.032 C 
ATOM     77  C   UNL A   1      31.906  22.765  24.393  1.00  0.00     0.103 C 
ATOM     78  C   UNL A   1      33.418  24.044  25.940  1.00  0.00     0.103 C 
ATOM     79  N   UNL A   1      32.335  24.080  24.906  1.00  0.00    -0.198 NA
BRANCH  79  80
ATOM     80  S   UNL A   1      32.636  25.146  23.573  1.00  0.00     0.243 S 
ATOM     81  O   UNL A   1      33.792  25.969  23.875  1.00  0.00    -0.207 OA
ATOM     82  O   UNL A   1      32.573  24.375  22.352  1.00  0.00    -0.207 OA
BRANCH  80  83
ATOM     83  C   UNL A   1      31.210  26.197  23.609  1.00  0.00     0.084 A 
ATOM     84  C   UNL A   1      30.066  25.749  24.264  1.00  0.00     0.024 A 
ATOM     85  C   UNL A   1      31.243  27.416  22.924  1.00  0.00     0.043 A 
ATOM     86  C   UNL A   1      28.862  26.426  24.101  1.00  0.00     0.031 A 
ATOM     87  C   UNL A   1      30.038  28.124  22.836  1.00  0.00     0.059 A 
ATOM     88  C   UNL A   1      28.844  27.635  23.381  1.00  0.00     0.085 A 
ATOM     89  S   UNL A   1      29.720  29.642  22.083  1.00  0.00    -0.077 S 
ATOM     90  N   UNL A   1      27.725  28.415  23.162  1.00  0.00    -0.203 NA
ATOM     91  C   UNL A   1      28.086  29.479  22.501  1.00  0.00     0.271 A 
BRANCH  91  92
ATOM     92  O   UNL A   1      27.165  30.373  22.203  1.00  0.00    -0.486 OA
ATOM     93  H   UNL A   1      27.298  31.274  22.423  1.00  0.00     0.296 HD
ENDBRANCH  91  92
ENDBRANCH  80  83
ENDBRANCH  79  80
ENDBRANCH  72  74
ENDBRANCH  71  72
ENDBRANCH  70  71
ENDBRANCH   1  70
TORSDOF 17
ENDMDL
MODEL 3
REMARK VINA RESULT:     -12.1      1.573      2.021
REMARK SMILES O=C(OCCOC(=O)C1CCN(S(=O)(=O)c2ccc3nc(O)sc3c2)CC1)c1ccc(-c2c3nc(c(-c4cc(S(=O)(=O)[O-])ccc4F)c4ccc([nH]4)c(-c4cc(S(=O)(=O)[O-])ccc4F)c4nc(c(-c5cc(S(=O)(=O)[O-])ccc5F)c5ccc2[nH]5)C=C4)C=C3)cc1
REMARK SMILES IDX 4 1 3 2 2 3 1 4 28 5 29 6 90 7 30 8 89 9 31 10 32 11 33 12
REMARK SMILES IDX 83 13 34 14 88 15 82 16 84 17 35 18 87 19 81 20 80 21 36 23
REMARK SMILES IDX 68 24 48 25 67 26 49 27 52 28 66 29 85 30 50 31 51 32 65 34
REMARK SMILES IDX 86 35 53 36 37 37 38 38 46 39 39 40 45 41 47 42 44 43 40 44
REMARK SMILES IDX 41 45 42 46 43 47 69 48 70 49 78 50 71 51 77 52 79 53 76 54
REMARK SMILES IDX 72 55 73 56 74 57 75 58 54 59 55 60 63 61 56 62 62 63 64 64
REMARK SMILES IDX 61 65 57 66 58 67 59 68 60 69 5 70 6 71 7 72 8 73 9 74 10 75
REMARK SMILES IDX 27 76 11 77 26 78 12 79 13 80 14 81 15 82 16 83 17 84 25 85
REMARK SMILES IDX 18 86 24 87 19 88 23 89 20 90 21 91 22 92
REMARK H PARENT 84 22 52 33 22 93
REMARK Flexibility Score: inf
ROOT
ATOM      1  C   UNL A   1      32.766  30.539  27.062  1.00  0.00     0.275 C 
ENDROOT
BRANCH   1   2
ATOM      2  O   UNL A   1      34.162  30.231  26.861  1.00  0.00    -0.458 OA
BRANCH   2   3
ATOM      3  C   UNL A   1      35.031  30.967  27.600  1.00  0.00     0.338 C 
ATOM      4  O   UNL A   1      35.183  32.178  27.531  1.00  0.00    -0.246 OA
BRANCH   3   5
ATOM      5  C   UNL A   1      36.003  30.068  28.291  1.00  0.00     0.060 A 
ATOM      6  C   UNL A   1      35.842  29.819  29.667  1.00  0.00     0.016 A 
ATOM      7  C   UNL A   1      37.255  29.867  27.697  1.00  0.00     0.016 A 
ATOM      8  C   UNL A   1      36.961  29.497  30.455  1.00  0.00     0.010 A 
ATOM      9  C   UNL A   1      38.372  29.645  28.495  1.00  0.00     0.010 A 
ATOM     10  C   UNL A   1      38.245  29.471  29.884  1.00  0.00    -0.014 A 
BRANCH  10  11
ATOM     11  C   UNL A   1      39.384  28.967  30.710  1.00  0.00     0.031 A 
ATOM     12  C   UNL A   1      39.673  27.589  30.155  1.00  0.00     0.074 A 
ATOM     13  C   UNL A   1      40.475  29.668  31.107  1.00  0.00     0.049 A 
ATOM     14  N   UNL A   1      40.375  27.381  29.078  1.00  0.00    -0.248 NA
ATOM     15  C   UNL A   1      38.753  26.500  30.492  1.00  0.00     0.031 C 
ATOM     16  C   UNL A   1      41.256  30.601  30.289  1.00  0.00     0.029 A 
ATOM     17  N   UNL A   1      41.274  29.454  32.228  1.00  0.00    -0.354 N 
ATOM     18  C   UNL A   1      39.900  26.204  28.520  1.00  0.00     0.074 A 
ATOM     19  C   UNL A   1      38.903  25.692  29.434  1.00  0.00     0.031 C 
ATOM     20  C   UNL A   1      42.482  30.740  30.840  1.00  0.00     0.029 A 
ATOM     21  C   UNL A   1      42.568  29.953  32.074  1.00  0.00     0.049 A 
ATOM     22  H   UNL A   1      40.959  28.999  33.042  1.00  0.00     0.167 HD
ATOM     23  C   UNL A   1      40.300  25.724  27.313  1.00  0.00     0.034 A 
ATOM     24  C   UNL A   1      43.700  29.333  32.535  1.00  0.00     0.034 A 
ATOM     25  C   UNL A   1      41.336  26.462  26.651  1.00  0.00     0.049 A 
ATOM     26  C   UNL A   1      44.045  28.444  31.364  1.00  0.00     0.074 A 
ATOM     27  C   UNL A   1      41.497  27.245  25.530  1.00  0.00     0.029 A 
ATOM     28  N   UNL A   1      42.589  26.418  27.218  1.00  0.00    -0.354 N 
ATOM     29  N   UNL A   1      44.654  28.784  30.258  1.00  0.00    -0.248 NA
ATOM     30  C   UNL A   1      43.319  27.175  31.292  1.00  0.00     0.031 C 
ATOM     31  C   UNL A   1      42.717  27.969  25.733  1.00  0.00     0.029 A 
ATOM     32  C   UNL A   1      43.219  27.611  26.985  1.00  0.00     0.049 A 
ATOM     33  H   UNL A   1      42.968  25.654  27.712  1.00  0.00     0.167 HD
ATOM     34  C   UNL A   1      44.119  27.941  29.274  1.00  0.00     0.074 A 
ATOM     35  C   UNL A   1      43.351  26.946  29.989  1.00  0.00     0.031 C 
ATOM     36  C   UNL A   1      44.143  28.211  27.933  1.00  0.00     0.034 A 
BRANCH  23  37
ATOM     37  C   UNL A   1      39.921  24.370  26.855  1.00  0.00     0.023 A 
ATOM     38  C   UNL A   1      40.775  23.257  26.845  1.00  0.00     0.031 A 
ATOM     39  C   UNL A   1      38.582  24.205  26.458  1.00  0.00     0.131 A 
ATOM     40  C   UNL A   1      40.256  22.012  26.452  1.00  0.00     0.055 A 
ATOM     41  C   UNL A   1      38.072  22.968  26.086  1.00  0.00     0.041 A 
ATOM     42  F   UNL A   1      37.750  25.261  26.437  1.00  0.00    -0.206 F 
ATOM     43  C   UNL A   1      38.909  21.863  26.086  1.00  0.00     0.022 A 
BRANCH  40  44
ATOM     44  S   UNL A   1      41.286  20.518  26.396  1.00  0.00     0.124 S 
ATOM     45  O   UNL A   1      41.516  20.248  27.814  1.00  0.00    -0.237 OA
ATOM     46  O   UNL A   1      40.404  19.571  25.717  1.00  0.00    -0.237 OA
ATOM     47  O   UNL A   1      42.461  20.932  25.637  1.00  0.00    -0.744 OA
ENDBRANCH  40  44
ENDBRANCH  23  37
BRANCH  24  48
ATOM     48  C   UNL A   1      43.701  28.860  33.959  1.00  0.00     0.023 A 
ATOM     49  C   UNL A   1      43.176  27.640  34.413  1.00  0.00     0.031 A 
ATOM     50  C   UNL A   1      44.196  29.736  34.947  1.00  0.00     0.131 A 
ATOM     51  C   UNL A   1      42.956  27.425  35.783  1.00  0.00     0.055 A 
ATOM     52  C   UNL A   1      44.059  29.481  36.317  1.00  0.00     0.041 A 
ATOM     53  F   UNL A   1      44.815  30.874  34.592  1.00  0.00    -0.206 F 
ATOM     54  C   UNL A   1      43.393  28.338  36.741  1.00  0.00     0.022 A 
BRANCH  51  55
ATOM     55  S   UNL A   1      41.965  26.007  36.337  1.00  0.00     0.124 S 
ATOM     56  O   UNL A   1      40.797  26.079  35.464  1.00  0.00    -0.237 OA
ATOM     57  O   UNL A   1      42.883  24.902  36.077  1.00  0.00    -0.237 OA
ATOM     58  O   UNL A   1      41.716  26.298  37.745  1.00  0.00    -0.744 OA
ENDBRANCH  51  55
ENDBRANCH  24  48
BRANCH  36  59
ATOM     59  C   UNL A   1      45.044  29.319  27.486  1.00  0.00     0.023 A 
ATOM     60  C   UNL A   1      44.552  30.617  27.256  1.00  0.00     0.031 A 
ATOM     61  C   UNL A   1      46.378  29.044  27.148  1.00  0.00     0.131 A 
ATOM     62  C   UNL A   1      45.361  31.566  26.620  1.00  0.00     0.055 A 
ATOM     63  C   UNL A   1      47.202  30.014  26.574  1.00  0.00     0.041 A 
ATOM     64  F   UNL A   1      46.886  27.811  27.310  1.00  0.00    -0.206 F 
ATOM     65  C   UNL A   1      46.689  31.276  26.288  1.00  0.00     0.022 A 
BRANCH  62  66
ATOM     66  S   UNL A   1      44.689  33.172  26.113  1.00  0.00     0.124 S 
ATOM     67  O   UNL A   1      45.891  33.919  25.751  1.00  0.00    -0.237 OA
ATOM     68  O   UNL A   1      43.828  32.797  24.994  1.00  0.00    -0.237 OA
ATOM     69  O   UNL A   1      43.995  33.656  27.303  1.00  0.00    -0.744 OA
ENDBRANCH  62  66
ENDBRANCH  36  59
ENDBRANCH  10  11
ENDBRANCH   3   5
ENDBRANCH   2   3
ENDBRANCH   1   2
BRANCH   1  70
ATOM     70  C   UNL A   1      31.996  30.302  25.754  1.00  0.00     0.274 C 
BRANCH  70  71
ATOM     71  O   UNL A   1      31.450  28.968  25.711  1.00  0.00    -0.462 OA
BRANCH  71  72
ATOM     72  C   UNL A   1      32.084  27.984  25.022  1.00  0.00     0.309 C 
ATOM     73  O   UNL A   1      32.072  27.860  23.807  1.00  0.00    -0.252 OA
BRANCH  72  74
ATOM     74  C   UNL A   1      32.775  27.043  26.011  1.00  0.00     0.102 C 
ATOM     75  C   UNL A   1      33.941  26.303  25.402  1.00  0.00     0.032 C 
ATOM     76  C   UNL A   1      31.895  25.985  26.623  1.00  0.00     0.032 C 
ATOM     77  C   UNL A   1      33.621  25.255  24.369  1.00  0.00     0.103 C 
ATOM     78  C   UNL A   1      31.441  24.973  25.586  1.00  0.00     0.103 C 
ATOM     79  N   UNL A   1      32.538  24.344  24.784  1.00  0.00    -0.198 NA
BRANCH  79  80
ATOM     80  S   UNL A   1      32.004  23.425  23.414  1.00  0.00     0.243 S 
ATOM     81  O   UNL A   1      30.572  23.599  23.256  1.00  0.00    -0.207 OA
ATOM     82  O   UNL A   1      32.909  23.681  22.317  1.00  0.00    -0.207 OA
BRANCH  80  83
ATOM     83  C   UNL A   1      32.282  21.760  23.953  1.00  0.00     0.084 A 
ATOM     84  C   UNL A   1      32.680  21.541  25.269  1.00  0.00     0.024 A 
ATOM     85  C   UNL A   1      32.162  20.716  23.031  1.00  0.00     0.043 A 
ATOM     86  C   UNL A   1      33.145  20.288  25.655  1.00  0.00     0.031 A 
ATOM     87  C   UNL A   1      32.562  19.444  23.460  1.00  0.00     0.059 A 
ATOM     88  C   UNL A   1      33.083  19.220  24.741  1.00  0.00     0.085 A 
ATOM     89  S   UNL A   1      32.545  17.949  22.601  1.00  0.00    -0.077 S 
ATOM     90  N   UNL A   1      33.491  17.926  25.000  1.00  0.00    -0.203 NA
ATOM     91  C   UNL A   1      33.245  17.196  23.949  1.00  0.00     0.271 A 
BRANCH  91  92
ATOM     92  O   UNL A   1      33.543  15.913  23.992  1.00  0.00    -0.486 OA
ATOM     93  H   UNL A   1      34.313  15.626  24.442  1.00  0.00     0.296 HD
ENDBRANCH  91  92
ENDBRANCH  80  83
ENDBRANCH  79  80
ENDBRANCH  72  74
ENDBRANCH  71  72
ENDBRANCH  70  71
ENDBRANCH   1  70
TORSDOF 17
ENDMDL
