MODEL 1
REMARK VINA RESULT:     -10.5      0.000      0.000
REMARK SMILES C[NH2+]C[C@H](C)C(=O)NC[C@](C)(O)C(=O)OCCOC(=O)c1ccc(-c2c3nc(c(-c4cc(S(=O)(=O)[O-])ccc4F)c4ccc([nH]4)c(-c4cc(S(=O)(=O)[O-])ccc4F)c4nc(c(-c5cc(S(=O)(=O)[O-])ccc5F)c5ccc2[nH]5)C=C4)C=C3)cc1
REMARK SMILES IDX 16 1 15 2 13 3 14 4 10 5 11 6 9 7 8 8 6 9 7 10 4 12 5 13
REMARK SMILES IDX 3 14 2 15 1 16 12 19 17 21 18 22 19 23 20 24 21 25 22 26
REMARK SMILES IDX 83 27 23 28 82 29 24 30 25 31 26 32 76 33 27 34 81 35 75 36
REMARK SMILES IDX 77 37 28 38 80 39 74 40 73 41 29 43 61 44 41 45 60 46 42 47
REMARK SMILES IDX 45 48 59 49 78 50 43 51 44 52 58 54 79 55 46 56 30 57 31 58
REMARK SMILES IDX 39 59 32 60 38 61 40 62 37 63 33 64 34 65 35 66 36 67 62 68
REMARK SMILES IDX 63 69 71 70 64 71 70 72 72 73 69 74 65 75 66 76 67 77 68 78
REMARK SMILES IDX 47 79 48 80 56 81 49 82 55 83 57 84 54 85 50 86 51 87 52 88
REMARK SMILES IDX 53 89
REMARK H PARENT 8 11 2 17 2 18 12 20 77 42 45 53
REMARK Flexibility Score: inf
ROOT
ATOM      1  C   UNL A   1      34.684  20.687  25.329  1.00  0.00     0.274 C 
ENDROOT
BRANCH   1   2
ATOM      2  O   UNL A   1      34.043  21.703  24.530  1.00  0.00    -0.460 OA
BRANCH   2   3
ATOM      3  C   UNL A   1      32.770  21.403  24.147  1.00  0.00     0.339 C 
ATOM      4  O   UNL A   1      32.134  20.452  24.592  1.00  0.00    -0.249 OA
BRANCH   3   5
ATOM      5  C   UNL A   1      32.227  22.369  23.065  1.00  0.00     0.176 C 
ATOM      6  C   UNL A   1      33.353  23.154  22.394  1.00  0.00     0.057 C 
BRANCH   5   7
ATOM      7  C   UNL A   1      31.235  23.348  23.738  1.00  0.00     0.162 C 
BRANCH   7   8
ATOM      8  N   UNL A   1      31.118  23.191  25.185  1.00  0.00    -0.352 N 
ATOM      9  C   UNL A   1      31.391  23.987  26.240  1.00  0.00     0.228 C 
ATOM     10  O   UNL A   1      31.077  23.557  27.355  1.00  0.00    -0.275 OA
ATOM     11  H   UNL A   1      30.761  22.312  25.448  1.00  0.00     0.163 HD
BRANCH   9  12
ATOM     12  C   UNL A   1      32.085  25.328  26.114  1.00  0.00     0.130 C 
ATOM     13  C   UNL A   1      33.540  25.107  25.692  1.00  0.00     0.024 C 
BRANCH  12  14
ATOM     14  C   UNL A   1      31.398  26.412  25.267  1.00  0.00     0.273 C 
BRANCH  14  15
ATOM     15  N   UNL A   1      31.622  27.828  25.578  1.00  0.00    -0.348 N 
ATOM     16  C   UNL A   1      31.208  28.741  24.524  1.00  0.00     0.330 C 
ATOM     17  H   UNL A   1      31.100  28.057  26.423  1.00  0.00     0.346 HD
ATOM     18  H   UNL A   1      32.628  27.948  25.692  1.00  0.00     0.346 HD
ENDBRANCH  14  15
ENDBRANCH  12  14
ENDBRANCH   9  12
ENDBRANCH   7   8
ENDBRANCH   5   7
BRANCH   5  19
ATOM     19  O   UNL A   1      31.521  21.673  22.029  1.00  0.00    -0.377 OA
ATOM     20  H   UNL A   1      31.078  20.897  22.406  1.00  0.00     0.212 HD
ENDBRANCH   5  19
ENDBRANCH   3   5
ENDBRANCH   2   3
ENDBRANCH   1   2
BRANCH   1  21
ATOM     21  C   UNL A   1      36.169  20.539  24.998  1.00  0.00     0.275 C 
BRANCH  21  22
ATOM     22  O   UNL A   1      36.950  21.618  25.537  1.00  0.00    -0.458 OA
BRANCH  22  23
ATOM     23  C   UNL A   1      38.262  21.334  25.713  1.00  0.00     0.338 C 
ATOM     24  O   UNL A   1      38.855  20.336  25.341  1.00  0.00    -0.246 OA
BRANCH  23  25
ATOM     25  C   UNL A   1      38.936  22.456  26.381  1.00  0.00     0.060 A 
ATOM     26  C   UNL A   1      38.485  23.751  26.139  1.00  0.00     0.016 A 
ATOM     27  C   UNL A   1      40.104  22.244  27.112  1.00  0.00     0.016 A 
ATOM     28  C   UNL A   1      39.247  24.844  26.538  1.00  0.00     0.010 A 
ATOM     29  C   UNL A   1      40.811  23.346  27.607  1.00  0.00     0.010 A 
ATOM     30  C   UNL A   1      40.406  24.659  27.302  1.00  0.00    -0.014 A 
BRANCH  30  31
ATOM     31  C   UNL A   1      41.199  25.831  27.767  1.00  0.00     0.031 A 
ATOM     32  C   UNL A   1      40.558  26.880  28.636  1.00  0.00     0.074 A 
ATOM     33  C   UNL A   1      42.495  25.957  27.416  1.00  0.00     0.049 A 
ATOM     34  N   UNL A   1      40.987  28.075  28.947  1.00  0.00    -0.248 NA
ATOM     35  C   UNL A   1      39.254  26.537  29.222  1.00  0.00     0.031 C 
ATOM     36  C   UNL A   1      43.265  24.979  26.643  1.00  0.00     0.029 A 
ATOM     37  N   UNL A   1      43.397  26.962  27.664  1.00  0.00    -0.354 N 
ATOM     38  C   UNL A   1      39.983  28.651  29.719  1.00  0.00     0.074 A 
ATOM     39  C   UNL A   1      38.922  27.670  29.823  1.00  0.00     0.031 C 
ATOM     40  C   UNL A   1      44.525  25.416  26.509  1.00  0.00     0.029 A 
ATOM     41  C   UNL A   1      44.627  26.750  27.084  1.00  0.00     0.049 A 
ATOM     42  H   UNL A   1      43.184  27.758  28.204  1.00  0.00     0.167 HD
ATOM     43  C   UNL A   1      39.952  29.887  30.280  1.00  0.00     0.034 A 
ATOM     44  C   UNL A   1      45.696  27.562  26.965  1.00  0.00     0.034 A 
ATOM     45  C   UNL A   1      41.038  30.835  30.191  1.00  0.00     0.049 A 
ATOM     46  C   UNL A   1      45.606  28.960  27.509  1.00  0.00     0.074 A 
ATOM     47  C   UNL A   1      41.123  32.107  30.730  1.00  0.00     0.029 A 
ATOM     48  N   UNL A   1      42.234  30.610  29.521  1.00  0.00    -0.354 N 
ATOM     49  N   UNL A   1      44.615  29.531  28.154  1.00  0.00    -0.248 NA
ATOM     50  C   UNL A   1      46.762  29.835  27.279  1.00  0.00     0.031 C 
ATOM     51  C   UNL A   1      42.344  32.670  30.339  1.00  0.00     0.029 A 
ATOM     52  C   UNL A   1      43.048  31.729  29.605  1.00  0.00     0.049 A 
ATOM     53  H   UNL A   1      42.469  29.775  29.054  1.00  0.00     0.167 HD
ATOM     54  C   UNL A   1      45.029  30.835  28.404  1.00  0.00     0.074 A 
ATOM     55  C   UNL A   1      46.367  30.958  27.861  1.00  0.00     0.031 C 
ATOM     56  C   UNL A   1      44.364  31.842  29.025  1.00  0.00     0.034 A 
BRANCH  43  57
ATOM     57  C   UNL A   1      38.676  30.302  30.971  1.00  0.00     0.023 A 
ATOM     58  C   UNL A   1      37.631  30.951  30.291  1.00  0.00     0.031 A 
ATOM     59  C   UNL A   1      38.523  30.080  32.353  1.00  0.00     0.131 A 
ATOM     60  C   UNL A   1      36.516  31.419  31.004  1.00  0.00     0.055 A 
ATOM     61  C   UNL A   1      37.378  30.481  33.043  1.00  0.00     0.041 A 
ATOM     62  F   UNL A   1      39.497  29.485  33.060  1.00  0.00    -0.206 F 
ATOM     63  C   UNL A   1      36.372  31.169  32.372  1.00  0.00     0.022 A 
BRANCH  60  64
ATOM     64  S   UNL A   1      35.323  32.485  30.149  1.00  0.00     0.124 S 
ATOM     65  O   UNL A   1      36.171  33.597  29.724  1.00  0.00    -0.237 OA
ATOM     66  O   UNL A   1      34.827  31.615  29.088  1.00  0.00    -0.237 OA
ATOM     67  O   UNL A   1      34.351  32.817  31.190  1.00  0.00    -0.744 OA
ENDBRANCH  60  64
ENDBRANCH  43  57
BRANCH  44  68
ATOM     68  C   UNL A   1      46.899  27.110  26.210  1.00  0.00     0.023 A 
ATOM     69  C   UNL A   1      47.133  27.542  24.896  1.00  0.00     0.031 A 
ATOM     70  C   UNL A   1      47.824  26.223  26.790  1.00  0.00     0.131 A 
ATOM     71  C   UNL A   1      48.257  27.070  24.198  1.00  0.00     0.055 A 
ATOM     72  C   UNL A   1      48.964  25.797  26.111  1.00  0.00     0.041 A 
ATOM     73  F   UNL A   1      47.641  25.776  28.044  1.00  0.00    -0.206 F 
ATOM     74  C   UNL A   1      49.182  26.214  24.802  1.00  0.00     0.022 A 
BRANCH  71  75
ATOM     75  S   UNL A   1      48.464  27.544  22.459  1.00  0.00     0.124 S 
ATOM     76  O   UNL A   1      47.236  28.289  22.207  1.00  0.00    -0.237 OA
ATOM     77  O   UNL A   1      49.693  28.329  22.501  1.00  0.00    -0.237 OA
ATOM     78  O   UNL A   1      48.569  26.262  21.767  1.00  0.00    -0.744 OA
ENDBRANCH  71  75
ENDBRANCH  44  68
BRANCH  56  79
ATOM     79  C   UNL A   1      45.094  33.151  29.150  1.00  0.00     0.023 A 
ATOM     80  C   UNL A   1      44.905  34.186  28.219  1.00  0.00     0.031 A 
ATOM     81  C   UNL A   1      46.008  33.355  30.198  1.00  0.00     0.131 A 
ATOM     82  C   UNL A   1      45.654  35.367  28.328  1.00  0.00     0.055 A 
ATOM     83  C   UNL A   1      46.716  34.550  30.329  1.00  0.00     0.041 A 
ATOM     84  F   UNL A   1      46.226  32.395  31.111  1.00  0.00    -0.206 F 
ATOM     85  C   UNL A   1      46.548  35.561  29.385  1.00  0.00     0.022 A 
BRANCH  82  86
ATOM     86  S   UNL A   1      45.489  36.628  27.035  1.00  0.00     0.124 S 
ATOM     87  O   UNL A   1      44.062  36.572  26.737  1.00  0.00    -0.237 OA
ATOM     88  O   UNL A   1      45.954  37.835  27.710  1.00  0.00    -0.237 OA
ATOM     89  O   UNL A   1      46.364  36.141  25.969  1.00  0.00    -0.744 OA
ENDBRANCH  82  86
ENDBRANCH  56  79
ENDBRANCH  30  31
ENDBRANCH  23  25
ENDBRANCH  22  23
ENDBRANCH  21  22
ENDBRANCH   1  21
TORSDOF 20
ENDMDL
MODEL 2
REMARK VINA RESULT:     -10.3      3.915      6.106
REMARK SMILES C[NH2+]C[C@H](C)C(=O)NC[C@](C)(O)C(=O)OCCOC(=O)c1ccc(-c2c3nc(c(-c4cc(S(=O)(=O)[O-])ccc4F)c4ccc([nH]4)c(-c4cc(S(=O)(=O)[O-])ccc4F)c4nc(c(-c5cc(S(=O)(=O)[O-])ccc5F)c5ccc2[nH]5)C=C4)C=C3)cc1
REMARK SMILES IDX 16 1 15 2 13 3 14 4 10 5 11 6 9 7 8 8 6 9 7 10 4 12 5 13
REMARK SMILES IDX 3 14 2 15 1 16 12 19 17 21 18 22 19 23 20 24 21 25 22 26
REMARK SMILES IDX 83 27 23 28 82 29 24 30 25 31 26 32 76 33 27 34 81 35 75 36
REMARK SMILES IDX 77 37 28 38 80 39 74 40 73 41 29 43 61 44 41 45 60 46 42 47
REMARK SMILES IDX 45 48 59 49 78 50 43 51 44 52 58 54 79 55 46 56 30 57 31 58
REMARK SMILES IDX 39 59 32 60 38 61 40 62 37 63 33 64 34 65 35 66 36 67 62 68
REMARK SMILES IDX 63 69 71 70 64 71 70 72 72 73 69 74 65 75 66 76 67 77 68 78
REMARK SMILES IDX 47 79 48 80 56 81 49 82 55 83 57 84 54 85 50 86 51 87 52 88
REMARK SMILES IDX 53 89
REMARK H PARENT 8 11 2 17 2 18 12 20 77 42 45 53
REMARK Flexibility Score: inf
ROOT
ATOM      1  C   UNL A   1      41.724  19.194  26.307  1.00  0.00     0.274 C 
ENDROOT
BRANCH   1   2
ATOM      2  O   UNL A   1      42.726  19.430  25.297  1.00  0.00    -0.460 OA
BRANCH   2   3
ATOM      3  C   UNL A   1      43.887  18.740  25.478  1.00  0.00     0.339 C 
ATOM      4  O   UNL A   1      43.981  17.749  26.196  1.00  0.00    -0.249 OA
BRANCH   3   5
ATOM      5  C   UNL A   1      45.079  19.364  24.711  1.00  0.00     0.176 C 
ATOM      6  C   UNL A   1      46.411  19.044  25.385  1.00  0.00     0.057 C 
BRANCH   5   7
ATOM      7  C   UNL A   1      44.874  20.897  24.655  1.00  0.00     0.162 C 
BRANCH   7   8
ATOM      8  N   UNL A   1      44.716  21.534  25.959  1.00  0.00    -0.352 N 
ATOM      9  C   UNL A   1      44.587  22.814  26.370  1.00  0.00     0.228 C 
ATOM     10  O   UNL A   1      44.376  22.991  27.574  1.00  0.00    -0.275 OA
ATOM     11  H   UNL A   1      44.698  20.888  26.702  1.00  0.00     0.163 HD
BRANCH   9  12
ATOM     12  C   UNL A   1      44.732  24.003  25.443  1.00  0.00     0.130 C 
ATOM     13  C   UNL A   1      43.355  24.625  25.198  1.00  0.00     0.024 C 
BRANCH  12  14
ATOM     14  C   UNL A   1      45.787  25.063  25.800  1.00  0.00     0.273 C 
BRANCH  14  15
ATOM     15  N   UNL A   1      46.141  26.095  24.819  1.00  0.00    -0.348 N 
ATOM     16  C   UNL A   1      45.395  27.335  24.965  1.00  0.00     0.330 C 
ATOM     17  H   UNL A   1      47.134  26.306  24.921  1.00  0.00     0.346 HD
ATOM     18  H   UNL A   1      45.910  25.719  23.900  1.00  0.00     0.346 HD
ENDBRANCH  14  15
ENDBRANCH  12  14
ENDBRANCH   9  12
ENDBRANCH   7   8
ENDBRANCH   5   7
BRANCH   5  19
ATOM     19  O   UNL A   1      45.161  18.884  23.362  1.00  0.00    -0.377 OA
ATOM     20  H   UNL A   1      44.905  17.949  23.336  1.00  0.00     0.212 HD
ENDBRANCH   5  19
ENDBRANCH   3   5
ENDBRANCH   2   3
ENDBRANCH   1   2
BRANCH   1  21
ATOM     21  C   UNL A   1      40.476  20.052  26.099  1.00  0.00     0.275 C 
BRANCH  21  22
ATOM     22  O   UNL A   1      40.750  21.452  26.276  1.00  0.00    -0.458 OA
BRANCH  22  23
ATOM     23  C   UNL A   1      39.651  22.238  26.364  1.00  0.00     0.338 C 
ATOM     24  O   UNL A   1      38.525  21.973  25.980  1.00  0.00    -0.246 OA
BRANCH  23  25
ATOM     25  C   UNL A   1      39.977  23.483  27.074  1.00  0.00     0.060 A 
ATOM     26  C   UNL A   1      39.529  24.692  26.549  1.00  0.00     0.016 A 
ATOM     27  C   UNL A   1      40.851  23.468  28.159  1.00  0.00     0.016 A 
ATOM     28  C   UNL A   1      40.028  25.895  27.037  1.00  0.00     0.010 A 
ATOM     29  C   UNL A   1      41.266  24.682  28.719  1.00  0.00     0.010 A 
ATOM     30  C   UNL A   1      40.882  25.910  28.147  1.00  0.00    -0.014 A 
BRANCH  30  31
ATOM     31  C   UNL A   1      41.383  27.200  28.698  1.00  0.00     0.031 A 
ATOM     32  C   UNL A   1      40.412  28.232  29.204  1.00  0.00     0.074 A 
ATOM     33  C   UNL A   1      42.708  27.448  28.750  1.00  0.00     0.049 A 
ATOM     34  N   UNL A   1      40.615  29.490  29.495  1.00  0.00    -0.248 NA
ATOM     35  C   UNL A   1      39.024  27.786  29.396  1.00  0.00     0.031 C 
ATOM     36  C   UNL A   1      43.764  26.508  28.366  1.00  0.00     0.029 A 
ATOM     37  N   UNL A   1      43.395  28.568  29.148  1.00  0.00    -0.354 N 
ATOM     38  C   UNL A   1      39.373  30.005  29.852  1.00  0.00     0.074 A 
ATOM     39  C   UNL A   1      38.422  28.917  29.735  1.00  0.00     0.031 C 
ATOM     40  C   UNL A   1      44.959  27.077  28.577  1.00  0.00     0.029 A 
ATOM     41  C   UNL A   1      44.758  28.456  29.001  1.00  0.00     0.049 A 
ATOM     42  H   UNL A   1      42.954  29.374  29.503  1.00  0.00     0.167 HD
ATOM     43  C   UNL A   1      39.059  31.269  30.233  1.00  0.00     0.034 A 
ATOM     44  C   UNL A   1      45.736  29.375  29.126  1.00  0.00     0.034 A 
ATOM     45  C   UNL A   1      40.031  32.328  30.376  1.00  0.00     0.049 A 
ATOM     46  C   UNL A   1      45.357  30.792  29.454  1.00  0.00     0.074 A 
ATOM     47  C   UNL A   1      39.832  33.640  30.768  1.00  0.00     0.029 A 
ATOM     48  N   UNL A   1      41.393  32.191  30.135  1.00  0.00    -0.354 N 
ATOM     49  N   UNL A   1      44.168  31.293  29.695  1.00  0.00    -0.248 NA
ATOM     50  C   UNL A   1      46.448  31.775  29.493  1.00  0.00     0.031 C 
ATOM     51  C   UNL A   1      41.061  34.309  30.710  1.00  0.00     0.029 A 
ATOM     52  C   UNL A   1      42.039  33.401  30.339  1.00  0.00     0.049 A 
ATOM     53  H   UNL A   1      41.835  31.355  29.860  1.00  0.00     0.167 HD
ATOM     54  C   UNL A   1      44.368  32.652  29.912  1.00  0.00     0.074 A 
ATOM     55  C   UNL A   1      45.793  32.887  29.795  1.00  0.00     0.031 C 
ATOM     56  C   UNL A   1      43.456  33.621  30.181  1.00  0.00     0.034 A 
BRANCH  43  57
ATOM     57  C   UNL A   1      37.599  31.586  30.448  1.00  0.00     0.023 A 
ATOM     58  C   UNL A   1      36.750  31.963  29.394  1.00  0.00     0.031 A 
ATOM     59  C   UNL A   1      37.058  31.550  31.747  1.00  0.00     0.131 A 
ATOM     60  C   UNL A   1      35.430  32.359  29.664  1.00  0.00     0.055 A 
ATOM     61  C   UNL A   1      35.724  31.873  32.000  1.00  0.00     0.041 A 
ATOM     62  F   UNL A   1      37.826  31.219  32.797  1.00  0.00    -0.206 F 
ATOM     63  C   UNL A   1      34.905  32.295  30.958  1.00  0.00     0.022 A 
BRANCH  60  64
ATOM     64  S   UNL A   1      34.453  33.096  28.326  1.00  0.00     0.124 S 
ATOM     65  O   UNL A   1      33.657  34.085  29.050  1.00  0.00    -0.237 OA
ATOM     66  O   UNL A   1      35.483  33.627  27.440  1.00  0.00    -0.237 OA
ATOM     67  O   UNL A   1      33.693  31.966  27.793  1.00  0.00    -0.744 OA
ENDBRANCH  60  64
ENDBRANCH  43  57
BRANCH  44  68
ATOM     68  C   UNL A   1      47.150  29.008  28.832  1.00  0.00     0.023 A 
ATOM     69  C   UNL A   1      47.554  28.665  27.533  1.00  0.00     0.031 A 
ATOM     70  C   UNL A   1      48.115  28.981  29.855  1.00  0.00     0.131 A 
ATOM     71  C   UNL A   1      48.887  28.289  27.295  1.00  0.00     0.055 A 
ATOM     72  C   UNL A   1      49.448  28.655  29.604  1.00  0.00     0.041 A 
ATOM     73  F   UNL A   1      47.777  29.296  31.116  1.00  0.00    -0.206 F 
ATOM     74  C   UNL A   1      49.839  28.298  28.318  1.00  0.00     0.022 A 
BRANCH  71  75
ATOM     75  S   UNL A   1      49.349  27.728  25.633  1.00  0.00     0.124 S 
ATOM     76  O   UNL A   1      49.228  26.280  25.765  1.00  0.00    -0.237 OA
ATOM     77  O   UNL A   1      48.346  28.382  24.800  1.00  0.00    -0.237 OA
ATOM     78  O   UNL A   1      50.712  28.227  25.472  1.00  0.00    -0.744 OA
ENDBRANCH  71  75
ENDBRANCH  44  68
BRANCH  56  79
ATOM     79  C   UNL A   1      43.993  35.012  30.377  1.00  0.00     0.023 A 
ATOM     80  C   UNL A   1      44.089  35.916  29.305  1.00  0.00     0.031 A 
ATOM     81  C   UNL A   1      44.437  35.429  31.643  1.00  0.00     0.131 A 
ATOM     82  C   UNL A   1      44.658  37.181  29.509  1.00  0.00     0.055 A 
ATOM     83  C   UNL A   1      44.960  36.706  31.851  1.00  0.00     0.041 A 
ATOM     84  F   UNL A   1      44.369  34.600  32.697  1.00  0.00    -0.206 F 
ATOM     85  C   UNL A   1      45.082  37.586  30.779  1.00  0.00     0.022 A 
BRANCH  82  86
ATOM     86  S   UNL A   1      44.895  38.273  28.081  1.00  0.00     0.124 S 
ATOM     87  O   UNL A   1      45.946  37.582  27.342  1.00  0.00    -0.237 OA
ATOM     88  O   UNL A   1      43.574  38.274  27.462  1.00  0.00    -0.237 OA
ATOM     89  O   UNL A   1      45.294  39.544  28.684  1.00  0.00    -0.744 OA
ENDBRANCH  82  86
ENDBRANCH  56  79
ENDBRANCH  30  31
ENDBRANCH  23  25
ENDBRANCH  22  23
ENDBRANCH  21  22
ENDBRANCH   1  21
TORSDOF 20
ENDMDL
MODEL 3
REMARK VINA RESULT:     -10.2      1.515      2.073
REMARK SMILES C[NH2+]C[C@H](C)C(=O)NC[C@](C)(O)C(=O)OCCOC(=O)c1ccc(-c2c3nc(c(-c4cc(S(=O)(=O)[O-])ccc4F)c4ccc([nH]4)c(-c4cc(S(=O)(=O)[O-])ccc4F)c4nc(c(-c5cc(S(=O)(=O)[O-])ccc5F)c5ccc2[nH]5)C=C4)C=C3)cc1
REMARK SMILES IDX 16 1 15 2 13 3 14 4 10 5 11 6 9 7 8 8 6 9 7 10 4 12 5 13
REMARK SMILES IDX 3 14 2 15 1 16 12 19 17 21 18 22 19 23 20 24 21 25 22 26
REMARK SMILES IDX 83 27 23 28 82 29 24 30 25 31 26 32 76 33 27 34 81 35 75 36
REMARK SMILES IDX 77 37 28 38 80 39 74 40 73 41 29 43 61 44 41 45 60 46 42 47
REMARK SMILES IDX 45 48 59 49 78 50 43 51 44 52 58 54 79 55 46 56 30 57 31 58
REMARK SMILES IDX 39 59 32 60 38 61 40 62 37 63 33 64 34 65 35 66 36 67 62 68
REMARK SMILES IDX 63 69 71 70 64 71 70 72 72 73 69 74 65 75 66 76 67 77 68 78
REMARK SMILES IDX 47 79 48 80 56 81 49 82 55 83 57 84 54 85 50 86 51 87 52 88
REMARK SMILES IDX 53 89
REMARK H PARENT 8 11 2 17 2 18 12 20 77 42 45 53
REMARK Flexibility Score: inf
ROOT
ATOM      1  C   UNL A   1      34.753  20.605  25.262  1.00  0.00     0.274 C 
ENDROOT
BRANCH   1   2
ATOM      2  O   UNL A   1      34.142  21.659  24.489  1.00  0.00    -0.460 OA
BRANCH   2   3
ATOM      3  C   UNL A   1      32.913  21.353  23.986  1.00  0.00     0.339 C 
ATOM      4  O   UNL A   1      32.255  20.382  24.346  1.00  0.00    -0.249 OA
BRANCH   3   5
ATOM      5  C   UNL A   1      32.456  22.340  22.883  1.00  0.00     0.176 C 
ATOM      6  C   UNL A   1      33.645  22.972  22.164  1.00  0.00     0.057 C 
BRANCH   5   7
ATOM      7  C   UNL A   1      31.595  23.444  23.544  1.00  0.00     0.162 C 
BRANCH   7   8
ATOM      8  N   UNL A   1      32.359  24.455  24.268  1.00  0.00    -0.352 N 
ATOM      9  C   UNL A   1      32.309  24.951  25.522  1.00  0.00     0.228 C 
ATOM     10  O   UNL A   1      33.191  25.758  25.835  1.00  0.00    -0.275 OA
ATOM     11  H   UNL A   1      33.067  24.865  23.720  1.00  0.00     0.163 HD
BRANCH   9  12
ATOM     12  C   UNL A   1      31.220  24.597  26.514  1.00  0.00     0.130 C 
ATOM     13  C   UNL A   1      29.948  25.376  26.170  1.00  0.00     0.024 C 
BRANCH  12  14
ATOM     14  C   UNL A   1      30.933  23.106  26.759  1.00  0.00     0.273 C 
BRANCH  14  15
ATOM     15  N   UNL A   1      32.049  22.166  26.904  1.00  0.00    -0.348 N 
ATOM     16  C   UNL A   1      32.973  22.499  27.978  1.00  0.00     0.330 C 
ATOM     17  H   UNL A   1      31.665  21.239  27.090  1.00  0.00     0.346 HD
ATOM     18  H   UNL A   1      32.581  22.205  26.036  1.00  0.00     0.346 HD
ENDBRANCH  14  15
ENDBRANCH  12  14
ENDBRANCH   9  12
ENDBRANCH   7   8
ENDBRANCH   5   7
BRANCH   5  19
ATOM     19  O   UNL A   1      31.651  21.696  21.886  1.00  0.00    -0.377 OA
ATOM     20  H   UNL A   1      31.406  20.809  22.192  1.00  0.00     0.212 HD
ENDBRANCH   5  19
ENDBRANCH   3   5
ENDBRANCH   2   3
ENDBRANCH   1   2
BRANCH   1  21
ATOM     21  C   UNL A   1      36.252  20.482  24.992  1.00  0.00     0.275 C 
BRANCH  21  22
ATOM     22  O   UNL A   1      37.000  21.534  25.623  1.00  0.00    -0.458 OA
BRANCH  22  23
ATOM     23  C   UNL A   1      38.321  21.275  25.780  1.00  0.00     0.338 C 
ATOM     24  O   UNL A   1      38.924  20.282  25.411  1.00  0.00    -0.246 OA
BRANCH  23  25
ATOM     25  C   UNL A   1      38.987  22.418  26.420  1.00  0.00     0.060 A 
ATOM     26  C   UNL A   1      38.518  23.702  26.157  1.00  0.00     0.016 A 
ATOM     27  C   UNL A   1      40.161  22.233  27.147  1.00  0.00     0.016 A 
ATOM     28  C   UNL A   1      39.270  24.812  26.529  1.00  0.00     0.010 A 
ATOM     29  C   UNL A   1      40.859  23.353  27.615  1.00  0.00     0.010 A 
ATOM     30  C   UNL A   1      40.437  24.655  27.288  1.00  0.00    -0.014 A 
BRANCH  30  31
ATOM     31  C   UNL A   1      41.220  25.845  27.724  1.00  0.00     0.031 A 
ATOM     32  C   UNL A   1      40.578  26.896  28.588  1.00  0.00     0.074 A 
ATOM     33  C   UNL A   1      42.509  25.984  27.351  1.00  0.00     0.049 A 
ATOM     34  N   UNL A   1      40.993  28.101  28.876  1.00  0.00    -0.248 NA
ATOM     35  C   UNL A   1      39.288  26.542  29.200  1.00  0.00     0.031 C 
ATOM     36  C   UNL A   1      43.280  25.007  26.579  1.00  0.00     0.029 A 
ATOM     37  N   UNL A   1      43.399  27.005  27.570  1.00  0.00    -0.354 N 
ATOM     38  C   UNL A   1      39.993  28.674  29.656  1.00  0.00     0.074 A 
ATOM     39  C   UNL A   1      38.949  27.679  29.791  1.00  0.00     0.031 C 
ATOM     40  C   UNL A   1      44.532  25.460  26.419  1.00  0.00     0.029 A 
ATOM     41  C   UNL A   1      44.623  26.804  26.974  1.00  0.00     0.049 A 
ATOM     42  H   UNL A   1      43.183  27.806  28.102  1.00  0.00     0.167 HD
ATOM     43  C   UNL A   1      39.953  29.916  30.200  1.00  0.00     0.034 A 
ATOM     44  C   UNL A   1      45.678  27.629  26.827  1.00  0.00     0.034 A 
ATOM     45  C   UNL A   1      41.023  30.879  30.082  1.00  0.00     0.049 A 
ATOM     46  C   UNL A   1      45.575  29.034  27.353  1.00  0.00     0.074 A 
ATOM     47  C   UNL A   1      41.098  32.159  30.601  1.00  0.00     0.029 A 
ATOM     48  N   UNL A   1      42.212  30.662  29.395  1.00  0.00    -0.354 N 
ATOM     49  N   UNL A   1      44.587  29.599  28.005  1.00  0.00    -0.248 NA
ATOM     50  C   UNL A   1      46.715  29.922  27.092  1.00  0.00     0.031 C 
ATOM     51  C   UNL A   1      42.305  32.735  30.183  1.00  0.00     0.029 A 
ATOM     52  C   UNL A   1      43.011  31.793  29.451  1.00  0.00     0.049 A 
ATOM     53  H   UNL A   1      42.452  29.824  28.936  1.00  0.00     0.167 HD
ATOM     54  C   UNL A   1      44.986  30.912  28.231  1.00  0.00     0.074 A 
ATOM     55  C   UNL A   1      46.312  31.047  27.665  1.00  0.00     0.031 C 
ATOM     56  C   UNL A   1      44.315  31.918  28.848  1.00  0.00     0.034 A 
BRANCH  43  57
ATOM     57  C   UNL A   1      38.682  30.323  30.906  1.00  0.00     0.023 A 
ATOM     58  C   UNL A   1      37.625  30.964  30.238  1.00  0.00     0.031 A 
ATOM     59  C   UNL A   1      38.546  30.099  32.290  1.00  0.00     0.131 A 
ATOM     60  C   UNL A   1      36.515  31.425  30.964  1.00  0.00     0.055 A 
ATOM     61  C   UNL A   1      37.406  30.492  32.992  1.00  0.00     0.041 A 
ATOM     62  F   UNL A   1      39.532  29.510  32.985  1.00  0.00    -0.206 F 
ATOM     63  C   UNL A   1      36.388  31.173  32.333  1.00  0.00     0.022 A 
BRANCH  60  64
ATOM     64  S   UNL A   1      35.305  32.483  30.123  1.00  0.00     0.124 S 
ATOM     65  O   UNL A   1      34.315  32.697  31.176  1.00  0.00    -0.237 OA
ATOM     66  O   UNL A   1      36.107  33.644  29.752  1.00  0.00    -0.237 OA
ATOM     67  O   UNL A   1      34.846  31.659  29.006  1.00  0.00    -0.744 OA
ENDBRANCH  60  64
ENDBRANCH  43  57
BRANCH  44  68
ATOM     68  C   UNL A   1      46.875  27.185  26.058  1.00  0.00     0.023 A 
ATOM     69  C   UNL A   1      47.087  27.609  24.738  1.00  0.00     0.031 A 
ATOM     70  C   UNL A   1      47.817  26.312  26.633  1.00  0.00     0.131 A 
ATOM     71  C   UNL A   1      48.207  27.144  24.029  1.00  0.00     0.055 A 
ATOM     72  C   UNL A   1      48.953  25.892  25.941  1.00  0.00     0.041 A 
ATOM     73  F   UNL A   1      47.656  25.872  27.892  1.00  0.00    -0.206 F 
ATOM     74  C   UNL A   1      49.149  26.302  24.627  1.00  0.00     0.022 A 
BRANCH  71  75
ATOM     75  S   UNL A   1      48.385  27.607  22.284  1.00  0.00     0.124 S 
ATOM     76  O   UNL A   1      48.423  26.302  21.633  1.00  0.00    -0.237 OA
ATOM     77  O   UNL A   1      47.184  28.404  22.055  1.00  0.00    -0.237 OA
ATOM     78  O   UNL A   1      49.640  28.354  22.257  1.00  0.00    -0.744 OA
ENDBRANCH  71  75
ENDBRANCH  44  68
BRANCH  56  79
ATOM     79  C   UNL A   1      45.028  33.239  28.944  1.00  0.00     0.023 A 
ATOM     80  C   UNL A   1      45.883  33.532  30.021  1.00  0.00     0.031 A 
ATOM     81  C   UNL A   1      44.832  34.224  27.962  1.00  0.00     0.131 A 
ATOM     82  C   UNL A   1      46.477  34.799  30.114  1.00  0.00     0.055 A 
ATOM     83  C   UNL A   1      45.462  35.466  28.035  1.00  0.00     0.041 A 
ATOM     84  F   UNL A   1      44.022  33.993  26.916  1.00  0.00    -0.206 F 
ATOM     85  C   UNL A   1      46.283  35.763  29.120  1.00  0.00     0.022 A 
BRANCH  82  86
ATOM     86  S   UNL A   1      47.462  35.195  31.584  1.00  0.00     0.124 S 
ATOM     87  O   UNL A   1      46.474  35.082  32.651  1.00  0.00    -0.237 OA
ATOM     88  O   UNL A   1      48.495  34.164  31.559  1.00  0.00    -0.237 OA
ATOM     89  O   UNL A   1      47.939  36.552  31.322  1.00  0.00    -0.744 OA
ENDBRANCH  82  86
ENDBRANCH  56  79
ENDBRANCH  30  31
ENDBRANCH  23  25
ENDBRANCH  22  23
ENDBRANCH  21  22
ENDBRANCH   1  21
TORSDOF 20
ENDMDL
