MODEL 1
REMARK VINA RESULT:     -11.8      0.000      0.000
REMARK SMILES O=C(C[C@H](Cc1ccc(Cl)cc1)C(=O)Nc1cc(Cl)ccc1Cl)OCCOC(=O)c1ccc(-c2c3nc(c(-c4cc(S(=O)(=O)[O-])ccc4F)c4ccc([nH]4)c(-c4cc(S(=O)(=O)[O-])ccc4F)c4nc(c(-c5cc(S(=O)(=O)[O-])ccc5F)c5ccc2[nH]5)C=C4)C=C3)cc1
REMARK SMILES IDX 25 1 24 2 2 3 1 4 3 5 4 6 13 7 14 8 15 9 16 11 17 12 22 13
REMARK SMILES IDX 18 14 21 15 23 16 19 17 20 18 5 19 6 20 7 21 12 22 8 23
REMARK SMILES IDX 11 24 9 25 10 26 26 27 27 28 28 29 29 30 30 31 31 32 92 33
REMARK SMILES IDX 32 34 91 35 33 36 34 37 35 38 85 39 36 40 90 41 84 42 86 43
REMARK SMILES IDX 37 44 89 45 83 46 82 47 38 49 70 50 50 51 69 52 51 53 54 54
REMARK SMILES IDX 68 55 87 56 52 57 53 58 67 60 88 61 55 62 39 63 40 64 48 65
REMARK SMILES IDX 41 66 47 67 49 68 46 69 42 70 43 71 44 72 45 73 71 74 72 75
REMARK SMILES IDX 80 76 73 77 79 78 81 79 78 80 74 81 75 82 76 83 77 84 56 85
REMARK SMILES IDX 57 86 65 87 58 88 64 89 66 90 63 91 59 92 60 93 61 94 62 95
REMARK H PARENT 15 10 86 48 54 59
REMARK Flexibility Score: inf
ROOT
ATOM      1  C   UNL A   1      37.233  21.731  24.280  1.00  0.00     0.274 C 
ENDROOT
BRANCH   1   2
ATOM      2  O   UNL A   1      35.869  21.722  24.698  1.00  0.00    -0.462 OA
BRANCH   2   3
ATOM      3  C   UNL A   1      35.435  22.855  25.301  1.00  0.00     0.306 C 
ATOM      4  O   UNL A   1      35.953  23.365  26.287  1.00  0.00    -0.252 OA
BRANCH   3   5
ATOM      5  C   UNL A   1      34.060  23.217  24.786  1.00  0.00     0.136 C 
BRANCH   5   6
ATOM      6  C   UNL A   1      33.974  23.715  23.339  1.00  0.00     0.094 C 
BRANCH   6   7
ATOM      7  C   UNL A   1      32.738  23.168  22.503  1.00  0.00     0.228 C 
ATOM      8  O   UNL A   1      32.952  22.636  21.406  1.00  0.00    -0.274 OA
ATOM      9  N   UNL A   1      31.434  23.122  22.975  1.00  0.00    -0.324 N 
ATOM     10  H   UNL A   1      30.860  22.411  22.609  1.00  0.00     0.169 HD
BRANCH   9  11
ATOM     11  C   UNL A   1      30.844  23.977  23.918  1.00  0.00     0.061 A 
ATOM     12  C   UNL A   1      30.164  25.055  23.375  1.00  0.00     0.048 A 
ATOM     13  C   UNL A   1      30.818  23.809  25.280  1.00  0.00     0.064 A 
ATOM     14  C   UNL A   1      29.877  26.385  23.963  1.00  0.00     0.043 A 
ATOM     15  C   UNL A   1      30.434  24.895  26.051  1.00  0.00     0.024 A 
ATOM     16  Cl  UNL A   1      31.188  22.306  26.028  1.00  0.00    -0.082 Cl
ATOM     17  Cl  UNL A   1      29.396  28.460  22.725  1.00  0.00    -0.084 Cl
ATOM     18  C   UNL A   1      30.063  26.135  25.444  1.00  0.00     0.022 A 
ENDBRANCH   9  11
ENDBRANCH   6   7
BRANCH   6  19
ATOM     19  C   UNL A   1      34.445  25.207  23.214  1.00  0.00     0.049 C 
BRANCH  19  20
ATOM     20  C   UNL A   1      33.713  26.314  23.975  1.00  0.00    -0.047 A 
ATOM     21  C   UNL A   1      33.059  27.786  23.126  1.00  0.00     0.005 A 
ATOM     22  C   UNL A   1      33.799  26.302  25.821  1.00  0.00     0.005 A 
ATOM     23  C   UNL A   1      32.429  29.201  24.091  1.00  0.00     0.021 A 
ATOM     24  C   UNL A   1      33.292  27.766  26.770  1.00  0.00     0.021 A 
ATOM     25  C   UNL A   1      32.556  29.186  25.921  1.00  0.00     0.041 A 
ATOM     26  Cl  UNL A   1      31.927  30.501  26.838  1.00  0.00    -0.084 Cl
ENDBRANCH  19  20
ENDBRANCH   6  19
ENDBRANCH   5   6
ENDBRANCH   3   5
ENDBRANCH   2   3
ENDBRANCH   1   2
BRANCH   1  27
ATOM     27  C   UNL A   1      38.053  20.648  25.002  1.00  0.00     0.275 C 
BRANCH  27  28
ATOM     28  O   UNL A   1      38.545  21.066  26.292  1.00  0.00    -0.458 OA
BRANCH  28  29
ATOM     29  C   UNL A   1      39.880  21.256  26.404  1.00  0.00     0.338 C 
ATOM     30  O   UNL A   1      40.754  20.493  26.032  1.00  0.00    -0.246 OA
BRANCH  29  31
ATOM     31  C   UNL A   1      40.148  22.579  27.015  1.00  0.00     0.060 A 
ATOM     32  C   UNL A   1      39.464  23.703  26.546  1.00  0.00     0.016 A 
ATOM     33  C   UNL A   1      41.147  22.737  27.973  1.00  0.00     0.016 A 
ATOM     34  C   UNL A   1      39.807  24.990  27.000  1.00  0.00     0.010 A 
ATOM     35  C   UNL A   1      41.463  24.027  28.439  1.00  0.00     0.010 A 
ATOM     36  C   UNL A   1      40.828  25.184  27.945  1.00  0.00    -0.014 A 
BRANCH  36  37
ATOM     37  C   UNL A   1      41.309  26.566  28.323  1.00  0.00     0.031 A 
ATOM     38  C   UNL A   1      42.719  27.008  27.964  1.00  0.00     0.074 A 
ATOM     39  C   UNL A   1      40.528  27.449  28.989  1.00  0.00     0.049 A 
ATOM     40  N   UNL A   1      43.333  28.140  28.218  1.00  0.00    -0.248 NA
ATOM     41  C   UNL A   1      43.564  26.026  27.271  1.00  0.00     0.031 C 
ATOM     42  C   UNL A   1      39.174  27.191  29.479  1.00  0.00     0.029 A 
ATOM     43  N   UNL A   1      40.764  28.756  29.368  1.00  0.00    -0.354 N 
ATOM     44  C   UNL A   1      44.635  27.985  27.748  1.00  0.00     0.074 A 
ATOM     45  C   UNL A   1      44.747  26.615  27.298  1.00  0.00     0.031 C 
ATOM     46  C   UNL A   1      38.686  28.308  30.048  1.00  0.00     0.029 A 
ATOM     47  C   UNL A   1      39.698  29.364  29.998  1.00  0.00     0.049 A 
ATOM     48  H   UNL A   1      41.619  29.215  29.201  1.00  0.00     0.167 HD
ATOM     49  C   UNL A   1      45.637  28.897  27.637  1.00  0.00     0.034 A 
ATOM     50  C   UNL A   1      39.541  30.619  30.477  1.00  0.00     0.034 A 
ATOM     51  C   UNL A   1      45.525  30.281  28.019  1.00  0.00     0.049 A 
ATOM     52  C   UNL A   1      40.665  31.627  30.346  1.00  0.00     0.074 A 
ATOM     53  C   UNL A   1      46.453  31.296  27.856  1.00  0.00     0.029 A 
ATOM     54  N   UNL A   1      44.422  30.851  28.637  1.00  0.00    -0.354 N 
ATOM     55  N   UNL A   1      41.857  31.477  29.817  1.00  0.00    -0.248 NA
ATOM     56  C   UNL A   1      40.413  32.982  30.865  1.00  0.00     0.031 C 
ATOM     57  C   UNL A   1      45.942  32.461  28.436  1.00  0.00     0.029 A 
ATOM     58  C   UNL A   1      44.660  32.196  28.887  1.00  0.00     0.049 A 
ATOM     59  H   UNL A   1      43.592  30.373  28.865  1.00  0.00     0.167 HD
ATOM     60  C   UNL A   1      42.472  32.727  29.902  1.00  0.00     0.074 A 
ATOM     61  C   UNL A   1      41.520  33.622  30.521  1.00  0.00     0.031 C 
ATOM     62  C   UNL A   1      43.713  33.099  29.495  1.00  0.00     0.034 A 
BRANCH  49  63
ATOM     63  C   UNL A   1      46.950  28.416  27.059  1.00  0.00     0.023 A 
ATOM     64  C   UNL A   1      47.165  28.362  25.670  1.00  0.00     0.031 A 
ATOM     65  C   UNL A   1      47.986  27.968  27.898  1.00  0.00     0.131 A 
ATOM     66  C   UNL A   1      48.327  27.768  25.162  1.00  0.00     0.055 A 
ATOM     67  C   UNL A   1      49.189  27.477  27.386  1.00  0.00     0.041 A 
ATOM     68  F   UNL A   1      47.841  27.984  29.233  1.00  0.00    -0.206 F 
ATOM     69  C   UNL A   1      49.356  27.351  26.010  1.00  0.00     0.022 A 
BRANCH  66  70
ATOM     70  S   UNL A   1      48.385  27.375  23.393  1.00  0.00     0.124 S 
ATOM     71  O   UNL A   1      48.251  25.920  23.413  1.00  0.00    -0.237 OA
ATOM     72  O   UNL A   1      47.244  28.114  22.867  1.00  0.00    -0.237 OA
ATOM     73  O   UNL A   1      49.696  27.867  22.975  1.00  0.00    -0.744 OA
ENDBRANCH  66  70
ENDBRANCH  49  63
BRANCH  50  74
ATOM     74  C   UNL A   1      38.263  31.036  31.139  1.00  0.00     0.023 A 
ATOM     75  C   UNL A   1      37.225  31.635  30.403  1.00  0.00     0.031 A 
ATOM     76  C   UNL A   1      38.101  30.929  32.532  1.00  0.00     0.131 A 
ATOM     77  C   UNL A   1      36.103  32.160  31.067  1.00  0.00     0.055 A 
ATOM     78  C   UNL A   1      36.956  31.400  33.180  1.00  0.00     0.041 A 
ATOM     79  F   UNL A   1      39.060  30.370  33.285  1.00  0.00    -0.206 F 
ATOM     80  C   UNL A   1      35.956  32.034  32.450  1.00  0.00     0.022 A 
BRANCH  77  81
ATOM     81  S   UNL A   1      34.886  33.109  30.111  1.00  0.00     0.124 S 
ATOM     82  O   UNL A   1      34.016  33.621  31.164  1.00  0.00    -0.237 OA
ATOM     83  O   UNL A   1      35.728  34.093  29.438  1.00  0.00    -0.237 OA
ATOM     84  O   UNL A   1      34.284  32.106  29.236  1.00  0.00    -0.744 OA
ENDBRANCH  77  81
ENDBRANCH  50  74
BRANCH  62  85
ATOM     85  C   UNL A   1      44.101  34.554  29.638  1.00  0.00     0.023 A 
ATOM     86  C   UNL A   1      43.914  35.487  28.602  1.00  0.00     0.031 A 
ATOM     87  C   UNL A   1      44.653  35.019  30.847  1.00  0.00     0.131 A 
ATOM     88  C   UNL A   1      44.320  36.820  28.777  1.00  0.00     0.055 A 
ATOM     89  C   UNL A   1      44.996  36.359  31.037  1.00  0.00     0.041 A 
ATOM     90  F   UNL A   1      44.856  34.177  31.874  1.00  0.00    -0.206 F 
ATOM     91  C   UNL A   1      44.841  37.267  29.995  1.00  0.00     0.022 A 
BRANCH  88  92
ATOM     92  S   UNL A   1      44.235  37.955  27.363  1.00  0.00     0.124 S 
ATOM     93  O   UNL A   1      45.457  37.627  26.636  1.00  0.00    -0.237 OA
ATOM     94  O   UNL A   1      42.985  37.561  26.720  1.00  0.00    -0.237 OA
ATOM     95  O   UNL A   1      44.219  39.278  27.985  1.00  0.00    -0.744 OA
ENDBRANCH  88  92
ENDBRANCH  62  85
ENDBRANCH  36  37
ENDBRANCH  29  31
ENDBRANCH  28  29
ENDBRANCH  27  28
ENDBRANCH   1  27
TORSDOF 19
ENDMDL
MODEL 2
REMARK VINA RESULT:     -11.7      4.729     10.086
REMARK SMILES O=C(C[C@H](Cc1ccc(Cl)cc1)C(=O)Nc1cc(Cl)ccc1Cl)OCCOC(=O)c1ccc(-c2c3nc(c(-c4cc(S(=O)(=O)[O-])ccc4F)c4ccc([nH]4)c(-c4cc(S(=O)(=O)[O-])ccc4F)c4nc(c(-c5cc(S(=O)(=O)[O-])ccc5F)c5ccc2[nH]5)C=C4)C=C3)cc1
REMARK SMILES IDX 25 1 24 2 2 3 1 4 3 5 4 6 13 7 14 8 15 9 16 11 17 12 22 13
REMARK SMILES IDX 18 14 21 15 23 16 19 17 20 18 5 19 6 20 7 21 12 22 8 23
REMARK SMILES IDX 11 24 9 25 10 26 26 27 27 28 28 29 29 30 30 31 31 32 92 33
REMARK SMILES IDX 32 34 91 35 33 36 34 37 35 38 85 39 36 40 90 41 84 42 86 43
REMARK SMILES IDX 37 44 89 45 83 46 82 47 38 49 70 50 50 51 69 52 51 53 54 54
REMARK SMILES IDX 68 55 87 56 52 57 53 58 67 60 88 61 55 62 39 63 40 64 48 65
REMARK SMILES IDX 41 66 47 67 49 68 46 69 42 70 43 71 44 72 45 73 71 74 72 75
REMARK SMILES IDX 80 76 73 77 79 78 81 79 78 80 74 81 75 82 76 83 77 84 56 85
REMARK SMILES IDX 57 86 65 87 58 88 64 89 66 90 63 91 59 92 60 93 61 94 62 95
REMARK H PARENT 15 10 86 48 54 59
REMARK Flexibility Score: inf
ROOT
ATOM      1  C   UNL A   1      31.415  30.366  25.670  1.00  0.00     0.274 C 
ENDROOT
BRANCH   1   2
ATOM      2  O   UNL A   1      32.471  29.486  25.294  1.00  0.00    -0.462 OA
BRANCH   2   3
ATOM      3  C   UNL A   1      32.143  28.531  24.389  1.00  0.00     0.306 C 
ATOM      4  O   UNL A   1      31.391  28.699  23.438  1.00  0.00    -0.252 OA
BRANCH   3   5
ATOM      5  C   UNL A   1      32.576  27.173  24.895  1.00  0.00     0.136 C 
BRANCH   5   6
ATOM      6  C   UNL A   1      31.500  26.309  25.562  1.00  0.00     0.094 C 
BRANCH   6   7
ATOM      7  C   UNL A   1      30.311  25.850  24.612  1.00  0.00     0.228 C 
ATOM      8  O   UNL A   1      29.152  26.158  24.920  1.00  0.00    -0.274 OA
ATOM      9  N   UNL A   1      30.487  25.236  23.380  1.00  0.00    -0.324 N 
ATOM     10  H   UNL A   1      29.782  25.388  22.710  1.00  0.00     0.169 HD
BRANCH   9  11
ATOM     11  C   UNL A   1      31.559  24.424  22.985  1.00  0.00     0.061 A 
ATOM     12  C   UNL A   1      31.403  23.077  23.273  1.00  0.00     0.048 A 
ATOM     13  C   UNL A   1      32.680  24.816  22.295  1.00  0.00     0.064 A 
ATOM     14  C   UNL A   1      32.429  22.033  23.500  1.00  0.00     0.043 A 
ATOM     15  C   UNL A   1      33.743  23.929  22.246  1.00  0.00     0.024 A 
ATOM     16  Cl  UNL A   1      32.771  26.321  21.470  1.00  0.00    -0.082 Cl
ATOM     17  Cl  UNL A   1      32.130  19.933  24.750  1.00  0.00    -0.084 Cl
ATOM     18  C   UNL A   1      33.663  22.647  22.875  1.00  0.00     0.022 A 
ENDBRANCH   9  11
ENDBRANCH   6   7
BRANCH   6  19
ATOM     19  C   UNL A   1      32.120  25.332  26.621  1.00  0.00     0.049 C 
BRANCH  19  20
ATOM     20  C   UNL A   1      33.223  24.353  26.215  1.00  0.00    -0.047 A 
ATOM     21  C   UNL A   1      33.243  22.633  26.814  1.00  0.00     0.005 A 
ATOM     22  C   UNL A   1      34.724  25.033  25.378  1.00  0.00     0.005 A 
ATOM     23  C   UNL A   1      34.702  21.575  26.527  1.00  0.00     0.021 A 
ATOM     24  C   UNL A   1      36.219  24.015  25.213  1.00  0.00     0.021 A 
ATOM     25  C   UNL A   1      36.195  22.279  25.728  1.00  0.00     0.041 A 
ATOM     26  Cl  UNL A   1      37.560  21.275  25.418  1.00  0.00    -0.084 Cl
ENDBRANCH  19  20
ENDBRANCH   6  19
ENDBRANCH   5   6
ENDBRANCH   3   5
ENDBRANCH   2   3
ENDBRANCH   1   2
BRANCH   1  27
ATOM     27  C   UNL A   1      31.865  31.360  26.754  1.00  0.00     0.275 C 
BRANCH  27  28
ATOM     28  O   UNL A   1      33.073  30.959  27.433  1.00  0.00    -0.458 OA
BRANCH  28  29
ATOM     29  C   UNL A   1      33.935  31.943  27.778  1.00  0.00     0.338 C 
ATOM     30  O   UNL A   1      33.677  33.128  27.882  1.00  0.00    -0.246 OA
BRANCH  29  31
ATOM     31  C   UNL A   1      35.267  31.362  28.070  1.00  0.00     0.060 A 
ATOM     32  C   UNL A   1      35.391  29.981  28.244  1.00  0.00     0.016 A 
ATOM     33  C   UNL A   1      36.375  32.179  28.279  1.00  0.00     0.016 A 
ATOM     34  C   UNL A   1      36.609  29.421  28.671  1.00  0.00     0.010 A 
ATOM     35  C   UNL A   1      37.596  31.604  28.680  1.00  0.00     0.010 A 
ATOM     36  C   UNL A   1      37.736  30.222  28.917  1.00  0.00    -0.014 A 
BRANCH  36  37
ATOM     37  C   UNL A   1      38.999  29.654  29.522  1.00  0.00     0.031 A 
ATOM     38  C   UNL A   1      39.439  30.082  30.913  1.00  0.00     0.074 A 
ATOM     39  C   UNL A   1      39.781  28.764  28.866  1.00  0.00     0.049 A 
ATOM     40  N   UNL A   1      40.501  29.732  31.601  1.00  0.00    -0.248 NA
ATOM     41  C   UNL A   1      38.597  31.073  31.597  1.00  0.00     0.031 C 
ATOM     42  C   UNL A   1      39.566  28.282  27.501  1.00  0.00     0.029 A 
ATOM     43  N   UNL A   1      40.923  28.099  29.265  1.00  0.00    -0.354 N 
ATOM     44  C   UNL A   1      40.465  30.486  32.773  1.00  0.00     0.074 A 
ATOM     45  C   UNL A   1      39.339  31.386  32.646  1.00  0.00     0.031 C 
ATOM     46  C   UNL A   1      40.509  27.372  27.197  1.00  0.00     0.029 A 
ATOM     47  C   UNL A   1      41.425  27.220  28.329  1.00  0.00     0.049 A 
ATOM     48  H   UNL A   1      41.343  28.239  30.146  1.00  0.00     0.167 HD
ATOM     49  C   UNL A   1      41.244  30.410  33.883  1.00  0.00     0.034 A 
ATOM     50  C   UNL A   1      42.487  26.384  28.366  1.00  0.00     0.034 A 
ATOM     51  C   UNL A   1      42.329  29.477  34.055  1.00  0.00     0.049 A 
ATOM     52  C   UNL A   1      43.349  26.308  29.610  1.00  0.00     0.074 A 
ATOM     53  C   UNL A   1      43.111  29.266  35.179  1.00  0.00     0.029 A 
ATOM     54  N   UNL A   1      42.787  28.599  33.085  1.00  0.00    -0.354 N 
ATOM     55  N   UNL A   1      43.239  26.970  30.738  1.00  0.00    -0.248 NA
ATOM     56  C   UNL A   1      44.473  25.356  29.590  1.00  0.00     0.031 C 
ATOM     57  C   UNL A   1      44.083  28.311  34.867  1.00  0.00     0.029 A 
ATOM     58  C   UNL A   1      43.858  27.865  33.576  1.00  0.00     0.049 A 
ATOM     59  H   UNL A   1      42.408  28.508  32.180  1.00  0.00     0.167 HD
ATOM     60  C   UNL A   1      44.248  26.481  31.569  1.00  0.00     0.074 A 
ATOM     61  C   UNL A   1      44.950  25.462  30.820  1.00  0.00     0.031 C 
ATOM     62  C   UNL A   1      44.558  26.840  32.841  1.00  0.00     0.034 A 
BRANCH  49  63
ATOM     63  C   UNL A   1      40.935  31.368  35.013  1.00  0.00     0.023 A 
ATOM     64  C   UNL A   1      39.860  31.143  35.892  1.00  0.00     0.031 A 
ATOM     65  C   UNL A   1      41.693  32.538  35.195  1.00  0.00     0.131 A 
ATOM     66  C   UNL A   1      39.502  32.122  36.828  1.00  0.00     0.055 A 
ATOM     67  C   UNL A   1      41.398  33.459  36.202  1.00  0.00     0.041 A 
ATOM     68  F   UNL A   1      42.727  32.816  34.384  1.00  0.00    -0.206 F 
ATOM     69  C   UNL A   1      40.281  33.266  37.011  1.00  0.00     0.022 A 
BRANCH  66  70
ATOM     70  S   UNL A   1      37.900  31.964  37.661  1.00  0.00     0.124 S 
ATOM     71  O   UNL A   1      37.594  30.552  37.442  1.00  0.00    -0.237 OA
ATOM     72  O   UNL A   1      38.218  32.344  39.033  1.00  0.00    -0.237 OA
ATOM     73  O   UNL A   1      37.043  32.899  36.935  1.00  0.00    -0.744 OA
ENDBRANCH  66  70
ENDBRANCH  49  63
BRANCH  50  74
ATOM     74  C   UNL A   1      42.830  25.522  27.190  1.00  0.00     0.023 A 
ATOM     75  C   UNL A   1      42.371  24.196  27.101  1.00  0.00     0.031 A 
ATOM     76  C   UNL A   1      43.702  25.981  26.185  1.00  0.00     0.131 A 
ATOM     77  C   UNL A   1      42.832  23.358  26.071  1.00  0.00     0.055 A 
ATOM     78  C   UNL A   1      44.110  25.161  25.131  1.00  0.00     0.041 A 
ATOM     79  F   UNL A   1      44.175  27.236  26.221  1.00  0.00    -0.206 F 
ATOM     80  C   UNL A   1      43.688  23.837  25.078  1.00  0.00     0.022 A 
BRANCH  77  81
ATOM     81  S   UNL A   1      42.383  21.599  26.108  1.00  0.00     0.124 S 
ATOM     82  O   UNL A   1      41.000  21.637  25.646  1.00  0.00    -0.237 OA
ATOM     83  O   UNL A   1      43.353  21.018  25.186  1.00  0.00    -0.237 OA
ATOM     84  O   UNL A   1      42.563  21.231  27.511  1.00  0.00    -0.744 OA
ENDBRANCH  77  81
ENDBRANCH  50  74
BRANCH  62  85
ATOM     85  C   UNL A   1      45.664  26.083  33.543  1.00  0.00     0.023 A 
ATOM     86  C   UNL A   1      45.438  24.861  34.200  1.00  0.00     0.031 A 
ATOM     87  C   UNL A   1      46.977  26.591  33.536  1.00  0.00     0.131 A 
ATOM     88  C   UNL A   1      46.495  24.214  34.862  1.00  0.00     0.055 A 
ATOM     89  C   UNL A   1      48.036  25.913  34.142  1.00  0.00     0.041 A 
ATOM     90  F   UNL A   1      47.257  27.755  32.926  1.00  0.00    -0.206 F 
ATOM     91  C   UNL A   1      47.796  24.722  34.820  1.00  0.00     0.022 A 
BRANCH  88  92
ATOM     92  S   UNL A   1      46.136  22.736  35.853  1.00  0.00     0.124 S 
ATOM     93  O   UNL A   1      46.421  23.201  37.207  1.00  0.00    -0.237 OA
ATOM     94  O   UNL A   1      44.730  22.489  35.547  1.00  0.00    -0.237 OA
ATOM     95  O   UNL A   1      47.067  21.738  35.330  1.00  0.00    -0.744 OA
ENDBRANCH  88  92
ENDBRANCH  62  85
ENDBRANCH  36  37
ENDBRANCH  29  31
ENDBRANCH  28  29
ENDBRANCH  27  28
ENDBRANCH   1  27
TORSDOF 19
ENDMDL
MODEL 3
REMARK VINA RESULT:     -11.7      1.588      3.107
REMARK SMILES O=C(C[C@H](Cc1ccc(Cl)cc1)C(=O)Nc1cc(Cl)ccc1Cl)OCCOC(=O)c1ccc(-c2c3nc(c(-c4cc(S(=O)(=O)[O-])ccc4F)c4ccc([nH]4)c(-c4cc(S(=O)(=O)[O-])ccc4F)c4nc(c(-c5cc(S(=O)(=O)[O-])ccc5F)c5ccc2[nH]5)C=C4)C=C3)cc1
REMARK SMILES IDX 25 1 24 2 2 3 1 4 3 5 4 6 13 7 14 8 15 9 16 11 17 12 22 13
REMARK SMILES IDX 18 14 21 15 23 16 19 17 20 18 5 19 6 20 7 21 12 22 8 23
REMARK SMILES IDX 11 24 9 25 10 26 26 27 27 28 28 29 29 30 30 31 31 32 92 33
REMARK SMILES IDX 32 34 91 35 33 36 34 37 35 38 85 39 36 40 90 41 84 42 86 43
REMARK SMILES IDX 37 44 89 45 83 46 82 47 38 49 70 50 50 51 69 52 51 53 54 54
REMARK SMILES IDX 68 55 87 56 52 57 53 58 67 60 88 61 55 62 39 63 40 64 48 65
REMARK SMILES IDX 41 66 47 67 49 68 46 69 42 70 43 71 44 72 45 73 71 74 72 75
REMARK SMILES IDX 80 76 73 77 79 78 81 79 78 80 74 81 75 82 76 83 77 84 56 85
REMARK SMILES IDX 57 86 65 87 58 88 64 89 66 90 63 91 59 92 60 93 61 94 62 95
REMARK H PARENT 15 10 86 48 54 59
REMARK Flexibility Score: inf
ROOT
ATOM      1  C   UNL A   1      36.219  21.884  24.374  1.00  0.00     0.274 C 
ENDROOT
BRANCH   1   2
ATOM      2  O   UNL A   1      36.262  23.210  23.849  1.00  0.00    -0.462 OA
BRANCH   2   3
ATOM      3  C   UNL A   1      35.111  23.918  23.955  1.00  0.00     0.306 C 
ATOM      4  O   UNL A   1      34.743  24.506  24.965  1.00  0.00    -0.252 OA
BRANCH   3   5
ATOM      5  C   UNL A   1      34.213  23.620  22.775  1.00  0.00     0.136 C 
BRANCH   5   6
ATOM      6  C   UNL A   1      32.898  24.402  22.695  1.00  0.00     0.094 C 
BRANCH   6   7
ATOM      7  C   UNL A   1      32.736  25.333  21.416  1.00  0.00     0.228 C 
ATOM      8  O   UNL A   1      33.256  24.975  20.352  1.00  0.00    -0.274 OA
ATOM      9  N   UNL A   1      31.933  26.464  21.369  1.00  0.00    -0.324 N 
ATOM     10  H   UNL A   1      31.560  26.700  20.489  1.00  0.00     0.169 HD
BRANCH   9  11
ATOM     11  C   UNL A   1      31.596  27.307  22.437  1.00  0.00     0.061 A 
ATOM     12  C   UNL A   1      30.246  27.340  22.746  1.00  0.00     0.048 A 
ATOM     13  C   UNL A   1      32.462  28.022  23.227  1.00  0.00     0.064 A 
ATOM     14  C   UNL A   1      29.449  28.410  23.391  1.00  0.00     0.043 A 
ATOM     15  C   UNL A   1      31.921  29.004  24.043  1.00  0.00     0.024 A 
ATOM     16  Cl  UNL A   1      34.150  27.699  23.267  1.00  0.00    -0.082 Cl
ATOM     17  Cl  UNL A   1      27.016  28.745  23.194  1.00  0.00    -0.084 Cl
ATOM     18  C   UNL A   1      30.512  29.246  24.070  1.00  0.00     0.022 A 
ENDBRANCH   9  11
ENDBRANCH   6   7
BRANCH   6  19
ATOM     19  C   UNL A   1      31.693  23.562  23.248  1.00  0.00     0.049 C 
BRANCH  19  20
ATOM     20  C   UNL A   1      31.864  22.072  23.544  1.00  0.00    -0.047 A 
ATOM     21  C   UNL A   1      32.452  21.480  25.164  1.00  0.00     0.005 A 
ATOM     22  C   UNL A   1      31.791  20.890  22.126  1.00  0.00     0.005 A 
ATOM     23  C   UNL A   1      32.892  19.725  25.398  1.00  0.00     0.021 A 
ATOM     24  C   UNL A   1      32.356  19.176  22.333  1.00  0.00     0.021 A 
ATOM     25  C   UNL A   1      32.848  18.576  23.969  1.00  0.00     0.041 A 
ATOM     26  Cl  UNL A   1      33.225  16.910  24.193  1.00  0.00    -0.084 Cl
ENDBRANCH  19  20
ENDBRANCH   6  19
ENDBRANCH   5   6
ENDBRANCH   3   5
ENDBRANCH   2   3
ENDBRANCH   1   2
BRANCH   1  27
ATOM     27  C   UNL A   1      37.625  21.365  24.717  1.00  0.00     0.275 C 
BRANCH  27  28
ATOM     28  O   UNL A   1      38.056  21.714  26.049  1.00  0.00    -0.458 OA
BRANCH  28  29
ATOM     29  C   UNL A   1      39.388  21.838  26.247  1.00  0.00     0.338 C 
ATOM     30  O   UNL A   1      40.248  21.045  25.907  1.00  0.00    -0.246 OA
BRANCH  29  31
ATOM     31  C   UNL A   1      39.678  23.132  26.911  1.00  0.00     0.060 A 
ATOM     32  C   UNL A   1      38.902  24.251  26.601  1.00  0.00     0.016 A 
ATOM     33  C   UNL A   1      40.776  23.274  27.756  1.00  0.00     0.016 A 
ATOM     34  C   UNL A   1      39.249  25.521  27.098  1.00  0.00     0.010 A 
ATOM     35  C   UNL A   1      41.097  24.545  28.269  1.00  0.00     0.010 A 
ATOM     36  C   UNL A   1      40.366  25.701  27.929  1.00  0.00    -0.014 A 
BRANCH  36  37
ATOM     37  C   UNL A   1      40.837  27.076  28.342  1.00  0.00     0.031 A 
ATOM     38  C   UNL A   1      42.258  27.521  28.034  1.00  0.00     0.074 A 
ATOM     39  C   UNL A   1      40.036  27.952  28.995  1.00  0.00     0.049 A 
ATOM     40  N   UNL A   1      42.865  28.648  28.324  1.00  0.00    -0.248 NA
ATOM     41  C   UNL A   1      43.124  26.546  27.355  1.00  0.00     0.031 C 
ATOM     42  C   UNL A   1      38.667  27.690  29.438  1.00  0.00     0.029 A 
ATOM     43  N   UNL A   1      40.262  29.253  29.400  1.00  0.00    -0.354 N 
ATOM     44  C   UNL A   1      44.182  28.496  27.893  1.00  0.00     0.074 A 
ATOM     45  C   UNL A   1      44.306  27.133  27.427  1.00  0.00     0.031 C 
ATOM     46  C   UNL A   1      38.163  28.800  30.007  1.00  0.00     0.029 A 
ATOM     47  C   UNL A   1      39.178  29.854  30.004  1.00  0.00     0.049 A 
ATOM     48  H   UNL A   1      41.123  29.712  29.266  1.00  0.00     0.167 HD
ATOM     49  C   UNL A   1      45.188  29.408  27.826  1.00  0.00     0.034 A 
ATOM     50  C   UNL A   1      39.007  31.103  30.495  1.00  0.00     0.034 A 
ATOM     51  C   UNL A   1      45.066  30.787  28.224  1.00  0.00     0.049 A 
ATOM     52  C   UNL A   1      40.137  32.110  30.414  1.00  0.00     0.074 A 
ATOM     53  C   UNL A   1      46.001  31.803  28.104  1.00  0.00     0.029 A 
ATOM     54  N   UNL A   1      43.945  31.351  28.815  1.00  0.00    -0.354 N 
ATOM     55  N   UNL A   1      41.344  31.966  29.921  1.00  0.00    -0.248 NA
ATOM     56  C   UNL A   1      39.871  33.459  30.943  1.00  0.00     0.031 C 
ATOM     57  C   UNL A   1      45.473  32.960  28.684  1.00  0.00     0.029 A 
ATOM     58  C   UNL A   1      44.177  32.692  29.090  1.00  0.00     0.049 A 
ATOM     59  H   UNL A   1      43.107  30.871  29.009  1.00  0.00     0.167 HD
ATOM     60  C   UNL A   1      41.959  33.213  30.043  1.00  0.00     0.074 A 
ATOM     61  C   UNL A   1      40.989  34.101  30.643  1.00  0.00     0.031 C 
ATOM     62  C   UNL A   1      43.212  33.588  29.680  1.00  0.00     0.034 A 
BRANCH  49  63
ATOM     63  C   UNL A   1      46.518  28.932  27.284  1.00  0.00     0.023 A 
ATOM     64  C   UNL A   1      46.670  28.558  25.936  1.00  0.00     0.031 A 
ATOM     65  C   UNL A   1      47.638  28.811  28.126  1.00  0.00     0.131 A 
ATOM     66  C   UNL A   1      47.867  27.976  25.500  1.00  0.00     0.055 A 
ATOM     67  C   UNL A   1      48.863  28.331  27.657  1.00  0.00     0.041 A 
ATOM     68  F   UNL A   1      47.557  29.142  29.424  1.00  0.00    -0.206 F 
ATOM     69  C   UNL A   1      48.976  27.886  26.343  1.00  0.00     0.022 A 
BRANCH  66  70
ATOM     70  S   UNL A   1      47.883  27.165  23.878  1.00  0.00     0.124 S 
ATOM     71  O   UNL A   1      47.260  28.183  23.036  1.00  0.00    -0.237 OA
ATOM     72  O   UNL A   1      49.305  26.934  23.655  1.00  0.00    -0.237 OA
ATOM     73  O   UNL A   1      47.079  25.963  24.089  1.00  0.00    -0.744 OA
ENDBRANCH  66  70
ENDBRANCH  49  63
BRANCH  50  74
ATOM     74  C   UNL A   1      37.710  31.513  31.121  1.00  0.00     0.023 A 
ATOM     75  C   UNL A   1      36.710  32.157  30.369  1.00  0.00     0.031 A 
ATOM     76  C   UNL A   1      37.490  31.355  32.501  1.00  0.00     0.131 A 
ATOM     77  C   UNL A   1      35.570  32.673  31.009  1.00  0.00     0.055 A 
ATOM     78  C   UNL A   1      36.327  31.817  33.121  1.00  0.00     0.041 A 
ATOM     79  F   UNL A   1      38.411  30.752  33.269  1.00  0.00    -0.206 F 
ATOM     80  C   UNL A   1      35.366  32.494  32.378  1.00  0.00     0.022 A 
BRANCH  77  81
ATOM     81  S   UNL A   1      34.406  33.677  30.043  1.00  0.00     0.124 S 
ATOM     82  O   UNL A   1      33.588  34.273  31.093  1.00  0.00    -0.237 OA
ATOM     83  O   UNL A   1      35.302  34.585  29.334  1.00  0.00    -0.237 OA
ATOM     84  O   UNL A   1      33.725  32.694  29.202  1.00  0.00    -0.744 OA
ENDBRANCH  77  81
ENDBRANCH  50  74
BRANCH  62  85
ATOM     85  C   UNL A   1      43.598  35.040  29.856  1.00  0.00     0.023 A 
ATOM     86  C   UNL A   1      43.177  36.043  28.963  1.00  0.00     0.031 A 
ATOM     87  C   UNL A   1      44.389  35.430  30.954  1.00  0.00     0.131 A 
ATOM     88  C   UNL A   1      43.588  37.372  29.156  1.00  0.00     0.055 A 
ATOM     89  C   UNL A   1      44.743  36.762  31.174  1.00  0.00     0.041 A 
ATOM     90  F   UNL A   1      44.823  34.519  31.840  1.00  0.00    -0.206 F 
ATOM     91  C   UNL A   1      44.352  37.741  30.267  1.00  0.00     0.022 A 
BRANCH  88  92
ATOM     92  S   UNL A   1      43.182  38.607  27.890  1.00  0.00     0.124 S 
ATOM     93  O   UNL A   1      42.120  39.370  28.540  1.00  0.00    -0.237 OA
ATOM     94  O   UNL A   1      44.452  39.305  27.716  1.00  0.00    -0.237 OA
ATOM     95  O   UNL A   1      42.757  37.802  26.747  1.00  0.00    -0.744 OA
ENDBRANCH  88  92
ENDBRANCH  62  85
ENDBRANCH  36  37
ENDBRANCH  29  31
ENDBRANCH  28  29
ENDBRANCH  27  28
ENDBRANCH   1  27
TORSDOF 19
ENDMDL
