MODEL 1
REMARK VINA RESULT:     -12.3      0.000      0.000
REMARK SMILES O=C(OCCOC(=O)[C@H]1CCC(=O)N(C2CCCCC2)[C@H]1c1ccccc1)c1ccc(-c2c3nc(c(-c4cc(S(=O)(=O)[O-])ccc4F)c4ccc([nH]4)c(-c4cc(S(=O)(=O)[O-])ccc4F)c4nc(c(-c5cc(S(=O)(=O)[O-])ccc5F)c5ccc2[nH]5)C=C4)C=C3)cc1
REMARK SMILES IDX 4 1 3 2 2 3 1 4 28 5 29 6 90 7 30 8 89 9 31 10 32 11 33 12
REMARK SMILES IDX 83 13 34 14 88 15 82 16 84 17 35 18 87 19 81 20 80 21 36 23
REMARK SMILES IDX 68 24 48 25 67 26 49 27 52 28 66 29 85 30 50 31 51 32 65 34
REMARK SMILES IDX 86 35 53 36 37 37 38 38 46 39 39 40 45 41 47 42 44 43 40 44
REMARK SMILES IDX 41 45 42 46 43 47 69 48 70 49 78 50 71 51 77 52 79 53 76 54
REMARK SMILES IDX 72 55 73 56 74 57 75 58 54 59 55 60 63 61 56 62 62 63 64 64
REMARK SMILES IDX 61 65 57 66 58 67 59 68 60 69 5 70 6 71 7 72 8 73 9 74 10 75
REMARK SMILES IDX 21 76 11 77 14 78 12 79 13 80 22 81 23 82 27 83 24 84 26 85
REMARK SMILES IDX 25 86 15 87 16 88 20 89 17 90 19 91 18 92
REMARK H PARENT 84 22 52 33
REMARK Flexibility Score: inf
ROOT
ATOM      1  C   UNL A   1      37.336  22.608  25.007  1.00  0.00     0.275 C 
ENDROOT
BRANCH   1   2
ATOM      2  O   UNL A   1      38.124  22.093  26.098  1.00  0.00    -0.458 OA
BRANCH   2   3
ATOM      3  C   UNL A   1      39.334  22.498  26.556  1.00  0.00     0.338 C 
ATOM      4  O   UNL A   1      40.208  21.664  26.786  1.00  0.00    -0.246 OA
BRANCH   3   5
ATOM      5  C   UNL A   1      39.596  23.913  26.937  1.00  0.00     0.060 A 
ATOM      6  C   UNL A   1      40.161  24.861  26.084  1.00  0.00     0.016 A 
ATOM      7  C   UNL A   1      39.293  24.287  28.259  1.00  0.00     0.016 A 
ATOM      8  C   UNL A   1      40.315  26.186  26.498  1.00  0.00     0.010 A 
ATOM      9  C   UNL A   1      39.477  25.605  28.689  1.00  0.00     0.010 A 
ATOM     10  C   UNL A   1      39.981  26.563  27.802  1.00  0.00    -0.014 A 
BRANCH  10  11
ATOM     11  C   UNL A   1      40.389  27.905  28.272  1.00  0.00     0.031 A 
ATOM     12  C   UNL A   1      41.857  28.221  28.245  1.00  0.00     0.074 A 
ATOM     13  C   UNL A   1      39.486  28.839  28.618  1.00  0.00     0.049 A 
ATOM     14  N   UNL A   1      42.454  29.367  28.420  1.00  0.00    -0.248 NA
ATOM     15  C   UNL A   1      42.763  27.104  27.927  1.00  0.00     0.031 C 
ATOM     16  C   UNL A   1      38.035  28.666  28.601  1.00  0.00     0.029 A 
ATOM     17  N   UNL A   1      39.654  30.127  29.057  1.00  0.00    -0.354 N 
ATOM     18  C   UNL A   1      43.792  29.131  28.139  1.00  0.00     0.074 A 
ATOM     19  C   UNL A   1      43.935  27.715  27.884  1.00  0.00     0.031 C 
ATOM     20  C   UNL A   1      37.448  29.773  29.086  1.00  0.00     0.029 A 
ATOM     21  C   UNL A   1      38.479  30.752  29.406  1.00  0.00     0.049 A 
ATOM     22  H   UNL A   1      40.535  30.563  29.116  1.00  0.00     0.167 HD
ATOM     23  C   UNL A   1      44.803  30.027  28.054  1.00  0.00     0.034 A 
ATOM     24  C   UNL A   1      38.265  31.981  29.913  1.00  0.00     0.034 A 
ATOM     25  C   UNL A   1      44.657  31.413  28.410  1.00  0.00     0.049 A 
ATOM     26  C   UNL A   1      39.444  32.916  30.009  1.00  0.00     0.074 A 
ATOM     27  C   UNL A   1      45.615  32.408  28.437  1.00  0.00     0.029 A 
ATOM     28  N   UNL A   1      43.467  31.991  28.841  1.00  0.00    -0.354 N 
ATOM     29  N   UNL A   1      40.696  32.700  29.670  1.00  0.00    -0.248 NA
ATOM     30  C   UNL A   1      39.175  34.273  30.498  1.00  0.00     0.031 C 
ATOM     31  C   UNL A   1      45.020  33.570  28.942  1.00  0.00     0.029 A 
ATOM     32  C   UNL A   1      43.674  33.320  29.169  1.00  0.00     0.049 A 
ATOM     33  H   UNL A   1      42.603  31.524  28.903  1.00  0.00     0.167 HD
ATOM     34  C   UNL A   1      41.353  33.912  29.856  1.00  0.00     0.074 A 
ATOM     35  C   UNL A   1      40.355  34.851  30.329  1.00  0.00     0.031 C 
ATOM     36  C   UNL A   1      42.657  34.228  29.645  1.00  0.00     0.034 A 
BRANCH  23  37
ATOM     37  C   UNL A   1      46.132  29.494  27.590  1.00  0.00     0.023 A 
ATOM     38  C   UNL A   1      46.321  29.097  26.251  1.00  0.00     0.031 A 
ATOM     39  C   UNL A   1      47.186  29.297  28.494  1.00  0.00     0.131 A 
ATOM     40  C   UNL A   1      47.512  28.461  25.872  1.00  0.00     0.055 A 
ATOM     41  C   UNL A   1      48.394  28.722  28.095  1.00  0.00     0.041 A 
ATOM     42  F   UNL A   1      47.046  29.628  29.787  1.00  0.00    -0.206 F 
ATOM     43  C   UNL A   1      48.558  28.288  26.781  1.00  0.00     0.022 A 
BRANCH  40  44
ATOM     44  S   UNL A   1      47.623  27.750  24.206  1.00  0.00     0.124 S 
ATOM     45  O   UNL A   1      46.837  28.705  23.424  1.00  0.00    -0.237 OA
ATOM     46  O   UNL A   1      49.054  27.745  23.955  1.00  0.00    -0.237 OA
ATOM     47  O   UNL A   1      47.009  26.429  24.358  1.00  0.00    -0.744 OA
ENDBRANCH  40  44
ENDBRANCH  23  37
BRANCH  24  48
ATOM     48  C   UNL A   1      36.905  32.400  30.361  1.00  0.00     0.023 A 
ATOM     49  C   UNL A   1      35.996  33.024  29.491  1.00  0.00     0.031 A 
ATOM     50  C   UNL A   1      36.522  32.242  31.706  1.00  0.00     0.131 A 
ATOM     51  C   UNL A   1      34.776  33.515  29.986  1.00  0.00     0.055 A 
ATOM     52  C   UNL A   1      35.290  32.693  32.184  1.00  0.00     0.041 A 
ATOM     53  F   UNL A   1      37.349  31.647  32.581  1.00  0.00    -0.206 F 
ATOM     54  C   UNL A   1      34.415  33.350  31.325  1.00  0.00     0.022 A 
BRANCH  51  55
ATOM     55  S   UNL A   1      33.702  34.464  28.872  1.00  0.00     0.124 S 
ATOM     56  O   UNL A   1      32.694  34.980  29.792  1.00  0.00    -0.237 OA
ATOM     57  O   UNL A   1      34.632  35.446  28.326  1.00  0.00    -0.237 OA
ATOM     58  O   UNL A   1      33.225  33.462  27.923  1.00  0.00    -0.744 OA
ENDBRANCH  51  55
ENDBRANCH  24  48
BRANCH  36  59
ATOM     59  C   UNL A   1      43.047  35.663  29.888  1.00  0.00     0.023 A 
ATOM     60  C   UNL A   1      42.887  36.643  28.895  1.00  0.00     0.031 A 
ATOM     61  C   UNL A   1      43.615  36.043  31.116  1.00  0.00     0.131 A 
ATOM     62  C   UNL A   1      43.360  37.943  29.121  1.00  0.00     0.055 A 
ATOM     63  C   UNL A   1      44.021  37.355  31.359  1.00  0.00     0.041 A 
ATOM     64  F   UNL A   1      43.789  35.144  32.097  1.00  0.00    -0.206 F 
ATOM     65  C   UNL A   1      43.910  38.310  30.351  1.00  0.00     0.022 A 
BRANCH  62  66
ATOM     66  S   UNL A   1      43.344  39.118  27.741  1.00  0.00     0.124 S 
ATOM     67  O   UNL A   1      44.623  38.841  27.094  1.00  0.00    -0.237 OA
ATOM     68  O   UNL A   1      42.154  38.715  27.000  1.00  0.00    -0.237 OA
ATOM     69  O   UNL A   1      43.252  40.420  28.401  1.00  0.00    -0.744 OA
ENDBRANCH  62  66
ENDBRANCH  36  59
ENDBRANCH  10  11
ENDBRANCH   3   5
ENDBRANCH   2   3
ENDBRANCH   1   2
BRANCH   1  70
ATOM     70  C   UNL A   1      35.944  23.140  25.358  1.00  0.00     0.274 C 
BRANCH  70  71
ATOM     71  O   UNL A   1      35.516  24.270  24.591  1.00  0.00    -0.462 OA
BRANCH  71  72
ATOM     72  C   UNL A   1      34.551  23.998  23.676  1.00  0.00     0.311 C 
ATOM     73  O   UNL A   1      34.346  22.880  23.206  1.00  0.00    -0.252 OA
BRANCH  72  74
ATOM     74  C   UNL A   1      33.710  25.196  23.313  1.00  0.00     0.127 C 
ATOM     75  C   UNL A   1      32.546  24.969  22.367  1.00  0.00     0.028 C 
ATOM     76  C   UNL A   1      33.172  25.899  24.564  1.00  0.00     0.130 C 
ATOM     77  C   UNL A   1      31.900  26.293  21.978  1.00  0.00     0.101 C 
ATOM     78  N   UNL A   1      32.704  27.239  24.155  1.00  0.00    -0.332 N 
ATOM     79  C   UNL A   1      31.968  27.432  22.989  1.00  0.00     0.223 C 
ATOM     80  O   UNL A   1      31.433  28.509  22.717  1.00  0.00    -0.275 OA
BRANCH  76  81
ATOM     81  C   UNL A   1      32.120  25.106  25.359  1.00  0.00    -0.025 A 
ATOM     82  C   UNL A   1      30.761  25.462  25.388  1.00  0.00     0.006 A 
ATOM     83  C   UNL A   1      32.500  23.966  26.093  1.00  0.00     0.006 A 
ATOM     84  C   UNL A   1      29.829  24.713  26.111  1.00  0.00     0.000 A 
ATOM     85  C   UNL A   1      31.564  23.197  26.789  1.00  0.00     0.000 A 
ATOM     86  C   UNL A   1      30.228  23.575  26.803  1.00  0.00     0.000 A 
ENDBRANCH  76  81
BRANCH  78  87
ATOM     87  C   UNL A   1      33.047  28.373  25.027  1.00  0.00     0.085 C 
ATOM     88  C   UNL A   1      31.806  28.953  25.730  1.00  0.00     0.025 C 
ATOM     89  C   UNL A   1      34.174  28.071  26.023  1.00  0.00     0.025 C 
ATOM     90  C   UNL A   1      32.164  30.184  26.559  1.00  0.00     0.002 C 
ATOM     91  C   UNL A   1      34.522  29.315  26.839  1.00  0.00     0.002 C 
ATOM     92  C   UNL A   1      33.294  29.888  27.542  1.00  0.00     0.000 C 
ENDBRANCH  78  87
ENDBRANCH  72  74
ENDBRANCH  71  72
ENDBRANCH  70  71
ENDBRANCH   1  70
TORSDOF 16
ENDMDL
MODEL 2
REMARK VINA RESULT:     -12.3      5.016     10.365
REMARK SMILES O=C(OCCOC(=O)[C@H]1CCC(=O)N(C2CCCCC2)[C@H]1c1ccccc1)c1ccc(-c2c3nc(c(-c4cc(S(=O)(=O)[O-])ccc4F)c4ccc([nH]4)c(-c4cc(S(=O)(=O)[O-])ccc4F)c4nc(c(-c5cc(S(=O)(=O)[O-])ccc5F)c5ccc2[nH]5)C=C4)C=C3)cc1
REMARK SMILES IDX 4 1 3 2 2 3 1 4 28 5 29 6 90 7 30 8 89 9 31 10 32 11 33 12
REMARK SMILES IDX 83 13 34 14 88 15 82 16 84 17 35 18 87 19 81 20 80 21 36 23
REMARK SMILES IDX 68 24 48 25 67 26 49 27 52 28 66 29 85 30 50 31 51 32 65 34
REMARK SMILES IDX 86 35 53 36 37 37 38 38 46 39 39 40 45 41 47 42 44 43 40 44
REMARK SMILES IDX 41 45 42 46 43 47 69 48 70 49 78 50 71 51 77 52 79 53 76 54
REMARK SMILES IDX 72 55 73 56 74 57 75 58 54 59 55 60 63 61 56 62 62 63 64 64
REMARK SMILES IDX 61 65 57 66 58 67 59 68 60 69 5 70 6 71 7 72 8 73 9 74 10 75
REMARK SMILES IDX 21 76 11 77 14 78 12 79 13 80 22 81 23 82 27 83 24 84 26 85
REMARK SMILES IDX 25 86 15 87 16 88 20 89 17 90 19 91 18 92
REMARK H PARENT 84 22 52 33
REMARK Flexibility Score: inf
ROOT
ATOM      1  C   UNL A   1      33.608  29.241  26.334  1.00  0.00     0.275 C 
ENDROOT
BRANCH   1   2
ATOM      2  O   UNL A   1      33.675  30.585  26.848  1.00  0.00    -0.458 OA
BRANCH   2   3
ATOM      3  C   UNL A   1      34.674  31.201  27.526  1.00  0.00     0.338 C 
ATOM      4  O   UNL A   1      34.676  32.427  27.626  1.00  0.00    -0.246 OA
BRANCH   3   5
ATOM      5  C   UNL A   1      35.860  30.455  28.028  1.00  0.00     0.060 A 
ATOM      6  C   UNL A   1      35.902  29.780  29.248  1.00  0.00     0.016 A 
ATOM      7  C   UNL A   1      37.018  30.481  27.230  1.00  0.00     0.016 A 
ATOM      8  C   UNL A   1      37.032  29.049  29.617  1.00  0.00     0.010 A 
ATOM      9  C   UNL A   1      38.166  29.778  27.610  1.00  0.00     0.010 A 
ATOM     10  C   UNL A   1      38.170  29.048  28.805  1.00  0.00    -0.014 A 
BRANCH  10  11
ATOM     11  C   UNL A   1      39.420  28.472  29.347  1.00  0.00     0.031 A 
ATOM     12  C   UNL A   1      39.989  29.112  30.580  1.00  0.00     0.074 A 
ATOM     13  C   UNL A   1      39.975  27.365  28.822  1.00  0.00     0.049 A 
ATOM     14  N   UNL A   1      40.952  28.693  31.354  1.00  0.00    -0.248 NA
ATOM     15  C   UNL A   1      39.351  30.363  31.024  1.00  0.00     0.031 C 
ATOM     16  C   UNL A   1      39.460  26.616  27.679  1.00  0.00     0.029 A 
ATOM     17  N   UNL A   1      41.103  26.674  29.181  1.00  0.00    -0.354 N 
ATOM     18  C   UNL A   1      40.971  29.574  32.426  1.00  0.00     0.074 A 
ATOM     19  C   UNL A   1      39.996  30.606  32.153  1.00  0.00     0.031 C 
ATOM     20  C   UNL A   1      40.308  25.619  27.378  1.00  0.00     0.029 A 
ATOM     21  C   UNL A   1      41.406  25.630  28.337  1.00  0.00     0.049 A 
ATOM     22  H   UNL A   1      41.645  26.903  29.971  1.00  0.00     0.167 HD
ATOM     23  C   UNL A   1      41.704  29.498  33.561  1.00  0.00     0.034 A 
ATOM     24  C   UNL A   1      42.446  24.775  28.350  1.00  0.00     0.034 A 
ATOM     25  C   UNL A   1      42.738  28.519  33.766  1.00  0.00     0.049 A 
ATOM     26  C   UNL A   1      43.387  24.832  29.527  1.00  0.00     0.074 A 
ATOM     27  C   UNL A   1      43.600  28.377  34.837  1.00  0.00     0.029 A 
ATOM     28  N   UNL A   1      43.073  27.529  32.849  1.00  0.00    -0.354 N 
ATOM     29  N   UNL A   1      43.350  25.627  30.573  1.00  0.00    -0.248 NA
ATOM     30  C   UNL A   1      44.472  23.845  29.555  1.00  0.00     0.031 C 
ATOM     31  C   UNL A   1      44.494  27.342  34.540  1.00  0.00     0.029 A 
ATOM     32  C   UNL A   1      44.151  26.793  33.313  1.00  0.00     0.049 A 
ATOM     33  H   UNL A   1      42.611  27.372  31.994  1.00  0.00     0.167 HD
ATOM     34  C   UNL A   1      44.375  25.200  31.410  1.00  0.00     0.074 A 
ATOM     35  C   UNL A   1      45.004  24.074  30.746  1.00  0.00     0.031 C 
ATOM     36  C   UNL A   1      44.758  25.680  32.622  1.00  0.00     0.034 A 
BRANCH  23  37
ATOM     37  C   UNL A   1      41.408  30.528  34.618  1.00  0.00     0.023 A 
ATOM     38  C   UNL A   1      40.202  30.490  35.344  1.00  0.00     0.031 A 
ATOM     39  C   UNL A   1      42.285  31.600  34.846  1.00  0.00     0.131 A 
ATOM     40  C   UNL A   1      39.874  31.541  36.212  1.00  0.00     0.055 A 
ATOM     41  C   UNL A   1      41.982  32.610  35.762  1.00  0.00     0.041 A 
ATOM     42  F   UNL A   1      43.432  31.701  34.159  1.00  0.00    -0.206 F 
ATOM     43  C   UNL A   1      40.765  32.592  36.440  1.00  0.00     0.022 A 
BRANCH  40  44
ATOM     44  S   UNL A   1      38.213  31.579  36.941  1.00  0.00     0.124 S 
ATOM     45  O   UNL A   1      37.852  30.161  36.927  1.00  0.00    -0.237 OA
ATOM     46  O   UNL A   1      38.450  32.163  38.250  1.00  0.00    -0.237 OA
ATOM     47  O   UNL A   1      37.451  32.415  36.011  1.00  0.00    -0.744 OA
ENDBRANCH  40  44
ENDBRANCH  23  37
BRANCH  24  48
ATOM     48  C   UNL A   1      42.655  23.803  27.237  1.00  0.00     0.023 A 
ATOM     49  C   UNL A   1      42.043  22.540  27.230  1.00  0.00     0.031 A 
ATOM     50  C   UNL A   1      43.541  24.109  26.187  1.00  0.00     0.131 A 
ATOM     51  C   UNL A   1      42.366  21.609  26.227  1.00  0.00     0.055 A 
ATOM     52  C   UNL A   1      43.826  23.197  25.169  1.00  0.00     0.041 A 
ATOM     53  F   UNL A   1      44.150  25.305  26.139  1.00  0.00    -0.206 F 
ATOM     54  C   UNL A   1      43.250  21.931  25.194  1.00  0.00     0.022 A 
BRANCH  51  55
ATOM     55  S   UNL A   1      41.688  19.930  26.344  1.00  0.00     0.124 S 
ATOM     56  O   UNL A   1      40.262  20.166  26.146  1.00  0.00    -0.237 OA
ATOM     57  O   UNL A   1      42.382  19.251  25.255  1.00  0.00    -0.237 OA
ATOM     58  O   UNL A   1      42.068  19.502  27.687  1.00  0.00    -0.744 OA
ENDBRANCH  51  55
ENDBRANCH  24  48
BRANCH  36  59
ATOM     59  C   UNL A   1      45.882  24.949  33.308  1.00  0.00     0.023 A 
ATOM     60  C   UNL A   1      45.644  23.807  34.090  1.00  0.00     0.031 A 
ATOM     61  C   UNL A   1      47.201  25.423  33.205  1.00  0.00     0.131 A 
ATOM     62  C   UNL A   1      46.699  23.218  34.800  1.00  0.00     0.055 A 
ATOM     63  C   UNL A   1      48.259  24.791  33.860  1.00  0.00     0.041 A 
ATOM     64  F   UNL A   1      47.482  26.511  32.471  1.00  0.00    -0.206 F 
ATOM     65  C   UNL A   1      48.007  23.692  34.676  1.00  0.00     0.022 A 
BRANCH  62  66
ATOM     66  S   UNL A   1      46.315  21.890  35.972  1.00  0.00     0.124 S 
ATOM     67  O   UNL A   1      45.301  21.132  35.247  1.00  0.00    -0.237 OA
ATOM     68  O   UNL A   1      47.607  21.233  36.134  1.00  0.00    -0.237 OA
ATOM     69  O   UNL A   1      45.831  22.604  37.152  1.00  0.00    -0.744 OA
ENDBRANCH  62  66
ENDBRANCH  36  59
ENDBRANCH  10  11
ENDBRANCH   3   5
ENDBRANCH   2   3
ENDBRANCH   1   2
BRANCH   1  70
ATOM     70  C   UNL A   1      32.743  28.250  27.118  1.00  0.00     0.274 C 
BRANCH  70  71
ATOM     71  O   UNL A   1      32.928  26.874  26.766  1.00  0.00    -0.462 OA
BRANCH  71  72
ATOM     72  C   UNL A   1      31.779  26.193  26.532  1.00  0.00     0.311 C 
ATOM     73  O   UNL A   1      30.670  26.721  26.454  1.00  0.00    -0.252 OA
BRANCH  72  74
ATOM     74  C   UNL A   1      31.986  24.713  26.329  1.00  0.00     0.127 C 
ATOM     75  C   UNL A   1      30.816  23.914  25.788  1.00  0.00     0.028 C 
ATOM     76  C   UNL A   1      33.200  24.438  25.435  1.00  0.00     0.130 C 
ATOM     77  C   UNL A   1      31.133  22.423  25.791  1.00  0.00     0.101 C 
ATOM     78  N   UNL A   1      33.560  23.015  25.599  1.00  0.00    -0.332 N 
ATOM     79  C   UNL A   1      32.592  22.014  25.629  1.00  0.00     0.223 C 
ATOM     80  O   UNL A   1      32.880  20.816  25.602  1.00  0.00    -0.275 OA
BRANCH  76  81
ATOM     81  C   UNL A   1      33.036  24.856  23.964  1.00  0.00    -0.025 A 
ATOM     82  C   UNL A   1      32.954  26.200  23.560  1.00  0.00     0.006 A 
ATOM     83  C   UNL A   1      32.969  23.878  22.954  1.00  0.00     0.006 A 
ATOM     84  C   UNL A   1      32.816  26.546  22.213  1.00  0.00     0.000 A 
ATOM     85  C   UNL A   1      32.866  24.224  21.604  1.00  0.00     0.000 A 
ATOM     86  C   UNL A   1      32.783  25.559  21.233  1.00  0.00     0.000 A 
ENDBRANCH  76  81
BRANCH  78  87
ATOM     87  C   UNL A   1      34.988  22.687  25.734  1.00  0.00     0.085 C 
ATOM     88  C   UNL A   1      35.466  21.738  24.620  1.00  0.00     0.025 C 
ATOM     89  C   UNL A   1      35.897  23.916  25.860  1.00  0.00     0.025 C 
ATOM     90  C   UNL A   1      36.925  21.336  24.824  1.00  0.00     0.002 C 
ATOM     91  C   UNL A   1      37.350  23.495  26.070  1.00  0.00     0.002 C 
ATOM     92  C   UNL A   1      37.829  22.558  24.964  1.00  0.00     0.000 C 
ENDBRANCH  78  87
ENDBRANCH  72  74
ENDBRANCH  71  72
ENDBRANCH  70  71
ENDBRANCH   1  70
TORSDOF 16
ENDMDL
MODEL 3
REMARK VINA RESULT:     -12.2      1.466      1.867
REMARK SMILES O=C(OCCOC(=O)[C@H]1CCC(=O)N(C2CCCCC2)[C@H]1c1ccccc1)c1ccc(-c2c3nc(c(-c4cc(S(=O)(=O)[O-])ccc4F)c4ccc([nH]4)c(-c4cc(S(=O)(=O)[O-])ccc4F)c4nc(c(-c5cc(S(=O)(=O)[O-])ccc5F)c5ccc2[nH]5)C=C4)C=C3)cc1
REMARK SMILES IDX 4 1 3 2 2 3 1 4 28 5 29 6 90 7 30 8 89 9 31 10 32 11 33 12
REMARK SMILES IDX 83 13 34 14 88 15 82 16 84 17 35 18 87 19 81 20 80 21 36 23
REMARK SMILES IDX 68 24 48 25 67 26 49 27 52 28 66 29 85 30 50 31 51 32 65 34
REMARK SMILES IDX 86 35 53 36 37 37 38 38 46 39 39 40 45 41 47 42 44 43 40 44
REMARK SMILES IDX 41 45 42 46 43 47 69 48 70 49 78 50 71 51 77 52 79 53 76 54
REMARK SMILES IDX 72 55 73 56 74 57 75 58 54 59 55 60 63 61 56 62 62 63 64 64
REMARK SMILES IDX 61 65 57 66 58 67 59 68 60 69 5 70 6 71 7 72 8 73 9 74 10 75
REMARK SMILES IDX 21 76 11 77 14 78 12 79 13 80 22 81 23 82 27 83 24 84 26 85
REMARK SMILES IDX 25 86 15 87 16 88 20 89 17 90 19 91 18 92
REMARK H PARENT 84 22 52 33
REMARK Flexibility Score: inf
ROOT
ATOM      1  C   UNL A   1      37.428  21.288  25.042  1.00  0.00     0.275 C 
ENDROOT
BRANCH   1   2
ATOM      2  O   UNL A   1      38.102  21.897  26.161  1.00  0.00    -0.458 OA
BRANCH   2   3
ATOM      3  C   UNL A   1      39.361  22.390  26.246  1.00  0.00     0.338 C 
ATOM      4  O   UNL A   1      40.321  21.639  26.080  1.00  0.00    -0.246 OA
BRANCH   3   5
ATOM      5  C   UNL A   1      39.631  23.785  26.686  1.00  0.00     0.060 A 
ATOM      6  C   UNL A   1      40.194  24.768  25.872  1.00  0.00     0.016 A 
ATOM      7  C   UNL A   1      39.336  24.104  28.025  1.00  0.00     0.016 A 
ATOM      8  C   UNL A   1      40.355  26.073  26.342  1.00  0.00     0.010 A 
ATOM      9  C   UNL A   1      39.527  25.401  28.511  1.00  0.00     0.010 A 
ATOM     10  C   UNL A   1      40.029  26.395  27.662  1.00  0.00    -0.014 A 
BRANCH  10  11
ATOM     11  C   UNL A   1      40.446  27.714  28.188  1.00  0.00     0.031 A 
ATOM     12  C   UNL A   1      41.916  28.012  28.198  1.00  0.00     0.074 A 
ATOM     13  C   UNL A   1      39.547  28.646  28.551  1.00  0.00     0.049 A 
ATOM     14  N   UNL A   1      42.524  29.144  28.425  1.00  0.00    -0.248 NA
ATOM     15  C   UNL A   1      42.815  26.896  27.856  1.00  0.00     0.031 C 
ATOM     16  C   UNL A   1      38.095  28.492  28.502  1.00  0.00     0.029 A 
ATOM     17  N   UNL A   1      39.723  29.915  29.039  1.00  0.00    -0.354 N 
ATOM     18  C   UNL A   1      43.864  28.901  28.160  1.00  0.00     0.074 A 
ATOM     19  C   UNL A   1      43.995  27.494  27.856  1.00  0.00     0.031 C 
ATOM     20  C   UNL A   1      37.512  29.588  29.016  1.00  0.00     0.029 A 
ATOM     21  C   UNL A   1      38.549  30.542  29.390  1.00  0.00     0.049 A 
ATOM     22  H   UNL A   1      40.608  30.339  29.130  1.00  0.00     0.167 HD
ATOM     23  C   UNL A   1      44.887  29.787  28.124  1.00  0.00     0.034 A 
ATOM     24  C   UNL A   1      38.340  31.755  29.936  1.00  0.00     0.034 A 
ATOM     25  C   UNL A   1      44.751  31.161  28.527  1.00  0.00     0.049 A 
ATOM     26  C   UNL A   1      39.528  32.671  30.087  1.00  0.00     0.074 A 
ATOM     27  C   UNL A   1      45.720  32.142  28.607  1.00  0.00     0.029 A 
ATOM     28  N   UNL A   1      43.561  31.738  28.958  1.00  0.00    -0.354 N 
ATOM     29  N   UNL A   1      40.784  32.452  29.763  1.00  0.00    -0.248 NA
ATOM     30  C   UNL A   1      39.267  34.013  30.619  1.00  0.00     0.031 C 
ATOM     31  C   UNL A   1      45.130  33.294  29.143  1.00  0.00     0.029 A 
ATOM     32  C   UNL A   1      43.777  33.052  29.337  1.00  0.00     0.049 A 
ATOM     33  H   UNL A   1      42.690  31.280  28.988  1.00  0.00     0.167 HD
ATOM     34  C   UNL A   1      41.451  33.648  30.004  1.00  0.00     0.074 A 
ATOM     35  C   UNL A   1      40.456  34.582  30.492  1.00  0.00     0.031 C 
ATOM     36  C   UNL A   1      42.763  33.956  29.827  1.00  0.00     0.034 A 
BRANCH  23  37
ATOM     37  C   UNL A   1      46.218  29.254  27.664  1.00  0.00     0.023 A 
ATOM     38  C   UNL A   1      46.439  28.941  26.309  1.00  0.00     0.031 A 
ATOM     39  C   UNL A   1      47.239  28.975  28.585  1.00  0.00     0.131 A 
ATOM     40  C   UNL A   1      47.627  28.303  25.924  1.00  0.00     0.055 A 
ATOM     41  C   UNL A   1      48.447  28.400  28.183  1.00  0.00     0.041 A 
ATOM     42  F   UNL A   1      47.068  29.225  29.891  1.00  0.00    -0.206 F 
ATOM     43  C   UNL A   1      48.641  28.047  26.849  1.00  0.00     0.022 A 
BRANCH  40  44
ATOM     44  S   UNL A   1      47.773  27.698  24.219  1.00  0.00     0.124 S 
ATOM     45  O   UNL A   1      47.279  26.326  24.349  1.00  0.00    -0.237 OA
ATOM     46  O   UNL A   1      46.922  28.614  23.480  1.00  0.00    -0.237 OA
ATOM     47  O   UNL A   1      49.206  27.811  23.939  1.00  0.00    -0.744 OA
ENDBRANCH  40  44
ENDBRANCH  23  37
BRANCH  24  48
ATOM     48  C   UNL A   1      36.977  32.175  30.375  1.00  0.00     0.023 A 
ATOM     49  C   UNL A   1      36.082  32.818  29.505  1.00  0.00     0.031 A 
ATOM     50  C   UNL A   1      36.577  31.997  31.713  1.00  0.00     0.131 A 
ATOM     51  C   UNL A   1      34.859  33.308  29.993  1.00  0.00     0.055 A 
ATOM     52  C   UNL A   1      35.343  32.448  32.184  1.00  0.00     0.041 A 
ATOM     53  F   UNL A   1      37.390  31.383  32.588  1.00  0.00    -0.206 F 
ATOM     54  C   UNL A   1      34.481  33.123  31.325  1.00  0.00     0.022 A 
BRANCH  51  55
ATOM     55  S   UNL A   1      33.804  34.282  28.883  1.00  0.00     0.124 S 
ATOM     56  O   UNL A   1      34.742  35.271  28.365  1.00  0.00    -0.237 OA
ATOM     57  O   UNL A   1      33.353  33.268  27.935  1.00  0.00    -0.237 OA
ATOM     58  O   UNL A   1      32.769  34.808  29.770  1.00  0.00    -0.744 OA
ENDBRANCH  51  55
ENDBRANCH  24  48
BRANCH  36  59
ATOM     59  C   UNL A   1      43.165  35.376  30.128  1.00  0.00     0.023 A 
ATOM     60  C   UNL A   1      43.503  35.781  31.430  1.00  0.00     0.031 A 
ATOM     61  C   UNL A   1      43.176  36.339  29.106  1.00  0.00     0.131 A 
ATOM     62  C   UNL A   1      43.767  37.132  31.690  1.00  0.00     0.055 A 
ATOM     63  C   UNL A   1      43.507  37.671  29.359  1.00  0.00     0.041 A 
ATOM     64  F   UNL A   1      42.861  36.004  27.845  1.00  0.00    -0.206 F 
ATOM     65  C   UNL A   1      43.788  38.076  30.661  1.00  0.00     0.022 A 
BRANCH  62  66
ATOM     66  S   UNL A   1      43.976  37.654  33.413  1.00  0.00     0.124 S 
ATOM     67  O   UNL A   1      43.714  36.415  34.138  1.00  0.00    -0.237 OA
ATOM     68  O   UNL A   1      45.356  38.125  33.433  1.00  0.00    -0.237 OA
ATOM     69  O   UNL A   1      42.964  38.696  33.580  1.00  0.00    -0.744 OA
ENDBRANCH  62  66
ENDBRANCH  36  59
ENDBRANCH  10  11
ENDBRANCH   3   5
ENDBRANCH   2   3
ENDBRANCH   1   2
BRANCH   1  70
ATOM     70  C   UNL A   1      35.934  21.590  24.895  1.00  0.00     0.274 C 
BRANCH  70  71
ATOM     71  O   UNL A   1      35.621  22.703  24.050  1.00  0.00    -0.462 OA
BRANCH  71  72
ATOM     72  C   UNL A   1      35.546  23.895  24.692  1.00  0.00     0.311 C 
ATOM     73  O   UNL A   1      36.152  24.156  25.731  1.00  0.00    -0.252 OA
BRANCH  72  74
ATOM     74  C   UNL A   1      34.675  24.905  23.988  1.00  0.00     0.127 C 
ATOM     75  C   UNL A   1      33.800  24.401  22.856  1.00  0.00     0.028 C 
ATOM     76  C   UNL A   1      33.779  25.655  24.980  1.00  0.00     0.130 C 
ATOM     77  C   UNL A   1      33.108  25.561  22.151  1.00  0.00     0.101 C 
ATOM     78  N   UNL A   1      33.261  26.855  24.291  1.00  0.00    -0.332 N 
ATOM     79  C   UNL A   1      32.800  26.804  22.979  1.00  0.00     0.223 C 
ATOM     80  O   UNL A   1      32.217  27.750  22.446  1.00  0.00    -0.275 OA
BRANCH  76  81
ATOM     81  C   UNL A   1      32.674  24.807  25.634  1.00  0.00    -0.025 A 
ATOM     82  C   UNL A   1      32.950  23.718  26.478  1.00  0.00     0.006 A 
ATOM     83  C   UNL A   1      31.319  25.111  25.402  1.00  0.00     0.006 A 
ATOM     84  C   UNL A   1      31.923  22.975  27.065  1.00  0.00     0.000 A 
ATOM     85  C   UNL A   1      30.291  24.391  26.015  1.00  0.00     0.000 A 
ATOM     86  C   UNL A   1      30.593  23.317  26.843  1.00  0.00     0.000 A 
ENDBRANCH  76  81
BRANCH  78  87
ATOM     87  C   UNL A   1      33.252  28.119  25.045  1.00  0.00     0.085 C 
ATOM     88  C   UNL A   1      31.820  28.595  25.350  1.00  0.00     0.025 C 
ATOM     89  C   UNL A   1      34.122  28.094  26.308  1.00  0.00     0.025 C 
ATOM     90  C   UNL A   1      31.825  29.950  26.051  1.00  0.00     0.002 C 
ATOM     91  C   UNL A   1      34.120  29.459  26.993  1.00  0.00     0.002 C 
ATOM     92  C   UNL A   1      32.702  29.931  27.301  1.00  0.00     0.000 C 
ENDBRANCH  78  87
ENDBRANCH  72  74
ENDBRANCH  71  72
ENDBRANCH  70  71
ENDBRANCH   1  70
TORSDOF 16
ENDMDL
