MODEL 1
REMARK VINA RESULT:     -12.2      0.000      0.000
REMARK SMILES COc1ccc(-c2c(C(=O)OCCOC(=O)c3ccc(-c4c5nc(c(-c6cc(S(=O)(=O)[O-])ccc6F)c6ccc([nH]6)c(-c6cc(S(=O)(=O)[O-])ccc6F)c6nc(c(-c7cc(S(=O)(=O)[O-])ccc7F)c7ccc4[nH]7)C=C6)C=C5)cc3)sc3c2N=C(O)C[C@H]3c2ccc(OC)c(OC)c2)cc1
REMARK SMILES IDX 13 1 12 2 11 3 9 4 10 5 8 6 7 7 82 8 80 9 81 10 83 11 87 12
REMARK SMILES IDX 84 13 86 14 6 15 3 16 4 17 99 18 5 19 98 20 2 21 1 22 88 23
REMARK SMILES IDX 89 24 97 25 90 26 94 27 91 28 95 29 96 30 92 31 93 32 85 33
REMARK SMILES IDX 14 35 15 36 16 37 17 38 18 39 79 40 19 41 78 42 20 43 21 44
REMARK SMILES IDX 22 45 72 46 23 47 77 48 71 49 73 50 24 51 76 52 70 53 69 54
REMARK SMILES IDX 25 56 57 57 37 58 56 59 38 60 41 61 55 62 74 63 39 64 40 65
REMARK SMILES IDX 54 67 75 68 42 69 26 70 27 71 35 72 28 73 34 74 36 75 33 76
REMARK SMILES IDX 29 77 30 78 31 79 32 80 58 81 59 82 67 83 60 84 66 85 68 86
REMARK SMILES IDX 65 87 61 88 62 89 63 90 64 91 43 92 44 93 52 94 45 95 51 96
REMARK SMILES IDX 53 97 50 98 46 99 47 100 48 101 49 102
REMARK H PARENT 85 34 73 55 41 66
REMARK Flexibility Score: inf
ROOT
ATOM      1  C   UNL A   1      34.250  31.492  27.436  1.00  0.00     0.275 C 
ENDROOT
BRANCH   1   2
ATOM      2  C   UNL A   1      33.337  30.282  27.459  1.00  0.00     0.275 C 
BRANCH   2   3
ATOM      3  O   UNL A   1      33.139  29.790  26.128  1.00  0.00    -0.458 OA
BRANCH   3   4
ATOM      4  C   UNL A   1      31.870  29.648  25.655  1.00  0.00     0.349 C 
ATOM      5  O   UNL A   1      31.090  30.588  25.518  1.00  0.00    -0.245 OA
BRANCH   4   6
ATOM      6  C   UNL A   1      31.599  28.253  25.330  1.00  0.00     0.123 A 
ATOM      7  C   UNL A   1      30.818  27.667  24.334  1.00  0.00     0.033 A 
ATOM      8  C   UNL A   1      30.891  26.243  24.398  1.00  0.00     0.090 A 
ATOM      9  S   UNL A   1      32.294  27.052  26.359  1.00  0.00    -0.130 S 
ATOM     10  C   UNL A   1      31.637  25.776  25.445  1.00  0.00     0.040 A 
ATOM     11  N   UNL A   1      30.288  25.415  23.445  1.00  0.00    -0.216 NA
ATOM     12  C   UNL A   1      31.862  24.336  25.765  1.00  0.00     0.071 C 
ATOM     13  C   UNL A   1      30.423  24.149  23.646  1.00  0.00     0.186 C 
ATOM     14  C   UNL A   1      31.091  23.430  24.791  1.00  0.00     0.111 C 
BRANCH   7  15
ATOM     15  C   UNL A   1      30.043  28.444  23.371  1.00  0.00    -0.014 A 
ATOM     16  C   UNL A   1      28.537  30.112  21.688  1.00  0.00     0.118 A 
ATOM     17  C   UNL A   1      29.926  30.064  21.576  1.00  0.00     0.047 A 
ATOM     18  C   UNL A   1      27.894  29.292  22.618  1.00  0.00     0.047 A 
ATOM     19  C   UNL A   1      30.677  29.221  22.397  1.00  0.00     0.012 A 
ATOM     20  C   UNL A   1      28.645  28.467  23.461  1.00  0.00     0.012 A 
BRANCH  16  21
ATOM     21  O   UNL A   1      27.922  30.979  20.828  1.00  0.00    -0.497 OA
ATOM     22  C   UNL A   1      28.062  32.362  21.130  1.00  0.00     0.278 C 
ENDBRANCH  16  21
ENDBRANCH   7  15
BRANCH  12  23
ATOM     23  C   UNL A   1      33.337  23.950  25.801  1.00  0.00    -0.035 A 
ATOM     24  C   UNL A   1      33.933  23.459  26.966  1.00  0.00     0.008 A 
ATOM     25  C   UNL A   1      34.129  24.098  24.647  1.00  0.00     0.054 A 
ATOM     26  C   UNL A   1      35.283  23.118  26.968  1.00  0.00     0.051 A 
ATOM     27  C   UNL A   1      35.494  23.765  24.640  1.00  0.00     0.161 A 
ATOM     28  C   UNL A   1      36.072  23.258  25.818  1.00  0.00     0.160 A 
BRANCH  27  29
ATOM     29  O   UNL A   1      36.297  23.936  23.543  1.00  0.00    -0.493 OA
ATOM     30  C   UNL A   1      36.603  22.798  22.745  1.00  0.00     0.278 C 
ENDBRANCH  27  29
BRANCH  28  31
ATOM     31  O   UNL A   1      37.373  22.880  26.036  1.00  0.00    -0.493 OA
ATOM     32  C   UNL A   1      38.286  23.854  26.516  1.00  0.00     0.278 C 
ENDBRANCH  28  31
ENDBRANCH  12  23
BRANCH  13  33
ATOM     33  O   UNL A   1      29.885  23.310  22.732  1.00  0.00    -0.496 OA
ATOM     34  H   UNL A   1      28.960  23.158  22.723  1.00  0.00     0.294 HD
ENDBRANCH  13  33
ENDBRANCH   4   6
ENDBRANCH   3   4
ENDBRANCH   2   3
ENDBRANCH   1   2
BRANCH   1  35
ATOM     35  O   UNL A   1      34.919  31.603  28.687  1.00  0.00    -0.458 OA
BRANCH  35  36
ATOM     36  C   UNL A   1      36.168  32.120  28.640  1.00  0.00     0.338 C 
ATOM     37  O   UNL A   1      36.565  33.031  27.935  1.00  0.00    -0.246 OA
BRANCH  36  38
ATOM     38  C   UNL A   1      37.049  31.256  29.426  1.00  0.00     0.060 A 
ATOM     39  C   UNL A   1      38.138  31.874  30.045  1.00  0.00     0.016 A 
ATOM     40  C   UNL A   1      36.979  29.868  29.239  1.00  0.00     0.016 A 
ATOM     41  C   UNL A   1      39.268  31.121  30.263  1.00  0.00     0.010 A 
ATOM     42  C   UNL A   1      38.114  29.126  29.428  1.00  0.00     0.010 A 
ATOM     43  C   UNL A   1      39.264  29.785  29.853  1.00  0.00    -0.014 A 
BRANCH  43  44
ATOM     44  C   UNL A   1      40.489  29.032  29.967  1.00  0.00     0.031 A 
ATOM     45  C   UNL A   1      40.826  28.725  31.371  1.00  0.00     0.074 A 
ATOM     46  C   UNL A   1      41.137  28.550  28.892  1.00  0.00     0.049 A 
ATOM     47  N   UNL A   1      41.798  29.201  32.071  1.00  0.00    -0.248 NA
ATOM     48  C   UNL A   1      39.834  27.968  32.153  1.00  0.00     0.031 C 
ATOM     49  C   UNL A   1      40.704  28.560  27.493  1.00  0.00     0.029 A 
ATOM     50  N   UNL A   1      42.283  27.825  28.853  1.00  0.00    -0.354 N 
ATOM     51  C   UNL A   1      41.681  28.592  33.314  1.00  0.00     0.074 A 
ATOM     52  C   UNL A   1      40.344  28.076  33.379  1.00  0.00     0.031 C 
ATOM     53  C   UNL A   1      41.446  27.669  26.796  1.00  0.00     0.029 A 
ATOM     54  C   UNL A   1      42.475  27.125  27.669  1.00  0.00     0.049 A 
ATOM     55  H   UNL A   1      42.923  27.797  29.600  1.00  0.00     0.167 HD
ATOM     56  C   UNL A   1      42.786  28.301  34.052  1.00  0.00     0.034 A 
ATOM     57  C   UNL A   1      43.352  26.103  27.472  1.00  0.00     0.034 A 
ATOM     58  C   UNL A   1      43.923  29.080  33.603  1.00  0.00     0.049 A 
ATOM     59  C   UNL A   1      44.384  26.212  28.540  1.00  0.00     0.074 A 
ATOM     60  C   UNL A   1      44.164  30.435  33.464  1.00  0.00     0.029 A 
ATOM     61  N   UNL A   1      44.880  28.457  32.830  1.00  0.00    -0.354 N 
ATOM     62  N   UNL A   1      45.209  27.220  28.635  1.00  0.00    -0.248 NA
ATOM     63  C   UNL A   1      44.167  25.480  29.781  1.00  0.00     0.031 C 
ATOM     64  C   UNL A   1      44.898  30.555  32.247  1.00  0.00     0.029 A 
ATOM     65  C   UNL A   1      45.137  29.271  31.753  1.00  0.00     0.049 A 
ATOM     66  H   UNL A   1      45.303  27.587  33.015  1.00  0.00     0.167 HD
ATOM     67  C   UNL A   1      45.267  27.516  29.990  1.00  0.00     0.074 A 
ATOM     68  C   UNL A   1      44.686  26.349  30.654  1.00  0.00     0.031 C 
ATOM     69  C   UNL A   1      45.503  28.788  30.433  1.00  0.00     0.034 A 
BRANCH  56  70
ATOM     70  C   UNL A   1      42.938  27.036  34.874  1.00  0.00     0.023 A 
ATOM     71  C   UNL A   1      43.747  26.030  34.323  1.00  0.00     0.031 A 
ATOM     72  C   UNL A   1      42.133  26.639  35.970  1.00  0.00     0.131 A 
ATOM     73  C   UNL A   1      43.627  24.695  34.743  1.00  0.00     0.055 A 
ATOM     74  C   UNL A   1      42.070  25.322  36.430  1.00  0.00     0.041 A 
ATOM     75  F   UNL A   1      41.300  27.463  36.611  1.00  0.00    -0.206 F 
ATOM     76  C   UNL A   1      42.787  24.331  35.789  1.00  0.00     0.022 A 
BRANCH  73  77
ATOM     77  S   UNL A   1      44.440  23.422  33.749  1.00  0.00     0.124 S 
ATOM     78  O   UNL A   1      44.226  22.234  34.570  1.00  0.00    -0.237 OA
ATOM     79  O   UNL A   1      43.683  23.490  32.504  1.00  0.00    -0.237 OA
ATOM     80  O   UNL A   1      45.821  23.888  33.669  1.00  0.00    -0.744 OA
ENDBRANCH  73  77
ENDBRANCH  56  70
BRANCH  57  81
ATOM     81  C   UNL A   1      43.098  24.867  26.676  1.00  0.00     0.023 A 
ATOM     82  C   UNL A   1      43.986  24.388  25.691  1.00  0.00     0.031 A 
ATOM     83  C   UNL A   1      42.044  24.000  27.048  1.00  0.00     0.131 A 
ATOM     84  C   UNL A   1      43.794  23.106  25.119  1.00  0.00     0.055 A 
ATOM     85  C   UNL A   1      41.854  22.741  26.476  1.00  0.00     0.041 A 
ATOM     86  F   UNL A   1      41.204  24.312  28.047  1.00  0.00    -0.206 F 
ATOM     87  C   UNL A   1      42.734  22.284  25.512  1.00  0.00     0.022 A 
BRANCH  84  88
ATOM     88  S   UNL A   1      44.977  22.444  23.899  1.00  0.00     0.124 S 
ATOM     89  O   UNL A   1      44.142  22.279  22.714  1.00  0.00    -0.237 OA
ATOM     90  O   UNL A   1      45.987  23.495  23.841  1.00  0.00    -0.237 OA
ATOM     91  O   UNL A   1      45.432  21.193  24.507  1.00  0.00    -0.744 OA
ENDBRANCH  84  88
ENDBRANCH  57  81
BRANCH  69  92
ATOM     92  C   UNL A   1      45.976  29.827  29.432  1.00  0.00     0.023 A 
ATOM     93  C   UNL A   1      45.132  30.551  28.557  1.00  0.00     0.031 A 
ATOM     94  C   UNL A   1      47.335  30.183  29.467  1.00  0.00     0.131 A 
ATOM     95  C   UNL A   1      45.665  31.581  27.754  1.00  0.00     0.055 A 
ATOM     96  C   UNL A   1      47.855  31.215  28.687  1.00  0.00     0.041 A 
ATOM     97  F   UNL A   1      48.182  29.556  30.300  1.00  0.00    -0.206 F 
ATOM     98  C   UNL A   1      47.022  31.915  27.822  1.00  0.00     0.022 A 
BRANCH  95  99
ATOM     99  S   UNL A   1      44.606  32.504  26.593  1.00  0.00     0.124 S 
ATOM    100  O   UNL A   1      43.782  31.467  25.981  1.00  0.00    -0.237 OA
ATOM    101  O   UNL A   1      43.910  33.438  27.475  1.00  0.00    -0.237 OA
ATOM    102  O   UNL A   1      45.566  33.134  25.683  1.00  0.00    -0.744 OA
ENDBRANCH  95  99
ENDBRANCH  69  92
ENDBRANCH  43  44
ENDBRANCH  36  38
ENDBRANCH  35  36
ENDBRANCH   1  35
TORSDOF 20
ENDMDL
MODEL 2
REMARK VINA RESULT:     -10.8      7.347     14.236
REMARK SMILES COc1ccc(-c2c(C(=O)OCCOC(=O)c3ccc(-c4c5nc(c(-c6cc(S(=O)(=O)[O-])ccc6F)c6ccc([nH]6)c(-c6cc(S(=O)(=O)[O-])ccc6F)c6nc(c(-c7cc(S(=O)(=O)[O-])ccc7F)c7ccc4[nH]7)C=C6)C=C5)cc3)sc3c2N=C(O)C[C@H]3c2ccc(OC)c(OC)c2)cc1
REMARK SMILES IDX 13 1 12 2 11 3 9 4 10 5 8 6 7 7 82 8 80 9 81 10 83 11 87 12
REMARK SMILES IDX 84 13 86 14 6 15 3 16 4 17 99 18 5 19 98 20 2 21 1 22 88 23
REMARK SMILES IDX 89 24 97 25 90 26 94 27 91 28 95 29 96 30 92 31 93 32 85 33
REMARK SMILES IDX 14 35 15 36 16 37 17 38 18 39 79 40 19 41 78 42 20 43 21 44
REMARK SMILES IDX 22 45 72 46 23 47 77 48 71 49 73 50 24 51 76 52 70 53 69 54
REMARK SMILES IDX 25 56 57 57 37 58 56 59 38 60 41 61 55 62 74 63 39 64 40 65
REMARK SMILES IDX 54 67 75 68 42 69 26 70 27 71 35 72 28 73 34 74 36 75 33 76
REMARK SMILES IDX 29 77 30 78 31 79 32 80 58 81 59 82 67 83 60 84 66 85 68 86
REMARK SMILES IDX 65 87 61 88 62 89 63 90 64 91 43 92 44 93 52 94 45 95 51 96
REMARK SMILES IDX 53 97 50 98 46 99 47 100 48 101 49 102
REMARK H PARENT 85 34 73 55 41 66
REMARK Flexibility Score: inf
ROOT
ATOM      1  C   UNL A   1      44.048  39.724  29.715  1.00  0.00     0.275 C 
ENDROOT
BRANCH   1   2
ATOM      2  C   UNL A   1      43.216  40.572  28.772  1.00  0.00     0.275 C 
BRANCH   2   3
ATOM      3  O   UNL A   1      44.029  41.045  27.690  1.00  0.00    -0.458 OA
BRANCH   3   4
ATOM      4  C   UNL A   1      43.841  40.526  26.445  1.00  0.00     0.349 C 
ATOM      5  O   UNL A   1      43.121  39.556  26.218  1.00  0.00    -0.245 OA
BRANCH   4   6
ATOM      6  C   UNL A   1      44.586  41.293  25.454  1.00  0.00     0.123 A 
ATOM      7  C   UNL A   1      45.919  41.236  25.047  1.00  0.00     0.033 A 
ATOM      8  C   UNL A   1      46.178  42.181  24.009  1.00  0.00     0.090 A 
ATOM      9  S   UNL A   1      43.742  42.559  24.636  1.00  0.00    -0.130 S 
ATOM     10  C   UNL A   1      45.103  42.967  23.699  1.00  0.00     0.040 A 
ATOM     11  N   UNL A   1      47.408  42.253  23.347  1.00  0.00    -0.216 NA
ATOM     12  C   UNL A   1      45.097  44.050  22.672  1.00  0.00     0.071 C 
ATOM     13  C   UNL A   1      47.499  43.169  22.446  1.00  0.00     0.186 C 
ATOM     14  C   UNL A   1      46.489  44.213  22.038  1.00  0.00     0.111 C 
BRANCH   7  15
ATOM     15  C   UNL A   1      46.890  40.316  25.632  1.00  0.00    -0.014 A 
ATOM     16  C   UNL A   1      48.583  38.476  26.909  1.00  0.00     0.118 A 
ATOM     17  C   UNL A   1      47.954  38.143  25.709  1.00  0.00     0.047 A 
ATOM     18  C   UNL A   1      48.398  39.749  27.451  1.00  0.00     0.047 A 
ATOM     19  C   UNL A   1      47.127  39.062  25.061  1.00  0.00     0.012 A 
ATOM     20  C   UNL A   1      47.549  40.663  26.818  1.00  0.00     0.012 A 
BRANCH  16  21
ATOM     21  O   UNL A   1      49.363  37.487  27.442  1.00  0.00    -0.497 OA
ATOM     22  C   UNL A   1      48.816  36.174  27.407  1.00  0.00     0.278 C 
ENDBRANCH  16  21
ENDBRANCH   7  15
BRANCH  12  23
ATOM     23  C   UNL A   1      44.037  43.851  21.593  1.00  0.00    -0.035 A 
ATOM     24  C   UNL A   1      42.713  43.547  21.921  1.00  0.00     0.008 A 
ATOM     25  C   UNL A   1      44.389  43.964  20.235  1.00  0.00     0.054 A 
ATOM     26  C   UNL A   1      41.768  43.369  20.913  1.00  0.00     0.051 A 
ATOM     27  C   UNL A   1      43.445  43.779  19.210  1.00  0.00     0.161 A 
ATOM     28  C   UNL A   1      42.115  43.488  19.560  1.00  0.00     0.160 A 
BRANCH  27  29
ATOM     29  O   UNL A   1      43.770  43.844  17.880  1.00  0.00    -0.493 OA
ATOM     30  C   UNL A   1      43.923  45.126  17.283  1.00  0.00     0.278 C 
ENDBRANCH  27  29
BRANCH  28  31
ATOM     31  O   UNL A   1      41.044  43.264  18.732  1.00  0.00    -0.493 OA
ATOM     32  C   UNL A   1      40.287  44.381  18.294  1.00  0.00     0.278 C 
ENDBRANCH  28  31
ENDBRANCH  12  23
BRANCH  13  33
ATOM     33  O   UNL A   1      48.659  43.255  21.757  1.00  0.00    -0.496 OA
ATOM     34  H   UNL A   1      48.645  43.309  20.821  1.00  0.00     0.294 HD
ENDBRANCH  13  33
ENDBRANCH   4   6
ENDBRANCH   3   4
ENDBRANCH   2   3
ENDBRANCH   1   2
BRANCH   1  35
ATOM     35  O   UNL A   1      43.669  38.359  29.582  1.00  0.00    -0.458 OA
BRANCH  35  36
ATOM     36  C   UNL A   1      44.585  37.550  29.004  1.00  0.00     0.338 C 
ATOM     37  O   UNL A   1      45.395  37.846  28.142  1.00  0.00    -0.246 OA
BRANCH  36  38
ATOM     38  C   UNL A   1      44.307  36.176  29.421  1.00  0.00     0.060 A 
ATOM     39  C   UNL A   1      43.890  35.294  28.422  1.00  0.00     0.016 A 
ATOM     40  C   UNL A   1      44.129  35.905  30.785  1.00  0.00     0.016 A 
ATOM     41  C   UNL A   1      43.077  34.246  28.786  1.00  0.00     0.010 A 
ATOM     42  C   UNL A   1      43.295  34.880  31.143  1.00  0.00     0.010 A 
ATOM     43  C   UNL A   1      42.713  34.124  30.129  1.00  0.00    -0.014 A 
BRANCH  43  44
ATOM     44  C   UNL A   1      41.762  33.101  30.489  1.00  0.00     0.031 A 
ATOM     45  C   UNL A   1      40.448  33.665  30.855  1.00  0.00     0.074 A 
ATOM     46  C   UNL A   1      42.029  31.791  30.347  1.00  0.00     0.049 A 
ATOM     47  N   UNL A   1      39.898  33.696  32.021  1.00  0.00    -0.248 NA
ATOM     48  C   UNL A   1      39.763  34.490  29.845  1.00  0.00     0.031 C 
ATOM     49  C   UNL A   1      43.193  31.168  29.714  1.00  0.00     0.029 A 
ATOM     50  N   UNL A   1      41.233  30.732  30.634  1.00  0.00    -0.354 N 
ATOM     51  C   UNL A   1      38.673  34.321  31.828  1.00  0.00     0.074 A 
ATOM     52  C   UNL A   1      38.769  35.002  30.570  1.00  0.00     0.031 C 
ATOM     53  C   UNL A   1      42.910  29.871  29.450  1.00  0.00     0.029 A 
ATOM     54  C   UNL A   1      41.601  29.552  30.003  1.00  0.00     0.049 A 
ATOM     55  H   UNL A   1      40.459  30.794  31.239  1.00  0.00     0.167 HD
ATOM     56  C   UNL A   1      37.590  33.970  32.572  1.00  0.00     0.034 A 
ATOM     57  C   UNL A   1      40.832  28.439  29.863  1.00  0.00     0.034 A 
ATOM     58  C   UNL A   1      37.997  33.278  33.778  1.00  0.00     0.049 A 
ATOM     59  C   UNL A   1      39.775  28.515  30.910  1.00  0.00     0.074 A 
ATOM     60  C   UNL A   1      38.832  33.598  34.835  1.00  0.00     0.029 A 
ATOM     61  N   UNL A   1      37.856  31.907  33.827  1.00  0.00    -0.354 N 
ATOM     62  N   UNL A   1      40.033  28.469  32.189  1.00  0.00    -0.248 NA
ATOM     63  C   UNL A   1      38.511  29.151  30.563  1.00  0.00     0.031 C 
ATOM     64  C   UNL A   1      39.536  32.392  35.127  1.00  0.00     0.029 A 
ATOM     65  C   UNL A   1      39.038  31.385  34.296  1.00  0.00     0.049 A 
ATOM     66  H   UNL A   1      37.056  31.394  33.571  1.00  0.00     0.167 HD
ATOM     67  C   UNL A   1      39.212  29.431  32.761  1.00  0.00     0.074 A 
ATOM     68  C   UNL A   1      38.226  29.746  31.727  1.00  0.00     0.031 C 
ATOM     69  C   UNL A   1      39.577  30.096  33.898  1.00  0.00     0.034 A 
BRANCH  56  70
ATOM     70  C   UNL A   1      36.183  33.878  32.015  1.00  0.00     0.023 A 
ATOM     71  C   UNL A   1      36.018  33.080  30.872  1.00  0.00     0.031 A 
ATOM     72  C   UNL A   1      35.093  34.726  32.329  1.00  0.00     0.131 A 
ATOM     73  C   UNL A   1      34.909  33.249  30.027  1.00  0.00     0.055 A 
ATOM     74  C   UNL A   1      33.959  34.839  31.521  1.00  0.00     0.041 A 
ATOM     75  F   UNL A   1      35.080  35.556  33.376  1.00  0.00    -0.206 F 
ATOM     76  C   UNL A   1      33.880  34.130  30.338  1.00  0.00     0.022 A 
BRANCH  73  77
ATOM     77  S   UNL A   1      34.951  32.441  28.410  1.00  0.00     0.124 S 
ATOM     78  O   UNL A   1      33.583  32.652  27.946  1.00  0.00    -0.237 OA
ATOM     79  O   UNL A   1      35.988  33.203  27.725  1.00  0.00    -0.237 OA
ATOM     80  O   UNL A   1      35.296  31.059  28.732  1.00  0.00    -0.744 OA
ENDBRANCH  73  77
ENDBRANCH  56  70
BRANCH  57  81
ATOM     81  C   UNL A   1      40.748  27.571  28.652  1.00  0.00     0.023 A 
ATOM     82  C   UNL A   1      41.667  27.646  27.584  1.00  0.00     0.031 A 
ATOM     83  C   UNL A   1      39.855  26.473  28.638  1.00  0.00     0.131 A 
ATOM     84  C   UNL A   1      41.659  26.662  26.565  1.00  0.00     0.055 A 
ATOM     85  C   UNL A   1      39.846  25.511  27.627  1.00  0.00     0.041 A 
ATOM     86  F   UNL A   1      39.010  26.249  29.657  1.00  0.00    -0.206 F 
ATOM     87  C   UNL A   1      40.755  25.597  26.588  1.00  0.00     0.022 A 
BRANCH  84  88
ATOM     88  S   UNL A   1      42.890  26.705  25.220  1.00  0.00     0.124 S 
ATOM     89  O   UNL A   1      42.491  27.892  24.472  1.00  0.00    -0.237 OA
ATOM     90  O   UNL A   1      44.149  26.791  25.951  1.00  0.00    -0.237 OA
ATOM     91  O   UNL A   1      42.676  25.438  24.520  1.00  0.00    -0.744 OA
ENDBRANCH  84  88
ENDBRANCH  57  81
BRANCH  69  92
ATOM     92  C   UNL A   1      40.766  29.579  34.688  1.00  0.00     0.023 A 
ATOM     93  C   UNL A   1      40.777  28.386  35.448  1.00  0.00     0.031 A 
ATOM     94  C   UNL A   1      41.982  30.273  34.550  1.00  0.00     0.131 A 
ATOM     95  C   UNL A   1      41.975  27.939  36.043  1.00  0.00     0.055 A 
ATOM     96  C   UNL A   1      43.168  29.817  35.123  1.00  0.00     0.041 A 
ATOM     97  F   UNL A   1      42.045  31.395  33.815  1.00  0.00    -0.206 F 
ATOM     98  C   UNL A   1      43.168  28.650  35.877  1.00  0.00     0.022 A 
BRANCH  95  99
ATOM     99  S   UNL A   1      42.007  26.424  37.057  1.00  0.00     0.124 S 
ATOM    100  O   UNL A   1      43.015  26.711  38.071  1.00  0.00    -0.237 OA
ATOM    101  O   UNL A   1      40.629  26.333  37.531  1.00  0.00    -0.237 OA
ATOM    102  O   UNL A   1      42.387  25.382  36.100  1.00  0.00    -0.744 OA
ENDBRANCH  95  99
ENDBRANCH  69  92
ENDBRANCH  43  44
ENDBRANCH  36  38
ENDBRANCH  35  36
ENDBRANCH   1  35
TORSDOF 20
ENDMDL
MODEL 3
REMARK VINA RESULT:     -10.8      4.635      8.106
REMARK SMILES COc1ccc(-c2c(C(=O)OCCOC(=O)c3ccc(-c4c5nc(c(-c6cc(S(=O)(=O)[O-])ccc6F)c6ccc([nH]6)c(-c6cc(S(=O)(=O)[O-])ccc6F)c6nc(c(-c7cc(S(=O)(=O)[O-])ccc7F)c7ccc4[nH]7)C=C6)C=C5)cc3)sc3c2N=C(O)C[C@H]3c2ccc(OC)c(OC)c2)cc1
REMARK SMILES IDX 13 1 12 2 11 3 9 4 10 5 8 6 7 7 82 8 80 9 81 10 83 11 87 12
REMARK SMILES IDX 84 13 86 14 6 15 3 16 4 17 99 18 5 19 98 20 2 21 1 22 88 23
REMARK SMILES IDX 89 24 97 25 90 26 94 27 91 28 95 29 96 30 92 31 93 32 85 33
REMARK SMILES IDX 14 35 15 36 16 37 17 38 18 39 79 40 19 41 78 42 20 43 21 44
REMARK SMILES IDX 22 45 72 46 23 47 77 48 71 49 73 50 24 51 76 52 70 53 69 54
REMARK SMILES IDX 25 56 57 57 37 58 56 59 38 60 41 61 55 62 74 63 39 64 40 65
REMARK SMILES IDX 54 67 75 68 42 69 26 70 27 71 35 72 28 73 34 74 36 75 33 76
REMARK SMILES IDX 29 77 30 78 31 79 32 80 58 81 59 82 67 83 60 84 66 85 68 86
REMARK SMILES IDX 65 87 61 88 62 89 63 90 64 91 43 92 44 93 52 94 45 95 51 96
REMARK SMILES IDX 53 97 50 98 46 99 47 100 48 101 49 102
REMARK H PARENT 85 34 73 55 41 66
REMARK Flexibility Score: inf
ROOT
ATOM      1  C   UNL A   1      38.851  33.448  33.450  1.00  0.00     0.275 C 
ENDROOT
BRANCH   1   2
ATOM      2  C   UNL A   1      40.071  32.997  32.670  1.00  0.00     0.275 C 
BRANCH   2   3
ATOM      3  O   UNL A   1      39.679  32.113  31.612  1.00  0.00    -0.458 OA
BRANCH   3   4
ATOM      4  C   UNL A   1      39.734  32.555  30.325  1.00  0.00     0.349 C 
ATOM      5  O   UNL A   1      40.766  32.953  29.790  1.00  0.00    -0.245 OA
BRANCH   4   6
ATOM      6  C   UNL A   1      38.421  32.465  29.697  1.00  0.00     0.123 A 
ATOM      7  C   UNL A   1      37.743  31.395  29.112  1.00  0.00     0.033 A 
ATOM      8  C   UNL A   1      36.452  31.796  28.656  1.00  0.00     0.090 A 
ATOM      9  S   UNL A   1      37.505  33.924  29.567  1.00  0.00    -0.130 S 
ATOM     10  C   UNL A   1      36.197  33.129  28.823  1.00  0.00     0.040 A 
ATOM     11  N   UNL A   1      35.524  30.889  28.131  1.00  0.00    -0.216 NA
ATOM     12  C   UNL A   1      34.939  33.822  28.416  1.00  0.00     0.071 C 
ATOM     13  C   UNL A   1      34.408  31.402  27.742  1.00  0.00     0.186 C 
ATOM     14  C   UNL A   1      33.976  32.847  27.721  1.00  0.00     0.111 C 
BRANCH   7  15
ATOM     15  C   UNL A   1      38.315  30.057  29.002  1.00  0.00    -0.014 A 
ATOM     16  C   UNL A   1      39.621  27.575  28.877  1.00  0.00     0.118 A 
ATOM     17  C   UNL A   1      38.789  27.882  29.954  1.00  0.00     0.047 A 
ATOM     18  C   UNL A   1      39.768  28.495  27.838  1.00  0.00     0.047 A 
ATOM     19  C   UNL A   1      38.122  29.107  30.010  1.00  0.00     0.012 A 
ATOM     20  C   UNL A   1      39.123  29.735  27.904  1.00  0.00     0.012 A 
BRANCH  16  21
ATOM     21  O   UNL A   1      40.216  26.345  28.945  1.00  0.00    -0.497 OA
ATOM     22  C   UNL A   1      39.494  25.270  28.355  1.00  0.00     0.278 C 
ENDBRANCH  16  21
ENDBRANCH   7  15
BRANCH  12  23
ATOM     23  C   UNL A   1      34.242  34.533  29.571  1.00  0.00    -0.035 A 
ATOM     24  C   UNL A   1      33.399  35.625  29.351  1.00  0.00     0.008 A 
ATOM     25  C   UNL A   1      34.451  34.096  30.893  1.00  0.00     0.054 A 
ATOM     26  C   UNL A   1      32.778  36.255  30.428  1.00  0.00     0.051 A 
ATOM     27  C   UNL A   1      33.836  34.728  31.987  1.00  0.00     0.161 A 
ATOM     28  C   UNL A   1      32.980  35.817  31.744  1.00  0.00     0.160 A 
BRANCH  27  29
ATOM     29  O   UNL A   1      34.053  34.347  33.285  1.00  0.00    -0.493 OA
ATOM     30  C   UNL A   1      35.292  34.694  33.893  1.00  0.00     0.278 C 
ENDBRANCH  27  29
BRANCH  28  31
ATOM     31  O   UNL A   1      32.289  36.578  32.652  1.00  0.00    -0.493 OA
ATOM     32  C   UNL A   1      30.974  36.179  33.003  1.00  0.00     0.278 C 
ENDBRANCH  28  31
ENDBRANCH  12  23
BRANCH  13  33
ATOM     33  O   UNL A   1      33.468  30.559  27.258  1.00  0.00    -0.496 OA
ATOM     34  H   UNL A   1      33.369  30.450  26.332  1.00  0.00     0.294 HD
ENDBRANCH  13  33
ENDBRANCH   4   6
ENDBRANCH   3   4
ENDBRANCH   2   3
ENDBRANCH   1   2
BRANCH   1  35
ATOM     35  O   UNL A   1      37.921  32.374  33.536  1.00  0.00    -0.458 OA
BRANCH  35  36
ATOM     36  C   UNL A   1      37.818  31.784  34.748  1.00  0.00     0.338 C 
ATOM     37  O   UNL A   1      37.241  32.211  35.732  1.00  0.00    -0.246 OA
BRANCH  36  38
ATOM     38  C   UNL A   1      38.713  30.627  34.769  1.00  0.00     0.060 A 
ATOM     39  C   UNL A   1      39.779  30.679  35.670  1.00  0.00     0.016 A 
ATOM     40  C   UNL A   1      38.681  29.726  33.694  1.00  0.00     0.016 A 
ATOM     41  C   UNL A   1      40.925  29.989  35.352  1.00  0.00     0.010 A 
ATOM     42  C   UNL A   1      39.832  29.064  33.363  1.00  0.00     0.010 A 
ATOM     43  C   UNL A   1      40.961  29.278  34.150  1.00  0.00    -0.014 A 
BRANCH  43  44
ATOM     44  C   UNL A   1      42.203  28.659  33.758  1.00  0.00     0.031 A 
ATOM     45  C   UNL A   1      42.531  27.488  34.595  1.00  0.00     0.074 A 
ATOM     46  C   UNL A   1      42.876  29.037  32.658  1.00  0.00     0.049 A 
ATOM     47  N   UNL A   1      43.481  27.376  35.458  1.00  0.00    -0.248 NA
ATOM     48  C   UNL A   1      41.550  26.391  34.634  1.00  0.00     0.031 C 
ATOM     49  C   UNL A   1      42.461  29.984  31.622  1.00  0.00     0.029 A 
ATOM     50  N   UNL A   1      44.041  28.542  32.170  1.00  0.00    -0.354 N 
ATOM     51  C   UNL A   1      43.365  26.086  35.961  1.00  0.00     0.074 A 
ATOM     52  C   UNL A   1      42.042  25.648  35.625  1.00  0.00     0.031 C 
ATOM     53  C   UNL A   1      43.234  29.807  30.526  1.00  0.00     0.029 A 
ATOM     54  C   UNL A   1      44.267  28.827  30.830  1.00  0.00     0.049 A 
ATOM     55  H   UNL A   1      44.673  28.024  32.719  1.00  0.00     0.167 HD
ATOM     56  C   UNL A   1      44.468  25.385  36.337  1.00  0.00     0.034 A 
ATOM     57  C   UNL A   1      45.171  28.217  30.018  1.00  0.00     0.034 A 
ATOM     58  C   UNL A   1      45.590  26.275  36.562  1.00  0.00     0.049 A 
ATOM     59  C   UNL A   1      46.187  27.587  30.906  1.00  0.00     0.074 A 
ATOM     60  C   UNL A   1      45.798  27.372  37.382  1.00  0.00     0.029 A 
ATOM     61  N   UNL A   1      46.573  26.349  35.598  1.00  0.00    -0.354 N 
ATOM     62  N   UNL A   1      46.985  28.274  31.679  1.00  0.00    -0.248 NA
ATOM     63  C   UNL A   1      45.974  26.206  31.321  1.00  0.00     0.031 C 
ATOM     64  C   UNL A   1      46.543  28.290  36.585  1.00  0.00     0.029 A 
ATOM     65  C   UNL A   1      46.822  27.680  35.360  1.00  0.00     0.049 A 
ATOM     66  H   UNL A   1      47.015  25.587  35.158  1.00  0.00     0.167 HD
ATOM     67  C   UNL A   1      47.019  27.578  32.879  1.00  0.00     0.074 A 
ATOM     68  C   UNL A   1      46.460  26.263  32.565  1.00  0.00     0.031 C 
ATOM     69  C   UNL A   1      47.216  28.219  34.070  1.00  0.00     0.034 A 
BRANCH  56  70
ATOM     70  C   UNL A   1      44.643  23.900  36.093  1.00  0.00     0.023 A 
ATOM     71  C   UNL A   1      45.226  23.163  37.136  1.00  0.00     0.031 A 
ATOM     72  C   UNL A   1      44.563  23.233  34.846  1.00  0.00     0.131 A 
ATOM     73  C   UNL A   1      45.828  21.917  36.892  1.00  0.00     0.055 A 
ATOM     74  C   UNL A   1      45.101  21.963  34.626  1.00  0.00     0.041 A 
ATOM     75  F   UNL A   1      44.044  23.785  33.746  1.00  0.00    -0.206 F 
ATOM     76  C   UNL A   1      45.778  21.314  35.640  1.00  0.00     0.022 A 
BRANCH  73  77
ATOM     77  S   UNL A   1      46.855  21.207  38.198  1.00  0.00     0.124 S 
ATOM     78  O   UNL A   1      47.679  20.269  37.442  1.00  0.00    -0.237 OA
ATOM     79  O   UNL A   1      47.534  22.389  38.717  1.00  0.00    -0.237 OA
ATOM     80  O   UNL A   1      45.881  20.598  39.100  1.00  0.00    -0.744 OA
ENDBRANCH  73  77
ENDBRANCH  56  70
BRANCH  57  81
ATOM     81  C   UNL A   1      44.960  27.840  28.590  1.00  0.00     0.023 A 
ATOM     82  C   UNL A   1      45.860  28.184  27.559  1.00  0.00     0.031 A 
ATOM     83  C   UNL A   1      43.941  26.917  28.253  1.00  0.00     0.131 A 
ATOM     84  C   UNL A   1      45.712  27.624  26.266  1.00  0.00     0.055 A 
ATOM     85  C   UNL A   1      43.795  26.375  26.975  1.00  0.00     0.041 A 
ATOM     86  F   UNL A   1      43.096  26.443  29.182  1.00  0.00    -0.206 F 
ATOM     87  C   UNL A   1      44.687  26.721  25.976  1.00  0.00     0.022 A 
BRANCH  84  88
ATOM     88  S   UNL A   1      46.913  28.002  24.946  1.00  0.00     0.124 S 
ATOM     89  O   UNL A   1      48.183  27.967  25.663  1.00  0.00    -0.237 OA
ATOM     90  O   UNL A   1      46.676  26.927  23.990  1.00  0.00    -0.237 OA
ATOM     91  O   UNL A   1      46.506  29.331  24.485  1.00  0.00    -0.744 OA
ENDBRANCH  84  88
ENDBRANCH  57  81
BRANCH  69  92
ATOM     92  C   UNL A   1      47.673  29.666  34.046  1.00  0.00     0.023 A 
ATOM     93  C   UNL A   1      49.012  30.090  33.879  1.00  0.00     0.031 A 
ATOM     94  C   UNL A   1      46.676  30.657  34.065  1.00  0.00     0.131 A 
ATOM     95  C   UNL A   1      49.308  31.463  33.749  1.00  0.00     0.055 A 
ATOM     96  C   UNL A   1      46.969  32.012  33.916  1.00  0.00     0.041 A 
ATOM     97  F   UNL A   1      45.382  30.318  34.188  1.00  0.00    -0.206 F 
ATOM     98  C   UNL A   1      48.288  32.421  33.762  1.00  0.00     0.022 A 
BRANCH  95  99
ATOM     99  S   UNL A   1      51.029  32.037  33.569  1.00  0.00     0.124 S 
ATOM    100  O   UNL A   1      51.687  31.527  34.766  1.00  0.00    -0.237 OA
ATOM    101  O   UNL A   1      51.434  31.426  32.305  1.00  0.00    -0.237 OA
ATOM    102  O   UNL A   1      50.899  33.495  33.520  1.00  0.00    -0.744 OA
ENDBRANCH  95  99
ENDBRANCH  69  92
ENDBRANCH  43  44
ENDBRANCH  36  38
ENDBRANCH  35  36
ENDBRANCH   1  35
TORSDOF 20
ENDMDL
