MODEL 1
REMARK VINA RESULT:     -11.7      0.000      0.000
REMARK SMILES Cc1cc(C[N@@H+]2CC[C@@H](C(=O)OCCOC(=O)c3ccc(-c4c5nc(c(-c6cc(S(=O)(=O)[O-])ccc6F)c6ccc([nH]6)c(-c6cc(S(=O)(=O)[O-])ccc6F)c6nc(c(-c7cc(S(=O)(=O)[O-])ccc7F)c7ccc4[nH]7)C=C6)C=C5)cc3)C2)ccc1Br
REMARK SMILES IDX 14 1 13 2 12 3 10 4 11 5 9 6 6 7 7 8 81 9 8 11 5 12 4 13
REMARK SMILES IDX 1 14 2 15 3 16 84 17 83 18 85 19 82 20 15 21 16 22 17 23
REMARK SMILES IDX 18 24 19 25 80 26 20 27 79 28 21 29 22 30 23 31 73 32 24 33
REMARK SMILES IDX 78 34 72 35 74 36 25 37 77 38 71 39 70 40 26 42 58 43 38 44
REMARK SMILES IDX 57 45 39 46 42 47 56 48 75 49 40 50 41 51 55 53 76 54 43 55
REMARK SMILES IDX 27 56 28 57 36 58 29 59 35 60 37 61 34 62 30 63 31 64 32 65
REMARK SMILES IDX 33 66 59 67 60 68 68 69 61 70 67 71 69 72 66 73 62 74 63 75
REMARK SMILES IDX 64 76 65 77 44 78 45 79 53 80 46 81 52 82 54 83 51 84 47 85
REMARK SMILES IDX 48 86 49 87 50 88
REMARK H PARENT 6 10 74 41 42 52
REMARK Flexibility Score: inf
ROOT
ATOM      1  C   UNL A   1      36.771  20.755  25.151  1.00  0.00     0.275 C 
ENDROOT
BRANCH   1   2
ATOM      2  C   UNL A   1      35.443  21.474  25.396  1.00  0.00     0.274 C 
BRANCH   2   3
ATOM      3  O   UNL A   1      34.680  21.637  24.186  1.00  0.00    -0.462 OA
BRANCH   3   4
ATOM      4  C   UNL A   1      34.743  22.863  23.597  1.00  0.00     0.315 C 
ATOM      5  O   UNL A   1      35.730  23.313  23.029  1.00  0.00    -0.252 OA
BRANCH   4   6
ATOM      6  C   UNL A   1      33.470  23.656  23.779  1.00  0.00     0.159 C 
ATOM      7  N   UNL A   1      32.700  25.868  23.291  1.00  0.00    -0.330 N 
ATOM      8  C   UNL A   1      32.430  25.058  22.111  1.00  0.00     0.263 C 
ATOM      9  C   UNL A   1      33.698  25.134  24.075  1.00  0.00     0.278 C 
ATOM     10  H   UNL A   1      33.076  26.770  22.998  1.00  0.00     0.348 HD
ATOM     11  C   UNL A   1      32.605  23.606  22.524  1.00  0.00     0.082 C 
BRANCH   7  12
ATOM     12  C   UNL A   1      31.542  26.376  24.031  1.00  0.00     0.299 C 
BRANCH  12  13
ATOM     13  C   UNL A   1      30.731  27.495  23.412  1.00  0.00     0.007 A 
ATOM     14  C   UNL A   1      27.075  28.583  23.259  1.00  0.00     0.045 C 
ATOM     15  C   UNL A   1      28.559  28.570  23.017  1.00  0.00    -0.036 A 
ATOM     16  C   UNL A   1      29.336  27.539  23.577  1.00  0.00     0.014 A 
ATOM     17  C   UNL A   1      29.200  29.539  22.233  1.00  0.00     0.020 A 
ATOM     18  C   UNL A   1      30.589  29.522  22.084  1.00  0.00     0.016 A 
ATOM     19  Br  UNL A   1      28.245  30.913  21.338  1.00  0.00    -0.051 Br
ATOM     20  C   UNL A   1      31.349  28.527  22.696  1.00  0.00     0.011 A 
ENDBRANCH  12  13
ENDBRANCH   7  12
ENDBRANCH   4   6
ENDBRANCH   3   4
ENDBRANCH   2   3
ENDBRANCH   1   2
BRANCH   1  21
ATOM     21  O   UNL A   1      37.874  21.674  25.140  1.00  0.00    -0.458 OA
BRANCH  21  22
ATOM     22  C   UNL A   1      38.921  21.323  25.924  1.00  0.00     0.338 C 
ATOM     23  O   UNL A   1      39.382  20.207  26.084  1.00  0.00    -0.246 OA
BRANCH  22  24
ATOM     24  C   UNL A   1      39.522  22.535  26.495  1.00  0.00     0.060 A 
ATOM     25  C   UNL A   1      39.095  23.783  26.029  1.00  0.00     0.016 A 
ATOM     26  C   UNL A   1      40.543  22.433  27.440  1.00  0.00     0.016 A 
ATOM     27  C   UNL A   1      39.690  24.945  26.511  1.00  0.00     0.010 A 
ATOM     28  C   UNL A   1      41.138  23.597  27.921  1.00  0.00     0.010 A 
ATOM     29  C   UNL A   1      40.722  24.857  27.454  1.00  0.00    -0.014 A 
BRANCH  29  30
ATOM     30  C   UNL A   1      41.435  26.066  27.921  1.00  0.00     0.031 A 
ATOM     31  C   UNL A   1      40.676  27.109  28.686  1.00  0.00     0.074 A 
ATOM     32  C   UNL A   1      42.731  26.247  27.613  1.00  0.00     0.049 A 
ATOM     33  N   UNL A   1      41.025  28.326  29.003  1.00  0.00    -0.248 NA
ATOM     34  C   UNL A   1      39.333  26.721  29.141  1.00  0.00     0.031 C 
ATOM     35  C   UNL A   1      43.582  25.269  26.935  1.00  0.00     0.029 A 
ATOM     36  N   UNL A   1      43.548  27.330  27.809  1.00  0.00    -0.354 N 
ATOM     37  C   UNL A   1      39.936  28.865  29.678  1.00  0.00     0.074 A 
ATOM     38  C   UNL A   1      38.908  27.844  29.699  1.00  0.00     0.031 C 
ATOM     39  C   UNL A   1      44.801  25.805  26.757  1.00  0.00     0.029 A 
ATOM     40  C   UNL A   1      44.794  27.180  27.248  1.00  0.00     0.049 A 
ATOM     41  H   UNL A   1      43.271  28.134  28.303  1.00  0.00     0.167 HD
ATOM     42  C   UNL A   1      39.812  30.100  30.227  1.00  0.00     0.034 A 
ATOM     43  C   UNL A   1      45.794  28.072  27.103  1.00  0.00     0.034 A 
ATOM     44  C   UNL A   1      40.849  31.102  30.172  1.00  0.00     0.049 A 
ATOM     45  C   UNL A   1      45.591  29.478  27.607  1.00  0.00     0.074 A 
ATOM     46  C   UNL A   1      40.839  32.387  30.686  1.00  0.00     0.029 A 
ATOM     47  N   UNL A   1      42.081  30.934  29.552  1.00  0.00    -0.354 N 
ATOM     48  N   UNL A   1      44.548  29.998  28.213  1.00  0.00    -0.248 NA
ATOM     49  C   UNL A   1      46.696  30.422  27.397  1.00  0.00     0.031 C 
ATOM     50  C   UNL A   1      42.038  33.014  30.321  1.00  0.00     0.029 A 
ATOM     51  C   UNL A   1      42.826  32.099  29.642  1.00  0.00     0.049 A 
ATOM     52  H   UNL A   1      42.382  30.106  29.112  1.00  0.00     0.167 HD
ATOM     53  C   UNL A   1      44.886  31.319  28.489  1.00  0.00     0.074 A 
ATOM     54  C   UNL A   1      46.228  31.517  27.979  1.00  0.00     0.031 C 
ATOM     55  C   UNL A   1      44.161  32.277  29.120  1.00  0.00     0.034 A 
BRANCH  42  56
ATOM     56  C   UNL A   1      38.483  30.438  30.861  1.00  0.00     0.023 A 
ATOM     57  C   UNL A   1      37.465  31.093  30.143  1.00  0.00     0.031 A 
ATOM     58  C   UNL A   1      38.257  30.169  32.223  1.00  0.00     0.131 A 
ATOM     59  C   UNL A   1      36.314  31.538  30.810  1.00  0.00     0.055 A 
ATOM     60  C   UNL A   1      37.070  30.536  32.859  1.00  0.00     0.041 A 
ATOM     61  F   UNL A   1      39.199  29.567  32.966  1.00  0.00    -0.206 F 
ATOM     62  C   UNL A   1      36.098  31.243  32.158  1.00  0.00     0.022 A 
BRANCH  59  63
ATOM     63  S   UNL A   1      35.187  32.660  29.934  1.00  0.00     0.124 S 
ATOM     64  O   UNL A   1      36.108  33.685  29.450  1.00  0.00    -0.237 OA
ATOM     65  O   UNL A   1      34.607  31.791  28.917  1.00  0.00    -0.237 OA
ATOM     66  O   UNL A   1      34.266  33.103  30.978  1.00  0.00    -0.744 OA
ENDBRANCH  59  63
ENDBRANCH  42  56
BRANCH  43  67
ATOM     67  C   UNL A   1      47.055  27.682  26.413  1.00  0.00     0.023 A 
ATOM     68  C   UNL A   1      47.204  27.870  25.032  1.00  0.00     0.031 A 
ATOM     69  C   UNL A   1      48.118  27.091  27.120  1.00  0.00     0.131 A 
ATOM     70  C   UNL A   1      48.377  27.441  24.391  1.00  0.00     0.055 A 
ATOM     71  C   UNL A   1      49.301  26.709  26.487  1.00  0.00     0.041 A 
ATOM     72  F   UNL A   1      48.024  26.888  28.444  1.00  0.00    -0.206 F 
ATOM     73  C   UNL A   1      49.432  26.875  25.111  1.00  0.00     0.022 A 
BRANCH  70  74
ATOM     74  S   UNL A   1      48.479  27.579  22.586  1.00  0.00     0.124 S 
ATOM     75  O   UNL A   1      48.506  26.177  22.182  1.00  0.00    -0.237 OA
ATOM     76  O   UNL A   1      47.262  28.315  22.268  1.00  0.00    -0.237 OA
ATOM     77  O   UNL A   1      49.724  28.315  22.371  1.00  0.00    -0.744 OA
ENDBRANCH  70  74
ENDBRANCH  43  67
BRANCH  55  78
ATOM     78  C   UNL A   1      44.838  33.605  29.350  1.00  0.00     0.023 A 
ATOM     79  C   UNL A   1      44.686  34.683  28.461  1.00  0.00     0.031 A 
ATOM     80  C   UNL A   1      45.646  33.790  30.486  1.00  0.00     0.131 A 
ATOM     81  C   UNL A   1      45.366  35.886  28.702  1.00  0.00     0.055 A 
ATOM     82  C   UNL A   1      46.280  35.004  30.747  1.00  0.00     0.041 A 
ATOM     83  F   UNL A   1      45.825  32.790  31.366  1.00  0.00    -0.206 F 
ATOM     84  C   UNL A   1      46.150  36.058  29.848  1.00  0.00     0.022 A 
BRANCH  81  85
ATOM     85  S   UNL A   1      45.265  37.212  27.469  1.00  0.00     0.124 S 
ATOM     86  O   UNL A   1      43.909  37.047  26.956  1.00  0.00    -0.237 OA
ATOM     87  O   UNL A   1      45.502  38.407  28.272  1.00  0.00    -0.237 OA
ATOM     88  O   UNL A   1      46.330  36.884  26.523  1.00  0.00    -0.744 OA
ENDBRANCH  81  85
ENDBRANCH  55  78
ENDBRANCH  29  30
ENDBRANCH  22  24
ENDBRANCH  21  22
ENDBRANCH   1  21
TORSDOF 16
ENDMDL
MODEL 2
REMARK VINA RESULT:     -11.6      1.762      2.264
REMARK SMILES Cc1cc(C[N@@H+]2CC[C@@H](C(=O)OCCOC(=O)c3ccc(-c4c5nc(c(-c6cc(S(=O)(=O)[O-])ccc6F)c6ccc([nH]6)c(-c6cc(S(=O)(=O)[O-])ccc6F)c6nc(c(-c7cc(S(=O)(=O)[O-])ccc7F)c7ccc4[nH]7)C=C6)C=C5)cc3)C2)ccc1Br
REMARK SMILES IDX 14 1 13 2 12 3 10 4 11 5 9 6 6 7 7 8 81 9 8 11 5 12 4 13
REMARK SMILES IDX 1 14 2 15 3 16 84 17 83 18 85 19 82 20 15 21 16 22 17 23
REMARK SMILES IDX 18 24 19 25 80 26 20 27 79 28 21 29 22 30 23 31 73 32 24 33
REMARK SMILES IDX 78 34 72 35 74 36 25 37 77 38 71 39 70 40 26 42 58 43 38 44
REMARK SMILES IDX 57 45 39 46 42 47 56 48 75 49 40 50 41 51 55 53 76 54 43 55
REMARK SMILES IDX 27 56 28 57 36 58 29 59 35 60 37 61 34 62 30 63 31 64 32 65
REMARK SMILES IDX 33 66 59 67 60 68 68 69 61 70 67 71 69 72 66 73 62 74 63 75
REMARK SMILES IDX 64 76 65 77 44 78 45 79 53 80 46 81 52 82 54 83 51 84 47 85
REMARK SMILES IDX 48 86 49 87 50 88
REMARK H PARENT 6 10 74 41 42 52
REMARK Flexibility Score: inf
ROOT
ATOM      1  C   UNL A   1      36.219  20.488  25.206  1.00  0.00     0.275 C 
ENDROOT
BRANCH   1   2
ATOM      2  C   UNL A   1      34.853  20.987  24.731  1.00  0.00     0.274 C 
BRANCH   2   3
ATOM      3  O   UNL A   1      33.840  20.851  25.744  1.00  0.00    -0.462 OA
BRANCH   3   4
ATOM      4  C   UNL A   1      32.578  20.592  25.303  1.00  0.00     0.315 C 
ATOM      5  O   UNL A   1      32.187  19.498  24.914  1.00  0.00    -0.252 OA
BRANCH   4   6
ATOM      6  C   UNL A   1      31.712  21.829  25.274  1.00  0.00     0.159 C 
ATOM      7  N   UNL A   1      31.954  24.148  25.813  1.00  0.00    -0.330 N 
ATOM      8  C   UNL A   1      32.370  23.992  24.426  1.00  0.00     0.263 C 
ATOM      9  C   UNL A   1      31.994  22.809  26.408  1.00  0.00     0.278 C 
ATOM     10  H   UNL A   1      32.610  24.766  26.291  1.00  0.00     0.348 HD
ATOM     11  C   UNL A   1      31.913  22.612  23.981  1.00  0.00     0.082 C 
BRANCH   7  12
ATOM     12  C   UNL A   1      30.741  24.930  26.062  1.00  0.00     0.299 C 
BRANCH  12  13
ATOM     13  C   UNL A   1      30.490  26.154  25.207  1.00  0.00     0.007 A 
ATOM     14  C   UNL A   1      31.896  29.686  24.849  1.00  0.00     0.045 C 
ATOM     15  C   UNL A   1      31.033  28.476  24.619  1.00  0.00    -0.036 A 
ATOM     16  C   UNL A   1      31.243  27.326  25.402  1.00  0.00     0.014 A 
ATOM     17  C   UNL A   1      30.009  28.455  23.662  1.00  0.00     0.020 A 
ATOM     18  C   UNL A   1      29.273  27.289  23.440  1.00  0.00     0.016 A 
ATOM     19  Br  UNL A   1      29.561  29.979  22.623  1.00  0.00    -0.051 Br
ATOM     20  C   UNL A   1      29.535  26.140  24.185  1.00  0.00     0.011 A 
ENDBRANCH  12  13
ENDBRANCH   7  12
ENDBRANCH   4   6
ENDBRANCH   3   4
ENDBRANCH   2   3
ENDBRANCH   1   2
BRANCH   1  21
ATOM     21  O   UNL A   1      37.124  21.577  25.445  1.00  0.00    -0.458 OA
BRANCH  21  22
ATOM     22  C   UNL A   1      38.390  21.212  25.761  1.00  0.00     0.338 C 
ATOM     23  O   UNL A   1      38.931  20.147  25.523  1.00  0.00    -0.246 OA
BRANCH  22  24
ATOM     24  C   UNL A   1      39.087  22.358  26.355  1.00  0.00     0.060 A 
ATOM     25  C   UNL A   1      38.644  23.650  26.050  1.00  0.00     0.016 A 
ATOM     26  C   UNL A   1      40.208  22.157  27.161  1.00  0.00     0.016 A 
ATOM     27  C   UNL A   1      39.324  24.755  26.553  1.00  0.00     0.010 A 
ATOM     28  C   UNL A   1      40.887  23.264  27.664  1.00  0.00     0.010 A 
ATOM     29  C   UNL A   1      40.455  24.567  27.356  1.00  0.00    -0.014 A 
BRANCH  29  30
ATOM     30  C   UNL A   1      41.251  25.718  27.835  1.00  0.00     0.031 A 
ATOM     31  C   UNL A   1      40.574  26.788  28.637  1.00  0.00     0.074 A 
ATOM     32  C   UNL A   1      42.550  25.825  27.505  1.00  0.00     0.049 A 
ATOM     33  N   UNL A   1      41.005  27.974  28.974  1.00  0.00    -0.248 NA
ATOM     34  C   UNL A   1      39.218  26.475  29.111  1.00  0.00     0.031 C 
ATOM     35  C   UNL A   1      43.325  24.811  26.789  1.00  0.00     0.029 A 
ATOM     36  N   UNL A   1      43.438  26.849  27.708  1.00  0.00    -0.354 N 
ATOM     37  C   UNL A   1      39.965  28.565  29.682  1.00  0.00     0.074 A 
ATOM     38  C   UNL A   1      38.875  27.610  29.702  1.00  0.00     0.031 C 
ATOM     39  C   UNL A   1      44.572  25.273  26.598  1.00  0.00     0.029 A 
ATOM     40  C   UNL A   1      44.662  26.635  27.119  1.00  0.00     0.049 A 
ATOM     41  H   UNL A   1      43.221  27.658  28.224  1.00  0.00     0.167 HD
ATOM     42  C   UNL A   1      39.929  29.792  30.259  1.00  0.00     0.034 A 
ATOM     43  C   UNL A   1      45.712  27.465  26.974  1.00  0.00     0.034 A 
ATOM     44  C   UNL A   1      41.026  30.729  30.206  1.00  0.00     0.049 A 
ATOM     45  C   UNL A   1      45.608  28.870  27.511  1.00  0.00     0.074 A 
ATOM     46  C   UNL A   1      41.107  31.999  30.747  1.00  0.00     0.029 A 
ATOM     47  N   UNL A   1      42.233  30.497  29.557  1.00  0.00    -0.354 N 
ATOM     48  N   UNL A   1      44.611  29.440  28.149  1.00  0.00    -0.248 NA
ATOM     49  C   UNL A   1      46.767  29.747  27.299  1.00  0.00     0.031 C 
ATOM     50  C   UNL A   1      42.336  32.558  30.372  1.00  0.00     0.029 A 
ATOM     51  C   UNL A   1      43.052  31.611  29.658  1.00  0.00     0.049 A 
ATOM     52  H   UNL A   1      42.473  29.662  29.093  1.00  0.00     0.167 HD
ATOM     53  C   UNL A   1      45.037  30.730  28.447  1.00  0.00     0.074 A 
ATOM     54  C   UNL A   1      46.379  30.856  27.914  1.00  0.00     0.031 C 
ATOM     55  C   UNL A   1      44.386  31.717  29.113  1.00  0.00     0.034 A 
BRANCH  42  56
ATOM     56  C   UNL A   1      38.637  30.198  30.927  1.00  0.00     0.023 A 
ATOM     57  C   UNL A   1      37.599  30.825  30.213  1.00  0.00     0.031 A 
ATOM     58  C   UNL A   1      38.467  30.023  32.312  1.00  0.00     0.131 A 
ATOM     59  C   UNL A   1      36.487  31.336  30.898  1.00  0.00     0.055 A 
ATOM     60  C   UNL A   1      37.316  30.456  32.974  1.00  0.00     0.041 A 
ATOM     61  F   UNL A   1      39.431  29.452  33.052  1.00  0.00    -0.206 F 
ATOM     62  C   UNL A   1      36.327  31.135  32.271  1.00  0.00     0.022 A 
BRANCH  59  63
ATOM     63  S   UNL A   1      35.342  32.422  30.000  1.00  0.00     0.124 S 
ATOM     64  O   UNL A   1      34.327  32.687  31.016  1.00  0.00    -0.237 OA
ATOM     65  O   UNL A   1      36.195  33.548  29.639  1.00  0.00    -0.237 OA
ATOM     66  O   UNL A   1      34.893  31.594  28.882  1.00  0.00    -0.744 OA
ENDBRANCH  59  63
ENDBRANCH  42  56
BRANCH  43  67
ATOM     67  C   UNL A   1      46.933  27.013  26.250  1.00  0.00     0.023 A 
ATOM     68  C   UNL A   1      47.977  26.374  26.935  1.00  0.00     0.031 A 
ATOM     69  C   UNL A   1      47.086  27.237  24.870  1.00  0.00     0.131 A 
ATOM     70  C   UNL A   1      49.144  26.009  26.246  1.00  0.00     0.055 A 
ATOM     71  C   UNL A   1      48.228  26.830  24.180  1.00  0.00     0.041 A 
ATOM     72  F   UNL A   1      46.117  27.846  24.169  1.00  0.00    -0.206 F 
ATOM     73  C   UNL A   1      49.271  26.220  24.871  1.00  0.00     0.022 A 
BRANCH  70  74
ATOM     74  S   UNL A   1      50.524  25.307  27.189  1.00  0.00     0.124 S 
ATOM     75  O   UNL A   1      50.906  26.430  28.038  1.00  0.00    -0.237 OA
ATOM     76  O   UNL A   1      49.890  24.179  27.862  1.00  0.00    -0.237 OA
ATOM     77  O   UNL A   1      51.494  24.947  26.156  1.00  0.00    -0.744 OA
ENDBRANCH  70  74
ENDBRANCH  43  67
BRANCH  55  78
ATOM     78  C   UNL A   1      45.150  32.995  29.358  1.00  0.00     0.023 A 
ATOM     79  C   UNL A   1      44.995  34.124  28.536  1.00  0.00     0.031 A 
ATOM     80  C   UNL A   1      46.044  33.077  30.440  1.00  0.00     0.131 A 
ATOM     81  C   UNL A   1      45.756  35.277  28.786  1.00  0.00     0.055 A 
ATOM     82  C   UNL A   1      46.760  34.242  30.713  1.00  0.00     0.041 A 
ATOM     83  F   UNL A   1      46.229  32.025  31.254  1.00  0.00    -0.206 F 
ATOM     84  C   UNL A   1      46.626  35.347  29.879  1.00  0.00     0.022 A 
BRANCH  81  85
ATOM     85  S   UNL A   1      45.642  36.670  27.630  1.00  0.00     0.124 S 
ATOM     86  O   UNL A   1      47.024  36.804  27.180  1.00  0.00    -0.237 OA
ATOM     87  O   UNL A   1      44.693  36.177  26.637  1.00  0.00    -0.237 OA
ATOM     88  O   UNL A   1      45.152  37.767  28.462  1.00  0.00    -0.744 OA
ENDBRANCH  81  85
ENDBRANCH  55  78
ENDBRANCH  29  30
ENDBRANCH  22  24
ENDBRANCH  21  22
ENDBRANCH   1  21
TORSDOF 16
ENDMDL
MODEL 3
REMARK VINA RESULT:     -11.6      5.461     10.492
REMARK SMILES Cc1cc(C[N@@H+]2CC[C@@H](C(=O)OCCOC(=O)c3ccc(-c4c5nc(c(-c6cc(S(=O)(=O)[O-])ccc6F)c6ccc([nH]6)c(-c6cc(S(=O)(=O)[O-])ccc6F)c6nc(c(-c7cc(S(=O)(=O)[O-])ccc7F)c7ccc4[nH]7)C=C6)C=C5)cc3)C2)ccc1Br
REMARK SMILES IDX 14 1 13 2 12 3 10 4 11 5 9 6 6 7 7 8 81 9 8 11 5 12 4 13
REMARK SMILES IDX 1 14 2 15 3 16 84 17 83 18 85 19 82 20 15 21 16 22 17 23
REMARK SMILES IDX 18 24 19 25 80 26 20 27 79 28 21 29 22 30 23 31 73 32 24 33
REMARK SMILES IDX 78 34 72 35 74 36 25 37 77 38 71 39 70 40 26 42 58 43 38 44
REMARK SMILES IDX 57 45 39 46 42 47 56 48 75 49 40 50 41 51 55 53 76 54 43 55
REMARK SMILES IDX 27 56 28 57 36 58 29 59 35 60 37 61 34 62 30 63 31 64 32 65
REMARK SMILES IDX 33 66 59 67 60 68 68 69 61 70 67 71 69 72 66 73 62 74 63 75
REMARK SMILES IDX 64 76 65 77 44 78 45 79 53 80 46 81 52 82 54 83 51 84 47 85
REMARK SMILES IDX 48 86 49 87 50 88
REMARK H PARENT 6 10 74 41 42 52
REMARK Flexibility Score: inf
ROOT
ATOM      1  C   UNL A   1      31.795  29.402  25.687  1.00  0.00     0.275 C 
ENDROOT
BRANCH   1   2
ATOM      2  C   UNL A   1      31.312  29.324  24.238  1.00  0.00     0.274 C 
BRANCH   2   3
ATOM      3  O   UNL A   1      30.279  28.338  24.060  1.00  0.00    -0.462 OA
BRANCH   3   4
ATOM      4  C   UNL A   1      30.528  27.365  23.140  1.00  0.00     0.315 C 
ATOM      5  O   UNL A   1      30.571  27.547  21.929  1.00  0.00    -0.252 OA
BRANCH   4   6
ATOM      6  C   UNL A   1      30.681  26.001  23.770  1.00  0.00     0.159 C 
ATOM      7  N   UNL A   1      32.223  24.916  25.243  1.00  0.00    -0.330 N 
ATOM      8  C   UNL A   1      31.226  25.568  26.082  1.00  0.00     0.263 C 
ATOM      9  C   UNL A   1      32.129  25.549  23.924  1.00  0.00     0.278 C 
ATOM     10  H   UNL A   1      33.148  25.071  25.643  1.00  0.00     0.348 HD
ATOM     11  C   UNL A   1      30.078  25.970  25.170  1.00  0.00     0.082 C 
BRANCH   7  12
ATOM     12  C   UNL A   1      32.252  23.452  25.257  1.00  0.00     0.299 C 
BRANCH  12  13
ATOM     13  C   UNL A   1      33.599  22.761  25.236  1.00  0.00     0.007 A 
ATOM     14  C   UNL A   1      37.250  23.672  25.883  1.00  0.00     0.045 C 
ATOM     15  C   UNL A   1      36.036  22.861  25.522  1.00  0.00    -0.036 A 
ATOM     16  C   UNL A   1      34.772  23.479  25.531  1.00  0.00     0.014 A 
ATOM     17  C   UNL A   1      36.117  21.510  25.158  1.00  0.00     0.020 A 
ATOM     18  C   UNL A   1      34.958  20.780  24.890  1.00  0.00     0.016 A 
ATOM     19  Br  UNL A   1      37.775  20.599  25.005  1.00  0.00    -0.051 Br
ATOM     20  C   UNL A   1      33.708  21.394  24.961  1.00  0.00     0.011 A 
ENDBRANCH  12  13
ENDBRANCH   7  12
ENDBRANCH   4   6
ENDBRANCH   3   4
ENDBRANCH   2   3
ENDBRANCH   1   2
BRANCH   1  21
ATOM     21  O   UNL A   1      33.058  30.078  25.787  1.00  0.00    -0.458 OA
BRANCH  21  22
ATOM     22  C   UNL A   1      33.107  31.071  26.707  1.00  0.00     0.338 C 
ATOM     23  O   UNL A   1      32.277  31.942  26.898  1.00  0.00    -0.246 OA
BRANCH  22  24
ATOM     24  C   UNL A   1      34.290  30.884  27.555  1.00  0.00     0.060 A 
ATOM     25  C   UNL A   1      35.090  31.994  27.851  1.00  0.00     0.016 A 
ATOM     26  C   UNL A   1      34.639  29.610  28.003  1.00  0.00     0.016 A 
ATOM     27  C   UNL A   1      36.250  31.834  28.603  1.00  0.00     0.010 A 
ATOM     28  C   UNL A   1      35.800  29.452  28.755  1.00  0.00     0.010 A 
ATOM     29  C   UNL A   1      36.615  30.559  29.051  1.00  0.00    -0.014 A 
BRANCH  29  30
ATOM     30  C   UNL A   1      37.886  30.340  29.778  1.00  0.00     0.031 A 
ATOM     31  C   UNL A   1      38.923  29.441  29.177  1.00  0.00     0.074 A 
ATOM     32  C   UNL A   1      38.076  30.899  30.986  1.00  0.00     0.049 A 
ATOM     33  N   UNL A   1      39.999  28.936  29.716  1.00  0.00    -0.248 NA
ATOM     34  C   UNL A   1      38.703  29.051  27.776  1.00  0.00     0.031 C 
ATOM     35  C   UNL A   1      37.165  31.843  31.633  1.00  0.00     0.029 A 
ATOM     36  N   UNL A   1      39.090  30.731  31.893  1.00  0.00    -0.354 N 
ATOM     37  C   UNL A   1      40.579  28.147  28.730  1.00  0.00     0.074 A 
ATOM     38  C   UNL A   1      39.716  28.224  27.569  1.00  0.00     0.031 C 
ATOM     39  C   UNL A   1      37.655  32.159  32.843  1.00  0.00     0.029 A 
ATOM     40  C   UNL A   1      38.875  31.391  33.080  1.00  0.00     0.049 A 
ATOM     41  H   UNL A   1      39.893  30.190  31.713  1.00  0.00     0.167 HD
ATOM     42  C   UNL A   1      41.726  27.425  28.794  1.00  0.00     0.034 A 
ATOM     43  C   UNL A   1      39.559  31.338  34.239  1.00  0.00     0.034 A 
ATOM     44  C   UNL A   1      42.555  27.352  29.974  1.00  0.00     0.049 A 
ATOM     45  C   UNL A   1      40.761  30.433  34.333  1.00  0.00     0.074 A 
ATOM     46  C   UNL A   1      43.735  26.654  30.162  1.00  0.00     0.029 A 
ATOM     47  N   UNL A   1      42.281  27.995  31.175  1.00  0.00    -0.354 N 
ATOM     48  N   UNL A   1      41.287  29.659  33.411  1.00  0.00    -0.248 NA
ATOM     49  C   UNL A   1      41.453  30.384  35.627  1.00  0.00     0.031 C 
ATOM     50  C   UNL A   1      44.137  26.823  31.493  1.00  0.00     0.029 A 
ATOM     51  C   UNL A   1      43.250  27.686  32.116  1.00  0.00     0.049 A 
ATOM     52  H   UNL A   1      41.509  28.586  31.334  1.00  0.00     0.167 HD
ATOM     53  C   UNL A   1      42.395  29.060  34.003  1.00  0.00     0.074 A 
ATOM     54  C   UNL A   1      42.457  29.559  35.363  1.00  0.00     0.031 C 
ATOM     55  C   UNL A   1      43.289  28.189  33.470  1.00  0.00     0.034 A 
BRANCH  42  56
ATOM     56  C   UNL A   1      42.093  26.611  27.576  1.00  0.00     0.023 A 
ATOM     57  C   UNL A   1      41.722  25.259  27.449  1.00  0.00     0.031 A 
ATOM     58  C   UNL A   1      42.889  27.171  26.561  1.00  0.00     0.131 A 
ATOM     59  C   UNL A   1      42.222  24.493  26.385  1.00  0.00     0.055 A 
ATOM     60  C   UNL A   1      43.310  26.424  25.458  1.00  0.00     0.041 A 
ATOM     61  F   UNL A   1      43.295  28.448  26.637  1.00  0.00    -0.206 F 
ATOM     62  C   UNL A   1      42.994  25.072  25.376  1.00  0.00     0.022 A 
BRANCH  59  63
ATOM     63  S   UNL A   1      41.997  22.693  26.437  1.00  0.00     0.124 S 
ATOM     64  O   UNL A   1      42.396  22.305  25.086  1.00  0.00    -0.237 OA
ATOM     65  O   UNL A   1      42.901  22.294  27.510  1.00  0.00    -0.237 OA
ATOM     66  O   UNL A   1      40.573  22.535  26.727  1.00  0.00    -0.744 OA
ENDBRANCH  59  63
ENDBRANCH  42  56
BRANCH  43  67
ATOM     67  C   UNL A   1      39.102  32.126  35.418  1.00  0.00     0.023 A 
ATOM     68  C   UNL A   1      38.455  31.498  36.492  1.00  0.00     0.031 A 
ATOM     69  C   UNL A   1      39.280  33.520  35.475  1.00  0.00     0.131 A 
ATOM     70  C   UNL A   1      37.980  32.266  37.566  1.00  0.00     0.055 A 
ATOM     71  C   UNL A   1      38.848  34.274  36.566  1.00  0.00     0.041 A 
ATOM     72  F   UNL A   1      39.892  34.168  34.471  1.00  0.00    -0.206 F 
ATOM     73  C   UNL A   1      38.184  33.647  37.617  1.00  0.00     0.022 A 
BRANCH  70  74
ATOM     74  S   UNL A   1      37.032  31.439  38.872  1.00  0.00     0.124 S 
ATOM     75  O   UNL A   1      35.794  32.210  38.875  1.00  0.00    -0.237 OA
ATOM     76  O   UNL A   1      36.938  30.075  38.362  1.00  0.00    -0.237 OA
ATOM     77  O   UNL A   1      37.873  31.600  40.057  1.00  0.00    -0.744 OA
ENDBRANCH  70  74
ENDBRANCH  43  67
BRANCH  55  78
ATOM     78  C   UNL A   1      44.446  27.778  34.344  1.00  0.00     0.023 A 
ATOM     79  C   UNL A   1      44.369  26.675  35.212  1.00  0.00     0.031 A 
ATOM     80  C   UNL A   1      45.649  28.505  34.298  1.00  0.00     0.131 A 
ATOM     81  C   UNL A   1      45.463  26.356  36.031  1.00  0.00     0.055 A 
ATOM     82  C   UNL A   1      46.751  28.152  35.077  1.00  0.00     0.041 A 
ATOM     83  F   UNL A   1      45.774  29.567  33.486  1.00  0.00    -0.206 F 
ATOM     84  C   UNL A   1      46.659  27.079  35.957  1.00  0.00     0.022 A 
BRANCH  81  85
ATOM     85  S   UNL A   1      45.290  25.017  37.242  1.00  0.00     0.124 S 
ATOM     86  O   UNL A   1      45.570  23.836  36.431  1.00  0.00    -0.237 OA
ATOM     87  O   UNL A   1      46.299  25.361  38.238  1.00  0.00    -0.237 OA
ATOM     88  O   UNL A   1      43.906  25.142  37.697  1.00  0.00    -0.744 OA
ENDBRANCH  81  85
ENDBRANCH  55  78
ENDBRANCH  29  30
ENDBRANCH  22  24
ENDBRANCH  21  22
ENDBRANCH   1  21
TORSDOF 16
ENDMDL
