MODEL 1
REMARK VINA RESULT:     -13.4      0.000      0.000
REMARK SMILES O=C(OCCOC(=O)[C@H]1[C@H](C(=O)NC2CC[NH+](Cc3ccccc3)CC2)[C@H]2C=C[C@@H]1C2)c1ccc(-c2c3nc(c(-c4cc(S(=O)(=O)[O-])ccc4F)c4ccc([nH]4)c(-c4cc(S(=O)(=O)[O-])ccc4F)c4nc(c(-c5cc(S(=O)(=O)[O-])ccc5F)c5ccc2[nH]5)C=C4)C=C3)cc1
REMARK SMILES IDX 5 1 4 2 3 3 2 4 1 5 32 6 33 7 94 8 34 9 93 10 35 11 36 12
REMARK SMILES IDX 37 13 87 14 38 15 92 16 86 17 88 18 39 19 91 20 85 21 84 22
REMARK SMILES IDX 40 24 72 25 52 26 71 27 53 28 56 29 70 30 89 31 54 32 55 33
REMARK SMILES IDX 69 35 90 36 57 37 41 38 42 39 50 40 43 41 49 42 51 43 48 44
REMARK SMILES IDX 44 45 45 46 46 47 47 48 73 49 74 50 82 51 75 52 81 53 83 54
REMARK SMILES IDX 80 55 76 56 77 57 78 58 79 59 58 60 59 61 67 62 60 63 66 64
REMARK SMILES IDX 68 65 65 66 61 67 62 68 63 69 64 70 6 71 7 72 8 73 9 74
REMARK SMILES IDX 10 75 30 76 27 77 29 78 31 79 28 80 11 81 12 82 13 83 14 85
REMARK SMILES IDX 15 86 26 87 16 88 25 89 17 90 18 92 19 93 20 94 24 95 21 96
REMARK SMILES IDX 23 97 22 98
REMARK H PARENT 88 23 56 34 13 84 17 91
REMARK Flexibility Score: inf
ROOT
ATOM      1  C   UNL A   1      31.047  31.941  26.971  1.00  0.00     0.274 C 
ENDROOT
BRANCH   1   2
ATOM      2  C   UNL A   1      31.895  33.226  26.548  1.00  0.00     0.275 C 
BRANCH   2   3
ATOM      3  O   UNL A   1      32.458  33.865  27.698  1.00  0.00    -0.458 OA
BRANCH   3   4
ATOM      4  C   UNL A   1      33.809  33.903  27.852  1.00  0.00     0.338 C 
ATOM      5  O   UNL A   1      34.468  34.896  27.576  1.00  0.00    -0.246 OA
BRANCH   4   6
ATOM      6  C   UNL A   1      34.431  32.680  28.412  1.00  0.00     0.060 A 
ATOM      7  C   UNL A   1      35.028  31.684  27.647  1.00  0.00     0.016 A 
ATOM      8  C   UNL A   1      34.648  32.522  29.708  1.00  0.00     0.016 A 
ATOM      9  C   UNL A   1      35.875  30.678  27.926  1.00  0.00     0.010 A 
ATOM     10  C   UNL A   1      35.793  31.718  29.904  1.00  0.00     0.010 A 
ATOM     11  C   UNL A   1      36.919  30.961  28.860  1.00  0.00    -0.014 A 
BRANCH  11  12
ATOM     12  C   UNL A   1      38.641  29.758  29.585  1.00  0.00     0.031 A 
ATOM     13  C   UNL A   1      39.438  30.196  31.318  1.00  0.00     0.074 A 
ATOM     14  C   UNL A   1      39.321  28.497  29.494  1.00  0.00     0.049 A 
ATOM     15  N   UNL A   1      40.655  29.942  31.898  1.00  0.00    -0.248 NA
ATOM     16  C   UNL A   1      38.715  30.963  32.439  1.00  0.00     0.031 C 
ATOM     17  C   UNL A   1      39.016  27.427  28.540  1.00  0.00     0.029 A 
ATOM     18  N   UNL A   1      40.612  28.130  29.917  1.00  0.00    -0.354 N 
ATOM     19  C   UNL A   1      40.756  30.654  33.194  1.00  0.00     0.074 A 
ATOM     20  C   UNL A   1      39.606  31.467  33.265  1.00  0.00     0.031 C 
ATOM     21  C   UNL A   1      40.157  26.885  28.116  1.00  0.00     0.029 A 
ATOM     22  C   UNL A   1      41.222  27.247  29.039  1.00  0.00     0.049 A 
ATOM     23  H   UNL A   1      41.033  28.462  30.741  1.00  0.00     0.167 HD
ATOM     24  C   UNL A   1      41.537  30.626  34.338  1.00  0.00     0.034 A 
ATOM     25  C   UNL A   1      42.428  26.648  28.938  1.00  0.00     0.034 A 
ATOM     26  C   UNL A   1      42.575  29.660  34.550  1.00  0.00     0.049 A 
ATOM     27  C   UNL A   1      43.346  26.565  30.113  1.00  0.00     0.074 A 
ATOM     28  C   UNL A   1      43.337  29.404  35.682  1.00  0.00     0.029 A 
ATOM     29  N   UNL A   1      42.963  28.763  33.587  1.00  0.00    -0.354 N 
ATOM     30  N   UNL A   1      43.308  27.232  31.236  1.00  0.00    -0.248 NA
ATOM     31  C   UNL A   1      44.383  25.521  30.058  1.00  0.00     0.031 C 
ATOM     32  C   UNL A   1      44.273  28.422  35.355  1.00  0.00     0.029 A 
ATOM     33  C   UNL A   1      44.000  27.998  34.069  1.00  0.00     0.049 A 
ATOM     34  H   UNL A   1      42.561  28.679  32.692  1.00  0.00     0.167 HD
ATOM     35  C   UNL A   1      44.274  26.641  32.044  1.00  0.00     0.074 A 
ATOM     36  C   UNL A   1      44.869  25.566  31.287  1.00  0.00     0.031 C 
ATOM     37  C   UNL A   1      44.613  26.953  33.315  1.00  0.00     0.034 A 
BRANCH  24  38
ATOM     38  C   UNL A   1      41.332  31.624  35.560  1.00  0.00     0.023 A 
ATOM     39  C   UNL A   1      40.197  31.635  36.406  1.00  0.00     0.031 A 
ATOM     40  C   UNL A   1      42.362  32.530  35.928  1.00  0.00     0.131 A 
ATOM     41  C   UNL A   1      40.072  32.580  37.458  1.00  0.00     0.055 A 
ATOM     42  C   UNL A   1      42.279  33.387  37.043  1.00  0.00     0.041 A 
ATOM     43  F   UNL A   1      43.500  32.593  35.218  1.00  0.00    -0.206 F 
ATOM     44  C   UNL A   1      41.119  33.434  37.802  1.00  0.00     0.022 A 
BRANCH  41  45
ATOM     45  S   UNL A   1      38.449  32.818  38.255  1.00  0.00     0.124 S 
ATOM     46  O   UNL A   1      38.493  34.239  38.591  1.00  0.00    -0.237 OA
ATOM     47  O   UNL A   1      37.516  32.441  37.201  1.00  0.00    -0.237 OA
ATOM     48  O   UNL A   1      38.487  31.915  39.405  1.00  0.00    -0.744 OA
ENDBRANCH  41  45
ENDBRANCH  24  38
BRANCH  25  49
ATOM     49  C   UNL A   1      42.688  25.830  27.717  1.00  0.00     0.023 A 
ATOM     50  C   UNL A   1      42.161  24.537  27.604  1.00  0.00     0.031 A 
ATOM     51  C   UNL A   1      43.362  26.377  26.610  1.00  0.00     0.131 A 
ATOM     52  C   UNL A   1      42.374  23.799  26.435  1.00  0.00     0.055 A 
ATOM     53  C   UNL A   1      43.506  25.663  25.419  1.00  0.00     0.041 A 
ATOM     54  F   UNL A   1      43.840  27.631  26.657  1.00  0.00    -0.206 F 
ATOM     55  C   UNL A   1      43.022  24.360  25.333  1.00  0.00     0.022 A 
BRANCH  52  56
ATOM     56  S   UNL A   1      41.903  22.051  26.437  1.00  0.00     0.124 S 
ATOM     57  O   UNL A   1      42.686  21.537  25.319  1.00  0.00    -0.237 OA
ATOM     58  O   UNL A   1      42.326  21.625  27.767  1.00  0.00    -0.237 OA
ATOM     59  O   UNL A   1      40.459  22.092  26.224  1.00  0.00    -0.744 OA
ENDBRANCH  52  56
ENDBRANCH  25  49
BRANCH  37  60
ATOM     60  C   UNL A   1      45.674  26.142  33.976  1.00  0.00     0.023 A 
ATOM     61  C   UNL A   1      45.351  24.940  34.614  1.00  0.00     0.031 A 
ATOM     62  C   UNL A   1      47.013  26.566  33.965  1.00  0.00     0.131 A 
ATOM     63  C   UNL A   1      46.342  24.244  35.302  1.00  0.00     0.055 A 
ATOM     64  C   UNL A   1      48.017  25.809  34.559  1.00  0.00     0.041 A 
ATOM     65  F   UNL A   1      47.364  27.719  33.369  1.00  0.00    -0.206 F 
ATOM     66  C   UNL A   1      47.680  24.648  35.251  1.00  0.00     0.022 A 
BRANCH  63  67
ATOM     67  S   UNL A   1      45.817  22.910  36.403  1.00  0.00     0.124 S 
ATOM     68  O   UNL A   1      45.368  23.654  37.575  1.00  0.00    -0.237 OA
ATOM     69  O   UNL A   1      44.771  22.254  35.625  1.00  0.00    -0.237 OA
ATOM     70  O   UNL A   1      47.037  22.127  36.592  1.00  0.00    -0.744 OA
ENDBRANCH  63  67
ENDBRANCH  37  60
ENDBRANCH  11  12
ENDBRANCH   4   6
ENDBRANCH   3   4
ENDBRANCH   2   3
ENDBRANCH   1   2
BRANCH   1  71
ATOM     71  O   UNL A   1      31.546  30.498  26.353  1.00  0.00    -0.462 OA
BRANCH  71  72
ATOM     72  C   UNL A   1      32.039  29.669  25.360  1.00  0.00     0.310 C 
ATOM     73  O   UNL A   1      33.276  29.732  25.236  1.00  0.00    -0.252 OA
BRANCH  72  74
ATOM     74  C   UNL A   1      31.311  28.644  24.259  1.00  0.00     0.119 C 
ATOM     75  C   UNL A   1      30.462  27.069  24.817  1.00  0.00     0.100 C 
ATOM     76  C   UNL A   1      30.533  28.970  22.663  1.00  0.00     0.027 C 
ATOM     77  C   UNL A   1      28.794  26.949  23.698  1.00  0.00     0.025 C 
ATOM     78  C   UNL A   1      28.707  29.586  22.221  1.00  0.00    -0.027 C 
ATOM     79  C   UNL A   1      30.456  27.247  22.682  1.00  0.00     0.017 C 
ATOM     80  C   UNL A   1      27.511  28.621  23.018  1.00  0.00    -0.027 C 
BRANCH  75  81
ATOM     81  C   UNL A   1      31.057  25.755  25.818  1.00  0.00     0.224 C 
ATOM     82  O   UNL A   1      30.188  25.132  26.471  1.00  0.00    -0.275 OA
ATOM     83  N   UNL A   1      32.283  25.150  26.007  1.00  0.00    -0.353 N 
ATOM     84  H   UNL A   1      32.309  24.661  26.861  1.00  0.00     0.163 HD
BRANCH  83  85
ATOM     85  C   UNL A   1      33.577  25.031  25.279  1.00  0.00     0.093 C 
ATOM     86  C   UNL A   1      33.311  24.467  23.935  1.00  0.00     0.086 C 
ATOM     87  C   UNL A   1      34.672  24.080  25.840  1.00  0.00     0.086 C 
ATOM     88  C   UNL A   1      32.940  22.959  24.219  1.00  0.00     0.264 C 
ATOM     89  C   UNL A   1      34.182  22.647  26.228  1.00  0.00     0.264 C 
ATOM     90  N   UNL A   1      33.480  21.959  25.168  1.00  0.00    -0.331 N 
ATOM     91  H   UNL A   1      34.112  21.413  24.582  1.00  0.00     0.348 HD
BRANCH  90  92
ATOM     92  C   UNL A   1      32.748  20.536  25.516  1.00  0.00     0.299 C 
BRANCH  92  93
ATOM     93  C   UNL A   1      32.938  18.950  24.990  1.00  0.00     0.006 A 
ATOM     94  C   UNL A   1      33.048  18.603  23.657  1.00  0.00     0.009 A 
ATOM     95  C   UNL A   1      32.714  17.722  25.688  1.00  0.00     0.009 A 
ATOM     96  C   UNL A   1      33.335  17.254  23.204  1.00  0.00     0.001 A 
ATOM     97  C   UNL A   1      32.989  16.365  25.299  1.00  0.00     0.001 A 
ATOM     98  C   UNL A   1      33.467  16.160  24.051  1.00  0.00     0.000 A 
ENDBRANCH  92  93
ENDBRANCH  90  92
ENDBRANCH  83  85
ENDBRANCH  75  81
ENDBRANCH  72  74
ENDBRANCH  71  72
ENDBRANCH   1  71
TORSDOF 18
ENDMDL
MODEL 2
REMARK VINA RESULT:     -13.3      1.610      1.885
REMARK SMILES O=C(OCCOC(=O)[C@H]1[C@H](C(=O)NC2CC[NH+](Cc3ccccc3)CC2)[C@H]2C=C[C@@H]1C2)c1ccc(-c2c3nc(c(-c4cc(S(=O)(=O)[O-])ccc4F)c4ccc([nH]4)c(-c4cc(S(=O)(=O)[O-])ccc4F)c4nc(c(-c5cc(S(=O)(=O)[O-])ccc5F)c5ccc2[nH]5)C=C4)C=C3)cc1
REMARK SMILES IDX 5 1 4 2 3 3 2 4 1 5 32 6 33 7 94 8 34 9 93 10 35 11 36 12
REMARK SMILES IDX 37 13 87 14 38 15 92 16 86 17 88 18 39 19 91 20 85 21 84 22
REMARK SMILES IDX 40 24 72 25 52 26 71 27 53 28 56 29 70 30 89 31 54 32 55 33
REMARK SMILES IDX 69 35 90 36 57 37 41 38 42 39 50 40 43 41 49 42 51 43 48 44
REMARK SMILES IDX 44 45 45 46 46 47 47 48 73 49 74 50 82 51 75 52 81 53 83 54
REMARK SMILES IDX 80 55 76 56 77 57 78 58 79 59 58 60 59 61 67 62 60 63 66 64
REMARK SMILES IDX 68 65 65 66 61 67 62 68 63 69 64 70 6 71 7 72 8 73 9 74
REMARK SMILES IDX 10 75 30 76 27 77 29 78 31 79 28 80 11 81 12 82 13 83 14 85
REMARK SMILES IDX 15 86 26 87 16 88 25 89 17 90 18 92 19 93 20 94 24 95 21 96
REMARK SMILES IDX 23 97 22 98
REMARK H PARENT 88 23 56 34 13 84 17 91
REMARK Flexibility Score: inf
ROOT
ATOM      1  C   UNL A   1      31.183  31.905  27.054  1.00  0.00     0.274 C 
ENDROOT
BRANCH   1   2
ATOM      2  C   UNL A   1      32.121  33.142  26.682  1.00  0.00     0.275 C 
BRANCH   2   3
ATOM      3  O   UNL A   1      32.666  33.739  27.863  1.00  0.00    -0.458 OA
BRANCH   3   4
ATOM      4  C   UNL A   1      34.015  33.776  28.036  1.00  0.00     0.338 C 
ATOM      5  O   UNL A   1      34.670  34.788  27.831  1.00  0.00    -0.246 OA
BRANCH   4   6
ATOM      6  C   UNL A   1      34.638  32.524  28.527  1.00  0.00     0.060 A 
ATOM      7  C   UNL A   1      35.216  31.562  27.706  1.00  0.00     0.016 A 
ATOM      8  C   UNL A   1      34.875  32.304  29.810  1.00  0.00     0.016 A 
ATOM      9  C   UNL A   1      36.062  30.540  27.924  1.00  0.00     0.010 A 
ATOM     10  C   UNL A   1      36.018  31.486  29.950  1.00  0.00     0.010 A 
ATOM     11  C   UNL A   1      37.122  30.773  28.852  1.00  0.00    -0.014 A 
BRANCH  11  12
ATOM     12  C   UNL A   1      38.848  29.528  29.492  1.00  0.00     0.031 A 
ATOM     13  C   UNL A   1      39.891  30.084  31.053  1.00  0.00     0.074 A 
ATOM     14  C   UNL A   1      39.433  28.217  29.461  1.00  0.00     0.049 A 
ATOM     15  N   UNL A   1      41.155  29.803  31.503  1.00  0.00    -0.248 NA
ATOM     16  C   UNL A   1      39.368  31.017  32.159  1.00  0.00     0.031 C 
ATOM     17  C   UNL A   1      38.941  27.079  28.681  1.00  0.00     0.029 A 
ATOM     18  N   UNL A   1      40.743  27.801  29.761  1.00  0.00    -0.354 N 
ATOM     19  C   UNL A   1      41.468  30.638  32.686  1.00  0.00     0.074 A 
ATOM     20  C   UNL A   1      40.389  31.537  32.807  1.00  0.00     0.031 C 
ATOM     21  C   UNL A   1      39.982  26.411  28.183  1.00  0.00     0.029 A 
ATOM     22  C   UNL A   1      41.178  26.787  28.921  1.00  0.00     0.049 A 
ATOM     23  H   UNL A   1      41.288  28.185  30.484  1.00  0.00     0.167 HD
ATOM     24  C   UNL A   1      42.389  30.672  33.721  1.00  0.00     0.034 A 
ATOM     25  C   UNL A   1      42.322  26.093  28.741  1.00  0.00     0.034 A 
ATOM     26  C   UNL A   1      43.385  29.659  33.912  1.00  0.00     0.049 A 
ATOM     27  C   UNL A   1      43.380  26.066  29.795  1.00  0.00     0.074 A 
ATOM     28  C   UNL A   1      44.272  29.467  34.963  1.00  0.00     0.029 A 
ATOM     29  N   UNL A   1      43.588  28.639  33.017  1.00  0.00    -0.354 N 
ATOM     30  N   UNL A   1      43.529  26.848  30.831  1.00  0.00    -0.248 NA
ATOM     31  C   UNL A   1      44.335  24.947  29.732  1.00  0.00     0.031 C 
ATOM     32  C   UNL A   1      45.095  28.389  34.637  1.00  0.00     0.029 A 
ATOM     33  C   UNL A   1      44.631  27.854  33.451  1.00  0.00     0.049 A 
ATOM     34  H   UNL A   1      43.068  28.492  32.194  1.00  0.00     0.167 HD
ATOM     35  C   UNL A   1      44.555  26.275  31.576  1.00  0.00     0.074 A 
ATOM     36  C   UNL A   1      44.980  25.084  30.879  1.00  0.00     0.031 C 
ATOM     37  C   UNL A   1      45.076  26.693  32.752  1.00  0.00     0.034 A 
BRANCH  24  38
ATOM     38  C   UNL A   1      42.406  31.805  34.838  1.00  0.00     0.023 A 
ATOM     39  C   UNL A   1      41.640  31.772  36.028  1.00  0.00     0.031 A 
ATOM     40  C   UNL A   1      43.295  32.908  34.728  1.00  0.00     0.131 A 
ATOM     41  C   UNL A   1      41.685  32.840  36.962  1.00  0.00     0.055 A 
ATOM     42  C   UNL A   1      43.418  33.906  35.714  1.00  0.00     0.041 A 
ATOM     43  F   UNL A   1      44.095  33.034  33.656  1.00  0.00    -0.206 F 
ATOM     44  C   UNL A   1      42.592  33.890  36.829  1.00  0.00     0.022 A 
BRANCH  41  45
ATOM     45  S   UNL A   1      40.408  32.945  38.260  1.00  0.00     0.124 S 
ATOM     46  O   UNL A   1      41.086  32.316  39.391  1.00  0.00    -0.237 OA
ATOM     47  O   UNL A   1      40.181  34.380  38.372  1.00  0.00    -0.237 OA
ATOM     48  O   UNL A   1      39.289  32.179  37.713  1.00  0.00    -0.744 OA
ENDBRANCH  41  45
ENDBRANCH  24  38
BRANCH  25  49
ATOM     49  C   UNL A   1      42.371  25.134  27.598  1.00  0.00     0.023 A 
ATOM     50  C   UNL A   1      41.605  23.961  27.624  1.00  0.00     0.031 A 
ATOM     51  C   UNL A   1      43.086  25.440  26.427  1.00  0.00     0.131 A 
ATOM     52  C   UNL A   1      41.624  23.094  26.527  1.00  0.00     0.055 A 
ATOM     53  C   UNL A   1      43.041  24.608  25.307  1.00  0.00     0.041 A 
ATOM     54  F   UNL A   1      43.793  26.579  26.340  1.00  0.00    -0.206 F 
ATOM     55  C   UNL A   1      42.317  23.419  25.359  1.00  0.00     0.022 A 
BRANCH  52  56
ATOM     56  S   UNL A   1      40.834  21.476  26.710  1.00  0.00     0.124 S 
ATOM     57  O   UNL A   1      41.798  20.604  26.049  1.00  0.00    -0.237 OA
ATOM     58  O   UNL A   1      40.738  21.347  28.160  1.00  0.00    -0.237 OA
ATOM     59  O   UNL A   1      39.561  21.643  26.012  1.00  0.00    -0.744 OA
ENDBRANCH  52  56
ENDBRANCH  25  49
BRANCH  37  60
ATOM     60  C   UNL A   1      46.163  25.879  33.365  1.00  0.00     0.023 A 
ATOM     61  C   UNL A   1      47.490  26.048  32.955  1.00  0.00     0.031 A 
ATOM     62  C   UNL A   1      45.876  24.936  34.365  1.00  0.00     0.131 A 
ATOM     63  C   UNL A   1      48.477  25.214  33.477  1.00  0.00     0.055 A 
ATOM     64  C   UNL A   1      46.883  24.185  34.962  1.00  0.00     0.041 A 
ATOM     65  F   UNL A   1      44.613  24.738  34.782  1.00  0.00    -0.206 F 
ATOM     66  C   UNL A   1      48.193  24.308  34.503  1.00  0.00     0.022 A 
BRANCH  63  67
ATOM     67  S   UNL A   1      50.092  25.219  32.665  1.00  0.00     0.124 S 
ATOM     68  O   UNL A   1      50.634  26.503  33.096  1.00  0.00    -0.237 OA
ATOM     69  O   UNL A   1      50.731  24.035  33.230  1.00  0.00    -0.237 OA
ATOM     70  O   UNL A   1      49.757  25.129  31.246  1.00  0.00    -0.744 OA
ENDBRANCH  63  67
ENDBRANCH  37  60
ENDBRANCH  11  12
ENDBRANCH   4   6
ENDBRANCH   3   4
ENDBRANCH   2   3
ENDBRANCH   1   2
BRANCH   1  71
ATOM     71  O   UNL A   1      31.625  30.440  26.443  1.00  0.00    -0.462 OA
BRANCH  71  72
ATOM     72  C   UNL A   1      32.127  29.594  25.469  1.00  0.00     0.310 C 
ATOM     73  O   UNL A   1      33.368  29.622  25.385  1.00  0.00    -0.252 OA
BRANCH  72  74
ATOM     74  C   UNL A   1      31.406  28.586  24.349  1.00  0.00     0.119 C 
ATOM     75  C   UNL A   1      30.605  26.973  24.870  1.00  0.00     0.100 C 
ATOM     76  C   UNL A   1      30.593  28.941  22.776  1.00  0.00     0.027 C 
ATOM     77  C   UNL A   1      28.922  26.846  23.775  1.00  0.00     0.025 C 
ATOM     78  C   UNL A   1      28.746  29.524  22.382  1.00  0.00    -0.027 C 
ATOM     79  C   UNL A   1      30.560  27.216  22.743  1.00  0.00     0.017 C 
ATOM     80  C   UNL A   1      27.588  28.505  23.168  1.00  0.00    -0.027 C 
BRANCH  75  81
ATOM     81  C   UNL A   1      31.248  25.645  25.821  1.00  0.00     0.224 C 
ATOM     82  O   UNL A   1      30.403  24.960  26.443  1.00  0.00    -0.275 OA
ATOM     83  N   UNL A   1      32.497  25.082  25.993  1.00  0.00    -0.353 N 
ATOM     84  H   UNL A   1      32.539  24.560  26.827  1.00  0.00     0.163 HD
BRANCH  83  85
ATOM     85  C   UNL A   1      33.798  25.046  25.268  1.00  0.00     0.093 C 
ATOM     86  C   UNL A   1      33.526  24.986  23.813  1.00  0.00     0.086 C 
ATOM     87  C   UNL A   1      34.749  23.835  25.489  1.00  0.00     0.086 C 
ATOM     88  C   UNL A   1      32.968  23.526  23.587  1.00  0.00     0.264 C 
ATOM     89  C   UNL A   1      34.079  22.427  25.386  1.00  0.00     0.264 C 
ATOM     90  N   UNL A   1      33.347  22.213  24.158  1.00  0.00    -0.331 N 
ATOM     91  H   UNL A   1      33.934  21.812  23.427  1.00  0.00     0.348 HD
BRANCH  90  92
ATOM     92  C   UNL A   1      32.439  20.858  24.020  1.00  0.00     0.299 C 
BRANCH  92  93
ATOM     93  C   UNL A   1      32.720  19.217  24.263  1.00  0.00     0.006 A 
ATOM     94  C   UNL A   1      32.745  18.631  25.514  1.00  0.00     0.009 A 
ATOM     95  C   UNL A   1      33.266  18.241  23.372  1.00  0.00     0.009 A 
ATOM     96  C   UNL A   1      32.864  17.200  25.723  1.00  0.00     0.001 A 
ATOM     97  C   UNL A   1      33.398  16.816  23.516  1.00  0.00     0.001 A 
ATOM     98  C   UNL A   1      33.028  16.274  24.699  1.00  0.00     0.000 A 
ENDBRANCH  92  93
ENDBRANCH  90  92
ENDBRANCH  83  85
ENDBRANCH  75  81
ENDBRANCH  72  74
ENDBRANCH  71  72
ENDBRANCH   1  71
TORSDOF 18
ENDMDL
MODEL 3
REMARK VINA RESULT:     -13.2      4.587     10.757
REMARK SMILES O=C(OCCOC(=O)[C@H]1[C@H](C(=O)NC2CC[NH+](Cc3ccccc3)CC2)[C@H]2C=C[C@@H]1C2)c1ccc(-c2c3nc(c(-c4cc(S(=O)(=O)[O-])ccc4F)c4ccc([nH]4)c(-c4cc(S(=O)(=O)[O-])ccc4F)c4nc(c(-c5cc(S(=O)(=O)[O-])ccc5F)c5ccc2[nH]5)C=C4)C=C3)cc1
REMARK SMILES IDX 5 1 4 2 3 3 2 4 1 5 32 6 33 7 94 8 34 9 93 10 35 11 36 12
REMARK SMILES IDX 37 13 87 14 38 15 92 16 86 17 88 18 39 19 91 20 85 21 84 22
REMARK SMILES IDX 40 24 72 25 52 26 71 27 53 28 56 29 70 30 89 31 54 32 55 33
REMARK SMILES IDX 69 35 90 36 57 37 41 38 42 39 50 40 43 41 49 42 51 43 48 44
REMARK SMILES IDX 44 45 45 46 46 47 47 48 73 49 74 50 82 51 75 52 81 53 83 54
REMARK SMILES IDX 80 55 76 56 77 57 78 58 79 59 58 60 59 61 67 62 60 63 66 64
REMARK SMILES IDX 68 65 65 66 61 67 62 68 63 69 64 70 6 71 7 72 8 73 9 74
REMARK SMILES IDX 10 75 30 76 27 77 29 78 31 79 28 80 11 81 12 82 13 83 14 85
REMARK SMILES IDX 15 86 26 87 16 88 25 89 17 90 18 92 19 93 20 94 24 95 21 96
REMARK SMILES IDX 23 97 22 98
REMARK H PARENT 88 23 56 34 13 84 17 91
REMARK Flexibility Score: inf
ROOT
ATOM      1  C   UNL A   1      38.114  19.401  24.995  1.00  0.00     0.274 C 
ENDROOT
BRANCH   1   2
ATOM      2  C   UNL A   1      39.606  19.331  25.558  1.00  0.00     0.275 C 
BRANCH   2   3
ATOM      3  O   UNL A   1      39.726  20.074  26.775  1.00  0.00    -0.458 OA
BRANCH   3   4
ATOM      4  C   UNL A   1      40.860  20.783  27.021  1.00  0.00     0.338 C 
ATOM      5  O   UNL A   1      41.886  20.251  27.421  1.00  0.00    -0.246 OA
BRANCH   4   6
ATOM      6  C   UNL A   1      40.788  22.236  26.740  1.00  0.00     0.060 A 
ATOM      7  C   UNL A   1      39.697  23.042  27.048  1.00  0.00     0.016 A 
ATOM      8  C   UNL A   1      41.840  22.937  26.346  1.00  0.00     0.016 A 
ATOM      9  C   UNL A   1      39.522  24.370  27.154  1.00  0.00     0.010 A 
ATOM     10  C   UNL A   1      41.730  24.265  26.816  1.00  0.00     0.010 A 
ATOM     11  C   UNL A   1      40.582  25.109  27.765  1.00  0.00    -0.014 A 
BRANCH  11  12
ATOM     12  C   UNL A   1      40.788  27.253  28.310  1.00  0.00     0.031 A 
ATOM     13  C   UNL A   1      42.580  28.029  28.442  1.00  0.00     0.074 A 
ATOM     14  C   UNL A   1      40.138  28.533  28.328  1.00  0.00     0.049 A 
ATOM     15  N   UNL A   1      43.095  29.137  29.066  1.00  0.00    -0.248 NA
ATOM     16  C   UNL A   1      43.829  27.452  27.753  1.00  0.00     0.031 C 
ATOM     17  C   UNL A   1      38.734  28.786  27.993  1.00  0.00     0.029 A 
ATOM     18  N   UNL A   1      40.472  29.710  29.024  1.00  0.00    -0.354 N 
ATOM     19  C   UNL A   1      44.571  29.147  28.940  1.00  0.00     0.074 A 
ATOM     20  C   UNL A   1      44.906  27.909  28.356  1.00  0.00     0.031 C 
ATOM     21  C   UNL A   1      38.244  29.696  28.834  1.00  0.00     0.029 A 
ATOM     22  C   UNL A   1      39.350  30.392  29.472  1.00  0.00     0.049 A 
ATOM     23  H   UNL A   1      41.395  30.014  29.175  1.00  0.00     0.167 HD
ATOM     24  C   UNL A   1      45.622  30.039  29.089  1.00  0.00     0.034 A 
ATOM     25  C   UNL A   1      39.110  31.498  30.209  1.00  0.00     0.034 A 
ATOM     26  C   UNL A   1      45.429  31.424  29.401  1.00  0.00     0.049 A 
ATOM     27  C   UNL A   1      40.176  32.520  30.431  1.00  0.00     0.074 A 
ATOM     28  C   UNL A   1      46.347  32.466  29.438  1.00  0.00     0.029 A 
ATOM     29  N   UNL A   1      44.200  31.955  29.700  1.00  0.00    -0.354 N 
ATOM     30  N   UNL A   1      41.465  32.419  30.244  1.00  0.00    -0.248 NA
ATOM     31  C   UNL A   1      39.719  33.866  30.815  1.00  0.00     0.031 C 
ATOM     32  C   UNL A   1      45.680  33.609  29.879  1.00  0.00     0.029 A 
ATOM     33  C   UNL A   1      44.340  33.292  29.992  1.00  0.00     0.049 A 
ATOM     34  H   UNL A   1      43.351  31.457  29.704  1.00  0.00     0.167 HD
ATOM     35  C   UNL A   1      41.962  33.706  30.424  1.00  0.00     0.074 A 
ATOM     36  C   UNL A   1      40.839  34.562  30.726  1.00  0.00     0.031 C 
ATOM     37  C   UNL A   1      43.239  34.138  30.321  1.00  0.00     0.034 A 
BRANCH  24  38
ATOM     38  C   UNL A   1      47.146  29.636  28.876  1.00  0.00     0.023 A 
ATOM     39  C   UNL A   1      47.744  29.393  27.616  1.00  0.00     0.031 A 
ATOM     40  C   UNL A   1      48.036  29.583  29.981  1.00  0.00     0.131 A 
ATOM     41  C   UNL A   1      49.106  29.005  27.510  1.00  0.00     0.055 A 
ATOM     42  C   UNL A   1      49.412  29.309  29.857  1.00  0.00     0.041 A 
ATOM     43  F   UNL A   1      47.592  29.823  31.226  1.00  0.00    -0.206 F 
ATOM     44  C   UNL A   1      49.951  28.993  28.618  1.00  0.00     0.022 A 
BRANCH  41  45
ATOM     45  S   UNL A   1      49.719  28.326  25.932  1.00  0.00     0.124 S 
ATOM     46  O   UNL A   1      50.177  27.000  26.342  1.00  0.00    -0.237 OA
ATOM     47  O   UNL A   1      48.532  28.356  25.087  1.00  0.00    -0.237 OA
ATOM     48  O   UNL A   1      50.784  29.249  25.543  1.00  0.00    -0.744 OA
ENDBRANCH  41  45
ENDBRANCH  24  38
BRANCH  25  49
ATOM     49  C   UNL A   1      37.689  31.803  30.546  1.00  0.00     0.023 A 
ATOM     50  C   UNL A   1      36.806  32.254  29.555  1.00  0.00     0.031 A 
ATOM     51  C   UNL A   1      37.175  31.534  31.827  1.00  0.00     0.131 A 
ATOM     52  C   UNL A   1      35.466  32.492  29.875  1.00  0.00     0.055 A 
ATOM     53  C   UNL A   1      35.821  31.702  32.120  1.00  0.00     0.041 A 
ATOM     54  F   UNL A   1      37.975  31.053  32.793  1.00  0.00    -0.206 F 
ATOM     55  C   UNL A   1      34.960  32.198  31.142  1.00  0.00     0.022 A 
BRANCH  52  56
ATOM     56  S   UNL A   1      34.433  33.317  28.638  1.00  0.00     0.124 S 
ATOM     57  O   UNL A   1      35.404  34.182  27.977  1.00  0.00    -0.237 OA
ATOM     58  O   UNL A   1      33.938  32.189  27.855  1.00  0.00    -0.237 OA
ATOM     59  O   UNL A   1      33.429  34.006  29.445  1.00  0.00    -0.744 OA
ENDBRANCH  52  56
ENDBRANCH  25  49
BRANCH  37  60
ATOM     60  C   UNL A   1      43.509  35.587  30.539  1.00  0.00     0.023 A 
ATOM     61  C   UNL A   1      43.787  36.069  31.822  1.00  0.00     0.031 A 
ATOM     62  C   UNL A   1      43.496  36.489  29.462  1.00  0.00     0.131 A 
ATOM     63  C   UNL A   1      43.947  37.440  32.016  1.00  0.00     0.055 A 
ATOM     64  C   UNL A   1      43.767  37.840  29.647  1.00  0.00     0.041 A 
ATOM     65  F   UNL A   1      43.226  36.067  28.215  1.00  0.00    -0.206 F 
ATOM     66  C   UNL A   1      43.976  38.327  30.936  1.00  0.00     0.022 A 
BRANCH  63  67
ATOM     67  S   UNL A   1      43.941  38.050  33.718  1.00  0.00     0.124 S 
ATOM     68  O   UNL A   1      43.754  36.815  34.473  1.00  0.00    -0.237 OA
ATOM     69  O   UNL A   1      45.256  38.674  33.833  1.00  0.00    -0.237 OA
ATOM     70  O   UNL A   1      42.808  38.972  33.742  1.00  0.00    -0.744 OA
ENDBRANCH  63  67
ENDBRANCH  37  60
ENDBRANCH  11  12
ENDBRANCH   4   6
ENDBRANCH   3   4
ENDBRANCH   2   3
ENDBRANCH   1   2
BRANCH   1  71
ATOM     71  O   UNL A   1      37.462  20.904  24.829  1.00  0.00    -0.462 OA
BRANCH  71  72
ATOM     72  C   UNL A   1      36.426  21.823  24.835  1.00  0.00     0.310 C 
ATOM     73  O   UNL A   1      36.817  23.003  24.865  1.00  0.00    -0.252 OA
BRANCH  72  74
ATOM     74  C   UNL A   1      34.763  21.670  24.864  1.00  0.00     0.119 C 
ATOM     75  C   UNL A   1      33.697  22.419  23.516  1.00  0.00     0.100 C 
ATOM     76  C   UNL A   1      33.697  20.379  25.540  1.00  0.00     0.027 C 
ATOM     77  C   UNL A   1      32.272  21.046  23.151  1.00  0.00     0.025 C 
ATOM     78  C   UNL A   1      33.130  18.645  24.777  1.00  0.00    -0.027 C 
ATOM     79  C   UNL A   1      32.502  21.522  25.050  1.00  0.00     0.017 C 
ATOM     80  C   UNL A   1      32.493  18.844  23.180  1.00  0.00    -0.027 C 
BRANCH  75  81
ATOM     81  C   UNL A   1      33.649  24.059  22.890  1.00  0.00     0.224 C 
ATOM     82  O   UNL A   1      33.397  24.168  21.668  1.00  0.00    -0.275 OA
ATOM     83  N   UNL A   1      33.733  25.319  23.447  1.00  0.00    -0.353 N 
ATOM     84  H   UNL A   1      33.977  25.991  22.770  1.00  0.00     0.163 HD
BRANCH  83  85
ATOM     85  C   UNL A   1      33.557  25.945  24.787  1.00  0.00     0.093 C 
ATOM     86  C   UNL A   1      32.195  25.632  25.280  1.00  0.00     0.086 C 
ATOM     87  C   UNL A   1      33.616  27.495  24.908  1.00  0.00     0.086 C 
ATOM     88  C   UNL A   1      31.247  26.505  24.368  1.00  0.00     0.264 C 
ATOM     89  C   UNL A   1      32.753  28.283  23.869  1.00  0.00     0.264 C 
ATOM     90  N   UNL A   1      31.364  27.881  23.834  1.00  0.00    -0.331 N 
ATOM     91  H   UNL A   1      30.793  28.422  24.483  1.00  0.00     0.348 HD
BRANCH  90  92
ATOM     92  C   UNL A   1      30.408  28.491  22.654  1.00  0.00     0.299 C 
BRANCH  92  93
ATOM     93  C   UNL A   1      29.525  29.909  22.463  1.00  0.00     0.006 A 
ATOM     94  C   UNL A   1      29.259  30.780  23.503  1.00  0.00     0.009 A 
ATOM     95  C   UNL A   1      28.667  30.316  21.394  1.00  0.00     0.009 A 
ATOM     96  C   UNL A   1      28.606  32.064  23.323  1.00  0.00     0.001 A 
ATOM     97  C   UNL A   1      28.006  31.571  21.155  1.00  0.00     0.001 A 
ATOM     98  C   UNL A   1      28.123  32.527  22.104  1.00  0.00     0.000 A 
ENDBRANCH  92  93
ENDBRANCH  90  92
ENDBRANCH  83  85
ENDBRANCH  75  81
ENDBRANCH  72  74
ENDBRANCH  71  72
ENDBRANCH   1  71
TORSDOF 18
ENDMDL
