MODEL 1
REMARK VINA RESULT:     -11.6      0.000      0.000
REMARK SMILES O=C(CC1(NC(=O)c2ccccc2[N+](=O)[O-])CCC1)OCCOC(=O)c1ccc(-c2c3nc(c(-c4cc(S(=O)(=O)[O-])ccc4F)c4ccc([nH]4)c(-c4cc(S(=O)(=O)[O-])ccc4F)c4nc(c(-c5cc(S(=O)(=O)[O-])ccc5F)c5ccc2[nH]5)C=C4)C=C3)cc1
REMARK SMILES IDX 21 1 20 2 2 3 1 4 3 5 4 6 17 7 19 8 18 9 5 10 6 11 7 13 8 14
REMARK SMILES IDX 9 15 13 16 10 17 12 18 11 19 14 20 15 21 16 22 22 23 23 24
REMARK SMILES IDX 24 25 25 26 26 27 27 28 88 29 28 30 87 31 29 32 30 33 31 34
REMARK SMILES IDX 81 35 32 36 86 37 80 38 82 39 33 40 85 41 79 42 78 43 34 45
REMARK SMILES IDX 66 46 46 47 65 48 47 49 50 50 64 51 83 52 48 53 49 54 63 56
REMARK SMILES IDX 84 57 51 58 35 59 36 60 44 61 37 62 43 63 45 64 42 65 38 66
REMARK SMILES IDX 39 67 40 68 41 69 67 70 68 71 76 72 69 73 75 74 77 75 74 76
REMARK SMILES IDX 70 77 71 78 72 79 73 80 52 81 53 82 61 83 54 84 60 85 62 86
REMARK SMILES IDX 59 87 55 88 56 89 57 90 58 91
REMARK H PARENT 5 12 82 44 50 55
REMARK Flexibility Score: inf
ROOT
ATOM      1  C   UNL A   1      31.385  30.289  25.512  1.00  0.00     0.274 C 
ENDROOT
BRANCH   1   2
ATOM      2  O   UNL A   1      32.580  29.534  25.218  1.00  0.00    -0.462 OA
BRANCH   2   3
ATOM      3  C   UNL A   1      32.576  28.203  24.960  1.00  0.00     0.308 C 
ATOM      4  O   UNL A   1      33.618  27.627  24.666  1.00  0.00    -0.252 OA
BRANCH   3   5
ATOM      5  C   UNL A   1      31.233  27.515  24.961  1.00  0.00     0.151 C 
BRANCH   5   6
ATOM      6  C   UNL A   1      30.688  27.142  23.583  1.00  0.00     0.051 C 
ATOM      7  C   UNL A   1      29.437  28.023  23.211  1.00  0.00     0.029 C 
ATOM      8  C   UNL A   1      31.403  27.823  22.376  1.00  0.00     0.029 C 
ATOM      9  C   UNL A   1      30.361  28.958  22.423  1.00  0.00     0.005 C 
BRANCH   6  10
ATOM     10  N   UNL A   1      30.373  25.704  23.394  1.00  0.00    -0.346 N 
ATOM     11  C   UNL A   1      30.984  24.496  23.620  1.00  0.00     0.258 C 
ATOM     12  H   UNL A   1      29.480  25.583  22.998  1.00  0.00     0.164 HD
ATOM     13  O   UNL A   1      30.413  23.471  23.251  1.00  0.00    -0.269 OA
BRANCH  11  14
ATOM     14  C   UNL A   1      32.316  24.326  24.212  1.00  0.00     0.117 A 
ATOM     15  C   UNL A   1      32.393  24.365  25.613  1.00  0.00     0.021 A 
ATOM     16  C   UNL A   1      33.507  24.425  23.488  1.00  0.00     0.282 A 
ATOM     17  C   UNL A   1      33.635  24.433  26.260  1.00  0.00     0.001 A 
ATOM     18  C   UNL A   1      34.761  24.444  24.126  1.00  0.00     0.086 A 
ATOM     19  C   UNL A   1      34.817  24.451  25.519  1.00  0.00     0.007 A 
BRANCH  16  20
ATOM     20  N   UNL A   1      33.507  24.564  22.050  1.00  0.00     0.063 N 
ATOM     21  O   UNL A   1      33.702  25.688  21.578  1.00  0.00    -0.258 OA
ATOM     22  O   UNL A   1      33.360  23.520  21.398  1.00  0.00    -0.258 OA
ENDBRANCH  16  20
ENDBRANCH  11  14
ENDBRANCH   6  10
ENDBRANCH   5   6
ENDBRANCH   3   5
ENDBRANCH   2   3
ENDBRANCH   1   2
BRANCH   1  23
ATOM     23  C   UNL A   1      31.636  31.427  26.499  1.00  0.00     0.275 C 
BRANCH  23  24
ATOM     24  O   UNL A   1      32.768  31.115  27.338  1.00  0.00    -0.458 OA
BRANCH  24  25
ATOM     25  C   UNL A   1      33.557  32.178  27.629  1.00  0.00     0.338 C 
ATOM     26  O   UNL A   1      33.213  33.341  27.727  1.00  0.00    -0.246 OA
BRANCH  25  27
ATOM     27  C   UNL A   1      34.928  31.719  27.918  1.00  0.00     0.060 A 
ATOM     28  C   UNL A   1      35.125  30.368  28.205  1.00  0.00     0.016 A 
ATOM     29  C   UNL A   1      35.975  32.627  28.069  1.00  0.00     0.016 A 
ATOM     30  C   UNL A   1      36.354  29.916  28.692  1.00  0.00     0.010 A 
ATOM     31  C   UNL A   1      37.208  32.175  28.559  1.00  0.00     0.010 A 
ATOM     32  C   UNL A   1      37.393  30.824  28.913  1.00  0.00    -0.014 A 
BRANCH  32  33
ATOM     33  C   UNL A   1      38.591  30.413  29.694  1.00  0.00     0.031 A 
ATOM     34  C   UNL A   1      39.538  29.411  29.087  1.00  0.00     0.074 A 
ATOM     35  C   UNL A   1      38.866  30.931  30.904  1.00  0.00     0.049 A 
ATOM     36  N   UNL A   1      40.551  28.783  29.626  1.00  0.00    -0.248 NA
ATOM     37  C   UNL A   1      39.303  29.078  27.674  1.00  0.00     0.031 C 
ATOM     38  C   UNL A   1      38.104  31.985  31.570  1.00  0.00     0.029 A 
ATOM     39  N   UNL A   1      39.869  30.627  31.794  1.00  0.00    -0.354 N 
ATOM     40  C   UNL A   1      41.058  27.954  28.631  1.00  0.00     0.074 A 
ATOM     41  C   UNL A   1      40.227  28.155  27.460  1.00  0.00     0.031 C 
ATOM     42  C   UNL A   1      38.658  32.229  32.771  1.00  0.00     0.029 A 
ATOM     43  C   UNL A   1      39.777  31.310  32.983  1.00  0.00     0.049 A 
ATOM     44  H   UNL A   1      40.584  29.980  31.598  1.00  0.00     0.167 HD
ATOM     45  C   UNL A   1      42.113  27.103  28.685  1.00  0.00     0.034 A 
ATOM     46  C   UNL A   1      40.482  31.179  34.125  1.00  0.00     0.034 A 
ATOM     47  C   UNL A   1      42.933  26.906  29.856  1.00  0.00     0.049 A 
ATOM     48  C   UNL A   1      41.579  30.141  34.208  1.00  0.00     0.074 A 
ATOM     49  C   UNL A   1      44.008  26.049  30.025  1.00  0.00     0.029 A 
ATOM     50  N   UNL A   1      42.769  27.572  31.064  1.00  0.00    -0.354 N 
ATOM     51  N   UNL A   1      42.008  29.312  33.286  1.00  0.00    -0.248 NA
ATOM     52  C   UNL A   1      42.279  30.022  35.495  1.00  0.00     0.031 C 
ATOM     53  C   UNL A   1      44.451  26.151  31.349  1.00  0.00     0.029 A 
ATOM     54  C   UNL A   1      43.703  27.126  31.988  1.00  0.00     0.049 A 
ATOM     55  H   UNL A   1      42.088  28.262  31.239  1.00  0.00     0.167 HD
ATOM     56  C   UNL A   1      43.052  28.598  33.873  1.00  0.00     0.074 A 
ATOM     57  C   UNL A   1      43.189  29.098  35.224  1.00  0.00     0.031 C 
ATOM     58  C   UNL A   1      43.833  27.624  33.338  1.00  0.00     0.034 A 
BRANCH  45  59
ATOM     59  C   UNL A   1      42.373  26.263  27.458  1.00  0.00     0.023 A 
ATOM     60  C   UNL A   1      41.887  24.949  27.341  1.00  0.00     0.031 A 
ATOM     61  C   UNL A   1      43.183  26.762  26.422  1.00  0.00     0.131 A 
ATOM     62  C   UNL A   1      42.293  24.149  26.262  1.00  0.00     0.055 A 
ATOM     63  C   UNL A   1      43.511  25.989  25.307  1.00  0.00     0.041 A 
ATOM     64  F   UNL A   1      43.695  28.001  26.491  1.00  0.00    -0.206 F 
ATOM     65  C   UNL A   1      43.082  24.667  25.232  1.00  0.00     0.022 A 
BRANCH  62  66
ATOM     66  S   UNL A   1      41.926  22.373  26.318  1.00  0.00     0.124 S 
ATOM     67  O   UNL A   1      40.466  22.371  26.266  1.00  0.00    -0.237 OA
ATOM     68  O   UNL A   1      42.610  21.873  25.132  1.00  0.00    -0.237 OA
ATOM     69  O   UNL A   1      42.496  21.948  27.596  1.00  0.00    -0.744 OA
ENDBRANCH  62  66
ENDBRANCH  45  59
BRANCH  46  70
ATOM     70  C   UNL A   1      40.143  32.002  35.321  1.00  0.00     0.023 A 
ATOM     71  C   UNL A   1      39.188  31.568  36.253  1.00  0.00     0.031 A 
ATOM     72  C   UNL A   1      40.723  33.270  35.510  1.00  0.00     0.131 A 
ATOM     73  C   UNL A   1      38.807  32.412  37.308  1.00  0.00     0.055 A 
ATOM     74  C   UNL A   1      40.377  34.085  36.589  1.00  0.00     0.041 A 
ATOM     75  F   UNL A   1      41.638  33.734  34.644  1.00  0.00    -0.206 F 
ATOM     76  C   UNL A   1      39.405  33.662  37.489  1.00  0.00     0.022 A 
BRANCH  73  77
ATOM     77  S   UNL A   1      37.463  31.882  38.403  1.00  0.00     0.124 S 
ATOM     78  O   UNL A   1      38.090  31.990  39.714  1.00  0.00    -0.237 OA
ATOM     79  O   UNL A   1      36.425  32.864  38.105  1.00  0.00    -0.237 OA
ATOM     80  O   UNL A   1      37.176  30.521  37.955  1.00  0.00    -0.744 OA
ENDBRANCH  73  77
ENDBRANCH  46  70
BRANCH  58  81
ATOM     81  C   UNL A   1      44.952  27.084  34.197  1.00  0.00     0.023 A 
ATOM     82  C   UNL A   1      44.802  25.926  34.980  1.00  0.00     0.031 A 
ATOM     83  C   UNL A   1      46.188  27.755  34.243  1.00  0.00     0.131 A 
ATOM     84  C   UNL A   1      45.850  25.503  35.814  1.00  0.00     0.055 A 
ATOM     85  C   UNL A   1      47.245  27.300  35.032  1.00  0.00     0.041 A 
ATOM     86  F   UNL A   1      46.388  28.867  33.517  1.00  0.00    -0.206 F 
ATOM     87  C   UNL A   1      47.075  26.174  35.834  1.00  0.00     0.022 A 
BRANCH  84  88
ATOM     88  S   UNL A   1      45.562  24.114  36.945  1.00  0.00     0.124 S 
ATOM     89  O   UNL A   1      46.923  23.701  37.273  1.00  0.00    -0.237 OA
ATOM     90  O   UNL A   1      44.808  24.741  38.025  1.00  0.00    -0.237 OA
ATOM     91  O   UNL A   1      44.805  23.161  36.135  1.00  0.00    -0.744 OA
ENDBRANCH  84  88
ENDBRANCH  58  81
ENDBRANCH  32  33
ENDBRANCH  25  27
ENDBRANCH  24  25
ENDBRANCH  23  24
ENDBRANCH   1  23
TORSDOF 18
ENDMDL
MODEL 2
REMARK VINA RESULT:     -11.6      1.236      1.908
REMARK SMILES O=C(CC1(NC(=O)c2ccccc2[N+](=O)[O-])CCC1)OCCOC(=O)c1ccc(-c2c3nc(c(-c4cc(S(=O)(=O)[O-])ccc4F)c4ccc([nH]4)c(-c4cc(S(=O)(=O)[O-])ccc4F)c4nc(c(-c5cc(S(=O)(=O)[O-])ccc5F)c5ccc2[nH]5)C=C4)C=C3)cc1
REMARK SMILES IDX 21 1 20 2 2 3 1 4 3 5 4 6 17 7 19 8 18 9 5 10 6 11 7 13 8 14
REMARK SMILES IDX 9 15 13 16 10 17 12 18 11 19 14 20 15 21 16 22 22 23 23 24
REMARK SMILES IDX 24 25 25 26 26 27 27 28 88 29 28 30 87 31 29 32 30 33 31 34
REMARK SMILES IDX 81 35 32 36 86 37 80 38 82 39 33 40 85 41 79 42 78 43 34 45
REMARK SMILES IDX 66 46 46 47 65 48 47 49 50 50 64 51 83 52 48 53 49 54 63 56
REMARK SMILES IDX 84 57 51 58 35 59 36 60 44 61 37 62 43 63 45 64 42 65 38 66
REMARK SMILES IDX 39 67 40 68 41 69 67 70 68 71 76 72 69 73 75 74 77 75 74 76
REMARK SMILES IDX 70 77 71 78 72 79 73 80 52 81 53 82 61 83 54 84 60 85 62 86
REMARK SMILES IDX 59 87 55 88 56 89 57 90 58 91
REMARK H PARENT 5 12 82 44 50 55
REMARK Flexibility Score: inf
ROOT
ATOM      1  C   UNL A   1      31.664  29.613  25.347  1.00  0.00     0.274 C 
ENDROOT
BRANCH   1   2
ATOM      2  O   UNL A   1      32.793  28.715  25.395  1.00  0.00    -0.462 OA
BRANCH   2   3
ATOM      3  C   UNL A   1      32.858  27.561  24.687  1.00  0.00     0.308 C 
ATOM      4  O   UNL A   1      33.765  27.379  23.883  1.00  0.00    -0.252 OA
BRANCH   3   5
ATOM      5  C   UNL A   1      31.722  26.585  24.874  1.00  0.00     0.151 C 
BRANCH   5   6
ATOM      6  C   UNL A   1      32.083  25.114  24.671  1.00  0.00     0.051 C 
ATOM      7  C   UNL A   1      33.058  24.609  25.799  1.00  0.00     0.029 C 
ATOM      8  C   UNL A   1      31.053  24.089  25.239  1.00  0.00     0.029 C 
ATOM      9  C   UNL A   1      31.850  24.048  26.558  1.00  0.00     0.005 C 
BRANCH   6  10
ATOM     10  N   UNL A   1      32.630  24.775  23.334  1.00  0.00    -0.346 N 
ATOM     11  C   UNL A   1      33.269  23.714  22.741  1.00  0.00     0.258 C 
ATOM     12  H   UNL A   1      32.499  25.513  22.697  1.00  0.00     0.164 HD
ATOM     13  O   UNL A   1      33.650  23.834  21.577  1.00  0.00    -0.269 OA
BRANCH  11  14
ATOM     14  C   UNL A   1      33.604  22.453  23.412  1.00  0.00     0.117 A 
ATOM     15  C   UNL A   1      32.531  21.607  23.737  1.00  0.00     0.021 A 
ATOM     16  C   UNL A   1      34.846  22.188  23.996  1.00  0.00     0.282 A 
ATOM     17  C   UNL A   1      32.724  20.494  24.567  1.00  0.00     0.001 A 
ATOM     18  C   UNL A   1      35.061  21.048  24.791  1.00  0.00     0.086 A 
ATOM     19  C   UNL A   1      33.990  20.203  25.077  1.00  0.00     0.007 A 
BRANCH  16  20
ATOM     20  N   UNL A   1      35.956  23.101  23.853  1.00  0.00     0.063 N 
ATOM     21  O   UNL A   1      36.287  23.768  24.838  1.00  0.00    -0.258 OA
ATOM     22  O   UNL A   1      36.527  23.103  22.752  1.00  0.00    -0.258 OA
ENDBRANCH  16  20
ENDBRANCH  11  14
ENDBRANCH   6  10
ENDBRANCH   5   6
ENDBRANCH   3   5
ENDBRANCH   2   3
ENDBRANCH   1   2
BRANCH   1  23
ATOM     23  C   UNL A   1      31.801  30.784  26.319  1.00  0.00     0.275 C 
BRANCH  23  24
ATOM     24  O   UNL A   1      32.869  30.527  27.256  1.00  0.00    -0.458 OA
BRANCH  24  25
ATOM     25  C   UNL A   1      33.623  31.614  27.552  1.00  0.00     0.338 C 
ATOM     26  O   UNL A   1      33.240  32.763  27.664  1.00  0.00    -0.246 OA
BRANCH  25  27
ATOM     27  C   UNL A   1      35.011  31.199  27.829  1.00  0.00     0.060 A 
ATOM     28  C   UNL A   1      35.258  29.850  28.085  1.00  0.00     0.016 A 
ATOM     29  C   UNL A   1      36.024  32.141  27.998  1.00  0.00     0.016 A 
ATOM     30  C   UNL A   1      36.503  29.432  28.559  1.00  0.00     0.010 A 
ATOM     31  C   UNL A   1      37.274  31.723  28.477  1.00  0.00     0.010 A 
ATOM     32  C   UNL A   1      37.509  30.373  28.799  1.00  0.00    -0.014 A 
BRANCH  32  33
ATOM     33  C   UNL A   1      38.724  29.988  29.569  1.00  0.00     0.031 A 
ATOM     34  C   UNL A   1      39.650  28.955  28.983  1.00  0.00     0.074 A 
ATOM     35  C   UNL A   1      39.030  30.556  30.748  1.00  0.00     0.049 A 
ATOM     36  N   UNL A   1      40.672  28.345  29.525  1.00  0.00    -0.248 NA
ATOM     37  C   UNL A   1      39.380  28.563  27.592  1.00  0.00     0.031 C 
ATOM     38  C   UNL A   1      38.289  31.642  31.386  1.00  0.00     0.029 A 
ATOM     39  N   UNL A   1      40.052  30.284  31.627  1.00  0.00    -0.354 N 
ATOM     40  C   UNL A   1      41.151  27.471  28.554  1.00  0.00     0.074 A 
ATOM     41  C   UNL A   1      40.293  27.626  27.396  1.00  0.00     0.031 C 
ATOM     42  C   UNL A   1      38.874  31.935  32.561  1.00  0.00     0.029 A 
ATOM     43  C   UNL A   1      39.992  31.019  32.787  1.00  0.00     0.049 A 
ATOM     44  H   UNL A   1      40.759  29.625  31.442  1.00  0.00     0.167 HD
ATOM     45  C   UNL A   1      42.203  26.616  28.621  1.00  0.00     0.034 A 
ATOM     46  C   UNL A   1      40.724  30.933  33.917  1.00  0.00     0.034 A 
ATOM     47  C   UNL A   1      43.050  26.464  29.780  1.00  0.00     0.049 A 
ATOM     48  C   UNL A   1      41.817  29.893  34.019  1.00  0.00     0.074 A 
ATOM     49  C   UNL A   1      44.124  25.609  29.959  1.00  0.00     0.029 A 
ATOM     50  N   UNL A   1      42.918  27.183  30.960  1.00  0.00    -0.354 N 
ATOM     51  N   UNL A   1      42.219  29.021  33.123  1.00  0.00    -0.248 NA
ATOM     52  C   UNL A   1      42.547  29.824  35.292  1.00  0.00     0.031 C 
ATOM     53  C   UNL A   1      44.599  25.765  31.267  1.00  0.00     0.029 A 
ATOM     54  C   UNL A   1      43.872  26.772  31.881  1.00  0.00     0.049 A 
ATOM     55  H   UNL A   1      42.245  27.884  31.122  1.00  0.00     0.167 HD
ATOM     56  C   UNL A   1      43.273  28.327  33.715  1.00  0.00     0.074 A 
ATOM     57  C   UNL A   1      43.445  28.884  35.040  1.00  0.00     0.031 C 
ATOM     58  C   UNL A   1      44.036  27.326  33.204  1.00  0.00     0.034 A 
BRANCH  45  59
ATOM     59  C   UNL A   1      42.429  25.722  27.425  1.00  0.00     0.023 A 
ATOM     60  C   UNL A   1      41.906  24.419  27.362  1.00  0.00     0.031 A 
ATOM     61  C   UNL A   1      43.244  26.158  26.365  1.00  0.00     0.131 A 
ATOM     62  C   UNL A   1      42.280  23.567  26.312  1.00  0.00     0.055 A 
ATOM     63  C   UNL A   1      43.541  25.333  25.278  1.00  0.00     0.041 A 
ATOM     64  F   UNL A   1      43.791  27.384  26.382  1.00  0.00    -0.206 F 
ATOM     65  C   UNL A   1      43.074  24.023  25.257  1.00  0.00     0.022 A 
BRANCH  62  66
ATOM     66  S   UNL A   1      41.865  21.805  26.440  1.00  0.00     0.124 S 
ATOM     67  O   UNL A   1      42.684  21.231  25.375  1.00  0.00    -0.237 OA
ATOM     68  O   UNL A   1      42.271  21.485  27.803  1.00  0.00    -0.237 OA
ATOM     69  O   UNL A   1      40.425  21.775  26.192  1.00  0.00    -0.744 OA
ENDBRANCH  62  66
ENDBRANCH  45  59
BRANCH  46  70
ATOM     70  C   UNL A   1      40.418  31.808  35.083  1.00  0.00     0.023 A 
ATOM     71  C   UNL A   1      39.419  31.464  36.006  1.00  0.00     0.031 A 
ATOM     72  C   UNL A   1      41.077  33.040  35.251  1.00  0.00     0.131 A 
ATOM     73  C   UNL A   1      39.075  32.360  37.031  1.00  0.00     0.055 A 
ATOM     74  C   UNL A   1      40.766  33.905  36.301  1.00  0.00     0.041 A 
ATOM     75  F   UNL A   1      42.038  33.419  34.393  1.00  0.00    -0.206 F 
ATOM     76  C   UNL A   1      39.751  33.571  37.192  1.00  0.00     0.022 A 
BRANCH  73  77
ATOM     77  S   UNL A   1      37.678  31.950  38.111  1.00  0.00     0.124 S 
ATOM     78  O   UNL A   1      37.402  30.571  37.728  1.00  0.00    -0.237 OA
ATOM     79  O   UNL A   1      38.254  32.145  39.438  1.00  0.00    -0.237 OA
ATOM     80  O   UNL A   1      36.656  32.923  37.729  1.00  0.00    -0.744 OA
ENDBRANCH  73  77
ENDBRANCH  46  70
BRANCH  58  81
ATOM     81  C   UNL A   1      45.173  26.817  34.059  1.00  0.00     0.023 A 
ATOM     82  C   UNL A   1      45.047  25.672  34.867  1.00  0.00     0.031 A 
ATOM     83  C   UNL A   1      46.401  27.502  34.076  1.00  0.00     0.131 A 
ATOM     84  C   UNL A   1      46.110  25.279  35.695  1.00  0.00     0.055 A 
ATOM     85  C   UNL A   1      47.474  27.076  34.860  1.00  0.00     0.041 A 
ATOM     86  F   UNL A   1      46.578  28.603  33.326  1.00  0.00    -0.206 F 
ATOM     87  C   UNL A   1      47.328  25.965  35.686  1.00  0.00     0.022 A 
BRANCH  84  88
ATOM     88  S   UNL A   1      45.854  23.909  36.858  1.00  0.00     0.124 S 
ATOM     89  O   UNL A   1      45.497  24.613  38.085  1.00  0.00    -0.237 OA
ATOM     90  O   UNL A   1      44.781  23.154  36.219  1.00  0.00    -0.237 OA
ATOM     91  O   UNL A   1      47.152  23.235  36.886  1.00  0.00    -0.744 OA
ENDBRANCH  84  88
ENDBRANCH  58  81
ENDBRANCH  32  33
ENDBRANCH  25  27
ENDBRANCH  24  25
ENDBRANCH  23  24
ENDBRANCH   1  23
TORSDOF 18
ENDMDL
MODEL 3
REMARK VINA RESULT:     -11.5      5.042     10.068
REMARK SMILES O=C(CC1(NC(=O)c2ccccc2[N+](=O)[O-])CCC1)OCCOC(=O)c1ccc(-c2c3nc(c(-c4cc(S(=O)(=O)[O-])ccc4F)c4ccc([nH]4)c(-c4cc(S(=O)(=O)[O-])ccc4F)c4nc(c(-c5cc(S(=O)(=O)[O-])ccc5F)c5ccc2[nH]5)C=C4)C=C3)cc1
REMARK SMILES IDX 21 1 20 2 2 3 1 4 3 5 4 6 17 7 19 8 18 9 5 10 6 11 7 13 8 14
REMARK SMILES IDX 9 15 13 16 10 17 12 18 11 19 14 20 15 21 16 22 22 23 23 24
REMARK SMILES IDX 24 25 25 26 26 27 27 28 88 29 28 30 87 31 29 32 30 33 31 34
REMARK SMILES IDX 81 35 32 36 86 37 80 38 82 39 33 40 85 41 79 42 78 43 34 45
REMARK SMILES IDX 66 46 46 47 65 48 47 49 50 50 64 51 83 52 48 53 49 54 63 56
REMARK SMILES IDX 84 57 51 58 35 59 36 60 44 61 37 62 43 63 45 64 42 65 38 66
REMARK SMILES IDX 39 67 40 68 41 69 67 70 68 71 76 72 69 73 75 74 77 75 74 76
REMARK SMILES IDX 70 77 71 78 72 79 73 80 52 81 53 82 61 83 54 84 60 85 62 86
REMARK SMILES IDX 59 87 55 88 56 89 57 90 58 91
REMARK H PARENT 5 12 82 44 50 55
REMARK Flexibility Score: inf
ROOT
ATOM      1  C   UNL A   1      34.937  20.853  24.993  1.00  0.00     0.274 C 
ENDROOT
BRANCH   1   2
ATOM      2  O   UNL A   1      33.630  20.802  25.603  1.00  0.00    -0.462 OA
BRANCH   2   3
ATOM      3  C   UNL A   1      32.595  21.587  25.215  1.00  0.00     0.308 C 
ATOM      4  O   UNL A   1      31.445  21.290  25.520  1.00  0.00    -0.252 OA
BRANCH   3   5
ATOM      5  C   UNL A   1      32.929  22.760  24.325  1.00  0.00     0.151 C 
BRANCH   5   6
ATOM      6  C   UNL A   1      32.766  24.136  24.969  1.00  0.00     0.051 C 
ATOM      7  C   UNL A   1      33.793  24.336  26.146  1.00  0.00     0.029 C 
ATOM      8  C   UNL A   1      33.512  25.302  24.250  1.00  0.00     0.029 C 
ATOM      9  C   UNL A   1      34.724  25.071  25.175  1.00  0.00     0.005 C 
BRANCH   6  10
ATOM     10  N   UNL A   1      31.393  24.462  25.430  1.00  0.00    -0.346 N 
ATOM     11  C   UNL A   1      30.677  25.584  25.763  1.00  0.00     0.258 C 
ATOM     12  H   UNL A   1      30.846  23.650  25.520  1.00  0.00     0.164 HD
ATOM     13  O   UNL A   1      29.530  25.445  26.186  1.00  0.00    -0.269 OA
BRANCH  11  14
ATOM     14  C   UNL A   1      31.197  26.956  25.723  1.00  0.00     0.117 A 
ATOM     15  C   UNL A   1      31.696  27.476  26.927  1.00  0.00     0.021 A 
ATOM     16  C   UNL A   1      30.958  27.848  24.674  1.00  0.00     0.282 A 
ATOM     17  C   UNL A   1      32.008  28.838  27.044  1.00  0.00     0.001 A 
ATOM     18  C   UNL A   1      31.312  29.206  24.763  1.00  0.00     0.086 A 
ATOM     19  C   UNL A   1      31.836  29.698  25.958  1.00  0.00     0.007 A 
BRANCH  16  20
ATOM     20  N   UNL A   1      30.289  27.428  23.464  1.00  0.00     0.063 N 
ATOM     21  O   UNL A   1      30.982  26.989  22.542  1.00  0.00    -0.258 OA
ATOM     22  O   UNL A   1      29.051  27.496  23.470  1.00  0.00    -0.258 OA
ENDBRANCH  16  20
ENDBRANCH  11  14
ENDBRANCH   6  10
ENDBRANCH   5   6
ENDBRANCH   3   5
ENDBRANCH   2   3
ENDBRANCH   1   2
BRANCH   1  23
ATOM     23  C   UNL A   1      35.997  21.445  25.921  1.00  0.00     0.275 C 
BRANCH  23  24
ATOM     24  O   UNL A   1      37.119  21.923  25.151  1.00  0.00    -0.458 OA
BRANCH  24  25
ATOM     25  C   UNL A   1      38.329  21.551  25.638  1.00  0.00     0.338 C 
ATOM     26  O   UNL A   1      38.917  20.509  25.421  1.00  0.00    -0.246 OA
BRANCH  25  27
ATOM     27  C   UNL A   1      38.912  22.654  26.424  1.00  0.00     0.060 A 
ATOM     28  C   UNL A   1      38.431  23.946  26.207  1.00  0.00     0.016 A 
ATOM     29  C   UNL A   1      40.026  22.449  27.236  1.00  0.00     0.016 A 
ATOM     30  C   UNL A   1      39.083  25.050  26.758  1.00  0.00     0.010 A 
ATOM     31  C   UNL A   1      40.683  23.558  27.789  1.00  0.00     0.010 A 
ATOM     32  C   UNL A   1      40.241  24.867  27.520  1.00  0.00    -0.014 A 
BRANCH  32  33
ATOM     33  C   UNL A   1      41.101  26.033  27.864  1.00  0.00     0.031 A 
ATOM     34  C   UNL A   1      40.507  27.149  28.682  1.00  0.00     0.074 A 
ATOM     35  C   UNL A   1      42.392  26.100  27.495  1.00  0.00     0.049 A 
ATOM     36  N   UNL A   1      40.997  28.327  28.971  1.00  0.00    -0.248 NA
ATOM     37  C   UNL A   1      39.175  26.892  29.251  1.00  0.00     0.031 C 
ATOM     38  C   UNL A   1      43.132  25.051  26.797  1.00  0.00     0.029 A 
ATOM     39  N   UNL A   1      43.310  27.111  27.654  1.00  0.00    -0.354 N 
ATOM     40  C   UNL A   1      40.022  28.968  29.729  1.00  0.00     0.074 A 
ATOM     41  C   UNL A   1      38.908  28.047  29.839  1.00  0.00     0.031 C 
ATOM     42  C   UNL A   1      44.387  25.480  26.574  1.00  0.00     0.029 A 
ATOM     43  C   UNL A   1      44.522  26.853  27.061  1.00  0.00     0.049 A 
ATOM     44  H   UNL A   1      43.116  27.942  28.146  1.00  0.00     0.167 HD
ATOM     45  C   UNL A   1      40.048  30.209  30.277  1.00  0.00     0.034 A 
ATOM     46  C   UNL A   1      45.600  27.646  26.889  1.00  0.00     0.034 A 
ATOM     47  C   UNL A   1      41.159  31.122  30.159  1.00  0.00     0.049 A 
ATOM     48  C   UNL A   1      45.568  29.068  27.404  1.00  0.00     0.074 A 
ATOM     49  C   UNL A   1      41.276  32.410  30.655  1.00  0.00     0.029 A 
ATOM     50  N   UNL A   1      42.348  30.847  29.496  1.00  0.00    -0.354 N 
ATOM     51  N   UNL A   1      44.616  29.692  28.059  1.00  0.00    -0.248 NA
ATOM     52  C   UNL A   1      46.757  29.891  27.147  1.00  0.00     0.031 C 
ATOM     53  C   UNL A   1      42.505  32.934  30.237  1.00  0.00     0.029 A 
ATOM     54  C   UNL A   1      43.190  31.949  29.545  1.00  0.00     0.049 A 
ATOM     55  H   UNL A   1      42.562  29.993  29.054  1.00  0.00     0.167 HD
ATOM     56  C   UNL A   1      45.110  30.969  28.321  1.00  0.00     0.074 A 
ATOM     57  C   UNL A   1      46.443  31.023  27.758  1.00  0.00     0.031 C 
ATOM     58  C   UNL A   1      44.518  32.000  28.977  1.00  0.00     0.034 A 
BRANCH  45  59
ATOM     59  C   UNL A   1      38.794  30.668  30.981  1.00  0.00     0.023 A 
ATOM     60  C   UNL A   1      37.812  31.430  30.325  1.00  0.00     0.031 A 
ATOM     61  C   UNL A   1      38.615  30.399  32.349  1.00  0.00     0.131 A 
ATOM     62  C   UNL A   1      36.747  31.976  31.058  1.00  0.00     0.055 A 
ATOM     63  C   UNL A   1      37.506  30.872  33.054  1.00  0.00     0.041 A 
ATOM     64  F   UNL A   1      39.532  29.697  33.034  1.00  0.00    -0.206 F 
ATOM     65  C   UNL A   1      36.575  31.683  32.413  1.00  0.00     0.022 A 
BRANCH  62  66
ATOM     66  S   UNL A   1      35.697  33.221  30.259  1.00  0.00     0.124 S 
ATOM     67  O   UNL A   1      35.545  34.208  31.326  1.00  0.00    -0.237 OA
ATOM     68  O   UNL A   1      36.508  33.632  29.120  1.00  0.00    -0.237 OA
ATOM     69  O   UNL A   1      34.480  32.481  29.929  1.00  0.00    -0.744 OA
ENDBRANCH  62  66
ENDBRANCH  45  59
BRANCH  46  70
ATOM     70  C   UNL A   1      46.790  27.153  26.140  1.00  0.00     0.023 A 
ATOM     71  C   UNL A   1      47.068  27.604  24.841  1.00  0.00     0.031 A 
ATOM     72  C   UNL A   1      47.629  26.166  26.691  1.00  0.00     0.131 A 
ATOM     73  C   UNL A   1      48.130  27.040  24.118  1.00  0.00     0.055 A 
ATOM     74  C   UNL A   1      48.714  25.644  25.986  1.00  0.00     0.041 A 
ATOM     75  F   UNL A   1      47.404  25.697  27.929  1.00  0.00    -0.206 F 
ATOM     76  C   UNL A   1      48.963  26.073  24.686  1.00  0.00     0.022 A 
BRANCH  73  77
ATOM     77  S   UNL A   1      48.366  27.537  22.390  1.00  0.00     0.124 S 
ATOM     78  O   UNL A   1      47.146  28.291  22.130  1.00  0.00    -0.237 OA
ATOM     79  O   UNL A   1      49.598  28.315  22.465  1.00  0.00    -0.237 OA
ATOM     80  O   UNL A   1      48.478  26.264  21.682  1.00  0.00    -0.744 OA
ENDBRANCH  73  77
ENDBRANCH  46  70
BRANCH  58  81
ATOM     81  C   UNL A   1      45.337  33.253  29.181  1.00  0.00     0.023 A 
ATOM     82  C   UNL A   1      45.285  34.335  28.285  1.00  0.00     0.031 A 
ATOM     83  C   UNL A   1      46.199  33.355  30.289  1.00  0.00     0.131 A 
ATOM     84  C   UNL A   1      46.118  35.449  28.483  1.00  0.00     0.055 A 
ATOM     85  C   UNL A   1      46.984  34.487  30.511  1.00  0.00     0.041 A 
ATOM     86  F   UNL A   1      46.291  32.352  31.177  1.00  0.00    -0.206 F 
ATOM     87  C   UNL A   1      46.956  35.538  29.597  1.00  0.00     0.022 A 
BRANCH  84  88
ATOM     88  S   UNL A   1      46.160  36.746  27.214  1.00  0.00     0.124 S 
ATOM     89  O   UNL A   1      46.772  36.051  26.087  1.00  0.00    -0.237 OA
ATOM     90  O   UNL A   1      44.749  37.084  27.066  1.00  0.00    -0.237 OA
ATOM     91  O   UNL A   1      46.986  37.791  27.819  1.00  0.00    -0.744 OA
ENDBRANCH  84  88
ENDBRANCH  58  81
ENDBRANCH  32  33
ENDBRANCH  25  27
ENDBRANCH  24  25
ENDBRANCH  23  24
ENDBRANCH   1  23
TORSDOF 18
ENDMDL
