MODEL 1
REMARK VINA RESULT:     -12.3      0.000      0.000
REMARK SMILES O=C(OCCOC(=O)c1ccc([S@@](=O)[C@H]2CCOC3(CCCC3)C2)cc1)c1ccc(-c2c3nc(c(-c4cc(S(=O)(=O)[O-])ccc4F)c4ccc([nH]4)c(-c4cc(S(=O)(=O)[O-])ccc4F)c4nc(c(-c5cc(S(=O)(=O)[O-])ccc5F)c5ccc2[nH]5)C=C4)C=C3)cc1
REMARK SMILES IDX 4 1 3 2 2 3 1 4 27 5 28 6 89 7 29 8 88 9 30 10 31 11 32 12
REMARK SMILES IDX 82 13 33 14 87 15 81 16 83 17 34 18 86 19 80 20 79 21 35 23
REMARK SMILES IDX 67 24 47 25 66 26 48 27 51 28 65 29 84 30 49 31 50 32 64 34
REMARK SMILES IDX 85 35 52 36 36 37 37 38 45 39 38 40 44 41 46 42 43 43 39 44
REMARK SMILES IDX 40 45 41 46 42 47 68 48 69 49 77 50 70 51 76 52 78 53 75 54
REMARK SMILES IDX 71 55 72 56 73 57 74 58 53 59 54 60 62 61 55 62 61 63 63 64
REMARK SMILES IDX 60 65 56 66 57 67 58 68 59 69 5 70 6 71 7 72 8 73 9 74 10 75
REMARK SMILES IDX 26 76 11 77 25 78 12 79 13 80 14 81 15 82 16 83 24 84 17 85
REMARK SMILES IDX 19 86 18 87 20 88 23 89 21 90 22 91
REMARK H PARENT 83 22 51 33
REMARK Flexibility Score: inf
ROOT
ATOM      1  C   UNL A   1      32.168  33.064  26.941  1.00  0.00     0.275 C 
ENDROOT
BRANCH   1   2
ATOM      2  O   UNL A   1      32.353  33.947  28.061  1.00  0.00    -0.458 OA
BRANCH   2   3
ATOM      3  C   UNL A   1      33.487  34.463  28.592  1.00  0.00     0.338 C 
ATOM      4  O   UNL A   1      33.663  35.680  28.523  1.00  0.00    -0.246 OA
BRANCH   3   5
ATOM      5  C   UNL A   1      34.604  33.629  29.145  1.00  0.00     0.060 A 
ATOM      6  C   UNL A   1      34.472  32.608  30.089  1.00  0.00     0.016 A 
ATOM      7  C   UNL A   1      35.894  33.908  28.656  1.00  0.00     0.016 A 
ATOM      8  C   UNL A   1      35.564  31.831  30.473  1.00  0.00     0.010 A 
ATOM      9  C   UNL A   1      36.997  33.145  29.049  1.00  0.00     0.010 A 
ATOM     10  C   UNL A   1      36.830  32.098  29.963  1.00  0.00    -0.014 A 
BRANCH  10  11
ATOM     11  C   UNL A   1      37.983  31.379  30.539  1.00  0.00     0.031 A 
ATOM     12  C   UNL A   1      38.420  31.754  31.925  1.00  0.00     0.074 A 
ATOM     13  C   UNL A   1      38.611  30.416  29.839  1.00  0.00     0.049 A 
ATOM     14  N   UNL A   1      39.379  31.246  32.653  1.00  0.00    -0.248 NA
ATOM     15  C   UNL A   1      37.689  32.857  32.563  1.00  0.00     0.031 C 
ATOM     16  C   UNL A   1      38.233  29.965  28.502  1.00  0.00     0.029 A 
ATOM     17  N   UNL A   1      39.715  29.662  30.140  1.00  0.00    -0.354 N 
ATOM     18  C   UNL A   1      39.365  31.971  33.839  1.00  0.00     0.074 A 
ATOM     19  C   UNL A   1      38.338  32.981  33.708  1.00  0.00     0.031 C 
ATOM     20  C   UNL A   1      39.110  29.039  28.081  1.00  0.00     0.029 A 
ATOM     21  C   UNL A   1      40.111  28.828  29.119  1.00  0.00     0.049 A 
ATOM     22  H   UNL A   1      40.181  29.712  31.005  1.00  0.00     0.167 HD
ATOM     23  C   UNL A   1      40.136  31.799  34.939  1.00  0.00     0.034 A 
ATOM     24  C   UNL A   1      41.163  27.991  29.044  1.00  0.00     0.034 A 
ATOM     25  C   UNL A   1      41.202  30.832  35.005  1.00  0.00     0.049 A 
ATOM     26  C   UNL A   1      42.057  27.867  30.255  1.00  0.00     0.074 A 
ATOM     27  C   UNL A   1      42.055  30.552  36.056  1.00  0.00     0.029 A 
ATOM     28  N   UNL A   1      41.582  30.004  33.953  1.00  0.00    -0.354 N 
ATOM     29  N   UNL A   1      41.981  28.499  31.405  1.00  0.00    -0.248 NA
ATOM     30  C   UNL A   1      43.153  26.897  30.169  1.00  0.00     0.031 C 
ATOM     31  C   UNL A   1      42.996  29.615  35.614  1.00  0.00     0.029 A 
ATOM     32  C   UNL A   1      42.680  29.243  34.315  1.00  0.00     0.049 A 
ATOM     33  H   UNL A   1      41.134  29.966  33.077  1.00  0.00     0.167 HD
ATOM     34  C   UNL A   1      42.989  27.961  32.199  1.00  0.00     0.074 A 
ATOM     35  C   UNL A   1      43.655  26.956  31.393  1.00  0.00     0.031 C 
ATOM     36  C   UNL A   1      43.327  28.254  33.482  1.00  0.00     0.034 A 
BRANCH  23  37
ATOM     37  C   UNL A   1      39.876  32.728  36.101  1.00  0.00     0.023 A 
ATOM     38  C   UNL A   1      39.104  32.317  37.205  1.00  0.00     0.031 A 
ATOM     39  C   UNL A   1      40.310  34.062  36.064  1.00  0.00     0.131 A 
ATOM     40  C   UNL A   1      38.702  33.255  38.167  1.00  0.00     0.055 A 
ATOM     41  C   UNL A   1      39.984  34.969  37.075  1.00  0.00     0.041 A 
ATOM     42  F   UNL A   1      41.027  34.520  35.026  1.00  0.00    -0.206 F 
ATOM     43  C   UNL A   1      39.157  34.574  38.123  1.00  0.00     0.022 A 
BRANCH  40  44
ATOM     44  S   UNL A   1      37.428  32.771  39.365  1.00  0.00     0.124 S 
ATOM     45  O   UNL A   1      37.538  33.837  40.358  1.00  0.00    -0.237 OA
ATOM     46  O   UNL A   1      36.215  32.776  38.556  1.00  0.00    -0.237 OA
ATOM     47  O   UNL A   1      37.869  31.454  39.823  1.00  0.00    -0.744 OA
ENDBRANCH  40  44
ENDBRANCH  23  37
BRANCH  24  48
ATOM     48  C   UNL A   1      41.421  27.193  27.812  1.00  0.00     0.023 A 
ATOM     49  C   UNL A   1      41.186  25.809  27.785  1.00  0.00     0.031 A 
ATOM     50  C   UNL A   1      41.948  27.793  26.654  1.00  0.00     0.131 A 
ATOM     51  C   UNL A   1      41.522  25.061  26.646  1.00  0.00     0.055 A 
ATOM     52  C   UNL A   1      42.241  27.050  25.506  1.00  0.00     0.041 A 
ATOM     53  F   UNL A   1      42.180  29.115  26.620  1.00  0.00    -0.206 F 
ATOM     54  C   UNL A   1      42.040  25.674  25.503  1.00  0.00     0.022 A 
BRANCH  51  55
ATOM     55  S   UNL A   1      41.343  23.256  26.709  1.00  0.00     0.124 S 
ATOM     56  O   UNL A   1      41.889  22.950  28.026  1.00  0.00    -0.237 OA
ATOM     57  O   UNL A   1      39.900  23.094  26.558  1.00  0.00    -0.237 OA
ATOM     58  O   UNL A   1      42.141  22.796  25.576  1.00  0.00    -0.744 OA
ENDBRANCH  51  55
ENDBRANCH  24  48
BRANCH  36  59
ATOM     59  C   UNL A   1      44.431  27.431  34.099  1.00  0.00     0.023 A 
ATOM     60  C   UNL A   1      44.166  26.249  34.810  1.00  0.00     0.031 A 
ATOM     61  C   UNL A   1      45.768  27.852  33.983  1.00  0.00     0.131 A 
ATOM     62  C   UNL A   1      45.217  25.566  35.439  1.00  0.00     0.055 A 
ATOM     63  C   UNL A   1      46.817  27.128  34.550  1.00  0.00     0.041 A 
ATOM     64  F   UNL A   1      46.076  28.977  33.317  1.00  0.00    -0.206 F 
ATOM     65  C   UNL A   1      46.543  25.986  35.297  1.00  0.00     0.022 A 
BRANCH  62  66
ATOM     66  S   UNL A   1      44.813  24.185  36.543  1.00  0.00     0.124 S 
ATOM     67  O   UNL A   1      44.032  24.849  37.582  1.00  0.00    -0.237 OA
ATOM     68  O   UNL A   1      44.071  23.290  35.662  1.00  0.00    -0.237 OA
ATOM     69  O   UNL A   1      46.122  23.693  36.969  1.00  0.00    -0.744 OA
ENDBRANCH  62  66
ENDBRANCH  36  59
ENDBRANCH  10  11
ENDBRANCH   3   5
ENDBRANCH   2   3
ENDBRANCH   1   2
BRANCH   1  70
ATOM     70  C   UNL A   1      32.411  31.576  27.232  1.00  0.00     0.275 C 
BRANCH  70  71
ATOM     71  O   UNL A   1      33.750  31.133  26.955  1.00  0.00    -0.458 OA
BRANCH  71  72
ATOM     72  C   UNL A   1      33.963  29.803  27.134  1.00  0.00     0.338 C 
ATOM     73  O   UNL A   1      34.599  29.289  28.042  1.00  0.00    -0.246 OA
BRANCH  72  74
ATOM     74  C   UNL A   1      33.207  29.018  26.130  1.00  0.00     0.060 A 
ATOM     75  C   UNL A   1      33.642  29.050  24.800  1.00  0.00     0.017 A 
ATOM     76  C   UNL A   1      32.063  28.290  26.463  1.00  0.00     0.017 A 
ATOM     77  C   UNL A   1      32.934  28.360  23.807  1.00  0.00     0.018 A 
ATOM     78  C   UNL A   1      31.354  27.603  25.464  1.00  0.00     0.018 A 
ATOM     79  C   UNL A   1      31.782  27.631  24.129  1.00  0.00     0.039 A 
BRANCH  79  80
ATOM     80  S   UNL A   1      30.689  26.984  22.844  1.00  0.00     0.056 S 
ATOM     81  O   UNL A   1      30.144  25.699  23.401  1.00  0.00    -0.254 OA
BRANCH  80  82
ATOM     82  C   UNL A   1      29.301  28.161  22.759  1.00  0.00     0.089 C 
ATOM     83  C   UNL A   1      28.040  27.687  23.467  1.00  0.00     0.046 C 
ATOM     84  C   UNL A   1      29.659  29.581  23.178  1.00  0.00     0.053 C 
ATOM     85  C   UNL A   1      26.919  28.678  23.206  1.00  0.00     0.162 C 
ATOM     86  C   UNL A   1      28.459  30.534  22.964  1.00  0.00     0.069 C 
ATOM     87  O   UNL A   1      27.291  29.993  23.603  1.00  0.00    -0.375 OA
ATOM     88  C   UNL A   1      28.714  31.902  23.621  1.00  0.00     0.035 C 
ATOM     89  C   UNL A   1      28.207  30.875  21.474  1.00  0.00     0.035 C 
ATOM     90  C   UNL A   1      28.942  32.896  22.498  1.00  0.00     0.003 C 
ATOM     91  C   UNL A   1      28.010  32.388  21.420  1.00  0.00     0.003 C 
ENDBRANCH  80  82
ENDBRANCH  79  80
ENDBRANCH  72  74
ENDBRANCH  71  72
ENDBRANCH  70  71
ENDBRANCH   1  70
TORSDOF 16
ENDMDL
MODEL 2
REMARK VINA RESULT:     -12.1      5.133     10.468
REMARK SMILES O=C(OCCOC(=O)c1ccc([S@@](=O)[C@H]2CCOC3(CCCC3)C2)cc1)c1ccc(-c2c3nc(c(-c4cc(S(=O)(=O)[O-])ccc4F)c4ccc([nH]4)c(-c4cc(S(=O)(=O)[O-])ccc4F)c4nc(c(-c5cc(S(=O)(=O)[O-])ccc5F)c5ccc2[nH]5)C=C4)C=C3)cc1
REMARK SMILES IDX 4 1 3 2 2 3 1 4 27 5 28 6 89 7 29 8 88 9 30 10 31 11 32 12
REMARK SMILES IDX 82 13 33 14 87 15 81 16 83 17 34 18 86 19 80 20 79 21 35 23
REMARK SMILES IDX 67 24 47 25 66 26 48 27 51 28 65 29 84 30 49 31 50 32 64 34
REMARK SMILES IDX 85 35 52 36 36 37 37 38 45 39 38 40 44 41 46 42 43 43 39 44
REMARK SMILES IDX 40 45 41 46 42 47 68 48 69 49 77 50 70 51 76 52 78 53 75 54
REMARK SMILES IDX 71 55 72 56 73 57 74 58 53 59 54 60 62 61 55 62 61 63 63 64
REMARK SMILES IDX 60 65 56 66 57 67 58 68 59 69 5 70 6 71 7 72 8 73 9 74 10 75
REMARK SMILES IDX 26 76 11 77 25 78 12 79 13 80 14 81 15 82 16 83 24 84 17 85
REMARK SMILES IDX 19 86 18 87 20 88 23 89 21 90 22 91
REMARK H PARENT 83 22 51 33
REMARK Flexibility Score: inf
ROOT
ATOM      1  C   UNL A   1      38.287  20.029  24.927  1.00  0.00     0.275 C 
ENDROOT
BRANCH   1   2
ATOM      2  O   UNL A   1      38.594  21.277  25.573  1.00  0.00    -0.458 OA
BRANCH   2   3
ATOM      3  C   UNL A   1      39.578  21.590  26.450  1.00  0.00     0.338 C 
ATOM      4  O   UNL A   1      40.137  20.672  27.050  1.00  0.00    -0.246 OA
BRANCH   3   5
ATOM      5  C   UNL A   1      39.941  22.994  26.831  1.00  0.00     0.060 A 
ATOM      6  C   UNL A   1      39.386  24.157  26.293  1.00  0.00     0.016 A 
ATOM      7  C   UNL A   1      40.928  23.137  27.824  1.00  0.00     0.016 A 
ATOM      8  C   UNL A   1      39.730  25.417  26.779  1.00  0.00     0.010 A 
ATOM      9  C   UNL A   1      41.292  24.398  28.305  1.00  0.00     0.010 A 
ATOM     10  C   UNL A   1      40.687  25.546  27.780  1.00  0.00    -0.014 A 
BRANCH  10  11
ATOM     11  C   UNL A   1      41.159  26.900  28.129  1.00  0.00     0.031 A 
ATOM     12  C   UNL A   1      42.589  27.241  27.833  1.00  0.00     0.074 A 
ATOM     13  C   UNL A   1      40.323  27.795  28.688  1.00  0.00     0.049 A 
ATOM     14  N   UNL A   1      43.223  28.369  28.015  1.00  0.00    -0.248 NA
ATOM     15  C   UNL A   1      43.415  26.162  27.272  1.00  0.00     0.031 C 
ATOM     16  C   UNL A   1      38.910  27.560  28.979  1.00  0.00     0.029 A 
ATOM     17  N   UNL A   1      40.542  29.071  29.137  1.00  0.00    -0.354 N 
ATOM     18  C   UNL A   1      44.526  28.133  27.591  1.00  0.00     0.074 A 
ATOM     19  C   UNL A   1      44.598  26.745  27.192  1.00  0.00     0.031 C 
ATOM     20  C   UNL A   1      38.396  28.640  29.590  1.00  0.00     0.029 A 
ATOM     21  C   UNL A   1      39.443  29.645  29.732  1.00  0.00     0.049 A 
ATOM     22  H   UNL A   1      41.406  29.533  29.042  1.00  0.00     0.167 HD
ATOM     23  C   UNL A   1      45.562  29.003  27.534  1.00  0.00     0.034 A 
ATOM     24  C   UNL A   1      39.307  30.850  30.319  1.00  0.00     0.034 A 
ATOM     25  C   UNL A   1      45.474  30.359  28.013  1.00  0.00     0.049 A 
ATOM     26  C   UNL A   1      40.496  31.780  30.312  1.00  0.00     0.074 A 
ATOM     27  C   UNL A   1      46.444  31.344  28.011  1.00  0.00     0.029 A 
ATOM     28  N   UNL A   1      44.348  30.911  28.615  1.00  0.00    -0.354 N 
ATOM     29  N   UNL A   1      41.702  31.574  29.829  1.00  0.00    -0.248 NA
ATOM     30  C   UNL A   1      40.298  33.110  30.897  1.00  0.00     0.031 C 
ATOM     31  C   UNL A   1      45.930  32.461  28.681  1.00  0.00     0.029 A 
ATOM     32  C   UNL A   1      44.610  32.208  29.024  1.00  0.00     0.049 A 
ATOM     33  H   UNL A   1      43.488  30.446  28.733  1.00  0.00     0.167 HD
ATOM     34  C   UNL A   1      42.388  32.771  30.004  1.00  0.00     0.074 A 
ATOM     35  C   UNL A   1      41.460  33.688  30.637  1.00  0.00     0.031 C 
ATOM     36  C   UNL A   1      43.663  33.094  29.661  1.00  0.00     0.034 A 
BRANCH  23  37
ATOM     37  C   UNL A   1      46.868  28.467  26.997  1.00  0.00     0.023 A 
ATOM     38  C   UNL A   1      47.115  28.397  25.612  1.00  0.00     0.031 A 
ATOM     39  C   UNL A   1      47.832  27.927  27.863  1.00  0.00     0.131 A 
ATOM     40  C   UNL A   1      48.238  27.708  25.134  1.00  0.00     0.055 A 
ATOM     41  C   UNL A   1      48.996  27.323  27.381  1.00  0.00     0.041 A 
ATOM     42  F   UNL A   1      47.643  27.939  29.191  1.00  0.00    -0.206 F 
ATOM     43  C   UNL A   1      49.194  27.191  26.010  1.00  0.00     0.022 A 
BRANCH  40  44
ATOM     44  S   UNL A   1      48.332  27.335  23.360  1.00  0.00     0.124 S 
ATOM     45  O   UNL A   1      48.213  25.878  23.359  1.00  0.00    -0.237 OA
ATOM     46  O   UNL A   1      47.192  28.068  22.822  1.00  0.00    -0.237 OA
ATOM     47  O   UNL A   1      49.644  27.846  22.970  1.00  0.00    -0.744 OA
ENDBRANCH  40  44
ENDBRANCH  23  37
BRANCH  24  48
ATOM     48  C   UNL A   1      38.012  31.261  30.934  1.00  0.00     0.023 A 
ATOM     49  C   UNL A   1      37.016  31.889  30.170  1.00  0.00     0.031 A 
ATOM     50  C   UNL A   1      37.767  31.072  32.306  1.00  0.00     0.131 A 
ATOM     51  C   UNL A   1      35.843  32.351  30.787  1.00  0.00     0.055 A 
ATOM     52  C   UNL A   1      36.578  31.495  32.909  1.00  0.00     0.041 A 
ATOM     53  F   UNL A   1      38.680  30.465  33.082  1.00  0.00    -0.206 F 
ATOM     54  C   UNL A   1      35.614  32.151  32.149  1.00  0.00     0.022 A 
BRANCH  51  55
ATOM     55  S   UNL A   1      34.651  33.290  29.792  1.00  0.00     0.124 S 
ATOM     56  O   UNL A   1      33.804  33.878  30.822  1.00  0.00    -0.237 OA
ATOM     57  O   UNL A   1      35.524  34.213  29.073  1.00  0.00    -0.237 OA
ATOM     58  O   UNL A   1      34.016  32.266  28.967  1.00  0.00    -0.744 OA
ENDBRANCH  51  55
ENDBRANCH  24  48
BRANCH  36  59
ATOM     59  C   UNL A   1      44.095  34.517  29.916  1.00  0.00     0.023 A 
ATOM     60  C   UNL A   1      43.883  35.537  28.974  1.00  0.00     0.031 A 
ATOM     61  C   UNL A   1      44.746  34.848  31.118  1.00  0.00     0.131 A 
ATOM     62  C   UNL A   1      44.380  36.824  29.219  1.00  0.00     0.055 A 
ATOM     63  C   UNL A   1      45.174  36.148  31.388  1.00  0.00     0.041 A 
ATOM     64  F   UNL A   1      44.977  33.910  32.052  1.00  0.00    -0.206 F 
ATOM     65  C   UNL A   1      45.006  37.142  30.428  1.00  0.00     0.022 A 
BRANCH  62  66
ATOM     66  S   UNL A   1      44.301  38.051  27.886  1.00  0.00     0.124 S 
ATOM     67  O   UNL A   1      44.083  39.289  28.628  1.00  0.00    -0.237 OA
ATOM     68  O   UNL A   1      45.608  37.909  27.254  1.00  0.00    -0.237 OA
ATOM     69  O   UNL A   1      43.167  37.605  27.077  1.00  0.00    -0.744 OA
ENDBRANCH  62  66
ENDBRANCH  36  59
ENDBRANCH  10  11
ENDBRANCH   3   5
ENDBRANCH   2   3
ENDBRANCH   1   2
BRANCH   1  70
ATOM     70  C   UNL A   1      36.799  19.652  24.902  1.00  0.00     0.275 C 
BRANCH  70  71
ATOM     71  O   UNL A   1      35.923  20.675  25.402  1.00  0.00    -0.458 OA
BRANCH  71  72
ATOM     72  C   UNL A   1      34.690  20.706  24.831  1.00  0.00     0.338 C 
ATOM     73  O   UNL A   1      33.863  19.808  24.852  1.00  0.00    -0.246 OA
BRANCH  72  74
ATOM     74  C   UNL A   1      34.416  22.047  24.265  1.00  0.00     0.060 A 
ATOM     75  C   UNL A   1      33.302  22.199  23.432  1.00  0.00     0.017 A 
ATOM     76  C   UNL A   1      35.251  23.140  24.504  1.00  0.00     0.017 A 
ATOM     77  C   UNL A   1      33.026  23.438  22.837  1.00  0.00     0.018 A 
ATOM     78  C   UNL A   1      34.974  24.379  23.902  1.00  0.00     0.018 A 
ATOM     79  C   UNL A   1      33.859  24.539  23.065  1.00  0.00     0.039 A 
BRANCH  79  80
ATOM     80  S   UNL A   1      33.707  26.052  22.090  1.00  0.00     0.056 S 
ATOM     81  O   UNL A   1      33.054  25.628  20.805  1.00  0.00    -0.254 OA
BRANCH  80  82
ATOM     82  C   UNL A   1      32.504  27.083  22.988  1.00  0.00     0.089 C 
ATOM     83  C   UNL A   1      31.067  26.915  22.514  1.00  0.00     0.046 C 
ATOM     84  C   UNL A   1      32.593  26.970  24.505  1.00  0.00     0.053 C 
ATOM     85  C   UNL A   1      30.184  27.922  23.232  1.00  0.00     0.162 C 
ATOM     86  C   UNL A   1      31.620  27.962  25.185  1.00  0.00     0.069 C 
ATOM     87  O   UNL A   1      30.299  27.792  24.644  1.00  0.00    -0.375 OA
ATOM     88  C   UNL A   1      31.507  27.680  26.693  1.00  0.00     0.035 C 
ATOM     89  C   UNL A   1      32.097  29.434  25.113  1.00  0.00     0.035 C 
ATOM     90  C   UNL A   1      32.221  28.811  27.409  1.00  0.00     0.003 C 
ATOM     91  C   UNL A   1      31.921  29.998  26.521  1.00  0.00     0.003 C 
ENDBRANCH  80  82
ENDBRANCH  79  80
ENDBRANCH  72  74
ENDBRANCH  71  72
ENDBRANCH  70  71
ENDBRANCH   1  70
TORSDOF 16
ENDMDL
MODEL 3
REMARK VINA RESULT:     -11.9      0.614      7.552
REMARK SMILES O=C(OCCOC(=O)c1ccc([S@@](=O)[C@H]2CCOC3(CCCC3)C2)cc1)c1ccc(-c2c3nc(c(-c4cc(S(=O)(=O)[O-])ccc4F)c4ccc([nH]4)c(-c4cc(S(=O)(=O)[O-])ccc4F)c4nc(c(-c5cc(S(=O)(=O)[O-])ccc5F)c5ccc2[nH]5)C=C4)C=C3)cc1
REMARK SMILES IDX 4 1 3 2 2 3 1 4 27 5 28 6 89 7 29 8 88 9 30 10 31 11 32 12
REMARK SMILES IDX 82 13 33 14 87 15 81 16 83 17 34 18 86 19 80 20 79 21 35 23
REMARK SMILES IDX 67 24 47 25 66 26 48 27 51 28 65 29 84 30 49 31 50 32 64 34
REMARK SMILES IDX 85 35 52 36 36 37 37 38 45 39 38 40 44 41 46 42 43 43 39 44
REMARK SMILES IDX 40 45 41 46 42 47 68 48 69 49 77 50 70 51 76 52 78 53 75 54
REMARK SMILES IDX 71 55 72 56 73 57 74 58 53 59 54 60 62 61 55 62 61 63 63 64
REMARK SMILES IDX 60 65 56 66 57 67 58 68 59 69 5 70 6 71 7 72 8 73 9 74 10 75
REMARK SMILES IDX 26 76 11 77 25 78 12 79 13 80 14 81 15 82 16 83 24 84 17 85
REMARK SMILES IDX 19 86 18 87 20 88 23 89 21 90 22 91
REMARK H PARENT 83 22 51 33
REMARK Flexibility Score: inf
ROOT
ATOM      1  C   UNL A   1      32.149  32.829  27.306  1.00  0.00     0.275 C 
ENDROOT
BRANCH   1   2
ATOM      2  O   UNL A   1      32.681  34.132  27.601  1.00  0.00    -0.458 OA
BRANCH   2   3
ATOM      3  C   UNL A   1      33.385  34.568  28.674  1.00  0.00     0.338 C 
ATOM      4  O   UNL A   1      33.180  35.713  29.078  1.00  0.00    -0.246 OA
BRANCH   3   5
ATOM      5  C   UNL A   1      34.489  33.789  29.320  1.00  0.00     0.060 A 
ATOM      6  C   UNL A   1      34.328  32.731  30.219  1.00  0.00     0.016 A 
ATOM      7  C   UNL A   1      35.802  34.163  28.978  1.00  0.00     0.016 A 
ATOM      8  C   UNL A   1      35.422  32.012  30.697  1.00  0.00     0.010 A 
ATOM      9  C   UNL A   1      36.906  33.458  29.466  1.00  0.00     0.010 A 
ATOM     10  C   UNL A   1      36.714  32.374  30.330  1.00  0.00    -0.014 A 
BRANCH  10  11
ATOM     11  C   UNL A   1      37.845  31.711  31.007  1.00  0.00     0.031 A 
ATOM     12  C   UNL A   1      38.592  30.652  30.250  1.00  0.00     0.074 A 
ATOM     13  C   UNL A   1      38.192  32.055  32.261  1.00  0.00     0.049 A 
ATOM     14  N   UNL A   1      39.635  29.956  30.616  1.00  0.00    -0.248 NA
ATOM     15  C   UNL A   1      38.082  30.328  28.909  1.00  0.00     0.031 C 
ATOM     16  C   UNL A   1      37.544  33.095  33.058  1.00  0.00     0.029 A 
ATOM     17  N   UNL A   1      39.154  31.553  33.097  1.00  0.00    -0.354 N 
ATOM     18  C   UNL A   1      39.907  29.108  29.548  1.00  0.00     0.074 A 
ATOM     19  C   UNL A   1      38.890  29.346  28.548  1.00  0.00     0.031 C 
ATOM     20  C   UNL A   1      38.102  33.131  34.280  1.00  0.00     0.029 A 
ATOM     21  C   UNL A   1      39.148  32.118  34.352  1.00  0.00     0.049 A 
ATOM     22  H   UNL A   1      39.791  30.853  32.825  1.00  0.00     0.167 HD
ATOM     23  C   UNL A   1      40.920  28.220  29.417  1.00  0.00     0.034 A 
ATOM     24  C   UNL A   1      39.908  31.843  35.429  1.00  0.00     0.034 A 
ATOM     25  C   UNL A   1      41.871  27.955  30.467  1.00  0.00     0.049 A 
ATOM     26  C   UNL A   1      40.987  30.796  35.286  1.00  0.00     0.074 A 
ATOM     27  C   UNL A   1      42.946  27.085  30.464  1.00  0.00     0.029 A 
ATOM     28  N   UNL A   1      41.835  28.540  31.728  1.00  0.00    -0.354 N 
ATOM     29  N   UNL A   1      41.288  30.060  34.240  1.00  0.00    -0.248 NA
ATOM     30  C   UNL A   1      41.843  30.567  36.454  1.00  0.00     0.031 C 
ATOM     31  C   UNL A   1      43.509  27.087  31.745  1.00  0.00     0.029 A 
ATOM     32  C   UNL A   1      42.843  28.022  32.524  1.00  0.00     0.049 A 
ATOM     33  H   UNL A   1      41.187  29.224  32.013  1.00  0.00     0.167 HD
ATOM     34  C   UNL A   1      42.407  29.319  34.609  1.00  0.00     0.074 A 
ATOM     35  C   UNL A   1      42.720  29.700  35.972  1.00  0.00     0.031 C 
ATOM     36  C   UNL A   1      43.123  28.419  33.886  1.00  0.00     0.034 A 
BRANCH  23  37
ATOM     37  C   UNL A   1      40.981  27.449  28.120  1.00  0.00     0.023 A 
ATOM     38  C   UNL A   1      40.622  26.088  28.061  1.00  0.00     0.031 A 
ATOM     39  C   UNL A   1      41.495  28.042  26.956  1.00  0.00     0.131 A 
ATOM     40  C   UNL A   1      40.883  25.343  26.902  1.00  0.00     0.055 A 
ATOM     41  C   UNL A   1      41.665  27.316  25.775  1.00  0.00     0.041 A 
ATOM     42  F   UNL A   1      41.878  29.328  26.955  1.00  0.00    -0.206 F 
ATOM     43  C   UNL A   1      41.380  25.954  25.749  1.00  0.00     0.022 A 
BRANCH  40  44
ATOM     44  S   UNL A   1      40.741  23.536  26.987  1.00  0.00     0.124 S 
ATOM     45  O   UNL A   1      41.637  23.120  25.911  1.00  0.00    -0.237 OA
ATOM     46  O   UNL A   1      41.195  23.246  28.342  1.00  0.00    -0.237 OA
ATOM     47  O   UNL A   1      39.322  23.290  26.737  1.00  0.00    -0.744 OA
ENDBRANCH  40  44
ENDBRANCH  23  37
BRANCH  24  48
ATOM     48  C   UNL A   1      39.707  32.570  36.715  1.00  0.00     0.023 A 
ATOM     49  C   UNL A   1      38.707  32.177  37.619  1.00  0.00     0.031 A 
ATOM     50  C   UNL A   1      40.482  33.697  37.041  1.00  0.00     0.131 A 
ATOM     51  C   UNL A   1      38.473  32.932  38.779  1.00  0.00     0.055 A 
ATOM     52  C   UNL A   1      40.275  34.420  38.220  1.00  0.00     0.041 A 
ATOM     53  F   UNL A   1      41.461  34.109  36.219  1.00  0.00    -0.206 F 
ATOM     54  C   UNL A   1      39.256  34.045  39.090  1.00  0.00     0.022 A 
BRANCH  51  55
ATOM     55  S   UNL A   1      37.074  32.477  39.842  1.00  0.00     0.124 S 
ATOM     56  O   UNL A   1      37.147  33.500  40.880  1.00  0.00    -0.237 OA
ATOM     57  O   UNL A   1      35.950  32.579  38.917  1.00  0.00    -0.237 OA
ATOM     58  O   UNL A   1      37.402  31.121  40.274  1.00  0.00    -0.744 OA
ENDBRANCH  51  55
ENDBRANCH  24  48
BRANCH  36  59
ATOM     59  C   UNL A   1      44.346  27.835  34.549  1.00  0.00     0.023 A 
ATOM     60  C   UNL A   1      44.297  26.628  35.266  1.00  0.00     0.031 A 
ATOM     61  C   UNL A   1      45.576  28.513  34.474  1.00  0.00     0.131 A 
ATOM     62  C   UNL A   1      45.439  26.172  35.939  1.00  0.00     0.055 A 
ATOM     63  C   UNL A   1      46.728  28.015  35.084  1.00  0.00     0.041 A 
ATOM     64  F   UNL A   1      45.678  29.673  33.804  1.00  0.00    -0.206 F 
ATOM     65  C   UNL A   1      46.659  26.846  35.836  1.00  0.00     0.022 A 
BRANCH  62  66
ATOM     66  S   UNL A   1      45.279  24.744  37.046  1.00  0.00     0.124 S 
ATOM     67  O   UNL A   1      46.649  24.573  37.518  1.00  0.00    -0.237 OA
ATOM     68  O   UNL A   1      44.320  25.224  38.035  1.00  0.00    -0.237 OA
ATOM     69  O   UNL A   1      44.788  23.683  36.168  1.00  0.00    -0.744 OA
ENDBRANCH  62  66
ENDBRANCH  36  59
ENDBRANCH  10  11
ENDBRANCH   3   5
ENDBRANCH   2   3
ENDBRANCH   1   2
BRANCH   1  70
ATOM     70  C   UNL A   1      33.183  31.781  26.868  1.00  0.00     0.275 C 
BRANCH  70  71
ATOM     71  O   UNL A   1      33.188  30.588  27.670  1.00  0.00    -0.458 OA
BRANCH  71  72
ATOM     72  C   UNL A   1      33.937  29.568  27.176  1.00  0.00     0.338 C 
ATOM     73  O   UNL A   1      35.051  29.241  27.555  1.00  0.00    -0.246 OA
BRANCH  72  74
ATOM     74  C   UNL A   1      33.166  28.799  26.171  1.00  0.00     0.060 A 
ATOM     75  C   UNL A   1      33.678  28.707  24.872  1.00  0.00     0.017 A 
ATOM     76  C   UNL A   1      31.938  28.206  26.471  1.00  0.00     0.017 A 
ATOM     77  C   UNL A   1      32.963  28.029  23.876  1.00  0.00     0.018 A 
ATOM     78  C   UNL A   1      31.223  27.530  25.469  1.00  0.00     0.018 A 
ATOM     79  C   UNL A   1      31.728  27.435  24.163  1.00  0.00     0.039 A 
BRANCH  79  80
ATOM     80  S   UNL A   1      30.651  26.818  22.850  1.00  0.00     0.056 S 
ATOM     81  O   UNL A   1      30.081  25.533  23.380  1.00  0.00    -0.254 OA
BRANCH  80  82
ATOM     82  C   UNL A   1      29.280  28.013  22.754  1.00  0.00     0.089 C 
ATOM     83  C   UNL A   1      28.026  27.580  23.501  1.00  0.00     0.046 C 
ATOM     84  C   UNL A   1      29.667  29.440  23.122  1.00  0.00     0.053 C 
ATOM     85  C   UNL A   1      26.914  28.580  23.229  1.00  0.00     0.162 C 
ATOM     86  C   UNL A   1      28.477  30.404  22.901  1.00  0.00     0.069 C 
ATOM     87  O   UNL A   1      27.314  29.900  23.579  1.00  0.00    -0.375 OA
ATOM     88  C   UNL A   1      28.765  31.787  23.510  1.00  0.00     0.035 C 
ATOM     89  C   UNL A   1      28.201  30.702  21.406  1.00  0.00     0.035 C 
ATOM     90  C   UNL A   1      28.985  32.742  22.353  1.00  0.00     0.003 C 
ATOM     91  C   UNL A   1      28.026  32.215  21.309  1.00  0.00     0.003 C 
ENDBRANCH  80  82
ENDBRANCH  79  80
ENDBRANCH  72  74
ENDBRANCH  71  72
ENDBRANCH  70  71
ENDBRANCH   1  70
TORSDOF 16
ENDMDL
