MODEL 1
REMARK VINA RESULT:     -12.2      0.000      0.000
REMARK SMILES O=C(OCCOC(=O)[C@H]1CCCCN1C(=O)c1cn2ccccc2n1)c1ccc(-c2c3nc(c(-c4cc(S(=O)(=O)[O-])ccc4F)c4ccc([nH]4)c(-c4cc(S(=O)(=O)[O-])ccc4F)c4nc(c(-c5cc(S(=O)(=O)[O-])ccc5F)c5ccc2[nH]5)C=C4)C=C3)cc1
REMARK SMILES IDX 4 1 3 2 2 3 1 4 26 5 27 6 88 7 28 8 87 9 29 10 30 11 31 12
REMARK SMILES IDX 81 13 32 14 86 15 80 16 82 17 33 18 85 19 79 20 78 21 34 23
REMARK SMILES IDX 66 24 46 25 65 26 47 27 50 28 64 29 83 30 48 31 49 32 63 34
REMARK SMILES IDX 84 35 51 36 35 37 36 38 44 39 37 40 43 41 45 42 42 43 38 44
REMARK SMILES IDX 39 45 40 46 41 47 67 48 68 49 76 50 69 51 75 52 77 53 74 54
REMARK SMILES IDX 70 55 71 56 72 57 73 58 52 59 53 60 61 61 54 62 60 63 62 64
REMARK SMILES IDX 59 65 55 66 56 67 57 68 58 69 5 70 6 71 7 72 8 73 9 74 10 75
REMARK SMILES IDX 14 76 11 77 13 78 12 79 15 80 16 81 17 82 18 83 25 84 19 85
REMARK SMILES IDX 24 86 20 87 23 88 21 89 22 90
REMARK H PARENT 82 22 50 33
REMARK Flexibility Score: inf
ROOT
ATOM      1  C   UNL A   1      37.371  21.911  25.492  1.00  0.00     0.275 C 
ENDROOT
BRANCH   1   2
ATOM      2  O   UNL A   1      38.772  21.581  25.465  1.00  0.00    -0.458 OA
BRANCH   2   3
ATOM      3  C   UNL A   1      39.686  21.802  26.448  1.00  0.00     0.338 C 
ATOM      4  O   UNL A   1      40.010  20.871  27.183  1.00  0.00    -0.246 OA
BRANCH   3   5
ATOM      5  C   UNL A   1      40.030  23.200  26.879  1.00  0.00     0.060 A 
ATOM      6  C   UNL A   1      39.415  24.371  26.433  1.00  0.00     0.016 A 
ATOM      7  C   UNL A   1      41.044  23.328  27.853  1.00  0.00     0.016 A 
ATOM      8  C   UNL A   1      39.711  25.610  27.031  1.00  0.00     0.010 A 
ATOM      9  C   UNL A   1      41.348  24.571  28.448  1.00  0.00     0.010 A 
ATOM     10  C   UNL A   1      40.650  25.723  28.073  1.00  0.00    -0.014 A 
BRANCH  10  11
ATOM     11  C   UNL A   1      41.027  27.089  28.552  1.00  0.00     0.031 A 
ATOM     12  C   UNL A   1      42.392  27.571  28.194  1.00  0.00     0.074 A 
ATOM     13  C   UNL A   1      40.218  27.912  29.250  1.00  0.00     0.049 A 
ATOM     14  N   UNL A   1      42.940  28.733  28.416  1.00  0.00    -0.248 NA
ATOM     15  C   UNL A   1      43.282  26.568  27.595  1.00  0.00     0.031 C 
ATOM     16  C   UNL A   1      39.008  27.510  29.937  1.00  0.00     0.029 A 
ATOM     17  N   UNL A   1      40.269  29.265  29.498  1.00  0.00    -0.354 N 
ATOM     18  C   UNL A   1      44.258  28.593  28.016  1.00  0.00     0.074 A 
ATOM     19  C   UNL A   1      44.427  27.224  27.578  1.00  0.00     0.031 C 
ATOM     20  C   UNL A   1      38.316  28.589  30.346  1.00  0.00     0.029 A 
ATOM     21  C   UNL A   1      39.119  29.772  30.079  1.00  0.00     0.049 A 
ATOM     22  H   UNL A   1      41.052  29.820  29.281  1.00  0.00     0.167 HD
ATOM     23  C   UNL A   1      45.244  29.521  28.028  1.00  0.00     0.034 A 
ATOM     24  C   UNL A   1      38.787  31.038  30.407  1.00  0.00     0.034 A 
ATOM     25  C   UNL A   1      45.084  30.847  28.557  1.00  0.00     0.049 A 
ATOM     26  C   UNL A   1      39.881  32.075  30.328  1.00  0.00     0.074 A 
ATOM     27  C   UNL A   1      46.028  31.846  28.697  1.00  0.00     0.029 A 
ATOM     28  N   UNL A   1      43.891  31.350  29.066  1.00  0.00    -0.354 N 
ATOM     29  N   UNL A   1      41.122  31.933  29.927  1.00  0.00    -0.248 NA
ATOM     30  C   UNL A   1      39.555  33.418  30.827  1.00  0.00     0.031 C 
ATOM     31  C   UNL A   1      45.417  32.940  29.323  1.00  0.00     0.029 A 
ATOM     32  C   UNL A   1      44.076  32.648  29.513  1.00  0.00     0.049 A 
ATOM     33  H   UNL A   1      43.041  30.855  29.104  1.00  0.00     0.167 HD
ATOM     34  C   UNL A   1      41.736  33.151  30.181  1.00  0.00     0.074 A 
ATOM     35  C   UNL A   1      40.715  34.040  30.695  1.00  0.00     0.031 C 
ATOM     36  C   UNL A   1      43.040  33.498  30.043  1.00  0.00     0.034 A 
BRANCH  23  37
ATOM     37  C   UNL A   1      46.573  29.038  27.516  1.00  0.00     0.023 A 
ATOM     38  C   UNL A   1      46.784  28.882  26.133  1.00  0.00     0.031 A 
ATOM     39  C   UNL A   1      47.535  28.527  28.399  1.00  0.00     0.131 A 
ATOM     40  C   UNL A   1      47.847  28.091  25.682  1.00  0.00     0.055 A 
ATOM     41  C   UNL A   1      48.655  27.837  27.935  1.00  0.00     0.041 A 
ATOM     42  F   UNL A   1      47.364  28.620  29.728  1.00  0.00    -0.206 F 
ATOM     43  C   UNL A   1      48.800  27.589  26.571  1.00  0.00     0.022 A 
BRANCH  40  44
ATOM     44  S   UNL A   1      47.817  27.527  23.958  1.00  0.00     0.124 S 
ATOM     45  O   UNL A   1      47.419  26.131  24.115  1.00  0.00    -0.237 OA
ATOM     46  O   UNL A   1      46.829  28.407  23.348  1.00  0.00    -0.237 OA
ATOM     47  O   UNL A   1      49.196  27.730  23.510  1.00  0.00    -0.744 OA
ENDBRANCH  40  44
ENDBRANCH  23  37
BRANCH  24  48
ATOM     48  C   UNL A   1      37.484  31.439  31.027  1.00  0.00     0.023 A 
ATOM     49  C   UNL A   1      36.503  32.117  30.273  1.00  0.00     0.031 A 
ATOM     50  C   UNL A   1      37.325  31.387  32.422  1.00  0.00     0.131 A 
ATOM     51  C   UNL A   1      35.480  32.819  30.931  1.00  0.00     0.055 A 
ATOM     52  C   UNL A   1      36.280  32.049  33.067  1.00  0.00     0.041 A 
ATOM     53  F   UNL A   1      38.220  30.739  33.183  1.00  0.00    -0.206 F 
ATOM     54  C   UNL A   1      35.373  32.801  32.325  1.00  0.00     0.022 A 
BRANCH  51  55
ATOM     55  S   UNL A   1      34.271  33.782  29.973  1.00  0.00     0.124 S 
ATOM     56  O   UNL A   1      33.470  34.392  31.026  1.00  0.00    -0.237 OA
ATOM     57  O   UNL A   1      35.117  34.690  29.204  1.00  0.00    -0.237 OA
ATOM     58  O   UNL A   1      33.596  32.761  29.173  1.00  0.00    -0.744 OA
ENDBRANCH  51  55
ENDBRANCH  24  48
BRANCH  36  59
ATOM     59  C   UNL A   1      43.393  34.907  30.430  1.00  0.00     0.023 A 
ATOM     60  C   UNL A   1      43.370  35.958  29.496  1.00  0.00     0.031 A 
ATOM     61  C   UNL A   1      43.807  35.183  31.743  1.00  0.00     0.131 A 
ATOM     62  C   UNL A   1      43.809  37.232  29.879  1.00  0.00     0.055 A 
ATOM     63  C   UNL A   1      44.184  36.467  32.132  1.00  0.00     0.041 A 
ATOM     64  F   UNL A   1      43.860  34.206  32.661  1.00  0.00    -0.206 F 
ATOM     65  C   UNL A   1      44.198  37.497  31.195  1.00  0.00     0.022 A 
BRANCH  62  66
ATOM     66  S   UNL A   1      43.959  38.521  28.612  1.00  0.00     0.124 S 
ATOM     67  O   UNL A   1      45.257  39.107  28.930  1.00  0.00    -0.237 OA
ATOM     68  O   UNL A   1      43.892  37.754  27.373  1.00  0.00    -0.237 OA
ATOM     69  O   UNL A   1      42.808  39.387  28.867  1.00  0.00    -0.744 OA
ENDBRANCH  62  66
ENDBRANCH  36  59
ENDBRANCH  10  11
ENDBRANCH   3   5
ENDBRANCH   2   3
ENDBRANCH   1   2
BRANCH   1  70
ATOM     70  C   UNL A   1      36.897  22.482  24.153  1.00  0.00     0.274 C 
BRANCH  70  71
ATOM     71  O   UNL A   1      36.202  23.728  24.292  1.00  0.00    -0.461 OA
BRANCH  71  72
ATOM     72  C   UNL A   1      34.904  23.793  23.872  1.00  0.00     0.328 C 
ATOM     73  O   UNL A   1      34.554  24.314  22.818  1.00  0.00    -0.250 OA
BRANCH  72  74
ATOM     74  C   UNL A   1      33.917  23.053  24.822  1.00  0.00     0.195 C 
ATOM     75  C   UNL A   1      33.971  23.705  26.211  1.00  0.00     0.037 C 
ATOM     76  N   UNL A   1      32.483  22.964  24.436  1.00  0.00    -0.323 N 
ATOM     77  C   UNL A   1      33.197  25.015  26.215  1.00  0.00     0.005 C 
ATOM     78  C   UNL A   1      31.855  24.247  24.177  1.00  0.00     0.121 C 
ATOM     79  C   UNL A   1      31.857  25.000  25.480  1.00  0.00     0.022 C 
BRANCH  76  80
ATOM     80  C   UNL A   1      31.755  21.889  25.019  1.00  0.00     0.274 C 
ATOM     81  O   UNL A   1      30.756  22.122  25.704  1.00  0.00    -0.267 OA
BRANCH  80  82
ATOM     82  C   UNL A   1      32.165  20.494  24.761  1.00  0.00     0.147 A 
ATOM     83  C   UNL A   1      32.462  19.895  23.551  1.00  0.00     0.127 A 
ATOM     84  N   UNL A   1      32.402  19.585  25.790  1.00  0.00    -0.223 NA
ATOM     85  N   UNL A   1      32.819  18.603  23.831  1.00  0.00    -0.306 N 
ATOM     86  C   UNL A   1      32.825  18.478  25.213  1.00  0.00     0.137 A 
ATOM     87  C   UNL A   1      33.177  17.589  22.953  1.00  0.00     0.093 A 
ATOM     88  C   UNL A   1      33.311  17.248  25.741  1.00  0.00     0.048 A 
ATOM     89  C   UNL A   1      33.638  16.433  23.454  1.00  0.00     0.018 A 
ATOM     90  C   UNL A   1      33.740  16.287  24.898  1.00  0.00     0.005 A 
ENDBRANCH  80  82
ENDBRANCH  76  80
ENDBRANCH  72  74
ENDBRANCH  71  72
ENDBRANCH  70  71
ENDBRANCH   1  70
TORSDOF 16
ENDMDL
MODEL 2
REMARK VINA RESULT:     -12.2      1.559      3.398
REMARK SMILES O=C(OCCOC(=O)[C@H]1CCCCN1C(=O)c1cn2ccccc2n1)c1ccc(-c2c3nc(c(-c4cc(S(=O)(=O)[O-])ccc4F)c4ccc([nH]4)c(-c4cc(S(=O)(=O)[O-])ccc4F)c4nc(c(-c5cc(S(=O)(=O)[O-])ccc5F)c5ccc2[nH]5)C=C4)C=C3)cc1
REMARK SMILES IDX 4 1 3 2 2 3 1 4 26 5 27 6 88 7 28 8 87 9 29 10 30 11 31 12
REMARK SMILES IDX 81 13 32 14 86 15 80 16 82 17 33 18 85 19 79 20 78 21 34 23
REMARK SMILES IDX 66 24 46 25 65 26 47 27 50 28 64 29 83 30 48 31 49 32 63 34
REMARK SMILES IDX 84 35 51 36 35 37 36 38 44 39 37 40 43 41 45 42 42 43 38 44
REMARK SMILES IDX 39 45 40 46 41 47 67 48 68 49 76 50 69 51 75 52 77 53 74 54
REMARK SMILES IDX 70 55 71 56 72 57 73 58 52 59 53 60 61 61 54 62 60 63 62 64
REMARK SMILES IDX 59 65 55 66 56 67 57 68 58 69 5 70 6 71 7 72 8 73 9 74 10 75
REMARK SMILES IDX 14 76 11 77 13 78 12 79 15 80 16 81 17 82 18 83 25 84 19 85
REMARK SMILES IDX 24 86 20 87 23 88 21 89 22 90
REMARK H PARENT 82 22 50 33
REMARK Flexibility Score: inf
ROOT
ATOM      1  C   UNL A   1      37.967  20.383  25.261  1.00  0.00     0.275 C 
ENDROOT
BRANCH   1   2
ATOM      2  O   UNL A   1      38.437  21.658  25.736  1.00  0.00    -0.458 OA
BRANCH   2   3
ATOM      3  C   UNL A   1      39.545  21.895  26.488  1.00  0.00     0.338 C 
ATOM      4  O   UNL A   1      40.093  20.953  27.059  1.00  0.00    -0.246 OA
BRANCH   3   5
ATOM      5  C   UNL A   1      39.898  23.290  26.922  1.00  0.00     0.060 A 
ATOM      6  C   UNL A   1      39.252  24.461  26.523  1.00  0.00     0.016 A 
ATOM      7  C   UNL A   1      40.956  23.414  27.849  1.00  0.00     0.016 A 
ATOM      8  C   UNL A   1      39.566  25.695  27.123  1.00  0.00     0.010 A 
ATOM      9  C   UNL A   1      41.278  24.651  28.446  1.00  0.00     0.010 A 
ATOM     10  C   UNL A   1      40.553  25.801  28.122  1.00  0.00    -0.014 A 
BRANCH  10  11
ATOM     11  C   UNL A   1      40.942  27.164  28.600  1.00  0.00     0.031 A 
ATOM     12  C   UNL A   1      42.313  27.632  28.251  1.00  0.00     0.074 A 
ATOM     13  C   UNL A   1      40.136  27.996  29.293  1.00  0.00     0.049 A 
ATOM     14  N   UNL A   1      42.871  28.788  28.475  1.00  0.00    -0.248 NA
ATOM     15  C   UNL A   1      43.196  26.619  27.658  1.00  0.00     0.031 C 
ATOM     16  C   UNL A   1      38.918  27.608  29.973  1.00  0.00     0.029 A 
ATOM     17  N   UNL A   1      40.200  29.349  29.540  1.00  0.00    -0.354 N 
ATOM     18  C   UNL A   1      44.190  28.635  28.083  1.00  0.00     0.074 A 
ATOM     19  C   UNL A   1      44.348  27.263  27.648  1.00  0.00     0.031 C 
ATOM     20  C   UNL A   1      38.235  28.693  30.377  1.00  0.00     0.029 A 
ATOM     21  C   UNL A   1      39.051  29.868  30.114  1.00  0.00     0.049 A 
ATOM     22  H   UNL A   1      40.989  29.896  29.327  1.00  0.00     0.167 HD
ATOM     23  C   UNL A   1      45.186  29.552  28.100  1.00  0.00     0.034 A 
ATOM     24  C   UNL A   1      38.730  31.138  30.438  1.00  0.00     0.034 A 
ATOM     25  C   UNL A   1      45.036  30.880  28.627  1.00  0.00     0.049 A 
ATOM     26  C   UNL A   1      39.835  32.163  30.365  1.00  0.00     0.074 A 
ATOM     27  C   UNL A   1      45.989  31.871  28.771  1.00  0.00     0.029 A 
ATOM     28  N   UNL A   1      43.845  31.396  29.128  1.00  0.00    -0.354 N 
ATOM     29  N   UNL A   1      41.077  32.009  29.971  1.00  0.00    -0.248 NA
ATOM     30  C   UNL A   1      39.520  33.511  30.861  1.00  0.00     0.031 C 
ATOM     31  C   UNL A   1      45.386  32.971  29.393  1.00  0.00     0.029 A 
ATOM     32  C   UNL A   1      44.040  32.693  29.574  1.00  0.00     0.049 A 
ATOM     33  H   UNL A   1      42.990  30.911  29.161  1.00  0.00     0.167 HD
ATOM     34  C   UNL A   1      41.702  33.220  30.228  1.00  0.00     0.074 A 
ATOM     35  C   UNL A   1      40.687  34.120  30.735  1.00  0.00     0.031 C 
ATOM     36  C   UNL A   1      43.010  33.554  30.098  1.00  0.00     0.034 A 
BRANCH  23  37
ATOM     37  C   UNL A   1      46.513  29.056  27.597  1.00  0.00     0.023 A 
ATOM     38  C   UNL A   1      46.738  28.917  26.215  1.00  0.00     0.031 A 
ATOM     39  C   UNL A   1      47.456  28.515  28.484  1.00  0.00     0.131 A 
ATOM     40  C   UNL A   1      47.793  28.115  25.765  1.00  0.00     0.055 A 
ATOM     41  C   UNL A   1      48.570  27.814  28.022  1.00  0.00     0.041 A 
ATOM     42  F   UNL A   1      47.270  28.591  29.811  1.00  0.00    -0.206 F 
ATOM     43  C   UNL A   1      48.728  27.584  26.657  1.00  0.00     0.022 A 
BRANCH  40  44
ATOM     44  S   UNL A   1      47.776  27.578  24.031  1.00  0.00     0.124 S 
ATOM     45  O   UNL A   1      49.170  27.785  23.648  1.00  0.00    -0.237 OA
ATOM     46  O   UNL A   1      47.341  26.191  24.129  1.00  0.00    -0.237 OA
ATOM     47  O   UNL A   1      46.820  28.490  23.403  1.00  0.00    -0.744 OA
ENDBRANCH  40  44
ENDBRANCH  23  37
BRANCH  24  48
ATOM     48  C   UNL A   1      37.428  31.553  31.049  1.00  0.00     0.023 A 
ATOM     49  C   UNL A   1      36.454  32.230  30.285  1.00  0.00     0.031 A 
ATOM     50  C   UNL A   1      37.263  31.515  32.444  1.00  0.00     0.131 A 
ATOM     51  C   UNL A   1      35.432  32.944  30.934  1.00  0.00     0.055 A 
ATOM     52  C   UNL A   1      36.220  32.190  33.080  1.00  0.00     0.041 A 
ATOM     53  F   UNL A   1      38.151  30.869  33.214  1.00  0.00    -0.206 F 
ATOM     54  C   UNL A   1      35.321  32.940  32.327  1.00  0.00     0.022 A 
BRANCH  51  55
ATOM     55  S   UNL A   1      34.233  33.907  29.962  1.00  0.00     0.124 S 
ATOM     56  O   UNL A   1      33.614  32.874  29.141  1.00  0.00    -0.237 OA
ATOM     57  O   UNL A   1      33.386  34.503  30.991  1.00  0.00    -0.237 OA
ATOM     58  O   UNL A   1      35.080  34.861  29.248  1.00  0.00    -0.744 OA
ENDBRANCH  51  55
ENDBRANCH  24  48
BRANCH  36  59
ATOM     59  C   UNL A   1      43.375  34.960  30.485  1.00  0.00     0.023 A 
ATOM     60  C   UNL A   1      43.371  36.010  29.550  1.00  0.00     0.031 A 
ATOM     61  C   UNL A   1      43.780  35.234  31.801  1.00  0.00     0.131 A 
ATOM     62  C   UNL A   1      43.821  37.279  29.934  1.00  0.00     0.055 A 
ATOM     63  C   UNL A   1      44.168  36.514  32.191  1.00  0.00     0.041 A 
ATOM     64  F   UNL A   1      43.815  34.257  32.722  1.00  0.00    -0.206 F 
ATOM     65  C   UNL A   1      44.201  37.542  31.253  1.00  0.00     0.022 A 
BRANCH  62  66
ATOM     66  S   UNL A   1      43.995  38.565  28.667  1.00  0.00     0.124 S 
ATOM     67  O   UNL A   1      42.714  39.257  28.760  1.00  0.00    -0.237 OA
ATOM     68  O   UNL A   1      45.159  39.311  29.133  1.00  0.00    -0.237 OA
ATOM     69  O   UNL A   1      44.202  37.804  27.434  1.00  0.00    -0.744 OA
ENDBRANCH  62  66
ENDBRANCH  36  59
ENDBRANCH  10  11
ENDBRANCH   3   5
ENDBRANCH   2   3
ENDBRANCH   1   2
BRANCH   1  70
ATOM     70  C   UNL A   1      36.474  20.419  24.925  1.00  0.00     0.274 C 
BRANCH  70  71
ATOM     71  O   UNL A   1      35.693  21.081  25.928  1.00  0.00    -0.461 OA
BRANCH  71  72
ATOM     72  C   UNL A   1      34.352  21.224  25.712  1.00  0.00     0.328 C 
ATOM     73  O   UNL A   1      33.639  20.339  25.248  1.00  0.00    -0.250 OA
BRANCH  72  74
ATOM     74  C   UNL A   1      33.796  22.592  26.200  1.00  0.00     0.195 C 
ATOM     75  C   UNL A   1      34.916  23.641  26.140  1.00  0.00     0.037 C 
ATOM     76  N   UNL A   1      32.614  23.174  25.508  1.00  0.00    -0.323 N 
ATOM     77  C   UNL A   1      35.141  24.097  24.706  1.00  0.00     0.005 C 
ATOM     78  C   UNL A   1      32.783  23.334  24.075  1.00  0.00     0.121 C 
ATOM     79  C   UNL A   1      33.880  24.346  23.879  1.00  0.00     0.022 C 
BRANCH  76  80
ATOM     80  C   UNL A   1      31.850  24.101  26.270  1.00  0.00     0.274 C 
ATOM     81  O   UNL A   1      31.615  23.875  27.459  1.00  0.00    -0.267 OA
BRANCH  80  82
ATOM     82  C   UNL A   1      31.383  25.359  25.651  1.00  0.00     0.147 A 
ATOM     83  C   UNL A   1      31.966  26.611  25.702  1.00  0.00     0.127 A 
ATOM     84  N   UNL A   1      30.270  25.408  24.813  1.00  0.00    -0.223 NA
ATOM     85  N   UNL A   1      31.179  27.440  24.949  1.00  0.00    -0.306 N 
ATOM     86  C   UNL A   1      30.192  26.649  24.379  1.00  0.00     0.137 A 
ATOM     87  C   UNL A   1      31.325  28.800  24.712  1.00  0.00     0.093 A 
ATOM     88  C   UNL A   1      29.336  27.280  23.431  1.00  0.00     0.048 A 
ATOM     89  C   UNL A   1      30.519  29.390  23.816  1.00  0.00     0.018 A 
ATOM     90  C   UNL A   1      29.523  28.581  23.131  1.00  0.00     0.005 A 
ENDBRANCH  80  82
ENDBRANCH  76  80
ENDBRANCH  72  74
ENDBRANCH  71  72
ENDBRANCH  70  71
ENDBRANCH   1  70
TORSDOF 16
ENDMDL
MODEL 3
REMARK VINA RESULT:     -12.2      2.032      3.752
REMARK SMILES O=C(OCCOC(=O)[C@H]1CCCCN1C(=O)c1cn2ccccc2n1)c1ccc(-c2c3nc(c(-c4cc(S(=O)(=O)[O-])ccc4F)c4ccc([nH]4)c(-c4cc(S(=O)(=O)[O-])ccc4F)c4nc(c(-c5cc(S(=O)(=O)[O-])ccc5F)c5ccc2[nH]5)C=C4)C=C3)cc1
REMARK SMILES IDX 4 1 3 2 2 3 1 4 26 5 27 6 88 7 28 8 87 9 29 10 30 11 31 12
REMARK SMILES IDX 81 13 32 14 86 15 80 16 82 17 33 18 85 19 79 20 78 21 34 23
REMARK SMILES IDX 66 24 46 25 65 26 47 27 50 28 64 29 83 30 48 31 49 32 63 34
REMARK SMILES IDX 84 35 51 36 35 37 36 38 44 39 37 40 43 41 45 42 42 43 38 44
REMARK SMILES IDX 39 45 40 46 41 47 67 48 68 49 76 50 69 51 75 52 77 53 74 54
REMARK SMILES IDX 70 55 71 56 72 57 73 58 52 59 53 60 61 61 54 62 60 63 62 64
REMARK SMILES IDX 59 65 55 66 56 67 57 68 58 69 5 70 6 71 7 72 8 73 9 74 10 75
REMARK SMILES IDX 14 76 11 77 13 78 12 79 15 80 16 81 17 82 18 83 25 84 19 85
REMARK SMILES IDX 24 86 20 87 23 88 21 89 22 90
REMARK H PARENT 82 22 50 33
REMARK Flexibility Score: inf
ROOT
ATOM      1  C   UNL A   1      37.614  21.079  24.840  1.00  0.00     0.275 C 
ENDROOT
BRANCH   1   2
ATOM      2  O   UNL A   1      38.067  21.667  26.073  1.00  0.00    -0.458 OA
BRANCH   2   3
ATOM      3  C   UNL A   1      39.346  21.986  26.408  1.00  0.00     0.338 C 
ATOM      4  O   UNL A   1      40.149  21.080  26.629  1.00  0.00    -0.246 OA
BRANCH   3   5
ATOM      5  C   UNL A   1      39.703  23.375  26.855  1.00  0.00     0.060 A 
ATOM      6  C   UNL A   1      39.016  24.545  26.525  1.00  0.00     0.016 A 
ATOM      7  C   UNL A   1      40.811  23.494  27.722  1.00  0.00     0.016 A 
ATOM      8  C   UNL A   1      39.346  25.768  27.138  1.00  0.00     0.010 A 
ATOM      9  C   UNL A   1      41.148  24.721  28.330  1.00  0.00     0.010 A 
ATOM     10  C   UNL A   1      40.388  25.867  28.078  1.00  0.00    -0.014 A 
BRANCH  10  11
ATOM     11  C   UNL A   1      40.783  27.224  28.568  1.00  0.00     0.031 A 
ATOM     12  C   UNL A   1      42.170  27.673  28.254  1.00  0.00     0.074 A 
ATOM     13  C   UNL A   1      39.971  28.067  29.241  1.00  0.00     0.049 A 
ATOM     14  N   UNL A   1      42.738  28.821  28.494  1.00  0.00    -0.248 NA
ATOM     15  C   UNL A   1      43.053  26.648  27.684  1.00  0.00     0.031 C 
ATOM     16  C   UNL A   1      38.731  27.695  29.888  1.00  0.00     0.029 A 
ATOM     17  N   UNL A   1      40.048  29.418  29.490  1.00  0.00    -0.354 N 
ATOM     18  C   UNL A   1      44.064  28.650  28.136  1.00  0.00     0.074 A 
ATOM     19  C   UNL A   1      44.214  27.276  27.704  1.00  0.00     0.031 C 
ATOM     20  C   UNL A   1      38.053  28.790  30.276  1.00  0.00     0.029 A 
ATOM     21  C   UNL A   1      38.892  29.954  30.034  1.00  0.00     0.049 A 
ATOM     22  H   UNL A   1      40.850  29.955  29.299  1.00  0.00     0.167 HD
ATOM     23  C   UNL A   1      45.072  29.553  28.179  1.00  0.00     0.034 A 
ATOM     24  C   UNL A   1      38.581  31.227  30.352  1.00  0.00     0.034 A 
ATOM     25  C   UNL A   1      44.926  30.883  28.704  1.00  0.00     0.049 A 
ATOM     26  C   UNL A   1      39.701  32.237  30.308  1.00  0.00     0.074 A 
ATOM     27  C   UNL A   1      45.890  31.859  28.873  1.00  0.00     0.029 A 
ATOM     28  N   UNL A   1      43.731  31.415  29.174  1.00  0.00    -0.354 N 
ATOM     29  N   UNL A   1      40.950  32.065  29.946  1.00  0.00    -0.248 NA
ATOM     30  C   UNL A   1      39.392  33.589  30.796  1.00  0.00     0.031 C 
ATOM     31  C   UNL A   1      45.286  32.968  29.480  1.00  0.00     0.029 A 
ATOM     32  C   UNL A   1      43.932  32.709  29.626  1.00  0.00     0.049 A 
ATOM     33  H   UNL A   1      42.868  30.941  29.185  1.00  0.00     0.167 HD
ATOM     34  C   UNL A   1      41.585  33.268  30.220  1.00  0.00     0.074 A 
ATOM     35  C   UNL A   1      40.570  34.182  30.701  1.00  0.00     0.031 C 
ATOM     36  C   UNL A   1      42.901  33.584  30.124  1.00  0.00     0.034 A 
BRANCH  23  37
ATOM     37  C   UNL A   1      46.404  29.039  27.710  1.00  0.00     0.023 A 
ATOM     38  C   UNL A   1      46.671  28.918  26.334  1.00  0.00     0.031 A 
ATOM     39  C   UNL A   1      47.307  28.464  28.618  1.00  0.00     0.131 A 
ATOM     40  C   UNL A   1      47.724  28.103  25.904  1.00  0.00     0.055 A 
ATOM     41  C   UNL A   1      48.422  27.749  28.180  1.00  0.00     0.041 A 
ATOM     42  F   UNL A   1      47.081  28.522  29.940  1.00  0.00    -0.206 F 
ATOM     43  C   UNL A   1      48.619  27.538  26.816  1.00  0.00     0.022 A 
BRANCH  40  44
ATOM     44  S   UNL A   1      47.752  27.594  24.162  1.00  0.00     0.124 S 
ATOM     45  O   UNL A   1      46.796  28.528  23.571  1.00  0.00    -0.237 OA
ATOM     46  O   UNL A   1      49.147  27.791  23.792  1.00  0.00    -0.237 OA
ATOM     47  O   UNL A   1      47.307  26.201  24.208  1.00  0.00    -0.744 OA
ENDBRANCH  40  44
ENDBRANCH  23  37
BRANCH  24  48
ATOM     48  C   UNL A   1      37.269  31.661  30.929  1.00  0.00     0.023 A 
ATOM     49  C   UNL A   1      36.316  32.332  30.135  1.00  0.00     0.031 A 
ATOM     50  C   UNL A   1      37.075  31.644  32.321  1.00  0.00     0.131 A 
ATOM     51  C   UNL A   1      35.286  33.063  30.752  1.00  0.00     0.055 A 
ATOM     52  C   UNL A   1      36.024  32.335  32.924  1.00  0.00     0.041 A 
ATOM     53  F   UNL A   1      37.942  31.004  33.119  1.00  0.00    -0.206 F 
ATOM     54  C   UNL A   1      35.146  33.080  32.142  1.00  0.00     0.022 A 
BRANCH  51  55
ATOM     55  S   UNL A   1      34.114  34.019  29.741  1.00  0.00     0.124 S 
ATOM     56  O   UNL A   1      33.487  32.975  28.941  1.00  0.00    -0.237 OA
ATOM     57  O   UNL A   1      33.266  34.656  30.744  1.00  0.00    -0.237 OA
ATOM     58  O   UNL A   1      34.985  34.940  29.011  1.00  0.00    -0.744 OA
ENDBRANCH  51  55
ENDBRANCH  24  48
BRANCH  36  59
ATOM     59  C   UNL A   1      43.276  34.984  30.521  1.00  0.00     0.023 A 
ATOM     60  C   UNL A   1      43.367  35.371  31.870  1.00  0.00     0.031 A 
ATOM     61  C   UNL A   1      43.496  35.952  29.528  1.00  0.00     0.131 A 
ATOM     62  C   UNL A   1      43.616  36.712  32.189  1.00  0.00     0.055 A 
ATOM     63  C   UNL A   1      43.803  37.271  29.853  1.00  0.00     0.041 A 
ATOM     64  F   UNL A   1      43.402  35.629  28.228  1.00  0.00    -0.206 F 
ATOM     65  C   UNL A   1      43.853  37.660  31.190  1.00  0.00     0.022 A 
BRANCH  62  66
ATOM     66  S   UNL A   1      43.532  37.227  33.926  1.00  0.00     0.124 S 
ATOM     67  O   UNL A   1      44.926  37.116  34.342  1.00  0.00    -0.237 OA
ATOM     68  O   UNL A   1      43.002  38.583  33.827  1.00  0.00    -0.237 OA
ATOM     69  O   UNL A   1      42.625  36.251  34.528  1.00  0.00    -0.744 OA
ENDBRANCH  62  66
ENDBRANCH  36  59
ENDBRANCH  10  11
ENDBRANCH   3   5
ENDBRANCH   2   3
ENDBRANCH   1   2
BRANCH   1  70
ATOM     70  C   UNL A   1      36.279  20.352  25.016  1.00  0.00     0.274 C 
BRANCH  70  71
ATOM     71  O   UNL A   1      35.397  21.017  25.930  1.00  0.00    -0.461 OA
BRANCH  71  72
ATOM     72  C   UNL A   1      34.138  21.326  25.502  1.00  0.00     0.328 C 
ATOM     73  O   UNL A   1      33.436  20.567  24.841  1.00  0.00    -0.250 OA
BRANCH  72  74
ATOM     74  C   UNL A   1      33.640  22.708  26.017  1.00  0.00     0.195 C 
ATOM     75  C   UNL A   1      34.845  23.641  26.201  1.00  0.00     0.037 C 
ATOM     76  N   UNL A   1      32.630  23.450  25.215  1.00  0.00    -0.323 N 
ATOM     77  C   UNL A   1      35.319  24.168  24.854  1.00  0.00     0.005 C 
ATOM     78  C   UNL A   1      33.021  23.688  23.838  1.00  0.00     0.121 C 
ATOM     79  C   UNL A   1      34.221  24.596  23.881  1.00  0.00     0.022 C 
BRANCH  76  80
ATOM     80  C   UNL A   1      31.847  24.395  25.935  1.00  0.00     0.274 C 
ATOM     81  O   UNL A   1      31.646  24.237  27.142  1.00  0.00    -0.267 OA
BRANCH  80  82
ATOM     82  C   UNL A   1      31.319  25.592  25.249  1.00  0.00     0.147 A 
ATOM     83  C   UNL A   1      30.168  25.713  24.494  1.00  0.00     0.127 A 
ATOM     84  N   UNL A   1      31.919  26.844  25.368  1.00  0.00    -0.223 NA
ATOM     85  N   UNL A   1      30.094  27.021  24.098  1.00  0.00    -0.306 N 
ATOM     86  C   UNL A   1      31.151  27.685  24.705  1.00  0.00     0.137 A 
ATOM     87  C   UNL A   1      29.140  27.638  23.300  1.00  0.00     0.093 A 
ATOM     88  C   UNL A   1      31.191  29.100  24.551  1.00  0.00     0.048 A 
ATOM     89  C   UNL A   1      29.178  28.971  23.159  1.00  0.00     0.018 A 
ATOM     90  C   UNL A   1      30.221  29.718  23.847  1.00  0.00     0.005 A 
ENDBRANCH  80  82
ENDBRANCH  76  80
ENDBRANCH  72  74
ENDBRANCH  71  72
ENDBRANCH  70  71
ENDBRANCH   1  70
TORSDOF 16
ENDMDL
