MODEL 1
REMARK VINA RESULT:     -11.9      0.000      0.000
REMARK SMILES Cc1ccc(/C=C2/SC(=O)N(CC(=O)OCCOC(=O)c3ccc(-c4c5nc(c(-c6cc(S(=O)(=O)[O-])ccc6F)c6ccc([nH]6)c(-c6cc(S(=O)(=O)[O-])ccc6F)c6nc(c(-c7cc(S(=O)(=O)[O-])ccc7F)c7ccc4[nH]7)C=C6)C=C5)cc3)C2=O)cc1
REMARK SMILES IDX 17 1 16 2 15 3 13 4 14 5 12 6 11 7 6 8 7 9 8 10 84 11 9 12
REMARK SMILES IDX 85 13 10 14 5 15 1 16 2 17 3 18 87 19 4 20 86 21 18 22 19 23
REMARK SMILES IDX 20 24 21 25 22 26 83 27 23 28 82 29 24 30 25 31 26 32 76 33
REMARK SMILES IDX 27 34 81 35 75 36 77 37 28 38 80 39 74 40 73 41 29 43 61 44
REMARK SMILES IDX 41 45 60 46 42 47 45 48 59 49 78 50 43 51 44 52 58 54 79 55
REMARK SMILES IDX 46 56 30 57 31 58 39 59 32 60 38 61 40 62 37 63 33 64 34 65
REMARK SMILES IDX 35 66 36 67 62 68 63 69 71 70 64 71 70 72 72 73 69 74 65 75
REMARK SMILES IDX 66 76 67 77 68 78 47 79 48 80 56 81 49 82 55 83 57 84 54 85
REMARK SMILES IDX 50 86 51 87 52 88 53 89
REMARK H PARENT 77 42 45 53
REMARK Flexibility Score: inf
ROOT
ATOM      1  C   UNL A   1      34.328  30.446  27.517  1.00  0.00     0.275 C 
ENDROOT
BRANCH   1   2
ATOM      2  C   UNL A   1      34.219  29.197  26.601  1.00  0.00     0.274 C 
BRANCH   2   3
ATOM      3  O   UNL A   1      33.514  28.093  27.186  1.00  0.00    -0.461 OA
BRANCH   3   4
ATOM      4  C   UNL A   1      32.311  27.811  26.639  1.00  0.00     0.326 C 
ATOM      5  O   UNL A   1      31.427  27.168  27.197  1.00  0.00    -0.250 OA
BRANCH   4   6
ATOM      6  C   UNL A   1      32.216  28.382  25.226  1.00  0.00     0.252 C 
BRANCH   6   7
ATOM      7  N   UNL A   1      31.897  27.240  24.395  1.00  0.00    -0.257 N 
ATOM      8  C   UNL A   1      32.785  23.819  23.801  1.00  0.00     0.029 C 
ATOM      9  C   UNL A   1      32.244  25.043  23.710  1.00  0.00     0.083 C 
ATOM     10  S   UNL A   1      30.574  25.321  23.341  1.00  0.00    -0.022 SA
ATOM     11  C   UNL A   1      32.874  26.348  24.028  1.00  0.00     0.268 C 
ATOM     12  C   UNL A   1      30.623  26.937  24.033  1.00  0.00     0.294 C 
ATOM     13  O   UNL A   1      34.058  26.603  23.919  1.00  0.00    -0.268 OA
ATOM     14  O   UNL A   1      29.633  27.647  24.140  1.00  0.00    -0.261 OA
BRANCH   8  15
ATOM     15  C   UNL A   1      34.135  23.473  24.274  1.00  0.00    -0.024 A 
ATOM     16  C   UNL A   1      38.045  22.356  25.750  1.00  0.00     0.044 C 
ATOM     17  C   UNL A   1      36.713  22.818  25.231  1.00  0.00    -0.051 A 
ATOM     18  C   UNL A   1      35.696  23.188  26.117  1.00  0.00     0.004 A 
ATOM     19  C   UNL A   1      36.446  22.834  23.861  1.00  0.00     0.004 A 
ATOM     20  C   UNL A   1      34.420  23.513  25.642  1.00  0.00     0.008 A 
ATOM     21  C   UNL A   1      35.169  23.168  23.386  1.00  0.00     0.008 A 
ENDBRANCH   8  15
ENDBRANCH   6   7
ENDBRANCH   4   6
ENDBRANCH   3   4
ENDBRANCH   2   3
ENDBRANCH   1   2
BRANCH   1  22
ATOM     22  O   UNL A   1      35.672  30.902  27.841  1.00  0.00    -0.458 OA
BRANCH  22  23
ATOM     23  C   UNL A   1      36.385  30.561  28.970  1.00  0.00     0.338 C 
ATOM     24  O   UNL A   1      35.975  30.702  30.112  1.00  0.00    -0.246 OA
BRANCH  23  25
ATOM     25  C   UNL A   1      37.452  29.608  28.663  1.00  0.00     0.060 A 
ATOM     26  C   UNL A   1      38.224  29.708  27.492  1.00  0.00     0.016 A 
ATOM     27  C   UNL A   1      37.808  28.750  29.673  1.00  0.00     0.016 A 
ATOM     28  C   UNL A   1      39.428  29.007  27.409  1.00  0.00     0.010 A 
ATOM     29  C   UNL A   1      39.100  28.334  29.720  1.00  0.00     0.010 A 
ATOM     30  C   UNL A   1      39.875  28.353  28.558  1.00  0.00    -0.014 A 
BRANCH  30  31
ATOM     31  C   UNL A   1      40.969  27.403  28.651  1.00  0.00     0.031 A 
ATOM     32  C   UNL A   1      40.832  25.965  28.433  1.00  0.00     0.074 A 
ATOM     33  C   UNL A   1      42.176  27.997  28.794  1.00  0.00     0.049 A 
ATOM     34  N   UNL A   1      41.572  25.088  29.015  1.00  0.00    -0.248 NA
ATOM     35  C   UNL A   1      39.865  25.383  27.507  1.00  0.00     0.031 C 
ATOM     36  C   UNL A   1      43.523  27.485  28.670  1.00  0.00     0.029 A 
ATOM     37  N   UNL A   1      42.377  29.308  29.202  1.00  0.00    -0.354 N 
ATOM     38  C   UNL A   1      41.453  23.922  28.294  1.00  0.00     0.074 A 
ATOM     39  C   UNL A   1      40.283  24.110  27.464  1.00  0.00     0.031 C 
ATOM     40  C   UNL A   1      44.365  28.358  29.265  1.00  0.00     0.029 A 
ATOM     41  C   UNL A   1      43.561  29.402  29.897  1.00  0.00     0.049 A 
ATOM     42  H   UNL A   1      41.765  30.058  29.021  1.00  0.00     0.167 HD
ATOM     43  C   UNL A   1      42.479  23.021  28.317  1.00  0.00     0.034 A 
ATOM     44  C   UNL A   1      43.442  29.689  31.228  1.00  0.00     0.034 A 
ATOM     45  C   UNL A   1      43.614  23.553  29.077  1.00  0.00     0.049 A 
ATOM     46  C   UNL A   1      43.822  28.480  32.046  1.00  0.00     0.074 A 
ATOM     47  C   UNL A   1      44.804  24.136  28.670  1.00  0.00     0.029 A 
ATOM     48  N   UNL A   1      43.478  23.843  30.430  1.00  0.00    -0.354 N 
ATOM     49  N   UNL A   1      43.823  27.258  31.587  1.00  0.00    -0.248 NA
ATOM     50  C   UNL A   1      44.302  28.565  33.415  1.00  0.00     0.031 C 
ATOM     51  C   UNL A   1      45.341  24.851  29.774  1.00  0.00     0.029 A 
ATOM     52  C   UNL A   1      44.495  24.677  30.856  1.00  0.00     0.049 A 
ATOM     53  H   UNL A   1      42.756  23.502  31.005  1.00  0.00     0.167 HD
ATOM     54  C   UNL A   1      44.372  26.415  32.513  1.00  0.00     0.074 A 
ATOM     55  C   UNL A   1      44.648  27.287  33.647  1.00  0.00     0.031 C 
ATOM     56  C   UNL A   1      44.577  25.087  32.253  1.00  0.00     0.034 A 
BRANCH  43  57
ATOM     57  C   UNL A   1      42.609  21.832  27.388  1.00  0.00     0.023 A 
ATOM     58  C   UNL A   1      43.651  21.809  26.435  1.00  0.00     0.031 A 
ATOM     59  C   UNL A   1      41.773  20.699  27.393  1.00  0.00     0.131 A 
ATOM     60  C   UNL A   1      43.777  20.770  25.497  1.00  0.00     0.055 A 
ATOM     61  C   UNL A   1      41.873  19.678  26.434  1.00  0.00     0.041 A 
ATOM     62  F   UNL A   1      40.855  20.512  28.352  1.00  0.00    -0.206 F 
ATOM     63  C   UNL A   1      42.873  19.714  25.471  1.00  0.00     0.022 A 
BRANCH  60  64
ATOM     64  S   UNL A   1      45.158  20.815  24.320  1.00  0.00     0.124 S 
ATOM     65  O   UNL A   1      44.723  21.837  23.373  1.00  0.00    -0.237 OA
ATOM     66  O   UNL A   1      46.286  21.167  25.177  1.00  0.00    -0.237 OA
ATOM     67  O   UNL A   1      45.193  19.454  23.785  1.00  0.00    -0.744 OA
ENDBRANCH  60  64
ENDBRANCH  43  57
BRANCH  44  68
ATOM     68  C   UNL A   1      42.323  30.668  31.524  1.00  0.00     0.023 A 
ATOM     69  C   UNL A   1      41.154  30.135  32.124  1.00  0.00     0.031 A 
ATOM     70  C   UNL A   1      42.495  32.057  31.603  1.00  0.00     0.131 A 
ATOM     71  C   UNL A   1      40.320  30.933  32.927  1.00  0.00     0.055 A 
ATOM     72  C   UNL A   1      41.597  32.870  32.323  1.00  0.00     0.041 A 
ATOM     73  F   UNL A   1      43.580  32.644  31.079  1.00  0.00    -0.206 F 
ATOM     74  C   UNL A   1      40.526  32.306  33.024  1.00  0.00     0.022 A 
BRANCH  71  75
ATOM     75  S   UNL A   1      39.198  30.074  34.078  1.00  0.00     0.124 S 
ATOM     76  O   UNL A   1      40.092  29.700  35.168  1.00  0.00    -0.237 OA
ATOM     77  O   UNL A   1      38.216  31.115  34.384  1.00  0.00    -0.237 OA
ATOM     78  O   UNL A   1      38.657  28.967  33.296  1.00  0.00    -0.744 OA
ENDBRANCH  71  75
ENDBRANCH  44  68
BRANCH  56  79
ATOM     79  C   UNL A   1      44.976  24.043  33.270  1.00  0.00     0.023 A 
ATOM     80  C   UNL A   1      46.274  23.937  33.776  1.00  0.00     0.031 A 
ATOM     81  C   UNL A   1      44.026  23.153  33.831  1.00  0.00     0.131 A 
ATOM     82  C   UNL A   1      46.617  22.934  34.694  1.00  0.00     0.055 A 
ATOM     83  C   UNL A   1      44.344  22.227  34.827  1.00  0.00     0.041 A 
ATOM     84  F   UNL A   1      42.740  23.146  33.450  1.00  0.00    -0.206 F 
ATOM     85  C   UNL A   1      45.656  22.097  35.250  1.00  0.00     0.022 A 
BRANCH  82  86
ATOM     86  S   UNL A   1      48.371  22.707  35.066  1.00  0.00     0.124 S 
ATOM     87  O   UNL A   1      48.442  23.166  36.451  1.00  0.00    -0.237 OA
ATOM     88  O   UNL A   1      48.552  21.273  34.867  1.00  0.00    -0.237 OA
ATOM     89  O   UNL A   1      49.043  23.564  34.092  1.00  0.00    -0.744 OA
ENDBRANCH  82  86
ENDBRANCH  56  79
ENDBRANCH  30  31
ENDBRANCH  23  25
ENDBRANCH  22  23
ENDBRANCH   1  22
TORSDOF 16
ENDMDL
MODEL 2
REMARK VINA RESULT:     -11.9      1.905      2.315
REMARK SMILES Cc1ccc(/C=C2/SC(=O)N(CC(=O)OCCOC(=O)c3ccc(-c4c5nc(c(-c6cc(S(=O)(=O)[O-])ccc6F)c6ccc([nH]6)c(-c6cc(S(=O)(=O)[O-])ccc6F)c6nc(c(-c7cc(S(=O)(=O)[O-])ccc7F)c7ccc4[nH]7)C=C6)C=C5)cc3)C2=O)cc1
REMARK SMILES IDX 17 1 16 2 15 3 13 4 14 5 12 6 11 7 6 8 7 9 8 10 84 11 9 12
REMARK SMILES IDX 85 13 10 14 5 15 1 16 2 17 3 18 87 19 4 20 86 21 18 22 19 23
REMARK SMILES IDX 20 24 21 25 22 26 83 27 23 28 82 29 24 30 25 31 26 32 76 33
REMARK SMILES IDX 27 34 81 35 75 36 77 37 28 38 80 39 74 40 73 41 29 43 61 44
REMARK SMILES IDX 41 45 60 46 42 47 45 48 59 49 78 50 43 51 44 52 58 54 79 55
REMARK SMILES IDX 46 56 30 57 31 58 39 59 32 60 38 61 40 62 37 63 33 64 34 65
REMARK SMILES IDX 35 66 36 67 62 68 63 69 71 70 64 71 70 72 72 73 69 74 65 75
REMARK SMILES IDX 66 76 67 77 68 78 47 79 48 80 56 81 49 82 55 83 57 84 54 85
REMARK SMILES IDX 50 86 51 87 52 88 53 89
REMARK H PARENT 77 42 45 53
REMARK Flexibility Score: inf
ROOT
ATOM      1  C   UNL A   1      34.207  30.080  27.268  1.00  0.00     0.275 C 
ENDROOT
BRANCH   1   2
ATOM      2  C   UNL A   1      34.175  28.654  26.655  1.00  0.00     0.274 C 
BRANCH   2   3
ATOM      3  O   UNL A   1      33.481  28.563  25.403  1.00  0.00    -0.461 OA
BRANCH   3   4
ATOM      4  C   UNL A   1      32.179  28.203  25.480  1.00  0.00     0.326 C 
ATOM      5  O   UNL A   1      31.244  28.893  25.088  1.00  0.00    -0.250 OA
BRANCH   4   6
ATOM      6  C   UNL A   1      32.039  26.835  26.143  1.00  0.00     0.252 C 
BRANCH   6   7
ATOM      7  N   UNL A   1      31.871  25.914  25.038  1.00  0.00    -0.257 N 
ATOM      8  C   UNL A   1      33.102  22.827  23.697  1.00  0.00     0.029 C 
ATOM      9  C   UNL A   1      32.455  23.989  23.867  1.00  0.00     0.083 C 
ATOM     10  S   UNL A   1      30.788  24.221  23.456  1.00  0.00    -0.022 SA
ATOM     11  C   UNL A   1      32.944  25.219  24.538  1.00  0.00     0.268 C 
ATOM     12  C   UNL A   1      30.650  25.613  24.522  1.00  0.00     0.294 C 
ATOM     13  O   UNL A   1      34.103  25.584  24.581  1.00  0.00    -0.268 OA
ATOM     14  O   UNL A   1      29.595  26.196  24.726  1.00  0.00    -0.261 OA
BRANCH   8  15
ATOM     15  C   UNL A   1      34.451  22.480  24.168  1.00  0.00    -0.024 A 
ATOM     16  C   UNL A   1      38.458  21.599  25.542  1.00  0.00     0.044 C 
ATOM     17  C   UNL A   1      37.065  21.834  25.031  1.00  0.00    -0.051 A 
ATOM     18  C   UNL A   1      36.857  22.486  23.812  1.00  0.00     0.004 A 
ATOM     19  C   UNL A   1      35.953  21.457  25.787  1.00  0.00     0.004 A 
ATOM     20  C   UNL A   1      35.563  22.804  23.384  1.00  0.00     0.008 A 
ATOM     21  C   UNL A   1      34.656  21.770  25.354  1.00  0.00     0.008 A 
ENDBRANCH   8  15
ENDBRANCH   6   7
ENDBRANCH   4   6
ENDBRANCH   3   4
ENDBRANCH   2   3
ENDBRANCH   1   2
BRANCH   1  22
ATOM     22  O   UNL A   1      35.521  30.636  27.556  1.00  0.00    -0.458 OA
BRANCH  22  23
ATOM     23  C   UNL A   1      35.993  30.977  28.805  1.00  0.00     0.338 C 
ATOM     24  O   UNL A   1      35.329  31.539  29.662  1.00  0.00    -0.246 OA
BRANCH  23  25
ATOM     25  C   UNL A   1      37.181  30.200  29.159  1.00  0.00     0.060 A 
ATOM     26  C   UNL A   1      37.145  29.192  30.138  1.00  0.00     0.016 A 
ATOM     27  C   UNL A   1      38.271  30.350  28.338  1.00  0.00     0.016 A 
ATOM     28  C   UNL A   1      38.186  28.262  30.197  1.00  0.00     0.010 A 
ATOM     29  C   UNL A   1      39.099  29.283  28.190  1.00  0.00     0.010 A 
ATOM     30  C   UNL A   1      39.140  28.298  29.180  1.00  0.00    -0.014 A 
BRANCH  30  31
ATOM     31  C   UNL A   1      40.405  27.584  29.146  1.00  0.00     0.031 A 
ATOM     32  C   UNL A   1      40.567  26.219  28.651  1.00  0.00     0.074 A 
ATOM     33  C   UNL A   1      41.464  28.367  29.458  1.00  0.00     0.049 A 
ATOM     34  N   UNL A   1      41.464  25.410  29.093  1.00  0.00    -0.248 NA
ATOM     35  C   UNL A   1      39.749  25.650  27.585  1.00  0.00     0.031 C 
ATOM     36  C   UNL A   1      42.888  28.167  29.306  1.00  0.00     0.029 A 
ATOM     37  N   UNL A   1      41.388  29.586  30.117  1.00  0.00    -0.354 N 
ATOM     38  C   UNL A   1      41.594  24.408  28.158  1.00  0.00     0.074 A 
ATOM     39  C   UNL A   1      40.418  24.519  27.322  1.00  0.00     0.031 C 
ATOM     40  C   UNL A   1      43.528  29.056  30.097  1.00  0.00     0.029 A 
ATOM     41  C   UNL A   1      42.521  29.775  30.875  1.00  0.00     0.049 A 
ATOM     42  H   UNL A   1      40.637  30.219  30.052  1.00  0.00     0.167 HD
ATOM     43  C   UNL A   1      42.782  23.742  28.060  1.00  0.00     0.034 A 
ATOM     44  C   UNL A   1      42.333  29.766  32.229  1.00  0.00     0.034 A 
ATOM     45  C   UNL A   1      43.777  24.330  28.962  1.00  0.00     0.049 A 
ATOM     46  C   UNL A   1      42.944  28.520  32.820  1.00  0.00     0.074 A 
ATOM     47  C   UNL A   1      44.826  25.205  28.734  1.00  0.00     0.029 A 
ATOM     48  N   UNL A   1      43.571  24.316  30.338  1.00  0.00    -0.354 N 
ATOM     49  N   UNL A   1      43.199  27.436  32.138  1.00  0.00    -0.248 NA
ATOM     50  C   UNL A   1      43.383  28.429  34.203  1.00  0.00     0.031 C 
ATOM     51  C   UNL A   1      45.195  25.782  29.979  1.00  0.00     0.029 A 
ATOM     52  C   UNL A   1      44.392  25.235  30.965  1.00  0.00     0.049 A 
ATOM     53  H   UNL A   1      42.929  23.732  30.801  1.00  0.00     0.167 HD
ATOM     54  C   UNL A   1      43.900  26.555  32.913  1.00  0.00     0.074 A 
ATOM     55  C   UNL A   1      43.981  27.224  34.205  1.00  0.00     0.031 C 
ATOM     56  C   UNL A   1      44.375  25.371  32.416  1.00  0.00     0.034 A 
BRANCH  43  57
ATOM     57  C   UNL A   1      43.162  22.809  26.930  1.00  0.00     0.023 A 
ATOM     58  C   UNL A   1      42.798  21.446  27.005  1.00  0.00     0.031 A 
ATOM     59  C   UNL A   1      43.853  23.183  25.762  1.00  0.00     0.131 A 
ATOM     60  C   UNL A   1      43.187  20.518  26.025  1.00  0.00     0.055 A 
ATOM     61  C   UNL A   1      44.276  22.252  24.800  1.00  0.00     0.041 A 
ATOM     62  F   UNL A   1      44.108  24.469  25.482  1.00  0.00    -0.206 F 
ATOM     63  C   UNL A   1      43.954  20.909  24.932  1.00  0.00     0.022 A 
BRANCH  60  64
ATOM     64  S   UNL A   1      42.659  18.789  26.194  1.00  0.00     0.124 S 
ATOM     65  O   UNL A   1      42.699  18.596  27.641  1.00  0.00    -0.237 OA
ATOM     66  O   UNL A   1      41.334  18.807  25.583  1.00  0.00    -0.237 OA
ATOM     67  O   UNL A   1      43.673  18.049  25.444  1.00  0.00    -0.744 OA
ENDBRANCH  60  64
ENDBRANCH  43  57
BRANCH  44  68
ATOM     68  C   UNL A   1      41.035  30.425  32.649  1.00  0.00     0.023 A 
ATOM     69  C   UNL A   1      40.816  31.749  32.191  1.00  0.00     0.031 A 
ATOM     70  C   UNL A   1      39.911  29.725  33.111  1.00  0.00     0.131 A 
ATOM     71  C   UNL A   1      39.515  32.256  32.023  1.00  0.00     0.055 A 
ATOM     72  C   UNL A   1      38.617  30.279  33.038  1.00  0.00     0.041 A 
ATOM     73  F   UNL A   1      40.022  28.462  33.546  1.00  0.00    -0.206 F 
ATOM     74  C   UNL A   1      38.408  31.532  32.454  1.00  0.00     0.022 A 
BRANCH  71  75
ATOM     75  S   UNL A   1      39.318  33.706  30.935  1.00  0.00     0.124 S 
ATOM     76  O   UNL A   1      39.148  34.794  31.890  1.00  0.00    -0.237 OA
ATOM     77  O   UNL A   1      40.577  33.702  30.188  1.00  0.00    -0.237 OA
ATOM     78  O   UNL A   1      38.150  33.390  30.120  1.00  0.00    -0.744 OA
ENDBRANCH  71  75
ENDBRANCH  44  68
BRANCH  56  79
ATOM     79  C   UNL A   1      44.969  24.249  33.234  1.00  0.00     0.023 A 
ATOM     80  C   UNL A   1      46.264  24.295  33.756  1.00  0.00     0.031 A 
ATOM     81  C   UNL A   1      44.208  23.106  33.589  1.00  0.00     0.131 A 
ATOM     82  C   UNL A   1      46.795  23.221  34.483  1.00  0.00     0.055 A 
ATOM     83  C   UNL A   1      44.700  22.086  34.406  1.00  0.00     0.041 A 
ATOM     84  F   UNL A   1      42.946  22.929  33.169  1.00  0.00    -0.206 F 
ATOM     85  C   UNL A   1      46.013  22.128  34.841  1.00  0.00     0.022 A 
BRANCH  82  86
ATOM     86  S   UNL A   1      48.561  23.262  34.866  1.00  0.00     0.124 S 
ATOM     87  O   UNL A   1      48.560  23.837  36.209  1.00  0.00    -0.237 OA
ATOM     88  O   UNL A   1      48.935  21.854  34.782  1.00  0.00    -0.237 OA
ATOM     89  O   UNL A   1      49.118  24.120  33.823  1.00  0.00    -0.744 OA
ENDBRANCH  82  86
ENDBRANCH  56  79
ENDBRANCH  30  31
ENDBRANCH  23  25
ENDBRANCH  22  23
ENDBRANCH   1  22
TORSDOF 16
ENDMDL
MODEL 3
REMARK VINA RESULT:     -11.8      4.149     10.152
REMARK SMILES Cc1ccc(/C=C2/SC(=O)N(CC(=O)OCCOC(=O)c3ccc(-c4c5nc(c(-c6cc(S(=O)(=O)[O-])ccc6F)c6ccc([nH]6)c(-c6cc(S(=O)(=O)[O-])ccc6F)c6nc(c(-c7cc(S(=O)(=O)[O-])ccc7F)c7ccc4[nH]7)C=C6)C=C5)cc3)C2=O)cc1
REMARK SMILES IDX 17 1 16 2 15 3 13 4 14 5 12 6 11 7 6 8 7 9 8 10 84 11 9 12
REMARK SMILES IDX 85 13 10 14 5 15 1 16 2 17 3 18 87 19 4 20 86 21 18 22 19 23
REMARK SMILES IDX 20 24 21 25 22 26 83 27 23 28 82 29 24 30 25 31 26 32 76 33
REMARK SMILES IDX 27 34 81 35 75 36 77 37 28 38 80 39 74 40 73 41 29 43 61 44
REMARK SMILES IDX 41 45 60 46 42 47 45 48 59 49 78 50 43 51 44 52 58 54 79 55
REMARK SMILES IDX 46 56 30 57 31 58 39 59 32 60 38 61 40 62 37 63 33 64 34 65
REMARK SMILES IDX 35 66 36 67 62 68 63 69 71 70 64 71 70 72 72 73 69 74 65 75
REMARK SMILES IDX 66 76 67 77 68 78 47 79 48 80 56 81 49 82 55 83 57 84 54 85
REMARK SMILES IDX 50 86 51 87 52 88 53 89
REMARK H PARENT 77 42 45 53
REMARK Flexibility Score: inf
ROOT
ATOM      1  C   UNL A   1      38.016  22.205  25.248  1.00  0.00     0.275 C 
ENDROOT
BRANCH   1   2
ATOM      2  C   UNL A   1      36.726  21.482  25.718  1.00  0.00     0.274 C 
BRANCH   2   3
ATOM      3  O   UNL A   1      35.651  22.362  26.076  1.00  0.00    -0.461 OA
BRANCH   3   4
ATOM      4  C   UNL A   1      34.498  22.187  25.391  1.00  0.00     0.326 C 
ATOM      5  O   UNL A   1      33.664  21.326  25.645  1.00  0.00    -0.250 OA
BRANCH   4   6
ATOM      6  C   UNL A   1      34.395  23.194  24.248  1.00  0.00     0.252 C 
BRANCH   6   7
ATOM      7  N   UNL A   1      33.004  23.596  24.244  1.00  0.00    -0.257 N 
ATOM      8  C   UNL A   1      30.867  26.449  24.617  1.00  0.00     0.029 C 
ATOM      9  C   UNL A   1      31.333  25.199  24.479  1.00  0.00     0.083 C 
ATOM     10  S   UNL A   1      30.623  24.029  23.416  1.00  0.00    -0.022 SA
ATOM     11  C   UNL A   1      32.568  24.614  25.056  1.00  0.00     0.268 C 
ATOM     12  C   UNL A   1      32.098  23.073  23.377  1.00  0.00     0.294 C 
ATOM     13  O   UNL A   1      33.076  24.942  26.111  1.00  0.00    -0.268 OA
ATOM     14  O   UNL A   1      32.235  22.085  22.668  1.00  0.00    -0.261 OA
BRANCH   8  15
ATOM     15  C   UNL A   1      31.493  27.558  25.352  1.00  0.00    -0.024 A 
ATOM     16  C   UNL A   1      33.274  30.914  27.421  1.00  0.00     0.044 C 
ATOM     17  C   UNL A   1      32.720  29.707  26.721  1.00  0.00    -0.051 A 
ATOM     18  C   UNL A   1      32.919  29.530  25.349  1.00  0.00     0.004 A 
ATOM     19  C   UNL A   1      31.951  28.770  27.412  1.00  0.00     0.004 A 
ATOM     20  C   UNL A   1      32.312  28.465  24.671  1.00  0.00     0.008 A 
ATOM     21  C   UNL A   1      31.349  27.699  26.734  1.00  0.00     0.008 A 
ENDBRANCH   8  15
ENDBRANCH   6   7
ENDBRANCH   4   6
ENDBRANCH   3   4
ENDBRANCH   2   3
ENDBRANCH   1   2
BRANCH   1  22
ATOM     22  O   UNL A   1      38.480  23.313  26.071  1.00  0.00    -0.458 OA
BRANCH  22  23
ATOM     23  C   UNL A   1      39.696  23.381  26.716  1.00  0.00     0.338 C 
ATOM     24  O   UNL A   1      40.616  22.597  26.534  1.00  0.00    -0.246 OA
BRANCH  23  25
ATOM     25  C   UNL A   1      39.937  24.714  27.267  1.00  0.00     0.060 A 
ATOM     26  C   UNL A   1      40.468  25.756  26.487  1.00  0.00     0.016 A 
ATOM     27  C   UNL A   1      39.416  24.959  28.513  1.00  0.00     0.016 A 
ATOM     28  C   UNL A   1      40.359  27.071  26.942  1.00  0.00     0.010 A 
ATOM     29  C   UNL A   1      39.032  26.231  28.796  1.00  0.00     0.010 A 
ATOM     30  C   UNL A   1      39.595  27.296  28.088  1.00  0.00    -0.014 A 
BRANCH  30  31
ATOM     31  C   UNL A   1      39.514  28.526  28.855  1.00  0.00     0.031 A 
ATOM     32  C   UNL A   1      38.616  29.635  28.542  1.00  0.00     0.074 A 
ATOM     33  C   UNL A   1      40.233  28.484  30.001  1.00  0.00     0.049 A 
ATOM     34  N   UNL A   1      38.888  30.862  28.814  1.00  0.00    -0.248 NA
ATOM     35  C   UNL A   1      37.308  29.456  27.920  1.00  0.00     0.031 C 
ATOM     36  C   UNL A   1      40.242  29.343  31.165  1.00  0.00     0.029 A 
ATOM     37  N   UNL A   1      41.247  27.577  30.274  1.00  0.00    -0.354 N 
ATOM     38  C   UNL A   1      37.700  31.556  28.765  1.00  0.00     0.074 A 
ATOM     39  C   UNL A   1      36.781  30.680  28.070  1.00  0.00     0.031 C 
ATOM     40  C   UNL A   1      41.377  29.104  31.859  1.00  0.00     0.029 A 
ATOM     41  C   UNL A   1      42.188  28.164  31.088  1.00  0.00     0.049 A 
ATOM     42  H   UNL A   1      41.287  26.653  29.936  1.00  0.00     0.167 HD
ATOM     43  C   UNL A   1      37.565  32.694  29.507  1.00  0.00     0.034 A 
ATOM     44  C   UNL A   1      43.412  28.374  30.516  1.00  0.00     0.034 A 
ATOM     45  C   UNL A   1      38.755  32.911  30.336  1.00  0.00     0.049 A 
ATOM     46  C   UNL A   1      43.631  29.853  30.309  1.00  0.00     0.074 A 
ATOM     47  C   UNL A   1      39.002  32.667  31.678  1.00  0.00     0.029 A 
ATOM     48  N   UNL A   1      39.994  33.121  29.742  1.00  0.00    -0.354 N 
ATOM     49  N   UNL A   1      42.669  30.733  30.255  1.00  0.00    -0.248 NA
ATOM     50  C   UNL A   1      44.950  30.457  30.225  1.00  0.00     0.031 C 
ATOM     51  C   UNL A   1      40.409  32.650  31.869  1.00  0.00     0.029 A 
ATOM     52  C   UNL A   1      41.015  32.913  30.652  1.00  0.00     0.049 A 
ATOM     53  H   UNL A   1      40.127  33.381  28.802  1.00  0.00     0.167 HD
ATOM     54  C   UNL A   1      43.195  31.994  30.228  1.00  0.00     0.074 A 
ATOM     55  C   UNL A   1      44.634  31.764  30.201  1.00  0.00     0.031 C 
ATOM     56  C   UNL A   1      42.404  33.111  30.260  1.00  0.00     0.034 A 
BRANCH  43  57
ATOM     57  C   UNL A   1      36.258  33.414  29.760  1.00  0.00     0.023 A 
ATOM     58  C   UNL A   1      35.915  33.787  31.078  1.00  0.00     0.031 A 
ATOM     59  C   UNL A   1      35.323  33.775  28.770  1.00  0.00     0.131 A 
ATOM     60  C   UNL A   1      34.683  34.390  31.384  1.00  0.00     0.055 A 
ATOM     61  C   UNL A   1      34.076  34.343  29.076  1.00  0.00     0.041 A 
ATOM     62  F   UNL A   1      35.597  33.637  27.465  1.00  0.00    -0.206 F 
ATOM     63  C   UNL A   1      33.744  34.644  30.390  1.00  0.00     0.022 A 
BRANCH  60  64
ATOM     64  S   UNL A   1      34.336  34.852  33.104  1.00  0.00     0.124 S 
ATOM     65  O   UNL A   1      33.222  35.783  32.955  1.00  0.00    -0.237 OA
ATOM     66  O   UNL A   1      34.023  33.564  33.715  1.00  0.00    -0.237 OA
ATOM     67  O   UNL A   1      35.590  35.457  33.553  1.00  0.00    -0.744 OA
ENDBRANCH  60  64
ENDBRANCH  43  57
BRANCH  44  68
ATOM     68  C   UNL A   1      43.828  27.257  29.581  1.00  0.00     0.023 A 
ATOM     69  C   UNL A   1      43.752  27.530  28.192  1.00  0.00     0.031 A 
ATOM     70  C   UNL A   1      44.612  26.160  29.965  1.00  0.00     0.131 A 
ATOM     71  C   UNL A   1      44.580  26.861  27.272  1.00  0.00     0.055 A 
ATOM     72  C   UNL A   1      45.359  25.424  29.025  1.00  0.00     0.041 A 
ATOM     73  F   UNL A   1      44.754  25.840  31.259  1.00  0.00    -0.206 F 
ATOM     74  C   UNL A   1      45.380  25.797  27.678  1.00  0.00     0.022 A 
BRANCH  71  75
ATOM     75  S   UNL A   1      44.818  27.640  25.641  1.00  0.00     0.124 S 
ATOM     76  O   UNL A   1      45.615  26.646  24.932  1.00  0.00    -0.237 OA
ATOM     77  O   UNL A   1      43.439  27.804  25.176  1.00  0.00    -0.237 OA
ATOM     78  O   UNL A   1      45.493  28.899  25.937  1.00  0.00    -0.744 OA
ENDBRANCH  71  75
ENDBRANCH  44  68
BRANCH  56  79
ATOM     79  C   UNL A   1      42.874  34.528  30.024  1.00  0.00     0.023 A 
ATOM     80  C   UNL A   1      42.635  35.216  28.831  1.00  0.00     0.031 A 
ATOM     81  C   UNL A   1      43.522  35.274  31.040  1.00  0.00     0.131 A 
ATOM     82  C   UNL A   1      43.115  36.518  28.634  1.00  0.00     0.055 A 
ATOM     83  C   UNL A   1      43.902  36.608  30.882  1.00  0.00     0.041 A 
ATOM     84  F   UNL A   1      43.809  34.748  32.241  1.00  0.00    -0.206 F 
ATOM     85  C   UNL A   1      43.720  37.234  29.662  1.00  0.00     0.022 A 
BRANCH  82  86
ATOM     86  S   UNL A   1      43.000  37.207  26.967  1.00  0.00     0.124 S 
ATOM     87  O   UNL A   1      41.852  38.101  27.094  1.00  0.00    -0.237 OA
ATOM     88  O   UNL A   1      44.295  37.860  26.806  1.00  0.00    -0.237 OA
ATOM     89  O   UNL A   1      42.783  36.033  26.125  1.00  0.00    -0.744 OA
ENDBRANCH  82  86
ENDBRANCH  56  79
ENDBRANCH  30  31
ENDBRANCH  23  25
ENDBRANCH  22  23
ENDBRANCH   1  22
TORSDOF 16
ENDMDL
