MODEL 1
REMARK VINA RESULT:     -11.8      0.000      0.000
REMARK SMILES N#C/C(=C/c1cccc(OC2CCCC2)c1)C(=O)OCCOC(=O)c1ccc(-c2c3nc(c(-c4cc(S(=O)(=O)[O-])ccc4F)c4ccc([nH]4)c(-c4cc(S(=O)(=O)[O-])ccc4F)c4nc(c(-c5cc(S(=O)(=O)[O-])ccc5F)c5ccc2[nH]5)C=C4)C=C3)cc1
REMARK SMILES IDX 20 1 19 2 17 3 18 4 3 5 4 6 2 7 1 8 5 9 6 10 16 11 7 12 9 13
REMARK SMILES IDX 8 14 10 15 11 16 12 17 15 18 13 19 14 20 21 21 22 22 23 23
REMARK SMILES IDX 24 24 25 25 26 26 87 27 27 28 86 29 28 30 29 31 30 32 80 33
REMARK SMILES IDX 31 34 85 35 79 36 81 37 32 38 84 39 78 40 77 41 33 43 65 44
REMARK SMILES IDX 45 45 64 46 46 47 49 48 63 49 82 50 47 51 48 52 62 54 83 55
REMARK SMILES IDX 50 56 34 57 35 58 43 59 36 60 42 61 44 62 41 63 37 64 38 65
REMARK SMILES IDX 39 66 40 67 66 68 67 69 75 70 68 71 74 72 76 73 73 74 69 75
REMARK SMILES IDX 70 76 71 77 72 78 51 79 52 80 60 81 53 82 59 83 61 84 58 85
REMARK SMILES IDX 54 86 55 87 56 88 57 89
REMARK H PARENT 81 42 49 53
REMARK Flexibility Score: inf
ROOT
ATOM      1  C   UNL A   1      31.816  27.896  27.219  1.00  0.00     0.275 C 
ENDROOT
BRANCH   1   2
ATOM      2  O   UNL A   1      32.770  27.001  26.610  1.00  0.00    -0.458 OA
BRANCH   2   3
ATOM      3  C   UNL A   1      32.340  25.747  26.318  1.00  0.00     0.349 C 
ATOM      4  O   UNL A   1      31.543  25.088  26.967  1.00  0.00    -0.245 OA
BRANCH   3   5
ATOM      5  C   UNL A   1      32.967  25.248  25.074  1.00  0.00     0.137 C 
ATOM      6  C   UNL A   1      32.420  25.447  23.858  1.00  0.00     0.035 C 
BRANCH   5   7
ATOM      7  C   UNL A   1      34.364  24.663  25.196  1.00  0.00     0.107 C 
ATOM      8  N   UNL A   1      35.523  24.177  25.297  1.00  0.00    -0.192 NA
ENDBRANCH   5   7
BRANCH   6   9
ATOM      9  C   UNL A   1      31.166  26.177  23.611  1.00  0.00    -0.020 A 
ATOM     10  C   UNL A   1      29.974  25.721  24.176  1.00  0.00     0.008 A 
ATOM     11  C   UNL A   1      31.153  27.337  22.814  1.00  0.00     0.054 A 
ATOM     12  C   UNL A   1      28.797  26.443  23.987  1.00  0.00     0.004 A 
ATOM     13  C   UNL A   1      29.994  28.093  22.665  1.00  0.00     0.120 A 
ATOM     14  C   UNL A   1      28.813  27.627  23.246  1.00  0.00     0.046 A 
BRANCH  13  15
ATOM     15  O   UNL A   1      29.872  29.274  21.994  1.00  0.00    -0.490 OA
BRANCH  15  16
ATOM     16  C   UNL A   1      28.848  30.227  22.268  1.00  0.00     0.173 C 
ATOM     17  C   UNL A   1      29.141  31.286  23.329  1.00  0.00     0.045 C 
ATOM     18  C   UNL A   1      28.271  30.959  21.052  1.00  0.00     0.045 C 
ATOM     19  C   UNL A   1      28.128  32.378  23.025  1.00  0.00     0.004 C 
ATOM     20  C   UNL A   1      28.068  32.407  21.502  1.00  0.00     0.004 C 
ENDBRANCH  15  16
ENDBRANCH  13  15
ENDBRANCH   6   9
ENDBRANCH   3   5
ENDBRANCH   2   3
ENDBRANCH   1   2
BRANCH   1  21
ATOM     21  C   UNL A   1      31.651  29.165  26.388  1.00  0.00     0.275 C 
BRANCH  21  22
ATOM     22  O   UNL A   1      32.940  29.754  26.154  1.00  0.00    -0.458 OA
BRANCH  22  23
ATOM     23  C   UNL A   1      33.236  30.798  26.953  1.00  0.00     0.338 C 
ATOM     24  O   UNL A   1      32.453  31.618  27.423  1.00  0.00    -0.246 OA
BRANCH  23  25
ATOM     25  C   UNL A   1      34.638  30.716  27.360  1.00  0.00     0.060 A 
ATOM     26  C   UNL A   1      35.187  29.445  27.479  1.00  0.00     0.016 A 
ATOM     27  C   UNL A   1      35.349  31.829  27.792  1.00  0.00     0.016 A 
ATOM     28  C   UNL A   1      36.384  29.251  28.148  1.00  0.00     0.010 A 
ATOM     29  C   UNL A   1      36.607  31.643  28.378  1.00  0.00     0.010 A 
ATOM     30  C   UNL A   1      37.111  30.346  28.610  1.00  0.00    -0.014 A 
BRANCH  30  31
ATOM     31  C   UNL A   1      38.325  30.127  29.440  1.00  0.00     0.031 A 
ATOM     32  C   UNL A   1      39.453  29.310  28.870  1.00  0.00     0.074 A 
ATOM     33  C   UNL A   1      38.456  30.695  30.655  1.00  0.00     0.049 A 
ATOM     34  N   UNL A   1      40.464  28.750  29.478  1.00  0.00    -0.248 NA
ATOM     35  C   UNL A   1      39.419  29.074  27.417  1.00  0.00     0.031 C 
ATOM     36  C   UNL A   1      37.500  31.618  31.272  1.00  0.00     0.029 A 
ATOM     37  N   UNL A   1      39.457  30.589  31.588  1.00  0.00    -0.354 N 
ATOM     38  C   UNL A   1      41.134  28.019  28.501  1.00  0.00     0.074 A 
ATOM     39  C   UNL A   1      40.421  28.224  27.258  1.00  0.00     0.031 C 
ATOM     40  C   UNL A   1      37.980  32.023  32.458  1.00  0.00     0.029 A 
ATOM     41  C   UNL A   1      39.212  31.298  32.742  1.00  0.00     0.049 A 
ATOM     42  H   UNL A   1      40.273  30.057  31.447  1.00  0.00     0.167 HD
ATOM     43  C   UNL A   1      42.231  27.237  28.648  1.00  0.00     0.034 A 
ATOM     44  C   UNL A   1      39.869  31.311  33.918  1.00  0.00     0.034 A 
ATOM     45  C   UNL A   1      42.959  27.123  29.888  1.00  0.00     0.049 A 
ATOM     46  C   UNL A   1      41.062  30.403  34.075  1.00  0.00     0.074 A 
ATOM     47  C   UNL A   1      44.078  26.361  30.170  1.00  0.00     0.029 A 
ATOM     48  N   UNL A   1      42.648  27.818  31.052  1.00  0.00    -0.354 N 
ATOM     49  N   UNL A   1      41.609  29.598  33.192  1.00  0.00    -0.248 NA
ATOM     50  C   UNL A   1      41.706  30.381  35.393  1.00  0.00     0.031 C 
ATOM     51  C   UNL A   1      44.414  26.557  31.516  1.00  0.00     0.029 A 
ATOM     52  C   UNL A   1      43.543  27.488  32.057  1.00  0.00     0.049 A 
ATOM     53  H   UNL A   1      41.901  28.452  31.148  1.00  0.00     0.167 HD
ATOM     54  C   UNL A   1      42.667  28.980  33.848  1.00  0.00     0.074 A 
ATOM     55  C   UNL A   1      42.696  29.524  35.192  1.00  0.00     0.031 C 
ATOM     56  C   UNL A   1      43.536  28.042  33.391  1.00  0.00     0.034 A 
BRANCH  43  57
ATOM     57  C   UNL A   1      42.638  26.381  27.474  1.00  0.00     0.023 A 
ATOM     58  C   UNL A   1      42.195  25.058  27.304  1.00  0.00     0.031 A 
ATOM     59  C   UNL A   1      43.535  26.902  26.521  1.00  0.00     0.131 A 
ATOM     60  C   UNL A   1      42.701  24.282  26.247  1.00  0.00     0.055 A 
ATOM     61  C   UNL A   1      43.976  26.150  25.431  1.00  0.00     0.041 A 
ATOM     62  F   UNL A   1      44.014  28.150  26.644  1.00  0.00    -0.206 F 
ATOM     63  C   UNL A   1      43.569  24.825  25.297  1.00  0.00     0.022 A 
BRANCH  60  64
ATOM     64  S   UNL A   1      42.311  22.511  26.200  1.00  0.00     0.124 S 
ATOM     65  O   UNL A   1      40.850  22.530  26.177  1.00  0.00    -0.237 OA
ATOM     66  O   UNL A   1      42.965  22.074  24.973  1.00  0.00    -0.237 OA
ATOM     67  O   UNL A   1      42.899  21.997  27.436  1.00  0.00    -0.744 OA
ENDBRANCH  60  64
ENDBRANCH  43  57
BRANCH  44  68
ATOM     68  C   UNL A   1      39.365  32.123  35.066  1.00  0.00     0.023 A 
ATOM     69  C   UNL A   1      39.833  33.426  35.295  1.00  0.00     0.031 A 
ATOM     70  C   UNL A   1      38.438  31.587  35.979  1.00  0.00     0.131 A 
ATOM     71  C   UNL A   1      39.399  34.137  36.426  1.00  0.00     0.055 A 
ATOM     72  C   UNL A   1      37.964  32.319  37.069  1.00  0.00     0.041 A 
ATOM     73  F   UNL A   1      37.964  30.342  35.817  1.00  0.00    -0.206 F 
ATOM     74  C   UNL A   1      38.455  33.598  37.304  1.00  0.00     0.022 A 
BRANCH  71  75
ATOM     75  S   UNL A   1      40.151  35.747  36.788  1.00  0.00     0.124 S 
ATOM     76  O   UNL A   1      39.611  36.040  38.111  1.00  0.00    -0.237 OA
ATOM     77  O   UNL A   1      41.575  35.437  36.729  1.00  0.00    -0.237 OA
ATOM     78  O   UNL A   1      39.657  36.604  35.711  1.00  0.00    -0.744 OA
ENDBRANCH  71  75
ENDBRANCH  44  68
BRANCH  56  79
ATOM     79  C   UNL A   1      44.603  27.591  34.352  1.00  0.00     0.023 A 
ATOM     80  C   UNL A   1      44.442  26.441  35.142  1.00  0.00     0.031 A 
ATOM     81  C   UNL A   1      45.782  28.341  34.497  1.00  0.00     0.131 A 
ATOM     82  C   UNL A   1      45.422  26.101  36.084  1.00  0.00     0.055 A 
ATOM     83  C   UNL A   1      46.779  27.969  35.399  1.00  0.00     0.041 A 
ATOM     84  F   UNL A   1      45.983  29.449  33.765  1.00  0.00    -0.206 F 
ATOM     85  C   UNL A   1      46.596  26.851  36.208  1.00  0.00     0.022 A 
BRANCH  82  86
ATOM     86  S   UNL A   1      45.106  24.713  37.207  1.00  0.00     0.124 S 
ATOM     87  O   UNL A   1      44.167  25.300  38.159  1.00  0.00    -0.237 OA
ATOM     88  O   UNL A   1      44.556  23.702  36.310  1.00  0.00    -0.237 OA
ATOM     89  O   UNL A   1      46.428  24.404  37.751  1.00  0.00    -0.744 OA
ENDBRANCH  82  86
ENDBRANCH  56  79
ENDBRANCH  30  31
ENDBRANCH  23  25
ENDBRANCH  22  23
ENDBRANCH  21  22
ENDBRANCH   1  21
TORSDOF 18
ENDMDL
MODEL 2
REMARK VINA RESULT:     -11.7      2.028      3.713
REMARK SMILES N#C/C(=C/c1cccc(OC2CCCC2)c1)C(=O)OCCOC(=O)c1ccc(-c2c3nc(c(-c4cc(S(=O)(=O)[O-])ccc4F)c4ccc([nH]4)c(-c4cc(S(=O)(=O)[O-])ccc4F)c4nc(c(-c5cc(S(=O)(=O)[O-])ccc5F)c5ccc2[nH]5)C=C4)C=C3)cc1
REMARK SMILES IDX 20 1 19 2 17 3 18 4 3 5 4 6 2 7 1 8 5 9 6 10 16 11 7 12 9 13
REMARK SMILES IDX 8 14 10 15 11 16 12 17 15 18 13 19 14 20 21 21 22 22 23 23
REMARK SMILES IDX 24 24 25 25 26 26 87 27 27 28 86 29 28 30 29 31 30 32 80 33
REMARK SMILES IDX 31 34 85 35 79 36 81 37 32 38 84 39 78 40 77 41 33 43 65 44
REMARK SMILES IDX 45 45 64 46 46 47 49 48 63 49 82 50 47 51 48 52 62 54 83 55
REMARK SMILES IDX 50 56 34 57 35 58 43 59 36 60 42 61 44 62 41 63 37 64 38 65
REMARK SMILES IDX 39 66 40 67 66 68 67 69 75 70 68 71 74 72 76 73 73 74 69 75
REMARK SMILES IDX 70 76 71 77 72 78 51 79 52 80 60 81 53 82 59 83 61 84 58 85
REMARK SMILES IDX 54 86 55 87 56 88 57 89
REMARK H PARENT 81 42 49 53
REMARK Flexibility Score: inf
ROOT
ATOM      1  C   UNL A   1      31.402  30.155  25.336  1.00  0.00     0.275 C 
ENDROOT
BRANCH   1   2
ATOM      2  O   UNL A   1      31.371  28.765  24.951  1.00  0.00    -0.458 OA
BRANCH   2   3
ATOM      3  C   UNL A   1      31.160  28.492  23.638  1.00  0.00     0.349 C 
ATOM      4  O   UNL A   1      32.009  28.463  22.761  1.00  0.00    -0.245 OA
BRANCH   3   5
ATOM      5  C   UNL A   1      29.728  28.219  23.378  1.00  0.00     0.137 C 
ATOM      6  C   UNL A   1      29.161  27.023  23.636  1.00  0.00     0.035 C 
BRANCH   5   7
ATOM      7  C   UNL A   1      28.863  29.405  22.983  1.00  0.00     0.107 C 
ATOM      8  N   UNL A   1      28.146  30.389  22.655  1.00  0.00    -0.192 NA
ENDBRANCH   5   7
BRANCH   6   9
ATOM      9  C   UNL A   1      29.868  25.865  24.207  1.00  0.00    -0.020 A 
ATOM     10  C   UNL A   1      29.954  25.719  25.592  1.00  0.00     0.008 A 
ATOM     11  C   UNL A   1      30.454  24.896  23.372  1.00  0.00     0.054 A 
ATOM     12  C   UNL A   1      30.576  24.595  26.133  1.00  0.00     0.004 A 
ATOM     13  C   UNL A   1      31.028  23.744  23.902  1.00  0.00     0.120 A 
ATOM     14  C   UNL A   1      31.097  23.610  25.290  1.00  0.00     0.046 A 
BRANCH  13  15
ATOM     15  O   UNL A   1      31.549  22.697  23.202  1.00  0.00    -0.490 OA
BRANCH  15  16
ATOM     16  C   UNL A   1      32.949  22.467  23.064  1.00  0.00     0.173 C 
ATOM     17  C   UNL A   1      33.859  23.694  23.003  1.00  0.00     0.045 C 
ATOM     18  C   UNL A   1      33.573  21.497  24.073  1.00  0.00     0.045 C 
ATOM     19  C   UNL A   1      35.227  23.134  23.359  1.00  0.00     0.004 C 
ATOM     20  C   UNL A   1      34.930  22.100  24.439  1.00  0.00     0.004 C 
ENDBRANCH  15  16
ENDBRANCH  13  15
ENDBRANCH   6   9
ENDBRANCH   3   5
ENDBRANCH   2   3
ENDBRANCH   1   2
BRANCH   1  21
ATOM     21  C   UNL A   1      31.727  30.304  26.819  1.00  0.00     0.275 C 
BRANCH  21  22
ATOM     22  O   UNL A   1      33.148  30.204  27.008  1.00  0.00    -0.458 OA
BRANCH  22  23
ATOM     23  C   UNL A   1      33.737  31.334  27.449  1.00  0.00     0.338 C 
ATOM     24  O   UNL A   1      33.193  32.402  27.710  1.00  0.00    -0.246 OA
BRANCH  23  25
ATOM     25  C   UNL A   1      35.137  31.058  27.770  1.00  0.00     0.060 A 
ATOM     26  C   UNL A   1      35.479  29.732  28.012  1.00  0.00     0.016 A 
ATOM     27  C   UNL A   1      36.055  32.073  28.009  1.00  0.00     0.016 A 
ATOM     28  C   UNL A   1      36.681  29.412  28.621  1.00  0.00     0.010 A 
ATOM     29  C   UNL A   1      37.312  31.740  28.529  1.00  0.00     0.010 A 
ATOM     30  C   UNL A   1      37.615  30.410  28.890  1.00  0.00    -0.014 A 
BRANCH  30  31
ATOM     31  C   UNL A   1      38.843  30.080  29.660  1.00  0.00     0.031 A 
ATOM     32  C   UNL A   1      39.862  29.165  29.038  1.00  0.00     0.074 A 
ATOM     33  C   UNL A   1      39.086  30.634  30.865  1.00  0.00     0.049 A 
ATOM     34  N   UNL A   1      40.847  28.514  29.598  1.00  0.00    -0.248 NA
ATOM     35  C   UNL A   1      39.734  28.933  27.590  1.00  0.00     0.031 C 
ATOM     36  C   UNL A   1      38.251  31.640  31.525  1.00  0.00     0.029 A 
ATOM     37  N   UNL A   1      40.118  30.437  31.748  1.00  0.00    -0.354 N 
ATOM     38  C   UNL A   1      41.398  27.726  28.591  1.00  0.00     0.074 A 
ATOM     39  C   UNL A   1      40.646  27.995  27.385  1.00  0.00     0.031 C 
ATOM     40  C   UNL A   1      38.824  31.999  32.684  1.00  0.00     0.029 A 
ATOM     41  C   UNL A   1      39.997  31.165  32.909  1.00  0.00     0.049 A 
ATOM     42  H   UNL A   1      40.874  29.832  31.568  1.00  0.00     0.167 HD
ATOM     43  C   UNL A   1      42.425  26.846  28.687  1.00  0.00     0.034 A 
ATOM     44  C   UNL A   1      40.711  31.117  34.051  1.00  0.00     0.034 A 
ATOM     45  C   UNL A   1      43.200  26.666  29.890  1.00  0.00     0.049 A 
ATOM     46  C   UNL A   1      41.821  30.103  34.152  1.00  0.00     0.074 A 
ATOM     47  C   UNL A   1      44.257  25.805  30.119  1.00  0.00     0.029 A 
ATOM     48  N   UNL A   1      43.012  27.385  31.065  1.00  0.00    -0.354 N 
ATOM     49  N   UNL A   1      42.248  29.252  33.247  1.00  0.00    -0.248 NA
ATOM     50  C   UNL A   1      42.526  30.022  35.437  1.00  0.00     0.031 C 
ATOM     51  C   UNL A   1      44.677  25.968  31.445  1.00  0.00     0.029 A 
ATOM     52  C   UNL A   1      43.922  26.975  32.026  1.00  0.00     0.049 A 
ATOM     53  H   UNL A   1      42.332  28.085  31.196  1.00  0.00     0.167 HD
ATOM     54  C   UNL A   1      43.277  28.539  33.852  1.00  0.00     0.074 A 
ATOM     55  C   UNL A   1      43.422  29.078  35.190  1.00  0.00     0.031 C 
ATOM     56  C   UNL A   1      44.032  27.526  33.356  1.00  0.00     0.034 A 
BRANCH  43  57
ATOM     57  C   UNL A   1      42.692  25.957  27.498  1.00  0.00     0.023 A 
ATOM     58  C   UNL A   1      42.153  24.666  27.373  1.00  0.00     0.031 A 
ATOM     59  C   UNL A   1      43.555  26.410  26.480  1.00  0.00     0.131 A 
ATOM     60  C   UNL A   1      42.532  23.851  26.293  1.00  0.00     0.055 A 
ATOM     61  C   UNL A   1      43.869  25.623  25.371  1.00  0.00     0.041 A 
ATOM     62  F   UNL A   1      44.122  27.625  26.556  1.00  0.00    -0.206 F 
ATOM     63  C   UNL A   1      43.367  24.328  25.280  1.00  0.00     0.022 A 
BRANCH  60  64
ATOM     64  S   UNL A   1      42.024  22.109  26.293  1.00  0.00     0.124 S 
ATOM     65  O   UNL A   1      42.505  21.660  27.598  1.00  0.00    -0.237 OA
ATOM     66  O   UNL A   1      40.578  22.200  26.141  1.00  0.00    -0.237 OA
ATOM     67  O   UNL A   1      42.736  21.544  25.148  1.00  0.00    -0.744 OA
ENDBRANCH  60  64
ENDBRANCH  43  57
BRANCH  44  68
ATOM     68  C   UNL A   1      40.341  31.970  35.219  1.00  0.00     0.023 A 
ATOM     69  C   UNL A   1      39.361  31.562  36.138  1.00  0.00     0.031 A 
ATOM     70  C   UNL A   1      40.934  33.233  35.409  1.00  0.00     0.131 A 
ATOM     71  C   UNL A   1      38.979  32.419  37.182  1.00  0.00     0.055 A 
ATOM     72  C   UNL A   1      40.593  34.057  36.483  1.00  0.00     0.041 A 
ATOM     73  F   UNL A   1      41.869  33.682  34.557  1.00  0.00    -0.206 F 
ATOM     74  C   UNL A   1      39.601  33.656  37.371  1.00  0.00     0.022 A 
BRANCH  71  75
ATOM     75  S   UNL A   1      37.592  31.936  38.246  1.00  0.00     0.124 S 
ATOM     76  O   UNL A   1      36.590  32.939  37.905  1.00  0.00    -0.237 OA
ATOM     77  O   UNL A   1      37.320  30.576  37.793  1.00  0.00    -0.237 OA
ATOM     78  O   UNL A   1      38.144  32.041  39.596  1.00  0.00    -0.744 OA
ENDBRANCH  71  75
ENDBRANCH  44  68
BRANCH  56  79
ATOM     79  C   UNL A   1      45.101  26.979  34.265  1.00  0.00     0.023 A 
ATOM     80  C   UNL A   1      44.867  25.862  35.084  1.00  0.00     0.031 A 
ATOM     81  C   UNL A   1      46.357  27.604  34.329  1.00  0.00     0.131 A 
ATOM     82  C   UNL A   1      45.859  25.434  35.976  1.00  0.00     0.055 A 
ATOM     83  C   UNL A   1      47.360  27.142  35.182  1.00  0.00     0.041 A 
ATOM     84  F   UNL A   1      46.629  28.675  33.567  1.00  0.00    -0.206 F 
ATOM     85  C   UNL A   1      47.109  26.059  36.021  1.00  0.00     0.022 A 
BRANCH  82  86
ATOM     86  S   UNL A   1      45.466  24.102  37.141  1.00  0.00     0.124 S 
ATOM     87  O   UNL A   1      46.779  23.786  37.695  1.00  0.00    -0.237 OA
ATOM     88  O   UNL A   1      44.528  24.748  38.053  1.00  0.00    -0.237 OA
ATOM     89  O   UNL A   1      44.886  23.063  36.292  1.00  0.00    -0.744 OA
ENDBRANCH  82  86
ENDBRANCH  56  79
ENDBRANCH  30  31
ENDBRANCH  23  25
ENDBRANCH  22  23
ENDBRANCH  21  22
ENDBRANCH   1  21
TORSDOF 18
ENDMDL
MODEL 3
REMARK VINA RESULT:     -11.4      1.987      3.848
REMARK SMILES N#C/C(=C/c1cccc(OC2CCCC2)c1)C(=O)OCCOC(=O)c1ccc(-c2c3nc(c(-c4cc(S(=O)(=O)[O-])ccc4F)c4ccc([nH]4)c(-c4cc(S(=O)(=O)[O-])ccc4F)c4nc(c(-c5cc(S(=O)(=O)[O-])ccc5F)c5ccc2[nH]5)C=C4)C=C3)cc1
REMARK SMILES IDX 20 1 19 2 17 3 18 4 3 5 4 6 2 7 1 8 5 9 6 10 16 11 7 12 9 13
REMARK SMILES IDX 8 14 10 15 11 16 12 17 15 18 13 19 14 20 21 21 22 22 23 23
REMARK SMILES IDX 24 24 25 25 26 26 87 27 27 28 86 29 28 30 29 31 30 32 80 33
REMARK SMILES IDX 31 34 85 35 79 36 81 37 32 38 84 39 78 40 77 41 33 43 65 44
REMARK SMILES IDX 45 45 64 46 46 47 49 48 63 49 82 50 47 51 48 52 62 54 83 55
REMARK SMILES IDX 50 56 34 57 35 58 43 59 36 60 42 61 44 62 41 63 37 64 38 65
REMARK SMILES IDX 39 66 40 67 66 68 67 69 75 70 68 71 74 72 76 73 73 74 69 75
REMARK SMILES IDX 70 76 71 77 72 78 51 79 52 80 60 81 53 82 59 83 61 84 58 85
REMARK SMILES IDX 54 86 55 87 56 88 57 89
REMARK H PARENT 81 42 49 53
REMARK Flexibility Score: inf
ROOT
ATOM      1  C   UNL A   1      31.981  28.046  26.275  1.00  0.00     0.275 C 
ENDROOT
BRANCH   1   2
ATOM      2  O   UNL A   1      31.331  27.813  25.008  1.00  0.00    -0.458 OA
BRANCH   2   3
ATOM      3  C   UNL A   1      32.110  27.856  23.897  1.00  0.00     0.349 C 
ATOM      4  O   UNL A   1      33.313  28.064  23.867  1.00  0.00    -0.245 OA
BRANCH   3   5
ATOM      5  C   UNL A   1      31.308  27.609  22.678  1.00  0.00     0.137 C 
ATOM      6  C   UNL A   1      31.180  26.383  22.133  1.00  0.00     0.035 C 
BRANCH   5   7
ATOM      7  C   UNL A   1      30.467  28.765  22.163  1.00  0.00     0.107 C 
ATOM      8  N   UNL A   1      29.769  29.725  21.736  1.00  0.00    -0.192 NA
ENDBRANCH   5   7
BRANCH   6   9
ATOM      9  C   UNL A   1      31.793  25.157  22.669  1.00  0.00    -0.020 A 
ATOM     10  C   UNL A   1      31.013  24.245  23.381  1.00  0.00     0.008 A 
ATOM     11  C   UNL A   1      33.160  24.888  22.469  1.00  0.00     0.054 A 
ATOM     12  C   UNL A   1      31.582  23.058  23.842  1.00  0.00     0.004 A 
ATOM     13  C   UNL A   1      33.723  23.683  22.878  1.00  0.00     0.120 A 
ATOM     14  C   UNL A   1      32.925  22.777  23.580  1.00  0.00     0.046 A 
BRANCH  13  15
ATOM     15  O   UNL A   1      35.005  23.269  22.668  1.00  0.00    -0.490 OA
BRANCH  15  16
ATOM     16  C   UNL A   1      36.000  23.256  23.689  1.00  0.00     0.173 C 
ATOM     17  C   UNL A   1      35.747  24.115  24.927  1.00  0.00     0.045 C 
ATOM     18  C   UNL A   1      36.432  21.872  24.186  1.00  0.00     0.045 C 
ATOM     19  C   UNL A   1      36.674  23.511  25.969  1.00  0.00     0.004 C 
ATOM     20  C   UNL A   1      36.601  22.013  25.699  1.00  0.00     0.004 C 
ENDBRANCH  15  16
ENDBRANCH  13  15
ENDBRANCH   6   9
ENDBRANCH   3   5
ENDBRANCH   2   3
ENDBRANCH   1   2
BRANCH   1  21
ATOM     21  C   UNL A   1      31.812  29.497  26.716  1.00  0.00     0.275 C 
BRANCH  21  22
ATOM     22  O   UNL A   1      32.936  30.268  26.261  1.00  0.00    -0.458 OA
BRANCH  22  23
ATOM     23  C   UNL A   1      33.325  31.247  27.102  1.00  0.00     0.338 C 
ATOM     24  O   UNL A   1      32.617  32.106  27.620  1.00  0.00    -0.246 OA
BRANCH  23  25
ATOM     25  C   UNL A   1      34.720  31.032  27.486  1.00  0.00     0.060 A 
ATOM     26  C   UNL A   1      35.111  29.721  27.733  1.00  0.00     0.016 A 
ATOM     27  C   UNL A   1      35.578  32.086  27.775  1.00  0.00     0.016 A 
ATOM     28  C   UNL A   1      36.298  29.450  28.394  1.00  0.00     0.010 A 
ATOM     29  C   UNL A   1      36.824  31.805  28.350  1.00  0.00     0.010 A 
ATOM     30  C   UNL A   1      37.171  30.487  28.714  1.00  0.00    -0.014 A 
BRANCH  30  31
ATOM     31  C   UNL A   1      38.377  30.206  29.537  1.00  0.00     0.031 A 
ATOM     32  C   UNL A   1      39.464  29.344  28.956  1.00  0.00     0.074 A 
ATOM     33  C   UNL A   1      38.539  30.758  30.756  1.00  0.00     0.049 A 
ATOM     34  N   UNL A   1      40.451  28.733  29.555  1.00  0.00    -0.248 NA
ATOM     35  C   UNL A   1      39.413  29.121  27.501  1.00  0.00     0.031 C 
ATOM     36  C   UNL A   1      37.629  31.719  31.385  1.00  0.00     0.029 A 
ATOM     37  N   UNL A   1      39.538  30.600  31.684  1.00  0.00    -0.354 N 
ATOM     38  C   UNL A   1      41.083  27.980  28.569  1.00  0.00     0.074 A 
ATOM     39  C   UNL A   1      40.375  28.227  27.331  1.00  0.00     0.031 C 
ATOM     40  C   UNL A   1      38.132  32.092  32.572  1.00  0.00     0.029 A 
ATOM     41  C   UNL A   1      39.331  31.310  32.844  1.00  0.00     0.049 A 
ATOM     42  H   UNL A   1      40.328  30.031  31.534  1.00  0.00     0.167 HD
ATOM     43  C   UNL A   1      42.144  27.147  28.704  1.00  0.00     0.034 A 
ATOM     44  C   UNL A   1      39.993  31.283  34.017  1.00  0.00     0.034 A 
ATOM     45  C   UNL A   1      42.871  26.991  29.941  1.00  0.00     0.049 A 
ATOM     46  C   UNL A   1      41.143  30.321  34.161  1.00  0.00     0.074 A 
ATOM     47  C   UNL A   1      43.955  26.177  30.212  1.00  0.00     0.029 A 
ATOM     48  N   UNL A   1      42.597  27.690  31.111  1.00  0.00    -0.354 N 
ATOM     49  N   UNL A   1      41.649  29.498  33.269  1.00  0.00    -0.248 NA
ATOM     50  C   UNL A   1      41.791  30.259  35.476  1.00  0.00     0.031 C 
ATOM     51  C   UNL A   1      44.305  26.346  31.557  1.00  0.00     0.029 A 
ATOM     52  C   UNL A   1      43.480  27.312  32.110  1.00  0.00     0.049 A 
ATOM     53  H   UNL A   1      41.880  28.356  31.216  1.00  0.00     0.167 HD
ATOM     54  C   UNL A   1      42.681  28.827  33.916  1.00  0.00     0.074 A 
ATOM     55  C   UNL A   1      42.741  29.359  35.264  1.00  0.00     0.031 C 
ATOM     56  C   UNL A   1      43.504  27.854  33.447  1.00  0.00     0.034 A 
BRANCH  43  57
ATOM     57  C   UNL A   1      42.506  26.283  27.522  1.00  0.00     0.023 A 
ATOM     58  C   UNL A   1      42.053  24.961  27.376  1.00  0.00     0.031 A 
ATOM     59  C   UNL A   1      43.371  26.795  26.535  1.00  0.00     0.131 A 
ATOM     60  C   UNL A   1      42.518  24.177  26.307  1.00  0.00     0.055 A 
ATOM     61  C   UNL A   1      43.770  26.035  25.435  1.00  0.00     0.041 A 
ATOM     62  F   UNL A   1      43.857  28.043  26.634  1.00  0.00    -0.206 F 
ATOM     63  C   UNL A   1      43.354  24.712  25.323  1.00  0.00     0.022 A 
BRANCH  60  64
ATOM     64  S   UNL A   1      42.121  22.407  26.284  1.00  0.00     0.124 S 
ATOM     65  O   UNL A   1      42.630  21.973  27.584  1.00  0.00    -0.237 OA
ATOM     66  O   UNL A   1      40.672  22.409  26.131  1.00  0.00    -0.237 OA
ATOM     67  O   UNL A   1      42.868  21.902  25.133  1.00  0.00    -0.744 OA
ENDBRANCH  60  64
ENDBRANCH  43  57
BRANCH  44  68
ATOM     68  C   UNL A   1      39.532  32.108  35.173  1.00  0.00     0.023 A 
ATOM     69  C   UNL A   1      40.033  33.401  35.390  1.00  0.00     0.031 A 
ATOM     70  C   UNL A   1      38.611  31.595  36.107  1.00  0.00     0.131 A 
ATOM     71  C   UNL A   1      39.638  34.123  36.529  1.00  0.00     0.055 A 
ATOM     72  C   UNL A   1      38.177  32.339  37.205  1.00  0.00     0.041 A 
ATOM     73  F   UNL A   1      38.106  30.360  35.957  1.00  0.00    -0.206 F 
ATOM     74  C   UNL A   1      38.701  33.607  37.427  1.00  0.00     0.022 A 
BRANCH  71  75
ATOM     75  S   UNL A   1      40.435  35.717  36.871  1.00  0.00     0.124 S 
ATOM     76  O   UNL A   1      39.694  36.616  35.992  1.00  0.00    -0.237 OA
ATOM     77  O   UNL A   1      40.196  35.875  38.301  1.00  0.00    -0.237 OA
ATOM     78  O   UNL A   1      41.829  35.488  36.495  1.00  0.00    -0.744 OA
ENDBRANCH  71  75
ENDBRANCH  44  68
BRANCH  56  79
ATOM     79  C   UNL A   1      44.554  27.348  34.400  1.00  0.00     0.023 A 
ATOM     80  C   UNL A   1      45.820  27.952  34.485  1.00  0.00     0.031 A 
ATOM     81  C   UNL A   1      44.290  26.231  35.210  1.00  0.00     0.131 A 
ATOM     82  C   UNL A   1      46.798  27.400  35.324  1.00  0.00     0.055 A 
ATOM     83  C   UNL A   1      45.251  25.718  36.082  1.00  0.00     0.041 A 
ATOM     84  F   UNL A   1      43.096  25.619  35.164  1.00  0.00    -0.206 F 
ATOM     85  C   UNL A   1      46.517  26.295  36.133  1.00  0.00     0.022 A 
BRANCH  82  86
ATOM     86  S   UNL A   1      48.472  28.094  35.283  1.00  0.00     0.124 S 
ATOM     87  O   UNL A   1      49.261  26.958  34.817  1.00  0.00    -0.237 OA
ATOM     88  O   UNL A   1      48.331  29.201  34.342  1.00  0.00    -0.237 OA
ATOM     89  O   UNL A   1      48.715  28.489  36.670  1.00  0.00    -0.744 OA
ENDBRANCH  82  86
ENDBRANCH  56  79
ENDBRANCH  30  31
ENDBRANCH  23  25
ENDBRANCH  22  23
ENDBRANCH  21  22
ENDBRANCH   1  21
TORSDOF 18
ENDMDL
