MODEL 1
REMARK VINA RESULT:     -12.7      0.000      0.000
REMARK SMILES Cn1c(=O)c(=O)n(C)c2cc(S(=O)(=O)N3CCC[C@H]3C(=O)OCCOC(=O)c3ccc(-c4c5nc(c(-c6cc(S(=O)(=O)[O-])ccc6F)c6ccc([nH]6)c(-c6cc(S(=O)(=O)[O-])ccc6F)c6nc(c(-c7cc(S(=O)(=O)[O-])ccc7F)c7ccc4[nH]7)C=C6)C=C5)cc3)ccc21
REMARK SMILES IDX 24 1 23 2 22 3 20 4 21 5 19 6 15 7 16 8 17 9 18 10 12 11
REMARK SMILES IDX 13 12 14 13 11 14 1 15 2 16 3 17 93 18 4 19 5 20 9 21 92 22
REMARK SMILES IDX 6 23 7 24 10 25 91 26 8 27 25 28 26 29 27 30 28 31 29 32
REMARK SMILES IDX 90 33 30 34 89 35 31 36 32 37 33 38 83 39 34 40 88 41 82 42
REMARK SMILES IDX 84 43 35 44 87 45 81 46 80 47 36 49 68 50 48 51 67 52 49 53
REMARK SMILES IDX 52 54 66 55 85 56 50 57 51 58 65 60 86 61 53 62 37 63 38 64
REMARK SMILES IDX 46 65 39 66 45 67 47 68 44 69 40 70 41 71 42 72 43 73 69 74
REMARK SMILES IDX 70 75 78 76 71 77 77 78 79 79 76 80 72 81 73 82 74 83 75 84
REMARK SMILES IDX 54 85 55 86 63 87 56 88 62 89 64 90 61 91 57 92 58 93 59 94
REMARK SMILES IDX 60 95
REMARK H PARENT 84 48 52 59
REMARK Flexibility Score: inf
ROOT
ATOM      1  C   UNL A   1      37.278  21.198  24.642  1.00  0.00     0.275 C 
ENDROOT
BRANCH   1   2
ATOM      2  C   UNL A   1      36.077  20.338  25.049  1.00  0.00     0.274 C 
BRANCH   2   3
ATOM      3  O   UNL A   1      34.854  21.074  24.875  1.00  0.00    -0.461 OA
BRANCH   3   4
ATOM      4  C   UNL A   1      34.307  21.624  25.999  1.00  0.00     0.324 C 
ATOM      5  O   UNL A   1      34.546  21.220  27.129  1.00  0.00    -0.250 OA
BRANCH   4   6
ATOM      6  C   UNL A   1      33.319  22.736  25.650  1.00  0.00     0.183 C 
ATOM      7  N   UNL A   1      33.161  23.026  24.196  1.00  0.00    -0.184 NA
ATOM      8  C   UNL A   1      31.791  22.725  23.741  1.00  0.00     0.103 C 
ATOM      9  C   UNL A   1      30.947  22.850  24.990  1.00  0.00     0.019 C 
ATOM     10  C   UNL A   1      31.877  22.462  26.130  1.00  0.00     0.034 C 
BRANCH   7  11
ATOM     11  S   UNL A   1      34.047  24.239  23.432  1.00  0.00     0.243 S 
ATOM     12  O   UNL A   1      33.611  24.287  22.053  1.00  0.00    -0.207 OA
ATOM     13  O   UNL A   1      35.434  24.081  23.793  1.00  0.00    -0.207 OA
BRANCH  11  14
ATOM     14  C   UNL A   1      33.527  25.776  24.171  1.00  0.00     0.084 A 
ATOM     15  C   UNL A   1      33.157  29.978  27.012  1.00  0.00     0.154 C 
ATOM     16  N   UNL A   1      32.416  29.480  25.861  1.00  0.00    -0.305 N 
ATOM     17  C   UNL A   1      31.367  30.245  25.369  1.00  0.00     0.316 A 
ATOM     18  C   UNL A   1      32.760  28.236  25.281  1.00  0.00     0.068 A 
ATOM     19  O   UNL A   1      31.042  31.328  25.850  1.00  0.00    -0.263 OA
ATOM     20  C   UNL A   1      30.591  29.702  24.159  1.00  0.00     0.316 A 
ATOM     21  C   UNL A   1      32.033  27.706  24.197  1.00  0.00     0.069 A 
ATOM     22  C   UNL A   1      33.850  27.527  25.788  1.00  0.00     0.030 A 
ATOM     23  O   UNL A   1      29.694  30.399  23.693  1.00  0.00    -0.263 OA
ATOM     24  N   UNL A   1      30.949  28.450  23.655  1.00  0.00    -0.305 N 
ATOM     25  C   UNL A   1      32.414  26.456  23.660  1.00  0.00     0.050 A 
ATOM     26  C   UNL A   1      34.233  26.325  25.228  1.00  0.00     0.024 A 
ATOM     27  C   UNL A   1      30.192  27.931  22.524  1.00  0.00     0.154 C 
ENDBRANCH  11  14
ENDBRANCH   7  11
ENDBRANCH   4   6
ENDBRANCH   3   4
ENDBRANCH   2   3
ENDBRANCH   1   2
BRANCH   1  28
ATOM     28  O   UNL A   1      37.747  21.986  25.751  1.00  0.00    -0.458 OA
BRANCH  28  29
ATOM     29  C   UNL A   1      39.019  21.744  26.146  1.00  0.00     0.338 C 
ATOM     30  O   UNL A   1      39.672  20.733  25.944  1.00  0.00    -0.246 OA
BRANCH  29  31
ATOM     31  C   UNL A   1      39.573  22.946  26.785  1.00  0.00     0.060 A 
ATOM     32  C   UNL A   1      40.683  22.868  27.615  1.00  0.00     0.016 A 
ATOM     33  C   UNL A   1      39.044  24.187  26.441  1.00  0.00     0.016 A 
ATOM     34  C   UNL A   1      41.231  24.053  28.121  1.00  0.00     0.010 A 
ATOM     35  C   UNL A   1      39.656  25.363  26.849  1.00  0.00     0.010 A 
ATOM     36  C   UNL A   1      40.735  25.315  27.729  1.00  0.00    -0.014 A 
BRANCH  36  37
ATOM     37  C   UNL A   1      41.357  26.575  28.213  1.00  0.00     0.031 A 
ATOM     38  C   UNL A   1      42.790  26.916  27.888  1.00  0.00     0.074 A 
ATOM     39  C   UNL A   1      40.618  27.411  28.971  1.00  0.00     0.049 A 
ATOM     40  N   UNL A   1      43.428  28.039  28.098  1.00  0.00    -0.248 NA
ATOM     41  C   UNL A   1      43.626  25.870  27.273  1.00  0.00     0.031 C 
ATOM     42  C   UNL A   1      39.269  27.121  29.458  1.00  0.00     0.029 A 
ATOM     43  N   UNL A   1      40.877  28.673  29.442  1.00  0.00    -0.354 N 
ATOM     44  C   UNL A   1      44.725  27.836  27.636  1.00  0.00     0.074 A 
ATOM     45  C   UNL A   1      44.810  26.461  27.210  1.00  0.00     0.031 C 
ATOM     46  C   UNL A   1      38.786  28.205  30.081  1.00  0.00     0.029 A 
ATOM     47  C   UNL A   1      39.803  29.253  30.078  1.00  0.00     0.049 A 
ATOM     48  H   UNL A   1      41.748  29.120  29.335  1.00  0.00     0.167 HD
ATOM     49  C   UNL A   1      45.735  28.731  27.535  1.00  0.00     0.034 A 
ATOM     50  C   UNL A   1      39.643  30.496  30.575  1.00  0.00     0.034 A 
ATOM     51  C   UNL A   1      45.619  30.107  27.943  1.00  0.00     0.049 A 
ATOM     52  C   UNL A   1      40.769  31.486  30.410  1.00  0.00     0.074 A 
ATOM     53  C   UNL A   1      46.550  31.119  27.801  1.00  0.00     0.029 A 
ATOM     54  N   UNL A   1      44.513  30.664  28.569  1.00  0.00    -0.354 N 
ATOM     55  N   UNL A   1      41.930  31.327  29.817  1.00  0.00    -0.248 NA
ATOM     56  C   UNL A   1      40.562  32.832  30.963  1.00  0.00     0.031 C 
ATOM     57  C   UNL A   1      46.040  32.267  28.406  1.00  0.00     0.029 A 
ATOM     58  C   UNL A   1      44.754  31.997  28.852  1.00  0.00     0.049 A 
ATOM     59  H   UNL A   1      43.681  30.183  28.780  1.00  0.00     0.167 HD
ATOM     60  C   UNL A   1      42.582  32.553  29.911  1.00  0.00     0.074 A 
ATOM     61  C   UNL A   1      41.666  33.458  30.574  1.00  0.00     0.031 C 
ATOM     62  C   UNL A   1      43.830  32.895  29.502  1.00  0.00     0.034 A 
BRANCH  49  63
ATOM     63  C   UNL A   1      47.041  28.301  26.907  1.00  0.00     0.023 A 
ATOM     64  C   UNL A   1      47.180  28.281  25.506  1.00  0.00     0.031 A 
ATOM     65  C   UNL A   1      48.070  27.740  27.685  1.00  0.00     0.131 A 
ATOM     66  C   UNL A   1      48.293  27.657  24.927  1.00  0.00     0.055 A 
ATOM     67  C   UNL A   1      49.202  27.167  27.103  1.00  0.00     0.041 A 
ATOM     68  F   UNL A   1      47.983  27.724  29.025  1.00  0.00    -0.206 F 
ATOM     69  C   UNL A   1      49.308  27.107  25.718  1.00  0.00     0.022 A 
BRANCH  66  70
ATOM     70  S   UNL A   1      48.423  27.448  23.130  1.00  0.00     0.124 S 
ATOM     71  O   UNL A   1      47.275  28.216  22.652  1.00  0.00    -0.237 OA
ATOM     72  O   UNL A   1      49.727  28.039  22.850  1.00  0.00    -0.237 OA
ATOM     73  O   UNL A   1      48.326  26.005  22.936  1.00  0.00    -0.744 OA
ENDBRANCH  66  70
ENDBRANCH  49  63
BRANCH  50  74
ATOM     74  C   UNL A   1      38.333  30.883  31.180  1.00  0.00     0.023 A 
ATOM     75  C   UNL A   1      37.341  31.527  30.417  1.00  0.00     0.031 A 
ATOM     76  C   UNL A   1      38.091  30.705  32.553  1.00  0.00     0.131 A 
ATOM     77  C   UNL A   1      36.189  32.023  31.041  1.00  0.00     0.055 A 
ATOM     78  C   UNL A   1      36.905  31.128  33.157  1.00  0.00     0.041 A 
ATOM     79  F   UNL A   1      39.013  30.119  33.333  1.00  0.00    -0.206 F 
ATOM     80  C   UNL A   1      35.955  31.808  32.403  1.00  0.00     0.022 A 
BRANCH  77  81
ATOM     81  S   UNL A   1      35.031  33.092  30.143  1.00  0.00     0.124 S 
ATOM     82  O   UNL A   1      34.114  33.505  31.200  1.00  0.00    -0.237 OA
ATOM     83  O   UNL A   1      35.919  34.136  29.634  1.00  0.00    -0.237 OA
ATOM     84  O   UNL A   1      34.468  32.211  29.125  1.00  0.00    -0.744 OA
ENDBRANCH  77  81
ENDBRANCH  50  74
BRANCH  62  85
ATOM     85  C   UNL A   1      44.314  34.304  29.759  1.00  0.00     0.023 A 
ATOM     86  C   UNL A   1      44.118  35.308  28.791  1.00  0.00     0.031 A 
ATOM     87  C   UNL A   1      45.100  34.611  30.883  1.00  0.00     0.131 A 
ATOM     88  C   UNL A   1      44.739  36.554  28.943  1.00  0.00     0.055 A 
ATOM     89  C   UNL A   1      45.665  35.873  31.061  1.00  0.00     0.041 A 
ATOM     90  F   UNL A   1      45.331  33.684  31.828  1.00  0.00    -0.206 F 
ATOM     91  C   UNL A   1      45.500  36.846  30.079  1.00  0.00     0.022 A 
BRANCH  88  92
ATOM     92  S   UNL A   1      44.670  37.802  27.628  1.00  0.00     0.124 S 
ATOM     93  O   UNL A   1      44.433  39.027  28.389  1.00  0.00    -0.237 OA
ATOM     94  O   UNL A   1      45.996  37.689  27.027  1.00  0.00    -0.237 OA
ATOM     95  O   UNL A   1      43.560  37.368  26.786  1.00  0.00    -0.744 OA
ENDBRANCH  88  92
ENDBRANCH  62  85
ENDBRANCH  36  37
ENDBRANCH  29  31
ENDBRANCH  28  29
ENDBRANCH   1  28
TORSDOF 16
ENDMDL
MODEL 2
REMARK VINA RESULT:     -12.7      1.862      2.467
REMARK SMILES Cn1c(=O)c(=O)n(C)c2cc(S(=O)(=O)N3CCC[C@H]3C(=O)OCCOC(=O)c3ccc(-c4c5nc(c(-c6cc(S(=O)(=O)[O-])ccc6F)c6ccc([nH]6)c(-c6cc(S(=O)(=O)[O-])ccc6F)c6nc(c(-c7cc(S(=O)(=O)[O-])ccc7F)c7ccc4[nH]7)C=C6)C=C5)cc3)ccc21
REMARK SMILES IDX 24 1 23 2 22 3 20 4 21 5 19 6 15 7 16 8 17 9 18 10 12 11
REMARK SMILES IDX 13 12 14 13 11 14 1 15 2 16 3 17 93 18 4 19 5 20 9 21 92 22
REMARK SMILES IDX 6 23 7 24 10 25 91 26 8 27 25 28 26 29 27 30 28 31 29 32
REMARK SMILES IDX 90 33 30 34 89 35 31 36 32 37 33 38 83 39 34 40 88 41 82 42
REMARK SMILES IDX 84 43 35 44 87 45 81 46 80 47 36 49 68 50 48 51 67 52 49 53
REMARK SMILES IDX 52 54 66 55 85 56 50 57 51 58 65 60 86 61 53 62 37 63 38 64
REMARK SMILES IDX 46 65 39 66 45 67 47 68 44 69 40 70 41 71 42 72 43 73 69 74
REMARK SMILES IDX 70 75 78 76 71 77 77 78 79 79 76 80 72 81 73 82 74 83 75 84
REMARK SMILES IDX 54 85 55 86 63 87 56 88 62 89 64 90 61 91 57 92 58 93 59 94
REMARK SMILES IDX 60 95
REMARK H PARENT 84 48 52 59
REMARK Flexibility Score: inf
ROOT
ATOM      1  C   UNL A   1      36.125  21.062  24.621  1.00  0.00     0.275 C 
ENDROOT
BRANCH   1   2
ATOM      2  C   UNL A   1      35.235  19.871  24.987  1.00  0.00     0.274 C 
BRANCH   2   3
ATOM      3  O   UNL A   1      34.122  20.306  25.788  1.00  0.00    -0.461 OA
BRANCH   3   4
ATOM      4  C   UNL A   1      32.887  19.865  25.408  1.00  0.00     0.324 C 
ATOM      5  O   UNL A   1      32.490  18.725  25.609  1.00  0.00    -0.250 OA
BRANCH   4   6
ATOM      6  C   UNL A   1      32.120  20.945  24.646  1.00  0.00     0.183 C 
ATOM      7  N   UNL A   1      32.410  22.350  25.053  1.00  0.00    -0.184 NA
ATOM      8  C   UNL A   1      33.033  23.103  23.949  1.00  0.00     0.103 C 
ATOM      9  C   UNL A   1      32.566  22.389  22.699  1.00  0.00     0.019 C 
ATOM     10  C   UNL A   1      32.383  20.940  23.124  1.00  0.00     0.034 C 
BRANCH   7  11
ATOM     11  S   UNL A   1      31.461  23.160  26.185  1.00  0.00     0.243 S 
ATOM     12  O   UNL A   1      32.294  23.416  27.341  1.00  0.00    -0.207 OA
ATOM     13  O   UNL A   1      30.196  22.474  26.288  1.00  0.00    -0.207 OA
BRANCH  11  14
ATOM     14  C   UNL A   1      31.091  24.753  25.476  1.00  0.00     0.084 A 
ATOM     15  C   UNL A   1      29.181  28.571  22.712  1.00  0.00     0.154 C 
ATOM     16  N   UNL A   1      30.080  28.517  23.858  1.00  0.00    -0.305 N 
ATOM     17  C   UNL A   1      30.572  29.710  24.369  1.00  0.00     0.316 A 
ATOM     18  C   UNL A   1      30.444  27.268  24.414  1.00  0.00     0.068 A 
ATOM     19  O   UNL A   1      30.276  30.811  23.908  1.00  0.00    -0.263 OA
ATOM     20  C   UNL A   1      31.523  29.635  25.572  1.00  0.00     0.316 A 
ATOM     21  C   UNL A   1      31.347  27.180  25.492  1.00  0.00     0.069 A 
ATOM     22  C   UNL A   1      29.887  26.101  23.889  1.00  0.00     0.030 A 
ATOM     23  O   UNL A   1      31.922  30.692  26.056  1.00  0.00    -0.263 OA
ATOM     24  N   UNL A   1      31.880  28.373  26.052  1.00  0.00    -0.305 N 
ATOM     25  C   UNL A   1      31.683  25.907  26.005  1.00  0.00     0.050 A 
ATOM     26  C   UNL A   1      30.197  24.868  24.426  1.00  0.00     0.024 A 
ATOM     27  C   UNL A   1      32.802  28.310  27.178  1.00  0.00     0.154 C 
ENDBRANCH  11  14
ENDBRANCH   7  11
ENDBRANCH   4   6
ENDBRANCH   3   4
ENDBRANCH   2   3
ENDBRANCH   1   2
BRANCH   1  28
ATOM     28  O   UNL A   1      36.848  21.540  25.771  1.00  0.00    -0.458 OA
BRANCH  28  29
ATOM     29  C   UNL A   1      38.177  21.287  25.774  1.00  0.00     0.338 C 
ATOM     30  O   UNL A   1      38.745  20.331  25.271  1.00  0.00    -0.246 OA
BRANCH  29  31
ATOM     31  C   UNL A   1      38.890  22.410  26.397  1.00  0.00     0.060 A 
ATOM     32  C   UNL A   1      40.048  22.202  27.135  1.00  0.00     0.016 A 
ATOM     33  C   UNL A   1      38.456  23.706  26.130  1.00  0.00     0.016 A 
ATOM     34  C   UNL A   1      40.744  23.313  27.625  1.00  0.00     0.010 A 
ATOM     35  C   UNL A   1      39.207  24.806  26.518  1.00  0.00     0.010 A 
ATOM     36  C   UNL A   1      40.341  24.628  27.307  1.00  0.00    -0.014 A 
BRANCH  36  37
ATOM     37  C   UNL A   1      41.116  25.809  27.772  1.00  0.00     0.031 A 
ATOM     38  C   UNL A   1      42.545  26.027  27.341  1.00  0.00     0.074 A 
ATOM     39  C   UNL A   1      40.521  26.682  28.609  1.00  0.00     0.049 A 
ATOM     40  N   UNL A   1      43.300  27.079  27.529  1.00  0.00    -0.248 NA
ATOM     41  C   UNL A   1      43.227  24.930  26.633  1.00  0.00     0.031 C 
ATOM     42  C   UNL A   1      39.193  26.502  29.196  1.00  0.00     0.029 A 
ATOM     43  N   UNL A   1      40.934  27.898  29.091  1.00  0.00    -0.354 N 
ATOM     44  C   UNL A   1      44.532  26.773  26.957  1.00  0.00     0.074 A 
ATOM     45  C   UNL A   1      44.453  25.410  26.490  1.00  0.00     0.031 C 
ATOM     46  C   UNL A   1      38.865  27.604  29.885  1.00  0.00     0.029 A 
ATOM     47  C   UNL A   1      39.973  28.554  29.827  1.00  0.00     0.049 A 
ATOM     48  H   UNL A   1      41.832  28.267  28.926  1.00  0.00     0.167 HD
ATOM     49  C   UNL A   1      45.611  27.574  26.798  1.00  0.00     0.034 A 
ATOM     50  C   UNL A   1      39.971  29.788  30.369  1.00  0.00     0.034 A 
ATOM     51  C   UNL A   1      45.658  28.940  27.251  1.00  0.00     0.049 A 
ATOM     52  C   UNL A   1      41.169  30.676  30.139  1.00  0.00     0.074 A 
ATOM     53  C   UNL A   1      46.667  29.866  27.061  1.00  0.00     0.029 A 
ATOM     54  N   UNL A   1      44.662  29.575  27.979  1.00  0.00    -0.354 N 
ATOM     55  N   UNL A   1      42.259  30.430  29.450  1.00  0.00    -0.248 NA
ATOM     56  C   UNL A   1      41.133  32.015  30.742  1.00  0.00     0.031 C 
ATOM     57  C   UNL A   1      46.316  31.034  27.736  1.00  0.00     0.029 A 
ATOM     58  C   UNL A   1      45.050  30.870  28.277  1.00  0.00     0.049 A 
ATOM     59  H   UNL A   1      43.807  29.166  28.244  1.00  0.00     0.167 HD
ATOM     60  C   UNL A   1      43.030  31.587  29.523  1.00  0.00     0.074 A 
ATOM     61  C   UNL A   1      42.258  32.549  30.282  1.00  0.00     0.031 C 
ATOM     62  C   UNL A   1      44.269  31.827  29.023  1.00  0.00     0.034 A 
BRANCH  49  63
ATOM     63  C   UNL A   1      46.818  27.047  26.056  1.00  0.00     0.023 A 
ATOM     64  C   UNL A   1      47.850  26.394  26.755  1.00  0.00     0.031 A 
ATOM     65  C   UNL A   1      47.028  27.357  24.700  1.00  0.00     0.131 A 
ATOM     66  C   UNL A   1      49.066  26.128  26.112  1.00  0.00     0.055 A 
ATOM     67  C   UNL A   1      48.222  27.041  24.050  1.00  0.00     0.041 A 
ATOM     68  F   UNL A   1      46.080  27.989  23.988  1.00  0.00    -0.206 F 
ATOM     69  C   UNL A   1      49.254  26.440  24.761  1.00  0.00     0.022 A 
BRANCH  66  70
ATOM     70  S   UNL A   1      50.483  25.454  27.023  1.00  0.00     0.124 S 
ATOM     71  O   UNL A   1      50.824  26.561  27.914  1.00  0.00    -0.237 OA
ATOM     72  O   UNL A   1      49.896  24.288  27.676  1.00  0.00    -0.237 OA
ATOM     73  O   UNL A   1      51.466  25.170  25.983  1.00  0.00    -0.744 OA
ENDBRANCH  66  70
ENDBRANCH  49  63
BRANCH  50  74
ATOM     74  C   UNL A   1      38.755  30.274  31.088  1.00  0.00     0.023 A 
ATOM     75  C   UNL A   1      37.682  30.861  30.390  1.00  0.00     0.031 A 
ATOM     76  C   UNL A   1      38.687  30.249  32.492  1.00  0.00     0.131 A 
ATOM     77  C   UNL A   1      36.627  31.453  31.097  1.00  0.00     0.055 A 
ATOM     78  C   UNL A   1      37.594  30.766  33.190  1.00  0.00     0.041 A 
ATOM     79  F   UNL A   1      39.693  29.722  33.208  1.00  0.00    -0.206 F 
ATOM     80  C   UNL A   1      36.566  31.389  32.492  1.00  0.00     0.022 A 
BRANCH  77  81
ATOM     81  S   UNL A   1      35.379  32.453  30.241  1.00  0.00     0.124 S 
ATOM     82  O   UNL A   1      34.376  32.647  31.282  1.00  0.00    -0.237 OA
ATOM     83  O   UNL A   1      36.147  33.642  29.874  1.00  0.00    -0.237 OA
ATOM     84  O   UNL A   1      34.973  31.612  29.119  1.00  0.00    -0.744 OA
ENDBRANCH  77  81
ENDBRANCH  50  74
BRANCH  62  85
ATOM     85  C   UNL A   1      44.902  33.175  29.277  1.00  0.00     0.023 A 
ATOM     86  C   UNL A   1      44.798  34.199  28.316  1.00  0.00     0.031 A 
ATOM     87  C   UNL A   1      45.734  33.391  30.390  1.00  0.00     0.131 A 
ATOM     88  C   UNL A   1      45.549  35.372  28.462  1.00  0.00     0.055 A 
ATOM     89  C   UNL A   1      46.432  34.586  30.562  1.00  0.00     0.041 A 
ATOM     90  F   UNL A   1      45.882  32.441  31.327  1.00  0.00    -0.206 F 
ATOM     91  C   UNL A   1      46.354  35.577  29.587  1.00  0.00     0.022 A 
BRANCH  88  92
ATOM     92  S   UNL A   1      45.591  36.627  27.154  1.00  0.00     0.124 S 
ATOM     93  O   UNL A   1      44.178  36.972  27.021  1.00  0.00    -0.237 OA
ATOM     94  O   UNL A   1      46.432  37.663  27.748  1.00  0.00    -0.237 OA
ATOM     95  O   UNL A   1      46.170  35.928  26.011  1.00  0.00    -0.744 OA
ENDBRANCH  88  92
ENDBRANCH  62  85
ENDBRANCH  36  37
ENDBRANCH  29  31
ENDBRANCH  28  29
ENDBRANCH   1  28
TORSDOF 16
ENDMDL
MODEL 3
REMARK VINA RESULT:     -12.6      4.686     10.218
REMARK SMILES Cn1c(=O)c(=O)n(C)c2cc(S(=O)(=O)N3CCC[C@H]3C(=O)OCCOC(=O)c3ccc(-c4c5nc(c(-c6cc(S(=O)(=O)[O-])ccc6F)c6ccc([nH]6)c(-c6cc(S(=O)(=O)[O-])ccc6F)c6nc(c(-c7cc(S(=O)(=O)[O-])ccc7F)c7ccc4[nH]7)C=C6)C=C5)cc3)ccc21
REMARK SMILES IDX 24 1 23 2 22 3 20 4 21 5 19 6 15 7 16 8 17 9 18 10 12 11
REMARK SMILES IDX 13 12 14 13 11 14 1 15 2 16 3 17 93 18 4 19 5 20 9 21 92 22
REMARK SMILES IDX 6 23 7 24 10 25 91 26 8 27 25 28 26 29 27 30 28 31 29 32
REMARK SMILES IDX 90 33 30 34 89 35 31 36 32 37 33 38 83 39 34 40 88 41 82 42
REMARK SMILES IDX 84 43 35 44 87 45 81 46 80 47 36 49 68 50 48 51 67 52 49 53
REMARK SMILES IDX 52 54 66 55 85 56 50 57 51 58 65 60 86 61 53 62 37 63 38 64
REMARK SMILES IDX 46 65 39 66 45 67 47 68 44 69 40 70 41 71 42 72 43 73 69 74
REMARK SMILES IDX 70 75 78 76 71 77 77 78 79 79 76 80 72 81 73 82 74 83 75 84
REMARK SMILES IDX 54 85 55 86 63 87 56 88 62 89 64 90 61 91 57 92 58 93 59 94
REMARK SMILES IDX 60 95
REMARK H PARENT 84 48 52 59
REMARK Flexibility Score: inf
ROOT
ATOM      1  C   UNL A   1      31.933  30.716  26.639  1.00  0.00     0.275 C 
ENDROOT
BRANCH   1   2
ATOM      2  C   UNL A   1      31.888  29.537  25.662  1.00  0.00     0.274 C 
BRANCH   2   3
ATOM      3  O   UNL A   1      30.925  29.785  24.623  1.00  0.00    -0.461 OA
BRANCH   3   4
ATOM      4  C   UNL A   1      30.725  28.779  23.722  1.00  0.00     0.324 C 
ATOM      5  O   UNL A   1      29.695  28.652  23.073  1.00  0.00    -0.250 OA
BRANCH   4   6
ATOM      6  C   UNL A   1      31.908  27.812  23.697  1.00  0.00     0.183 C 
ATOM      7  N   UNL A   1      31.560  26.364  23.764  1.00  0.00    -0.184 NA
ATOM      8  C   UNL A   1      31.958  25.665  22.528  1.00  0.00     0.103 C 
ATOM      9  C   UNL A   1      33.086  26.505  21.970  1.00  0.00     0.019 C 
ATOM     10  C   UNL A   1      32.776  27.924  22.425  1.00  0.00     0.034 C 
BRANCH   7  11
ATOM     11  S   UNL A   1      31.533  25.525  25.225  1.00  0.00     0.243 S 
ATOM     12  O   UNL A   1      30.355  24.685  25.217  1.00  0.00    -0.207 OA
ATOM     13  O   UNL A   1      31.800  26.462  26.290  1.00  0.00    -0.207 OA
BRANCH  11  14
ATOM     14  C   UNL A   1      32.932  24.420  25.191  1.00  0.00     0.084 A 
ATOM     15  C   UNL A   1      37.568  22.360  25.541  1.00  0.00     0.154 C 
ATOM     16  N   UNL A   1      36.248  21.811  25.259  1.00  0.00    -0.305 N 
ATOM     17  C   UNL A   1      36.136  20.448  25.019  1.00  0.00     0.316 A 
ATOM     18  C   UNL A   1      35.120  22.664  25.220  1.00  0.00     0.068 A 
ATOM     19  O   UNL A   1      37.095  19.680  25.044  1.00  0.00    -0.263 OA
ATOM     20  C   UNL A   1      34.738  19.888  24.717  1.00  0.00     0.316 A 
ATOM     21  C   UNL A   1      33.838  22.172  24.905  1.00  0.00     0.069 A 
ATOM     22  C   UNL A   1      35.282  24.019  25.510  1.00  0.00     0.030 A 
ATOM     23  O   UNL A   1      34.629  18.675  24.550  1.00  0.00    -0.263 OA
ATOM     24  N   UNL A   1      33.669  20.784  24.650  1.00  0.00    -0.305 N 
ATOM     25  C   UNL A   1      32.746  23.069  24.872  1.00  0.00     0.050 A 
ATOM     26  C   UNL A   1      34.199  24.876  25.511  1.00  0.00     0.024 A 
ATOM     27  C   UNL A   1      32.351  20.247  24.339  1.00  0.00     0.154 C 
ENDBRANCH  11  14
ENDBRANCH   7  11
ENDBRANCH   4   6
ENDBRANCH   3   4
ENDBRANCH   2   3
ENDBRANCH   1   2
BRANCH   1  28
ATOM     28  O   UNL A   1      33.045  30.593  27.544  1.00  0.00    -0.458 OA
BRANCH  28  29
ATOM     29  C   UNL A   1      33.838  31.685  27.650  1.00  0.00     0.338 C 
ATOM     30  O   UNL A   1      33.508  32.850  27.496  1.00  0.00    -0.246 OA
BRANCH  29  31
ATOM     31  C   UNL A   1      35.178  31.279  28.094  1.00  0.00     0.060 A 
ATOM     32  C   UNL A   1      36.193  32.213  28.255  1.00  0.00     0.016 A 
ATOM     33  C   UNL A   1      35.381  29.955  28.476  1.00  0.00     0.016 A 
ATOM     34  C   UNL A   1      37.422  31.791  28.773  1.00  0.00     0.010 A 
ATOM     35  C   UNL A   1      36.559  29.563  29.095  1.00  0.00     0.010 A 
ATOM     36  C   UNL A   1      37.613  30.464  29.216  1.00  0.00    -0.014 A 
BRANCH  36  37
ATOM     37  C   UNL A   1      38.897  30.030  29.828  1.00  0.00     0.031 A 
ATOM     38  C   UNL A   1      39.313  30.507  31.197  1.00  0.00     0.074 A 
ATOM     39  C   UNL A   1      39.701  29.208  29.125  1.00  0.00     0.049 A 
ATOM     40  N   UNL A   1      40.317  30.100  31.931  1.00  0.00    -0.248 NA
ATOM     41  C   UNL A   1      38.529  31.589  31.818  1.00  0.00     0.031 C 
ATOM     42  C   UNL A   1      39.464  28.791  27.742  1.00  0.00     0.029 A 
ATOM     43  N   UNL A   1      40.857  28.557  29.474  1.00  0.00    -0.354 N 
ATOM     44  C   UNL A   1      40.277  30.864  33.093  1.00  0.00     0.074 A 
ATOM     45  C   UNL A   1      39.203  31.816  32.936  1.00  0.00     0.031 C 
ATOM     46  C   UNL A   1      40.391  27.889  27.391  1.00  0.00     0.029 A 
ATOM     47  C   UNL A   1      41.315  27.692  28.506  1.00  0.00     0.049 A 
ATOM     48  H   UNL A   1      41.315  28.694  30.335  1.00  0.00     0.167 HD
ATOM     49  C   UNL A   1      41.037  30.749  34.206  1.00  0.00     0.034 A 
ATOM     50  C   UNL A   1      42.343  26.820  28.521  1.00  0.00     0.034 A 
ATOM     51  C   UNL A   1      42.088  29.774  34.352  1.00  0.00     0.049 A 
ATOM     52  C   UNL A   1      43.147  26.680  29.790  1.00  0.00     0.074 A 
ATOM     53  C   UNL A   1      42.858  29.512  35.469  1.00  0.00     0.029 A 
ATOM     54  N   UNL A   1      42.514  28.906  33.357  1.00  0.00    -0.354 N 
ATOM     55  N   UNL A   1      42.989  27.292  30.941  1.00  0.00    -0.248 NA
ATOM     56  C   UNL A   1      44.259  25.720  29.773  1.00  0.00     0.031 C 
ATOM     57  C   UNL A   1      43.799  28.541  35.130  1.00  0.00     0.029 A 
ATOM     58  C   UNL A   1      43.563  28.133  33.825  1.00  0.00     0.049 A 
ATOM     59  H   UNL A   1      42.129  28.849  32.453  1.00  0.00     0.167 HD
ATOM     60  C   UNL A   1      43.968  26.779  31.787  1.00  0.00     0.074 A 
ATOM     61  C   UNL A   1      44.681  25.772  31.031  1.00  0.00     0.031 C 
ATOM     62  C   UNL A   1      44.260  27.122  33.068  1.00  0.00     0.034 A 
BRANCH  49  63
ATOM     63  C   UNL A   1      40.747  31.637  35.394  1.00  0.00     0.023 A 
ATOM     64  C   UNL A   1      39.608  31.407  36.189  1.00  0.00     0.031 A 
ATOM     65  C   UNL A   1      41.488  32.811  35.621  1.00  0.00     0.131 A 
ATOM     66  C   UNL A   1      39.210  32.366  37.129  1.00  0.00     0.055 A 
ATOM     67  C   UNL A   1      41.117  33.738  36.597  1.00  0.00     0.041 A 
ATOM     68  F   UNL A   1      42.578  33.085  34.885  1.00  0.00    -0.206 F 
ATOM     69  C   UNL A   1      39.963  33.526  37.343  1.00  0.00     0.022 A 
BRANCH  66  70
ATOM     70  S   UNL A   1      37.653  32.196  38.045  1.00  0.00     0.124 S 
ATOM     71  O   UNL A   1      37.358  30.774  37.877  1.00  0.00    -0.237 OA
ATOM     72  O   UNL A   1      38.048  32.595  39.391  1.00  0.00    -0.237 OA
ATOM     73  O   UNL A   1      36.740  33.103  37.356  1.00  0.00    -0.744 OA
ENDBRANCH  66  70
ENDBRANCH  49  63
BRANCH  50  74
ATOM     74  C   UNL A   1      42.591  25.954  27.329  1.00  0.00     0.023 A 
ATOM     75  C   UNL A   1      42.118  24.629  27.281  1.00  0.00     0.031 A 
ATOM     76  C   UNL A   1      43.388  26.404  26.262  1.00  0.00     0.131 A 
ATOM     77  C   UNL A   1      42.499  23.787  26.228  1.00  0.00     0.055 A 
ATOM     78  C   UNL A   1      43.697  25.588  25.173  1.00  0.00     0.041 A 
ATOM     79  F   UNL A   1      43.885  27.651  26.269  1.00  0.00    -0.206 F 
ATOM     80  C   UNL A   1      43.267  24.265  25.161  1.00  0.00     0.022 A 
BRANCH  77  81
ATOM     81  S   UNL A   1      42.138  22.010  26.279  1.00  0.00     0.124 S 
ATOM     82  O   UNL A   1      42.942  21.503  25.172  1.00  0.00    -0.237 OA
ATOM     83  O   UNL A   1      42.604  21.648  27.616  1.00  0.00    -0.237 OA
ATOM     84  O   UNL A   1      40.692  21.947  26.093  1.00  0.00    -0.744 OA
ENDBRANCH  77  81
ENDBRANCH  50  74
BRANCH  62  85
ATOM     85  C   UNL A   1      45.411  26.425  33.757  1.00  0.00     0.023 A 
ATOM     86  C   UNL A   1      45.181  25.264  34.521  1.00  0.00     0.031 A 
ATOM     87  C   UNL A   1      46.696  26.995  33.786  1.00  0.00     0.131 A 
ATOM     88  C   UNL A   1      46.206  24.739  35.317  1.00  0.00     0.055 A 
ATOM     89  C   UNL A   1      47.731  26.432  34.532  1.00  0.00     0.041 A 
ATOM     90  F   UNL A   1      46.964  28.111  33.090  1.00  0.00    -0.206 F 
ATOM     91  C   UNL A   1      47.483  25.308  35.316  1.00  0.00     0.022 A 
BRANCH  88  92
ATOM     92  S   UNL A   1      45.895  23.365  36.459  1.00  0.00     0.124 S 
ATOM     93  O   UNL A   1      47.216  22.747  36.554  1.00  0.00    -0.237 OA
ATOM     94  O   UNL A   1      45.445  24.060  37.661  1.00  0.00    -0.237 OA
ATOM     95  O   UNL A   1      44.881  22.563  35.781  1.00  0.00    -0.744 OA
ENDBRANCH  88  92
ENDBRANCH  62  85
ENDBRANCH  36  37
ENDBRANCH  29  31
ENDBRANCH  28  29
ENDBRANCH   1  28
TORSDOF 16
ENDMDL
