MODEL 1
REMARK VINA RESULT:     -10.2      0.000      0.000
REMARK SMILES O=C(OCCOC(=O)c1ccc(-c2c3nc(c(-c4cc(S(=O)(=O)[O-])ccc4F)c4ccc([nH]4)c(-c4cc(S(=O)(=O)[O-])ccc4F)c4nc(c(-c5cc(S(=O)(=O)[O-])ccc5F)c5ccc2[nH]5)C=C4)C=C3)cc1)C1=C[C@H]2C(=N1)C=CC(Cl)=C2Cl
REMARK SMILES IDX 6 1 5 2 4 3 3 4 2 5 1 6 72 7 73 8 76 9 74 10 75 11 81 12
REMARK SMILES IDX 77 13 79 14 82 15 78 16 80 17 7 18 8 19 9 20 10 21 71 22
REMARK SMILES IDX 11 23 70 24 12 25 13 26 14 27 64 28 15 29 69 30 63 31 65 32
REMARK SMILES IDX 16 33 68 34 62 35 61 36 17 38 49 39 29 40 48 41 30 42 33 43
REMARK SMILES IDX 47 44 66 45 31 46 32 47 46 49 67 50 34 51 18 52 19 53 27 54
REMARK SMILES IDX 20 55 26 56 28 57 25 58 21 59 22 60 23 61 24 62 50 63 51 64
REMARK SMILES IDX 59 65 52 66 58 67 60 68 57 69 53 70 54 71 55 72 56 73 35 74
REMARK SMILES IDX 36 75 44 76 37 77 43 78 45 79 42 80 38 81 39 82 40 83 41 84
REMARK H PARENT 65 37 33 48
REMARK Flexibility Score: inf
ROOT
ATOM      1  O   UNL A   1      40.524  21.322  27.221  1.00  0.00    -0.458 OA
ENDROOT
BRANCH   1   2
ATOM      2  C   UNL A   1      41.132  20.290  26.430  1.00  0.00     0.275 C 
BRANCH   2   3
ATOM      3  C   UNL A   1      42.637  20.527  26.288  1.00  0.00     0.275 C 
BRANCH   3   4
ATOM      4  O   UNL A   1      42.895  21.553  25.313  1.00  0.00    -0.457 OA
BRANCH   4   5
ATOM      5  C   UNL A   1      43.293  22.818  25.580  1.00  0.00     0.356 C 
ATOM      6  O   UNL A   1      42.661  23.770  25.125  1.00  0.00    -0.244 OA
BRANCH   5   7
ATOM      7  C   UNL A   1      44.437  23.066  26.499  1.00  0.00     0.145 C 
ATOM      8  C   UNL A   1      44.191  23.121  27.814  1.00  0.00     0.024 C 
ATOM      9  N   UNL A   1      45.708  23.483  26.160  1.00  0.00    -0.245 NA
ATOM     10  C   UNL A   1      45.409  23.566  28.527  1.00  0.00     0.107 C 
ATOM     11  C   UNL A   1      46.209  23.908  27.282  1.00  0.00     0.054 C 
ATOM     12  C   UNL A   1      45.357  24.745  29.435  1.00  0.00     0.050 C 
ATOM     13  C   UNL A   1      47.448  24.699  27.443  1.00  0.00     0.026 C 
ATOM     14  C   UNL A   1      46.443  25.534  29.530  1.00  0.00     0.056 C 
ATOM     15  Cl  UNL A   1      43.977  24.879  30.465  1.00  0.00    -0.086 Cl
ATOM     16  C   UNL A   1      47.518  25.461  28.548  1.00  0.00     0.023 C 
ATOM     17  Cl  UNL A   1      46.697  26.585  30.870  1.00  0.00    -0.083 Cl
ENDBRANCH   5   7
ENDBRANCH   4   5
ENDBRANCH   3   4
ENDBRANCH   2   3
ENDBRANCH   1   2
BRANCH   1  18
ATOM     18  C   UNL A   1      39.670  22.151  26.564  1.00  0.00     0.338 C 
ATOM     19  O   UNL A   1      38.777  21.805  25.805  1.00  0.00    -0.246 OA
BRANCH  18  20
ATOM     20  C   UNL A   1      39.882  23.553  27.007  1.00  0.00     0.060 A 
ATOM     21  C   UNL A   1      39.454  24.598  26.175  1.00  0.00     0.016 A 
ATOM     22  C   UNL A   1      40.466  23.854  28.241  1.00  0.00     0.016 A 
ATOM     23  C   UNL A   1      39.647  25.933  26.556  1.00  0.00     0.010 A 
ATOM     24  C   UNL A   1      40.625  25.185  28.634  1.00  0.00     0.010 A 
ATOM     25  C   UNL A   1      40.253  26.240  27.780  1.00  0.00    -0.014 A 
BRANCH  25  26
ATOM     26  C   UNL A   1      40.661  27.631  28.125  1.00  0.00     0.031 A 
ATOM     27  C   UNL A   1      42.124  27.988  28.061  1.00  0.00     0.074 A 
ATOM     28  C   UNL A   1      39.775  28.566  28.519  1.00  0.00     0.049 A 
ATOM     29  N   UNL A   1      42.710  29.130  28.315  1.00  0.00    -0.248 NA
ATOM     30  C   UNL A   1      43.047  26.917  27.653  1.00  0.00     0.031 C 
ATOM     31  C   UNL A   1      38.326  28.398  28.572  1.00  0.00     0.029 A 
ATOM     32  N   UNL A   1      39.976  29.846  28.984  1.00  0.00    -0.354 N 
ATOM     33  C   UNL A   1      44.057  28.932  28.034  1.00  0.00     0.074 A 
ATOM     34  C   UNL A   1      44.218  27.527  27.727  1.00  0.00     0.031 C 
ATOM     35  C   UNL A   1      37.776  29.506  29.103  1.00  0.00     0.029 A 
ATOM     36  C   UNL A   1      38.830  30.452  29.446  1.00  0.00     0.049 A 
ATOM     37  H   UNL A   1      40.857  30.285  28.987  1.00  0.00     0.167 HD
ATOM     38  C   UNL A   1      45.056  29.846  27.969  1.00  0.00     0.034 A 
ATOM     39  C   UNL A   1      38.650  31.631  30.077  1.00  0.00     0.034 A 
ATOM     40  C   UNL A   1      44.895  31.236  28.313  1.00  0.00     0.049 A 
ATOM     41  C   UNL A   1      39.810  32.584  30.186  1.00  0.00     0.074 A 
ATOM     42  C   UNL A   1      45.826  32.258  28.241  1.00  0.00     0.029 A 
ATOM     43  N   UNL A   1      43.730  31.797  28.823  1.00  0.00    -0.354 N 
ATOM     44  N   UNL A   1      41.055  32.418  29.808  1.00  0.00    -0.248 NA
ATOM     45  C   UNL A   1      39.515  33.919  30.723  1.00  0.00     0.031 C 
ATOM     46  C   UNL A   1      45.252  33.413  28.786  1.00  0.00     0.029 A 
ATOM     47  C   UNL A   1      43.935  33.138  29.113  1.00  0.00     0.049 A 
ATOM     48  H   UNL A   1      42.884  31.313  28.959  1.00  0.00     0.167 HD
ATOM     49  C   UNL A   1      41.665  33.660  29.963  1.00  0.00     0.074 A 
ATOM     50  C   UNL A   1      40.658  34.550  30.502  1.00  0.00     0.031 C 
ATOM     51  C   UNL A   1      42.931  34.033  29.643  1.00  0.00     0.034 A 
BRANCH  38  52
ATOM     52  C   UNL A   1      46.404  29.345  27.510  1.00  0.00     0.023 A 
ATOM     53  C   UNL A   1      46.573  28.786  26.228  1.00  0.00     0.031 A 
ATOM     54  C   UNL A   1      47.513  29.364  28.370  1.00  0.00     0.131 A 
ATOM     55  C   UNL A   1      47.790  28.184  25.881  1.00  0.00     0.055 A 
ATOM     56  C   UNL A   1      48.749  28.843  27.985  1.00  0.00     0.041 A 
ATOM     57  F   UNL A   1      47.406  29.863  29.612  1.00  0.00    -0.206 F 
ATOM     58  C   UNL A   1      48.889  28.231  26.742  1.00  0.00     0.022 A 
BRANCH  55  59
ATOM     59  S   UNL A   1      47.861  27.187  24.367  1.00  0.00     0.124 S 
ATOM     60  O   UNL A   1      48.025  28.218  23.345  1.00  0.00    -0.237 OA
ATOM     61  O   UNL A   1      49.018  26.333  24.605  1.00  0.00    -0.237 OA
ATOM     62  O   UNL A   1      46.570  26.503  24.348  1.00  0.00    -0.744 OA
ENDBRANCH  55  59
ENDBRANCH  38  52
BRANCH  39  63
ATOM     63  C   UNL A   1      37.319  32.010  30.632  1.00  0.00     0.023 A 
ATOM     64  C   UNL A   1      36.356  32.661  29.847  1.00  0.00     0.031 A 
ATOM     65  C   UNL A   1      37.033  31.811  31.994  1.00  0.00     0.131 A 
ATOM     66  C   UNL A   1      35.168  33.122  30.436  1.00  0.00     0.055 A 
ATOM     67  C   UNL A   1      35.820  32.211  32.561  1.00  0.00     0.041 A 
ATOM     68  F   UNL A   1      37.949  31.255  32.803  1.00  0.00    -0.206 F 
ATOM     69  C   UNL A   1      34.883  32.884  31.782  1.00  0.00     0.022 A 
BRANCH  66  70
ATOM     70  S   UNL A   1      34.044  34.138  29.437  1.00  0.00     0.124 S 
ATOM     71  O   UNL A   1      34.964  35.100  28.842  1.00  0.00    -0.237 OA
ATOM     72  O   UNL A   1      33.472  33.150  28.528  1.00  0.00    -0.237 OA
ATOM     73  O   UNL A   1      33.116  34.688  30.422  1.00  0.00    -0.744 OA
ENDBRANCH  66  70
ENDBRANCH  39  63
BRANCH  51  74
ATOM     74  C   UNL A   1      43.270  35.499  29.771  1.00  0.00     0.023 A 
ATOM     75  C   UNL A   1      43.784  36.052  30.956  1.00  0.00     0.031 A 
ATOM     76  C   UNL A   1      43.039  36.368  28.686  1.00  0.00     0.131 A 
ATOM     77  C   UNL A   1      43.977  37.438  31.055  1.00  0.00     0.055 A 
ATOM     78  C   UNL A   1      43.307  37.734  28.765  1.00  0.00     0.041 A 
ATOM     79  F   UNL A   1      42.542  35.900  27.529  1.00  0.00    -0.206 F 
ATOM     80  C   UNL A   1      43.762  38.280  29.960  1.00  0.00     0.022 A 
BRANCH  77  81
ATOM     81  S   UNL A   1      44.391  38.143  32.674  1.00  0.00     0.124 S 
ATOM     82  O   UNL A   1      44.686  36.949  33.458  1.00  0.00    -0.237 OA
ATOM     83  O   UNL A   1      45.533  38.996  32.359  1.00  0.00    -0.237 OA
ATOM     84  O   UNL A   1      43.174  38.856  33.060  1.00  0.00    -0.744 OA
ENDBRANCH  77  81
ENDBRANCH  51  74
ENDBRANCH  25  26
ENDBRANCH  18  20
ENDBRANCH   1  18
TORSDOF 14
ENDMDL
MODEL 2
REMARK VINA RESULT:     -10.1      1.930      2.353
REMARK SMILES O=C(OCCOC(=O)c1ccc(-c2c3nc(c(-c4cc(S(=O)(=O)[O-])ccc4F)c4ccc([nH]4)c(-c4cc(S(=O)(=O)[O-])ccc4F)c4nc(c(-c5cc(S(=O)(=O)[O-])ccc5F)c5ccc2[nH]5)C=C4)C=C3)cc1)C1=C[C@H]2C(=N1)C=CC(Cl)=C2Cl
REMARK SMILES IDX 6 1 5 2 4 3 3 4 2 5 1 6 72 7 73 8 76 9 74 10 75 11 81 12
REMARK SMILES IDX 77 13 79 14 82 15 78 16 80 17 7 18 8 19 9 20 10 21 71 22
REMARK SMILES IDX 11 23 70 24 12 25 13 26 14 27 64 28 15 29 69 30 63 31 65 32
REMARK SMILES IDX 16 33 68 34 62 35 61 36 17 38 49 39 29 40 48 41 30 42 33 43
REMARK SMILES IDX 47 44 66 45 31 46 32 47 46 49 67 50 34 51 18 52 19 53 27 54
REMARK SMILES IDX 20 55 26 56 28 57 25 58 21 59 22 60 23 61 24 62 50 63 51 64
REMARK SMILES IDX 59 65 52 66 58 67 60 68 57 69 53 70 54 71 55 72 56 73 35 74
REMARK SMILES IDX 36 75 44 76 37 77 43 78 45 79 42 80 38 81 39 82 40 83 41 84
REMARK H PARENT 65 37 33 48
REMARK Flexibility Score: inf
ROOT
ATOM      1  O   UNL A   1      40.619  20.926  27.215  1.00  0.00    -0.458 OA
ENDROOT
BRANCH   1   2
ATOM      2  C   UNL A   1      40.989  19.791  26.418  1.00  0.00     0.275 C 
BRANCH   2   3
ATOM      3  C   UNL A   1      42.388  19.296  26.789  1.00  0.00     0.275 C 
BRANCH   3   4
ATOM      4  O   UNL A   1      43.133  18.959  25.605  1.00  0.00    -0.457 OA
BRANCH   4   5
ATOM      5  C   UNL A   1      43.940  19.793  24.911  1.00  0.00     0.356 C 
ATOM      6  O   UNL A   1      44.220  19.544  23.740  1.00  0.00    -0.244 OA
BRANCH   5   7
ATOM      7  C   UNL A   1      44.416  21.062  25.527  1.00  0.00     0.145 C 
ATOM      8  C   UNL A   1      43.517  22.026  25.760  1.00  0.00     0.024 C 
ATOM      9  N   UNL A   1      45.722  21.477  25.685  1.00  0.00    -0.245 NA
ATOM     10  C   UNL A   1      44.215  23.259  26.187  1.00  0.00     0.107 C 
ATOM     11  C   UNL A   1      45.621  22.754  25.910  1.00  0.00     0.054 C 
ATOM     12  C   UNL A   1      43.986  24.540  25.461  1.00  0.00     0.050 C 
ATOM     13  C   UNL A   1      46.726  23.736  25.894  1.00  0.00     0.026 C 
ATOM     14  C   UNL A   1      45.005  25.412  25.355  1.00  0.00     0.056 C 
ATOM     15  Cl  UNL A   1      42.360  24.900  25.005  1.00  0.00    -0.086 Cl
ATOM     16  C   UNL A   1      46.378  25.007  25.630  1.00  0.00     0.023 C 
ATOM     17  Cl  UNL A   1      44.751  27.080  25.011  1.00  0.00    -0.083 Cl
ENDBRANCH   5   7
ENDBRANCH   4   5
ENDBRANCH   3   4
ENDBRANCH   2   3
ENDBRANCH   1   2
BRANCH   1  18
ATOM     18  C   UNL A   1      39.771  21.813  26.630  1.00  0.00     0.338 C 
ATOM     19  O   UNL A   1      38.854  21.535  25.873  1.00  0.00    -0.246 OA
BRANCH  18  20
ATOM     20  C   UNL A   1      40.025  23.180  27.154  1.00  0.00     0.060 A 
ATOM     21  C   UNL A   1      39.203  24.232  26.725  1.00  0.00     0.016 A 
ATOM     22  C   UNL A   1      41.038  23.435  28.084  1.00  0.00     0.016 A 
ATOM     23  C   UNL A   1      39.419  25.537  27.190  1.00  0.00     0.010 A 
ATOM     24  C   UNL A   1      41.229  24.730  28.572  1.00  0.00     0.010 A 
ATOM     25  C   UNL A   1      40.448  25.802  28.102  1.00  0.00    -0.014 A 
BRANCH  25  26
ATOM     26  C   UNL A   1      40.841  27.195  28.457  1.00  0.00     0.031 A 
ATOM     27  C   UNL A   1      42.307  27.527  28.553  1.00  0.00     0.074 A 
ATOM     28  C   UNL A   1      39.933  28.154  28.724  1.00  0.00     0.049 A 
ATOM     29  N   UNL A   1      42.882  28.666  28.844  1.00  0.00    -0.248 NA
ATOM     30  C   UNL A   1      43.250  26.431  28.280  1.00  0.00     0.031 C 
ATOM     31  C   UNL A   1      38.484  28.010  28.615  1.00  0.00     0.029 A 
ATOM     32  N   UNL A   1      40.103  29.443  29.178  1.00  0.00    -0.354 N 
ATOM     33  C   UNL A   1      44.248  28.439  28.724  1.00  0.00     0.074 A 
ATOM     34  C   UNL A   1      44.417  27.024  28.471  1.00  0.00     0.031 C 
ATOM     35  C   UNL A   1      37.898  29.141  29.053  1.00  0.00     0.029 A 
ATOM     36  C   UNL A   1      38.924  30.079  29.490  1.00  0.00     0.049 A 
ATOM     37  H   UNL A   1      40.986  29.868  29.270  1.00  0.00     0.167 HD
ATOM     38  C   UNL A   1      45.265  29.335  28.751  1.00  0.00     0.034 A 
ATOM     39  C   UNL A   1      38.695  31.277  30.068  1.00  0.00     0.034 A 
ATOM     40  C   UNL A   1      45.092  30.736  29.040  1.00  0.00     0.049 A 
ATOM     41  C   UNL A   1      39.853  32.214  30.285  1.00  0.00     0.074 A 
ATOM     42  C   UNL A   1      46.044  31.741  29.050  1.00  0.00     0.029 A 
ATOM     43  N   UNL A   1      43.887  31.329  29.399  1.00  0.00    -0.354 N 
ATOM     44  N   UNL A   1      41.130  32.018  30.056  1.00  0.00    -0.248 NA
ATOM     45  C   UNL A   1      39.524  33.568  30.751  1.00  0.00     0.031 C 
ATOM     46  C   UNL A   1      45.433  32.919  29.496  1.00  0.00     0.029 A 
ATOM     47  C   UNL A   1      44.083  32.674  29.678  1.00  0.00     0.049 A 
ATOM     48  H   UNL A   1      43.023  30.863  29.449  1.00  0.00     0.167 HD
ATOM     49  C   UNL A   1      41.742  33.254  30.250  1.00  0.00     0.074 A 
ATOM     50  C   UNL A   1      40.696  34.175  30.648  1.00  0.00     0.031 C 
ATOM     51  C   UNL A   1      43.042  33.599  30.067  1.00  0.00     0.034 A 
BRANCH  38  52
ATOM     52  C   UNL A   1      46.647  28.801  28.462  1.00  0.00     0.023 A 
ATOM     53  C   UNL A   1      47.149  28.760  27.146  1.00  0.00     0.031 A 
ATOM     54  C   UNL A   1      47.446  28.272  29.487  1.00  0.00     0.131 A 
ATOM     55  C   UNL A   1      48.365  28.116  26.880  1.00  0.00     0.055 A 
ATOM     56  C   UNL A   1      48.699  27.713  29.226  1.00  0.00     0.041 A 
ATOM     57  F   UNL A   1      47.011  28.262  30.757  1.00  0.00    -0.206 F 
ATOM     58  C   UNL A   1      49.156  27.614  27.915  1.00  0.00     0.022 A 
BRANCH  55  59
ATOM     59  S   UNL A   1      48.810  27.788  25.152  1.00  0.00     0.124 S 
ATOM     60  O   UNL A   1      49.081  26.353  25.186  1.00  0.00    -0.237 OA
ATOM     61  O   UNL A   1      47.608  28.195  24.435  1.00  0.00    -0.237 OA
ATOM     62  O   UNL A   1      49.984  28.631  24.935  1.00  0.00    -0.744 OA
ENDBRANCH  55  59
ENDBRANCH  38  52
BRANCH  39  63
ATOM     63  C   UNL A   1      37.317  31.692  30.457  1.00  0.00     0.023 A 
ATOM     64  C   UNL A   1      36.469  32.353  29.557  1.00  0.00     0.031 A 
ATOM     65  C   UNL A   1      36.867  31.516  31.777  1.00  0.00     0.131 A 
ATOM     66  C   UNL A   1      35.231  32.847  29.996  1.00  0.00     0.055 A 
ATOM     67  C   UNL A   1      35.605  31.949  32.193  1.00  0.00     0.041 A 
ATOM     68  F   UNL A   1      37.668  30.951  32.694  1.00  0.00    -0.206 F 
ATOM     69  C   UNL A   1      34.783  32.633  31.302  1.00  0.00     0.022 A 
BRANCH  66  70
ATOM     70  S   UNL A   1      34.256  33.875  28.861  1.00  0.00     0.124 S 
ATOM     71  O   UNL A   1      33.278  34.469  29.766  1.00  0.00    -0.237 OA
ATOM     72  O   UNL A   1      35.269  34.779  28.328  1.00  0.00    -0.237 OA
ATOM     73  O   UNL A   1      33.717  32.911  27.906  1.00  0.00    -0.744 OA
ENDBRANCH  66  70
ENDBRANCH  39  63
BRANCH  51  74
ATOM     74  C   UNL A   1      43.392  35.062  30.197  1.00  0.00     0.023 A 
ATOM     75  C   UNL A   1      43.338  35.948  29.108  1.00  0.00     0.031 A 
ATOM     76  C   UNL A   1      43.825  35.570  31.437  1.00  0.00     0.131 A 
ATOM     77  C   UNL A   1      43.781  37.271  29.260  1.00  0.00     0.055 A 
ATOM     78  C   UNL A   1      44.189  36.906  31.601  1.00  0.00     0.041 A 
ATOM     79  F   UNL A   1      43.904  34.770  32.514  1.00  0.00    -0.206 F 
ATOM     80  C   UNL A   1      44.186  37.761  30.505  1.00  0.00     0.022 A 
BRANCH  77  81
ATOM     81  S   UNL A   1      43.942  38.308  27.781  1.00  0.00     0.124 S 
ATOM     82  O   UNL A   1      42.704  38.012  27.067  1.00  0.00    -0.237 OA
ATOM     83  O   UNL A   1      44.044  39.648  28.350  1.00  0.00    -0.237 OA
ATOM     84  O   UNL A   1      45.161  37.811  27.144  1.00  0.00    -0.744 OA
ENDBRANCH  77  81
ENDBRANCH  51  74
ENDBRANCH  25  26
ENDBRANCH  18  20
ENDBRANCH   1  18
TORSDOF 14
ENDMDL
MODEL 3
REMARK VINA RESULT:     -10.0      1.677      2.084
REMARK SMILES O=C(OCCOC(=O)c1ccc(-c2c3nc(c(-c4cc(S(=O)(=O)[O-])ccc4F)c4ccc([nH]4)c(-c4cc(S(=O)(=O)[O-])ccc4F)c4nc(c(-c5cc(S(=O)(=O)[O-])ccc5F)c5ccc2[nH]5)C=C4)C=C3)cc1)C1=C[C@H]2C(=N1)C=CC(Cl)=C2Cl
REMARK SMILES IDX 6 1 5 2 4 3 3 4 2 5 1 6 72 7 73 8 76 9 74 10 75 11 81 12
REMARK SMILES IDX 77 13 79 14 82 15 78 16 80 17 7 18 8 19 9 20 10 21 71 22
REMARK SMILES IDX 11 23 70 24 12 25 13 26 14 27 64 28 15 29 69 30 63 31 65 32
REMARK SMILES IDX 16 33 68 34 62 35 61 36 17 38 49 39 29 40 48 41 30 42 33 43
REMARK SMILES IDX 47 44 66 45 31 46 32 47 46 49 67 50 34 51 18 52 19 53 27 54
REMARK SMILES IDX 20 55 26 56 28 57 25 58 21 59 22 60 23 61 24 62 50 63 51 64
REMARK SMILES IDX 59 65 52 66 58 67 60 68 57 69 53 70 54 71 55 72 56 73 35 74
REMARK SMILES IDX 36 75 44 76 37 77 43 78 45 79 42 80 38 81 39 82 40 83 41 84
REMARK H PARENT 65 37 33 48
REMARK Flexibility Score: inf
ROOT
ATOM      1  O   UNL A   1      40.432  21.168  27.351  1.00  0.00    -0.458 OA
ENDROOT
BRANCH   1   2
ATOM      2  C   UNL A   1      40.940  20.130  26.499  1.00  0.00     0.275 C 
BRANCH   2   3
ATOM      3  C   UNL A   1      42.350  19.716  26.924  1.00  0.00     0.275 C 
BRANCH   3   4
ATOM      4  O   UNL A   1      43.138  19.358  25.775  1.00  0.00    -0.457 OA
BRANCH   4   5
ATOM      5  C   UNL A   1      43.926  20.194  25.063  1.00  0.00     0.356 C 
ATOM      6  O   UNL A   1      44.168  19.953  23.881  1.00  0.00    -0.244 OA
BRANCH   5   7
ATOM      7  C   UNL A   1      44.429  21.454  25.674  1.00  0.00     0.145 C 
ATOM      8  C   UNL A   1      43.591  22.495  25.756  1.00  0.00     0.024 C 
ATOM      9  N   UNL A   1      45.738  21.778  25.968  1.00  0.00    -0.245 NA
ATOM     10  C   UNL A   1      44.333  23.693  26.208  1.00  0.00     0.107 C 
ATOM     11  C   UNL A   1      45.716  23.069  26.123  1.00  0.00     0.054 C 
ATOM     12  C   UNL A   1      44.293  24.946  25.404  1.00  0.00     0.050 C 
ATOM     13  C   UNL A   1      46.891  23.963  26.195  1.00  0.00     0.026 C 
ATOM     14  C   UNL A   1      45.385  25.732  25.381  1.00  0.00     0.056 C 
ATOM     15  Cl  UNL A   1      42.765  25.402  24.741  1.00  0.00    -0.086 Cl
ATOM     16  C   UNL A   1      46.680  25.240  25.836  1.00  0.00     0.023 C 
ATOM     17  Cl  UNL A   1      45.308  27.394  24.936  1.00  0.00    -0.083 Cl
ENDBRANCH   5   7
ENDBRANCH   4   5
ENDBRANCH   3   4
ENDBRANCH   2   3
ENDBRANCH   1   2
BRANCH   1  18
ATOM     18  C   UNL A   1      39.647  22.101  26.749  1.00  0.00     0.338 C 
ATOM     19  O   UNL A   1      38.635  21.877  26.104  1.00  0.00    -0.246 OA
BRANCH  18  20
ATOM     20  C   UNL A   1      40.117  23.465  27.104  1.00  0.00     0.060 A 
ATOM     21  C   UNL A   1      41.051  23.611  28.140  1.00  0.00     0.016 A 
ATOM     22  C   UNL A   1      39.676  24.597  26.412  1.00  0.00     0.016 A 
ATOM     23  C   UNL A   1      41.509  24.883  28.510  1.00  0.00     0.010 A 
ATOM     24  C   UNL A   1      40.162  25.861  26.759  1.00  0.00     0.010 A 
ATOM     25  C   UNL A   1      41.052  26.023  27.837  1.00  0.00    -0.014 A 
BRANCH  25  26
ATOM     26  C   UNL A   1      41.352  27.396  28.331  1.00  0.00     0.031 A 
ATOM     27  C   UNL A   1      42.785  27.760  28.619  1.00  0.00     0.074 A 
ATOM     28  C   UNL A   1      40.386  28.308  28.556  1.00  0.00     0.049 A 
ATOM     29  N   UNL A   1      43.282  28.890  29.054  1.00  0.00    -0.248 NA
ATOM     30  C   UNL A   1      43.792  26.713  28.382  1.00  0.00     0.031 C 
ATOM     31  C   UNL A   1      38.966  28.133  28.270  1.00  0.00     0.029 A 
ATOM     32  N   UNL A   1      40.458  29.564  29.115  1.00  0.00    -0.354 N 
ATOM     33  C   UNL A   1      44.660  28.709  29.078  1.00  0.00     0.074 A 
ATOM     34  C   UNL A   1      44.907  27.322  28.749  1.00  0.00     0.031 C 
ATOM     35  C   UNL A   1      38.293  29.213  28.714  1.00  0.00     0.029 A 
ATOM     36  C   UNL A   1      39.229  30.144  29.332  1.00  0.00     0.049 A 
ATOM     37  H   UNL A   1      41.309  30.005  29.339  1.00  0.00     0.167 HD
ATOM     38  C   UNL A   1      45.635  29.628  29.285  1.00  0.00     0.034 A 
ATOM     39  C   UNL A   1      38.894  31.290  29.961  1.00  0.00     0.034 A 
ATOM     40  C   UNL A   1      45.381  30.999  29.649  1.00  0.00     0.049 A 
ATOM     41  C   UNL A   1      39.985  32.240  30.376  1.00  0.00     0.074 A 
ATOM     42  C   UNL A   1      46.290  32.026  29.840  1.00  0.00     0.029 A 
ATOM     43  N   UNL A   1      44.123  31.531  29.906  1.00  0.00    -0.354 N 
ATOM     44  N   UNL A   1      41.286  32.095  30.284  1.00  0.00    -0.248 NA
ATOM     45  C   UNL A   1      39.558  33.546  30.894  1.00  0.00     0.031 C 
ATOM     46  C   UNL A   1      45.591  33.151  30.293  1.00  0.00     0.029 A 
ATOM     47  C   UNL A   1      44.238  32.857  30.298  1.00  0.00     0.049 A 
ATOM     48  H   UNL A   1      43.276  31.039  29.823  1.00  0.00     0.167 HD
ATOM     49  C   UNL A   1      41.828  33.330  30.633  1.00  0.00     0.074 A 
ATOM     50  C   UNL A   1      40.712  34.190  30.970  1.00  0.00     0.031 C 
ATOM     51  C   UNL A   1      43.127  33.722  30.627  1.00  0.00     0.034 A 
BRANCH  38  52
ATOM     52  C   UNL A   1      47.059  29.154  29.123  1.00  0.00     0.023 A 
ATOM     53  C   UNL A   1      47.689  29.165  27.862  1.00  0.00     0.031 A 
ATOM     54  C   UNL A   1      47.775  28.630  30.210  1.00  0.00     0.131 A 
ATOM     55  C   UNL A   1      48.950  28.574  27.704  1.00  0.00     0.055 A 
ATOM     56  C   UNL A   1      49.069  28.126  30.063  1.00  0.00     0.041 A 
ATOM     57  F   UNL A   1      47.220  28.573  31.431  1.00  0.00    -0.206 F 
ATOM     58  C   UNL A   1      49.656  28.077  28.801  1.00  0.00     0.022 A 
BRANCH  55  59
ATOM     59  S   UNL A   1      49.574  28.307  26.021  1.00  0.00     0.124 S 
ATOM     60  O   UNL A   1      50.498  29.428  25.870  1.00  0.00    -0.237 OA
ATOM     61  O   UNL A   1      50.182  26.985  26.117  1.00  0.00    -0.237 OA
ATOM     62  O   UNL A   1      48.371  28.385  25.194  1.00  0.00    -0.744 OA
ENDBRANCH  55  59
ENDBRANCH  38  52
BRANCH  39  63
ATOM     63  C   UNL A   1      37.467  31.637  30.215  1.00  0.00     0.023 A 
ATOM     64  C   UNL A   1      36.689  32.292  29.249  1.00  0.00     0.031 A 
ATOM     65  C   UNL A   1      36.891  31.403  31.476  1.00  0.00     0.131 A 
ATOM     66  C   UNL A   1      35.392  32.723  29.570  1.00  0.00     0.055 A 
ATOM     67  C   UNL A   1      35.575  31.773  31.769  1.00  0.00     0.041 A 
ATOM     68  F   UNL A   1      37.616  30.842  32.456  1.00  0.00    -0.206 F 
ATOM     69  C   UNL A   1      34.821  32.451  30.815  1.00  0.00     0.022 A 
BRANCH  66  70
ATOM     70  S   UNL A   1      34.497  33.746  28.368  1.00  0.00     0.124 S 
ATOM     71  O   UNL A   1      34.120  34.897  29.181  1.00  0.00    -0.237 OA
ATOM     72  O   UNL A   1      35.518  33.984  27.354  1.00  0.00    -0.237 OA
ATOM     73  O   UNL A   1      33.390  32.890  27.948  1.00  0.00    -0.744 OA
ENDBRANCH  66  70
ENDBRANCH  39  63
BRANCH  51  74
ATOM     74  C   UNL A   1      43.409  35.181  30.898  1.00  0.00     0.023 A 
ATOM     75  C   UNL A   1      43.454  35.709  32.200  1.00  0.00     0.031 A 
ATOM     76  C   UNL A   1      43.602  36.068  29.821  1.00  0.00     0.131 A 
ATOM     77  C   UNL A   1      43.609  37.091  32.388  1.00  0.00     0.055 A 
ATOM     78  C   UNL A   1      43.834  37.428  30.019  1.00  0.00     0.041 A 
ATOM     79  F   UNL A   1      43.563  35.623  28.554  1.00  0.00    -0.206 F 
ATOM     80  C   UNL A   1      43.820  37.951  31.307  1.00  0.00     0.022 A 
BRANCH  77  81
ATOM     81  S   UNL A   1      43.402  37.767  34.059  1.00  0.00     0.124 S 
ATOM     82  O   UNL A   1      42.913  39.114  33.782  1.00  0.00    -0.237 OA
ATOM     83  O   UNL A   1      42.436  36.847  34.649  1.00  0.00    -0.237 OA
ATOM     84  O   UNL A   1      44.749  37.700  34.625  1.00  0.00    -0.744 OA
ENDBRANCH  77  81
ENDBRANCH  51  74
ENDBRANCH  25  26
ENDBRANCH  18  20
ENDBRANCH   1  18
TORSDOF 14
ENDMDL
