MODEL 1
REMARK VINA RESULT:     -10.9      0.000      0.000
REMARK SMILES CN(CCCC(=O)OCCOC(=O)c1ccc(-c2c3nc(c(-c4cc(S(=O)(=O)[O-])ccc4F)c4ccc([nH]4)c(-c4cc(S(=O)(=O)[O-])ccc4F)c4nc(c(-c5cc(S(=O)(=O)[O-])ccc5F)c5ccc2[nH]5)C=C4)C=C3)cc1)C(=O)c1c[nH]nc1-c1ccccc1
REMARK SMILES IDX 8 1 6 2 7 3 5 4 4 5 3 6 2 7 1 8 77 9 78 10 79 11 80 12 83 13
REMARK SMILES IDX 81 14 82 15 84 17 85 18 89 19 86 20 88 21 87 22 9 23 10 24
REMARK SMILES IDX 11 25 12 26 13 27 14 28 15 29 76 30 16 31 75 32 17 33 18 34
REMARK SMILES IDX 19 35 69 36 20 37 74 38 68 39 70 40 21 41 73 42 67 43 66 44
REMARK SMILES IDX 22 46 54 47 34 48 53 49 35 50 38 51 52 52 71 53 36 54 37 55
REMARK SMILES IDX 51 57 72 58 39 59 23 60 24 61 32 62 25 63 31 64 33 65 30 66
REMARK SMILES IDX 26 67 27 68 28 69 29 70 55 71 56 72 64 73 57 74 63 75 65 76
REMARK SMILES IDX 62 77 58 78 59 79 60 80 61 81 40 82 41 83 49 84 42 85 48 86
REMARK SMILES IDX 50 87 47 88 43 89 44 90 45 91 46 92
REMARK H PARENT 81 16 70 45 38 56
REMARK Flexibility Score: inf
ROOT
ATOM      1  O   UNL A   1      37.196  21.413  25.524  1.00  0.00    -0.462 OA
ENDROOT
BRANCH   1   2
ATOM      2  C   UNL A   1      36.817  22.456  24.740  1.00  0.00     0.305 C 
ATOM      3  O   UNL A   1      36.934  22.485  23.522  1.00  0.00    -0.252 OA
BRANCH   2   4
ATOM      4  C   UNL A   1      36.106  23.544  25.517  1.00  0.00     0.124 C 
BRANCH   4   5
ATOM      5  C   UNL A   1      35.043  24.318  24.756  1.00  0.00     0.033 C 
BRANCH   5   6
ATOM      6  C   UNL A   1      34.283  25.362  25.576  1.00  0.00     0.120 C 
BRANCH   6   7
ATOM      7  N   UNL A   1      33.190  26.038  24.880  1.00  0.00    -0.342 N 
ATOM      8  C   UNL A   1      33.562  27.226  24.131  1.00  0.00     0.147 C 
BRANCH   7   9
ATOM      9  C   UNL A   1      31.970  25.438  24.526  1.00  0.00     0.257 C 
ATOM     10  O   UNL A   1      31.662  25.270  23.347  1.00  0.00    -0.269 OA
BRANCH   9  11
ATOM     11  C   UNL A   1      31.036  25.064  25.572  1.00  0.00     0.085 A 
ATOM     12  C   UNL A   1      29.800  25.642  25.792  1.00  0.00     0.119 A 
ATOM     13  C   UNL A   1      31.005  23.884  26.376  1.00  0.00     0.105 A 
ATOM     14  N   UNL A   1      29.196  24.914  26.775  1.00  0.00    -0.284 N 
ATOM     15  N   UNL A   1      29.897  23.833  27.134  1.00  0.00    -0.175 NA
ATOM     16  H   UNL A   1      28.332  25.159  27.177  1.00  0.00     0.189 HD
BRANCH  13  17
ATOM     17  C   UNL A   1      31.919  22.754  26.373  1.00  0.00     0.003 A 
ATOM     18  C   UNL A   1      31.858  21.857  25.296  1.00  0.00     0.010 A 
ATOM     19  C   UNL A   1      32.849  22.546  27.394  1.00  0.00     0.010 A 
ATOM     20  C   UNL A   1      32.735  20.780  25.221  1.00  0.00     0.001 A 
ATOM     21  C   UNL A   1      33.723  21.458  27.321  1.00  0.00     0.001 A 
ATOM     22  C   UNL A   1      33.673  20.584  26.232  1.00  0.00     0.000 A 
ENDBRANCH  13  17
ENDBRANCH   9  11
ENDBRANCH   7   9
ENDBRANCH   6   7
ENDBRANCH   5   6
ENDBRANCH   4   5
ENDBRANCH   2   4
ENDBRANCH   1   2
BRANCH   1  23
ATOM     23  C   UNL A   1      37.410  20.173  24.827  1.00  0.00     0.274 C 
BRANCH  23  24
ATOM     24  C   UNL A   1      38.720  19.518  25.274  1.00  0.00     0.275 C 
BRANCH  24  25
ATOM     25  O   UNL A   1      39.198  20.061  26.521  1.00  0.00    -0.458 OA
BRANCH  25  26
ATOM     26  C   UNL A   1      40.529  20.298  26.582  1.00  0.00     0.338 C 
ATOM     27  O   UNL A   1      41.430  19.540  26.236  1.00  0.00    -0.246 OA
BRANCH  26  28
ATOM     28  C   UNL A   1      40.767  21.690  26.989  1.00  0.00     0.060 A 
ATOM     29  C   UNL A   1      40.187  22.722  26.243  1.00  0.00     0.016 A 
ATOM     30  C   UNL A   1      41.621  21.981  28.050  1.00  0.00     0.016 A 
ATOM     31  C   UNL A   1      40.445  24.048  26.547  1.00  0.00     0.010 A 
ATOM     32  C   UNL A   1      41.897  23.317  28.350  1.00  0.00     0.010 A 
ATOM     33  C   UNL A   1      41.318  24.351  27.591  1.00  0.00    -0.014 A 
BRANCH  33  34
ATOM     34  C   UNL A   1      41.727  25.756  27.784  1.00  0.00     0.031 A 
ATOM     35  C   UNL A   1      43.057  26.189  27.245  1.00  0.00     0.074 A 
ATOM     36  C   UNL A   1      40.887  26.630  28.364  1.00  0.00     0.049 A 
ATOM     37  N   UNL A   1      43.696  27.312  27.424  1.00  0.00    -0.248 NA
ATOM     38  C   UNL A   1      43.756  25.223  26.383  1.00  0.00     0.031 C 
ATOM     39  C   UNL A   1      39.522  26.330  28.799  1.00  0.00     0.029 A 
ATOM     40  N   UNL A   1      41.058  27.950  28.686  1.00  0.00    -0.354 N 
ATOM     41  C   UNL A   1      44.886  27.182  26.717  1.00  0.00     0.074 A 
ATOM     42  C   UNL A   1      44.884  25.865  26.118  1.00  0.00     0.031 C 
ATOM     43  C   UNL A   1      38.986  27.434  29.344  1.00  0.00     0.029 A 
ATOM     44  C   UNL A   1      39.990  28.492  29.363  1.00  0.00     0.049 A 
ATOM     45  H   UNL A   1      41.868  28.462  28.455  1.00  0.00     0.167 HD
ATOM     46  C   UNL A   1      45.887  28.086  26.592  1.00  0.00     0.034 A 
ATOM     47  C   UNL A   1      39.871  29.686  29.972  1.00  0.00     0.034 A 
ATOM     48  C   UNL A   1      45.855  29.386  27.212  1.00  0.00     0.049 A 
ATOM     49  C   UNL A   1      41.052  30.629  29.927  1.00  0.00     0.074 A 
ATOM     50  C   UNL A   1      46.826  30.370  27.215  1.00  0.00     0.029 A 
ATOM     51  N   UNL A   1      44.783  29.884  27.945  1.00  0.00    -0.354 N 
ATOM     52  N   UNL A   1      42.213  30.470  29.331  1.00  0.00    -0.248 NA
ATOM     53  C   UNL A   1      40.909  31.904  30.638  1.00  0.00     0.031 C 
ATOM     54  C   UNL A   1      46.366  31.437  27.993  1.00  0.00     0.029 A 
ATOM     55  C   UNL A   1      45.076  31.152  28.416  1.00  0.00     0.049 A 
ATOM     56  H   UNL A   1      43.937  29.406  28.104  1.00  0.00     0.167 HD
ATOM     57  C   UNL A   1      42.925  31.642  29.570  1.00  0.00     0.074 A 
ATOM     58  C   UNL A   1      42.055  32.501  30.349  1.00  0.00     0.031 C 
ATOM     59  C   UNL A   1      44.182  31.984  29.186  1.00  0.00     0.034 A 
BRANCH  46  60
ATOM     60  C   UNL A   1      47.111  27.660  25.824  1.00  0.00     0.023 A 
ATOM     61  C   UNL A   1      47.277  27.961  24.461  1.00  0.00     0.031 A 
ATOM     62  C   UNL A   1      48.111  26.900  26.457  1.00  0.00     0.131 A 
ATOM     63  C   UNL A   1      48.385  27.458  23.763  1.00  0.00     0.055 A 
ATOM     64  C   UNL A   1      49.248  26.463  25.775  1.00  0.00     0.041 A 
ATOM     65  F   UNL A   1      47.991  26.555  27.748  1.00  0.00    -0.206 F 
ATOM     66  C   UNL A   1      49.384  26.731  24.416  1.00  0.00     0.022 A 
BRANCH  63  67
ATOM     67  S   UNL A   1      48.444  27.656  21.961  1.00  0.00     0.124 S 
ATOM     68  O   UNL A   1      47.121  28.210  21.682  1.00  0.00    -0.237 OA
ATOM     69  O   UNL A   1      49.568  28.567  21.779  1.00  0.00    -0.237 OA
ATOM     70  O   UNL A   1      48.659  26.296  21.472  1.00  0.00    -0.744 OA
ENDBRANCH  63  67
ENDBRANCH  46  60
BRANCH  47  71
ATOM     71  C   UNL A   1      38.640  30.039  30.740  1.00  0.00     0.023 A 
ATOM     72  C   UNL A   1      37.611  30.792  30.153  1.00  0.00     0.031 A 
ATOM     73  C   UNL A   1      38.511  29.700  32.100  1.00  0.00     0.131 A 
ATOM     74  C   UNL A   1      36.531  31.233  30.935  1.00  0.00     0.055 A 
ATOM     75  C   UNL A   1      37.404  30.085  32.857  1.00  0.00     0.041 A 
ATOM     76  F   UNL A   1      39.468  28.988  32.718  1.00  0.00    -0.206 F 
ATOM     77  C   UNL A   1      36.413  30.872  32.279  1.00  0.00     0.022 A 
BRANCH  74  78
ATOM     78  S   UNL A   1      35.345  32.391  30.199  1.00  0.00     0.124 S 
ATOM     79  O   UNL A   1      36.199  33.531  29.889  1.00  0.00    -0.237 OA
ATOM     80  O   UNL A   1      34.850  31.630  29.057  1.00  0.00    -0.237 OA
ATOM     81  O   UNL A   1      34.375  32.610  31.270  1.00  0.00    -0.744 OA
ENDBRANCH  74  78
ENDBRANCH  47  71
BRANCH  59  82
ATOM     82  C   UNL A   1      44.649  33.369  29.554  1.00  0.00     0.023 A 
ATOM     83  C   UNL A   1      44.433  34.470  28.710  1.00  0.00     0.031 A 
ATOM     84  C   UNL A   1      45.335  33.581  30.763  1.00  0.00     0.131 A 
ATOM     85  C   UNL A   1      44.950  35.727  29.059  1.00  0.00     0.055 A 
ATOM     86  C   UNL A   1      45.793  34.844  31.134  1.00  0.00     0.041 A 
ATOM     87  F   UNL A   1      45.568  32.561  31.605  1.00  0.00    -0.206 F 
ATOM     88  C   UNL A   1      45.614  35.924  30.273  1.00  0.00     0.022 A 
BRANCH  85  89
ATOM     89  S   UNL A   1      44.824  37.081  27.861  1.00  0.00     0.124 S 
ATOM     90  O   UNL A   1      44.208  36.418  26.716  1.00  0.00    -0.237 OA
ATOM     91  O   UNL A   1      43.985  38.044  28.566  1.00  0.00    -0.237 OA
ATOM     92  O   UNL A   1      46.212  37.496  27.664  1.00  0.00    -0.744 OA
ENDBRANCH  85  89
ENDBRANCH  59  82
ENDBRANCH  33  34
ENDBRANCH  26  28
ENDBRANCH  25  26
ENDBRANCH  24  25
ENDBRANCH  23  24
ENDBRANCH   1  23
TORSDOF 20
ENDMDL
MODEL 2
REMARK VINA RESULT:     -10.8      1.265      7.751
REMARK SMILES CN(CCCC(=O)OCCOC(=O)c1ccc(-c2c3nc(c(-c4cc(S(=O)(=O)[O-])ccc4F)c4ccc([nH]4)c(-c4cc(S(=O)(=O)[O-])ccc4F)c4nc(c(-c5cc(S(=O)(=O)[O-])ccc5F)c5ccc2[nH]5)C=C4)C=C3)cc1)C(=O)c1c[nH]nc1-c1ccccc1
REMARK SMILES IDX 8 1 6 2 7 3 5 4 4 5 3 6 2 7 1 8 77 9 78 10 79 11 80 12 83 13
REMARK SMILES IDX 81 14 82 15 84 17 85 18 89 19 86 20 88 21 87 22 9 23 10 24
REMARK SMILES IDX 11 25 12 26 13 27 14 28 15 29 76 30 16 31 75 32 17 33 18 34
REMARK SMILES IDX 19 35 69 36 20 37 74 38 68 39 70 40 21 41 73 42 67 43 66 44
REMARK SMILES IDX 22 46 54 47 34 48 53 49 35 50 38 51 52 52 71 53 36 54 37 55
REMARK SMILES IDX 51 57 72 58 39 59 23 60 24 61 32 62 25 63 31 64 33 65 30 66
REMARK SMILES IDX 26 67 27 68 28 69 29 70 55 71 56 72 64 73 57 74 63 75 65 76
REMARK SMILES IDX 62 77 58 78 59 79 60 80 61 81 40 82 41 83 49 84 42 85 48 86
REMARK SMILES IDX 50 87 47 88 43 89 44 90 45 91 46 92
REMARK H PARENT 81 16 70 45 38 56
REMARK Flexibility Score: inf
ROOT
ATOM      1  O   UNL A   1      34.710  20.871  24.518  1.00  0.00    -0.462 OA
ENDROOT
BRANCH   1   2
ATOM      2  C   UNL A   1      33.514  20.233  24.599  1.00  0.00     0.305 C 
ATOM      3  O   UNL A   1      33.259  19.339  25.394  1.00  0.00    -0.252 OA
BRANCH   2   4
ATOM      4  C   UNL A   1      32.468  20.833  23.683  1.00  0.00     0.124 C 
BRANCH   4   5
ATOM      5  C   UNL A   1      32.747  22.241  23.187  1.00  0.00     0.033 C 
BRANCH   5   6
ATOM      6  C   UNL A   1      31.552  23.196  23.228  1.00  0.00     0.120 C 
BRANCH   6   7
ATOM      7  N   UNL A   1      31.849  24.593  22.914  1.00  0.00    -0.342 N 
ATOM      8  C   UNL A   1      30.750  25.525  23.095  1.00  0.00     0.147 C 
BRANCH   7   9
ATOM      9  C   UNL A   1      33.138  25.151  22.878  1.00  0.00     0.257 C 
ATOM     10  O   UNL A   1      33.951  24.819  22.016  1.00  0.00    -0.269 OA
BRANCH   9  11
ATOM     11  C   UNL A   1      33.530  26.091  23.911  1.00  0.00     0.085 A 
ATOM     12  C   UNL A   1      33.568  27.466  23.776  1.00  0.00     0.119 A 
ATOM     13  C   UNL A   1      33.654  25.886  25.319  1.00  0.00     0.105 A 
ATOM     14  N   UNL A   1      33.856  27.973  25.010  1.00  0.00    -0.284 N 
ATOM     15  N   UNL A   1      33.896  27.038  25.966  1.00  0.00    -0.175 NA
ATOM     16  H   UNL A   1      34.016  28.929  25.178  1.00  0.00     0.189 HD
BRANCH  13  17
ATOM     17  C   UNL A   1      33.441  24.670  26.086  1.00  0.00     0.003 A 
ATOM     18  C   UNL A   1      34.563  23.902  26.433  1.00  0.00     0.010 A 
ATOM     19  C   UNL A   1      32.169  24.257  26.489  1.00  0.00     0.010 A 
ATOM     20  C   UNL A   1      34.423  22.750  27.200  1.00  0.00     0.001 A 
ATOM     21  C   UNL A   1      32.030  23.094  27.252  1.00  0.00     0.001 A 
ATOM     22  C   UNL A   1      33.155  22.349  27.614  1.00  0.00     0.000 A 
ENDBRANCH  13  17
ENDBRANCH   9  11
ENDBRANCH   7   9
ENDBRANCH   6   7
ENDBRANCH   5   6
ENDBRANCH   4   5
ENDBRANCH   2   4
ENDBRANCH   1   2
BRANCH   1  23
ATOM     23  C   UNL A   1      35.840  20.112  24.984  1.00  0.00     0.274 C 
BRANCH  23  24
ATOM     24  C   UNL A   1      37.152  20.823  24.638  1.00  0.00     0.275 C 
BRANCH  24  25
ATOM     25  O   UNL A   1      37.649  21.608  25.739  1.00  0.00    -0.458 OA
BRANCH  25  26
ATOM     26  C   UNL A   1      38.940  21.386  26.078  1.00  0.00     0.338 C 
ATOM     27  O   UNL A   1      39.606  20.385  25.834  1.00  0.00    -0.246 OA
BRANCH  26  28
ATOM     28  C   UNL A   1      39.515  22.604  26.665  1.00  0.00     0.060 A 
ATOM     29  C   UNL A   1      39.097  23.850  26.185  1.00  0.00     0.016 A 
ATOM     30  C   UNL A   1      40.519  22.522  27.627  1.00  0.00     0.016 A 
ATOM     31  C   UNL A   1      39.666  25.021  26.658  1.00  0.00     0.010 A 
ATOM     32  C   UNL A   1      41.108  23.699  28.095  1.00  0.00     0.010 A 
ATOM     33  C   UNL A   1      40.689  24.948  27.602  1.00  0.00    -0.014 A 
BRANCH  33  34
ATOM     34  C   UNL A   1      41.410  26.186  27.958  1.00  0.00     0.031 A 
ATOM     35  C   UNL A   1      40.677  27.237  28.735  1.00  0.00     0.074 A 
ATOM     36  C   UNL A   1      42.712  26.321  27.652  1.00  0.00     0.049 A 
ATOM     37  N   UNL A   1      41.040  28.456  29.025  1.00  0.00    -0.248 NA
ATOM     38  C   UNL A   1      39.355  26.856  29.259  1.00  0.00     0.031 C 
ATOM     39  C   UNL A   1      43.541  25.297  27.015  1.00  0.00     0.029 A 
ATOM     40  N   UNL A   1      43.565  27.376  27.836  1.00  0.00    -0.354 N 
ATOM     41  C   UNL A   1      39.983  28.999  29.746  1.00  0.00     0.074 A 
ATOM     42  C   UNL A   1      38.959  27.980  29.836  1.00  0.00     0.031 C 
ATOM     43  C   UNL A   1      44.784  25.782  26.851  1.00  0.00     0.029 A 
ATOM     44  C   UNL A   1      44.815  27.169  27.301  1.00  0.00     0.049 A 
ATOM     45  H   UNL A   1      43.309  28.203  28.307  1.00  0.00     0.167 HD
ATOM     46  C   UNL A   1      39.883  30.242  30.275  1.00  0.00     0.034 A 
ATOM     47  C   UNL A   1      45.841  28.028  27.147  1.00  0.00     0.034 A 
ATOM     48  C   UNL A   1      40.922  31.233  30.156  1.00  0.00     0.049 A 
ATOM     49  C   UNL A   1      45.658  29.448  27.631  1.00  0.00     0.074 A 
ATOM     50  C   UNL A   1      40.924  32.545  30.592  1.00  0.00     0.029 A 
ATOM     51  N   UNL A   1      42.156  31.013  29.553  1.00  0.00    -0.354 N 
ATOM     52  N   UNL A   1      44.622  29.988  28.236  1.00  0.00    -0.248 NA
ATOM     53  C   UNL A   1      46.775  30.373  27.409  1.00  0.00     0.031 C 
ATOM     54  C   UNL A   1      42.132  33.134  30.204  1.00  0.00     0.029 A 
ATOM     55  C   UNL A   1      42.918  32.169  29.591  1.00  0.00     0.049 A 
ATOM     56  H   UNL A   1      42.447  30.160  29.157  1.00  0.00     0.167 HD
ATOM     57  C   UNL A   1      44.981  31.308  28.494  1.00  0.00     0.074 A 
ATOM     58  C   UNL A   1      46.331  31.474  27.995  1.00  0.00     0.031 C 
ATOM     59  C   UNL A   1      44.264  32.298  29.088  1.00  0.00     0.034 A 
BRANCH  46  60
ATOM     60  C   UNL A   1      38.586  30.604  30.950  1.00  0.00     0.023 A 
ATOM     61  C   UNL A   1      37.552  31.269  30.267  1.00  0.00     0.031 A 
ATOM     62  C   UNL A   1      38.398  30.318  32.315  1.00  0.00     0.131 A 
ATOM     63  C   UNL A   1      36.403  31.675  30.964  1.00  0.00     0.055 A 
ATOM     64  C   UNL A   1      37.222  30.661  32.984  1.00  0.00     0.041 A 
ATOM     65  F   UNL A   1      39.364  29.715  33.024  1.00  0.00    -0.206 F 
ATOM     66  C   UNL A   1      36.220  31.354  32.311  1.00  0.00     0.022 A 
BRANCH  63  67
ATOM     67  S   UNL A   1      35.202  32.740  30.117  1.00  0.00     0.124 S 
ATOM     68  O   UNL A   1      34.661  31.831  29.110  1.00  0.00    -0.237 OA
ATOM     69  O   UNL A   1      34.294  33.111  31.195  1.00  0.00    -0.237 OA
ATOM     70  O   UNL A   1      36.021  33.828  29.589  1.00  0.00    -0.744 OA
ENDBRANCH  63  67
ENDBRANCH  46  60
BRANCH  47  71
ATOM     71  C   UNL A   1      47.092  27.615  26.445  1.00  0.00     0.023 A 
ATOM     72  C   UNL A   1      47.289  27.905  25.085  1.00  0.00     0.031 A 
ATOM     73  C   UNL A   1      48.073  26.849  27.101  1.00  0.00     0.131 A 
ATOM     74  C   UNL A   1      48.405  27.384  24.412  1.00  0.00     0.055 A 
ATOM     75  C   UNL A   1      49.214  26.388  26.444  1.00  0.00     0.041 A 
ATOM     76  F   UNL A   1      47.935  26.533  28.399  1.00  0.00    -0.206 F 
ATOM     77  C   UNL A   1      49.377  26.639  25.086  1.00  0.00     0.022 A 
BRANCH  74  78
ATOM     78  S   UNL A   1      48.504  27.587  22.613  1.00  0.00     0.124 S 
ATOM     79  O   UNL A   1      49.688  28.428  22.475  1.00  0.00    -0.237 OA
ATOM     80  O   UNL A   1      48.641  26.207  22.161  1.00  0.00    -0.237 OA
ATOM     81  O   UNL A   1      47.238  28.231  22.273  1.00  0.00    -0.744 OA
ENDBRANCH  74  78
ENDBRANCH  47  71
BRANCH  59  82
ATOM     82  C   UNL A   1      44.965  33.618  29.280  1.00  0.00     0.023 A 
ATOM     83  C   UNL A   1      44.943  34.618  28.293  1.00  0.00     0.031 A 
ATOM     84  C   UNL A   1      45.678  33.869  30.467  1.00  0.00     0.131 A 
ATOM     85  C   UNL A   1      45.670  35.802  28.486  1.00  0.00     0.055 A 
ATOM     86  C   UNL A   1      46.348  35.073  30.678  1.00  0.00     0.041 A 
ATOM     87  F   UNL A   1      45.730  32.946  31.440  1.00  0.00    -0.206 F 
ATOM     88  C   UNL A   1      46.358  36.042  29.678  1.00  0.00     0.022 A 
BRANCH  85  89
ATOM     89  S   UNL A   1      45.780  36.985  27.117  1.00  0.00     0.124 S 
ATOM     90  O   UNL A   1      44.393  37.414  26.973  1.00  0.00    -0.237 OA
ATOM     91  O   UNL A   1      46.705  37.984  27.641  1.00  0.00    -0.237 OA
ATOM     92  O   UNL A   1      46.299  36.182  26.010  1.00  0.00    -0.744 OA
ENDBRANCH  85  89
ENDBRANCH  59  82
ENDBRANCH  33  34
ENDBRANCH  26  28
ENDBRANCH  25  26
ENDBRANCH  24  25
ENDBRANCH  23  24
ENDBRANCH   1  23
TORSDOF 20
ENDMDL
MODEL 3
REMARK VINA RESULT:     -10.6      4.979      7.860
REMARK SMILES CN(CCCC(=O)OCCOC(=O)c1ccc(-c2c3nc(c(-c4cc(S(=O)(=O)[O-])ccc4F)c4ccc([nH]4)c(-c4cc(S(=O)(=O)[O-])ccc4F)c4nc(c(-c5cc(S(=O)(=O)[O-])ccc5F)c5ccc2[nH]5)C=C4)C=C3)cc1)C(=O)c1c[nH]nc1-c1ccccc1
REMARK SMILES IDX 8 1 6 2 7 3 5 4 4 5 3 6 2 7 1 8 77 9 78 10 79 11 80 12 83 13
REMARK SMILES IDX 81 14 82 15 84 17 85 18 89 19 86 20 88 21 87 22 9 23 10 24
REMARK SMILES IDX 11 25 12 26 13 27 14 28 15 29 76 30 16 31 75 32 17 33 18 34
REMARK SMILES IDX 19 35 69 36 20 37 74 38 68 39 70 40 21 41 73 42 67 43 66 44
REMARK SMILES IDX 22 46 54 47 34 48 53 49 35 50 38 51 52 52 71 53 36 54 37 55
REMARK SMILES IDX 51 57 72 58 39 59 23 60 24 61 32 62 25 63 31 64 33 65 30 66
REMARK SMILES IDX 26 67 27 68 28 69 29 70 55 71 56 72 64 73 57 74 63 75 65 76
REMARK SMILES IDX 62 77 58 78 59 79 60 80 61 81 40 82 41 83 49 84 42 85 48 86
REMARK SMILES IDX 50 87 47 88 43 89 44 90 45 91 46 92
REMARK H PARENT 81 16 70 45 38 56
REMARK Flexibility Score: inf
ROOT
ATOM      1  O   UNL A   1      31.087  29.193  24.367  1.00  0.00    -0.462 OA
ENDROOT
BRANCH   1   2
ATOM      2  C   UNL A   1      31.233  28.054  23.643  1.00  0.00     0.305 C 
ATOM      3  O   UNL A   1      32.261  27.729  23.065  1.00  0.00    -0.252 OA
BRANCH   2   4
ATOM      4  C   UNL A   1      30.023  27.147  23.728  1.00  0.00     0.124 C 
BRANCH   4   5
ATOM      5  C   UNL A   1      30.292  25.723  24.183  1.00  0.00     0.033 C 
BRANCH   5   6
ATOM      6  C   UNL A   1      30.533  25.551  25.684  1.00  0.00     0.120 C 
BRANCH   6   7
ATOM      7  N   UNL A   1      31.730  24.796  26.049  1.00  0.00    -0.342 N 
ATOM      8  C   UNL A   1      32.978  25.539  26.010  1.00  0.00     0.147 C 
BRANCH   7   9
ATOM      9  C   UNL A   1      31.733  23.616  26.812  1.00  0.00     0.257 C 
ATOM     10  O   UNL A   1      30.752  23.287  27.477  1.00  0.00    -0.269 OA
BRANCH   9  11
ATOM     11  C   UNL A   1      32.937  22.807  26.858  1.00  0.00     0.085 A 
ATOM     12  C   UNL A   1      33.638  22.472  28.001  1.00  0.00     0.119 A 
ATOM     13  C   UNL A   1      33.484  21.943  25.861  1.00  0.00     0.105 A 
ATOM     14  N   UNL A   1      34.614  21.599  27.620  1.00  0.00    -0.284 N 
ATOM     15  N   UNL A   1      34.532  21.248  26.332  1.00  0.00    -0.175 NA
ATOM     16  H   UNL A   1      35.307  21.260  28.231  1.00  0.00     0.189 HD
BRANCH  13  17
ATOM     17  C   UNL A   1      32.987  21.666  24.523  1.00  0.00     0.003 A 
ATOM     18  C   UNL A   1      32.674  20.338  24.196  1.00  0.00     0.010 A 
ATOM     19  C   UNL A   1      32.808  22.673  23.572  1.00  0.00     0.010 A 
ATOM     20  C   UNL A   1      32.158  20.020  22.944  1.00  0.00     0.001 A 
ATOM     21  C   UNL A   1      32.298  22.349  22.311  1.00  0.00     0.001 A 
ATOM     22  C   UNL A   1      31.965  21.029  22.003  1.00  0.00     0.000 A 
ENDBRANCH  13  17
ENDBRANCH   9  11
ENDBRANCH   7   9
ENDBRANCH   6   7
ENDBRANCH   5   6
ENDBRANCH   4   5
ENDBRANCH   2   4
ENDBRANCH   1   2
BRANCH   1  23
ATOM     23  C   UNL A   1      31.653  29.153  25.689  1.00  0.00     0.274 C 
BRANCH  23  24
ATOM     24  C   UNL A   1      32.039  30.559  26.158  1.00  0.00     0.275 C 
BRANCH  24  25
ATOM     25  O   UNL A   1      32.839  30.530  27.356  1.00  0.00    -0.458 OA
BRANCH  25  26
ATOM     26  C   UNL A   1      33.580  31.638  27.590  1.00  0.00     0.338 C 
ATOM     27  O   UNL A   1      33.196  32.803  27.556  1.00  0.00    -0.246 OA
BRANCH  26  28
ATOM     28  C   UNL A   1      34.918  31.250  28.058  1.00  0.00     0.060 A 
ATOM     29  C   UNL A   1      35.126  29.941  28.505  1.00  0.00     0.016 A 
ATOM     30  C   UNL A   1      35.943  32.191  28.133  1.00  0.00     0.016 A 
ATOM     31  C   UNL A   1      36.351  29.554  29.022  1.00  0.00     0.010 A 
ATOM     32  C   UNL A   1      37.174  31.810  28.669  1.00  0.00     0.010 A 
ATOM     33  C   UNL A   1      37.375  30.494  29.125  1.00  0.00    -0.014 A 
BRANCH  33  34
ATOM     34  C   UNL A   1      38.607  30.119  29.846  1.00  0.00     0.031 A 
ATOM     35  C   UNL A   1      39.519  29.109  29.217  1.00  0.00     0.074 A 
ATOM     36  C   UNL A   1      38.929  30.731  30.998  1.00  0.00     0.049 A 
ATOM     37  N   UNL A   1      40.563  28.510  29.719  1.00  0.00    -0.248 NA
ATOM     38  C   UNL A   1      39.208  28.727  27.829  1.00  0.00     0.031 C 
ATOM     39  C   UNL A   1      38.171  31.820  31.617  1.00  0.00     0.029 A 
ATOM     40  N   UNL A   1      39.978  30.525  31.854  1.00  0.00    -0.354 N 
ATOM     41  C   UNL A   1      41.025  27.661  28.720  1.00  0.00     0.074 A 
ATOM     42  C   UNL A   1      40.136  27.814  27.588  1.00  0.00     0.031 C 
ATOM     43  C   UNL A   1      38.776  32.176  32.763  1.00  0.00     0.029 A 
ATOM     44  C   UNL A   1      39.915  31.295  32.992  1.00  0.00     0.049 A 
ATOM     45  H   UNL A   1      40.706  29.887  31.672  1.00  0.00     0.167 HD
ATOM     46  C   UNL A   1      42.092  26.828  28.758  1.00  0.00     0.034 A 
ATOM     47  C   UNL A   1      40.665  31.245  34.110  1.00  0.00     0.034 A 
ATOM     48  C   UNL A   1      42.948  26.699  29.910  1.00  0.00     0.049 A 
ATOM     49  C   UNL A   1      41.771  30.217  34.178  1.00  0.00     0.074 A 
ATOM     50  C   UNL A   1      44.023  25.851  30.100  1.00  0.00     0.029 A 
ATOM     51  N   UNL A   1      42.823  27.449  31.074  1.00  0.00    -0.354 N 
ATOM     52  N   UNL A   1      42.153  29.352  33.265  1.00  0.00    -0.248 NA
ATOM     53  C   UNL A   1      42.541  30.155  35.426  1.00  0.00     0.031 C 
ATOM     54  C   UNL A   1      44.511  26.047  31.397  1.00  0.00     0.029 A 
ATOM     55  C   UNL A   1      43.789  27.072  31.991  1.00  0.00     0.049 A 
ATOM     56  H   UNL A   1      42.146  28.149  31.225  1.00  0.00     0.167 HD
ATOM     57  C   UNL A   1      43.230  28.667  33.820  1.00  0.00     0.074 A 
ATOM     58  C   UNL A   1      43.445  29.232  35.136  1.00  0.00     0.031 C 
ATOM     59  C   UNL A   1      43.978  27.661  33.295  1.00  0.00     0.034 A 
BRANCH  46  60
ATOM     60  C   UNL A   1      42.329  25.954  27.555  1.00  0.00     0.023 A 
ATOM     61  C   UNL A   1      41.801  24.654  27.463  1.00  0.00     0.031 A 
ATOM     62  C   UNL A   1      43.137  26.413  26.498  1.00  0.00     0.131 A 
ATOM     63  C   UNL A   1      42.132  23.840  26.369  1.00  0.00     0.055 A 
ATOM     64  C   UNL A   1      43.403  25.624  25.378  1.00  0.00     0.041 A 
ATOM     65  F   UNL A   1      43.694  27.632  26.546  1.00  0.00    -0.206 F 
ATOM     66  C   UNL A   1      42.909  24.325  25.314  1.00  0.00     0.022 A 
BRANCH  63  67
ATOM     67  S   UNL A   1      41.637  22.095  26.400  1.00  0.00     0.124 S 
ATOM     68  O   UNL A   1      40.238  22.178  25.987  1.00  0.00    -0.237 OA
ATOM     69  O   UNL A   1      42.551  21.490  25.438  1.00  0.00    -0.237 OA
ATOM     70  O   UNL A   1      41.847  21.703  27.791  1.00  0.00    -0.744 OA
ENDBRANCH  63  67
ENDBRANCH  46  60
BRANCH  47  71
ATOM     71  C   UNL A   1      40.362  32.121  35.279  1.00  0.00     0.023 A 
ATOM     72  C   UNL A   1      39.317  31.811  36.165  1.00  0.00     0.031 A 
ATOM     73  C   UNL A   1      41.057  33.328  35.482  1.00  0.00     0.131 A 
ATOM     74  C   UNL A   1      38.959  32.722  37.172  1.00  0.00     0.055 A 
ATOM     75  C   UNL A   1      40.740  34.199  36.525  1.00  0.00     0.041 A 
ATOM     76  F   UNL A   1      42.061  33.682  34.662  1.00  0.00    -0.206 F 
ATOM     77  C   UNL A   1      39.673  33.907  37.367  1.00  0.00     0.022 A 
BRANCH  74  78
ATOM     78  S   UNL A   1      37.464  32.393  38.145  1.00  0.00     0.124 S 
ATOM     79  O   UNL A   1      37.403  30.937  38.110  1.00  0.00    -0.237 OA
ATOM     80  O   UNL A   1      37.805  32.991  39.432  1.00  0.00    -0.237 OA
ATOM     81  O   UNL A   1      36.414  33.081  37.398  1.00  0.00    -0.744 OA
ENDBRANCH  74  78
ENDBRANCH  47  71
BRANCH  59  82
ATOM     82  C   UNL A   1      45.130  27.167  34.131  1.00  0.00     0.023 A 
ATOM     83  C   UNL A   1      45.000  26.065  34.993  1.00  0.00     0.031 A 
ATOM     84  C   UNL A   1      46.373  27.822  34.072  1.00  0.00     0.131 A 
ATOM     85  C   UNL A   1      46.078  25.687  35.806  1.00  0.00     0.055 A 
ATOM     86  C   UNL A   1      47.460  27.403  34.837  1.00  0.00     0.041 A 
ATOM     87  F   UNL A   1      46.550  28.880  33.264  1.00  0.00    -0.206 F 
ATOM     88  C   UNL A   1      47.311  26.338  35.722  1.00  0.00     0.022 A 
BRANCH  85  89
ATOM     89  S   UNL A   1      45.817  24.389  37.045  1.00  0.00     0.124 S 
ATOM     90  O   UNL A   1      47.124  23.743  37.089  1.00  0.00    -0.237 OA
ATOM     91  O   UNL A   1      45.445  25.156  38.228  1.00  0.00    -0.237 OA
ATOM     92  O   UNL A   1      44.743  23.578  36.471  1.00  0.00    -0.744 OA
ENDBRANCH  85  89
ENDBRANCH  59  82
ENDBRANCH  33  34
ENDBRANCH  26  28
ENDBRANCH  25  26
ENDBRANCH  24  25
ENDBRANCH  23  24
ENDBRANCH   1  23
TORSDOF 20
ENDMDL
