MODEL 1
REMARK VINA RESULT:     -12.2      0.000      0.000
REMARK SMILES Cc1ccc(Nc2c(F)cccc2I)c(CC(=O)OCCOC(=O)c2ccc(-c3c4nc(c(-c5cc(S(=O)(=O)[O-])ccc5F)c5ccc([nH]5)c(-c5cc(S(=O)(=O)[O-])ccc5F)c5nc(c(-c6cc(S(=O)(=O)[O-])ccc6F)c6ccc3[nH]6)C=C5)C=C4)cc2)c1
REMARK SMILES IDX 20 1 19 2 17 3 18 4 16 5 15 6 1 7 2 8 3 9 88 10 4 11 5 12
REMARK SMILES IDX 6 13 7 15 8 16 13 17 9 18 10 19 12 20 14 21 11 22 21 23
REMARK SMILES IDX 22 24 23 25 24 26 25 27 26 28 87 29 27 30 86 31 28 32 29 33
REMARK SMILES IDX 30 34 80 35 31 36 85 37 79 38 81 39 32 40 84 41 78 42 77 43
REMARK SMILES IDX 33 45 65 46 45 47 64 48 46 49 49 50 63 51 82 52 47 53 48 54
REMARK SMILES IDX 62 56 83 57 50 58 34 59 35 60 43 61 36 62 42 63 44 64 41 65
REMARK SMILES IDX 37 66 38 67 39 68 40 69 66 70 67 71 75 72 68 73 74 74 76 75
REMARK SMILES IDX 73 76 69 77 70 78 71 79 72 80 51 81 52 82 60 83 53 84 59 85
REMARK SMILES IDX 61 86 58 87 54 88 55 89 56 90 57 91
REMARK H PARENT 6 14 81 44 49 55
REMARK Flexibility Score: inf
ROOT
ATOM      1  C   UNL A   1      36.615  23.069  24.200  1.00  0.00     0.274 C 
ENDROOT
BRANCH   1   2
ATOM      2  O   UNL A   1      35.518  23.581  24.940  1.00  0.00    -0.462 OA
BRANCH   2   3
ATOM      3  C   UNL A   1      34.510  22.734  25.273  1.00  0.00     0.310 C 
ATOM      4  O   UNL A   1      34.017  21.895  24.557  1.00  0.00    -0.252 OA
BRANCH   3   5
ATOM      5  C   UNL A   1      34.082  23.052  26.692  1.00  0.00     0.160 C 
BRANCH   5   6
ATOM      6  C   UNL A   1      32.764  23.782  26.653  1.00  0.00    -0.013 A 
ATOM      7  C   UNL A   1      29.200  22.542  27.027  1.00  0.00     0.044 C 
ATOM      8  C   UNL A   1      30.360  23.457  26.790  1.00  0.00    -0.051 A 
ATOM      9  C   UNL A   1      30.183  24.735  26.258  1.00  0.00     0.005 A 
ATOM     10  C   UNL A   1      31.652  23.004  27.020  1.00  0.00     0.009 A 
ATOM     11  C   UNL A   1      31.285  25.535  25.933  1.00  0.00     0.026 A 
ATOM     12  C   UNL A   1      32.593  25.072  26.093  1.00  0.00     0.042 A 
BRANCH  12  13
ATOM     13  N   UNL A   1      33.663  25.822  25.567  1.00  0.00    -0.352 N 
ATOM     14  H   UNL A   1      34.547  25.584  25.932  1.00  0.00     0.167 HD
BRANCH  13  15
ATOM     15  C   UNL A   1      33.687  26.863  24.600  1.00  0.00     0.088 A 
ATOM     16  C   UNL A   1      33.757  26.550  23.236  1.00  0.00     0.147 A 
ATOM     17  C   UNL A   1      33.315  28.182  24.923  1.00  0.00     0.040 A 
ATOM     18  F   UNL A   1      34.147  25.326  22.845  1.00  0.00    -0.205 F 
ATOM     19  C   UNL A   1      33.421  27.477  22.246  1.00  0.00     0.041 A 
ATOM     20  C   UNL A   1      32.864  29.081  23.945  1.00  0.00     0.017 A 
ATOM     21  I   UNL A   1      33.781  29.032  26.785  1.00  0.00    -0.042 I 
ATOM     22  C   UNL A   1      32.917  28.725  22.602  1.00  0.00     0.004 A 
ENDBRANCH  13  15
ENDBRANCH  12  13
ENDBRANCH   5   6
ENDBRANCH   3   5
ENDBRANCH   2   3
ENDBRANCH   1   2
BRANCH   1  23
ATOM     23  C   UNL A   1      37.669  22.574  25.201  1.00  0.00     0.275 C 
BRANCH  23  24
ATOM     24  O   UNL A   1      38.244  23.588  26.115  1.00  0.00    -0.458 OA
BRANCH  24  25
ATOM     25  C   UNL A   1      39.489  23.686  26.680  1.00  0.00     0.338 C 
ATOM     26  O   UNL A   1      40.378  22.873  26.443  1.00  0.00    -0.246 OA
BRANCH  25  27
ATOM     27  C   UNL A   1      39.815  24.936  27.373  1.00  0.00     0.060 A 
ATOM     28  C   UNL A   1      40.379  26.047  26.720  1.00  0.00     0.016 A 
ATOM     29  C   UNL A   1      39.327  25.048  28.648  1.00  0.00     0.016 A 
ATOM     30  C   UNL A   1      40.285  27.299  27.323  1.00  0.00     0.010 A 
ATOM     31  C   UNL A   1      38.885  26.272  29.029  1.00  0.00     0.010 A 
ATOM     32  C   UNL A   1      39.490  27.395  28.464  1.00  0.00    -0.014 A 
BRANCH  32  33
ATOM     33  C   UNL A   1      39.463  28.513  29.392  1.00  0.00     0.031 A 
ATOM     34  C   UNL A   1      38.502  29.599  29.213  1.00  0.00     0.074 A 
ATOM     35  C   UNL A   1      40.343  28.351  30.412  1.00  0.00     0.049 A 
ATOM     36  N   UNL A   1      38.798  30.851  29.218  1.00  0.00    -0.248 NA
ATOM     37  C   UNL A   1      37.084  29.351  28.939  1.00  0.00     0.031 C 
ATOM     38  C   UNL A   1      40.571  29.065  31.647  1.00  0.00     0.029 A 
ATOM     39  N   UNL A   1      41.375  27.403  30.409  1.00  0.00    -0.354 N 
ATOM     40  C   UNL A   1      37.598  31.506  29.414  1.00  0.00     0.074 A 
ATOM     41  C   UNL A   1      36.573  30.589  28.982  1.00  0.00     0.031 C 
ATOM     42  C   UNL A   1      41.814  28.762  32.089  1.00  0.00     0.029 A 
ATOM     43  C   UNL A   1      42.459  27.887  31.110  1.00  0.00     0.049 A 
ATOM     44  H   UNL A   1      41.332  26.522  29.971  1.00  0.00     0.167 HD
ATOM     45  C   UNL A   1      37.542  32.572  30.263  1.00  0.00     0.034 A 
ATOM     46  C   UNL A   1      43.574  28.120  30.357  1.00  0.00     0.034 A 
ATOM     47  C   UNL A   1      38.821  32.717  30.952  1.00  0.00     0.049 A 
ATOM     48  C   UNL A   1      43.717  29.609  30.164  1.00  0.00     0.074 A 
ATOM     49  C   UNL A   1      39.234  32.317  32.213  1.00  0.00     0.029 A 
ATOM     50  N   UNL A   1      39.973  32.965  30.221  1.00  0.00    -0.354 N 
ATOM     51  N   UNL A   1      42.724  30.455  30.229  1.00  0.00    -0.248 NA
ATOM     52  C   UNL A   1      45.006  30.260  29.995  1.00  0.00     0.031 C 
ATOM     53  C   UNL A   1      40.653  32.263  32.209  1.00  0.00     0.029 A 
ATOM     54  C   UNL A   1      41.096  32.623  30.948  1.00  0.00     0.049 A 
ATOM     55  H   UNL A   1      39.988  33.333  29.308  1.00  0.00     0.167 HD
ATOM     56  C   UNL A   1      43.211  31.731  30.219  1.00  0.00     0.074 A 
ATOM     57  C   UNL A   1      44.648  31.554  30.056  1.00  0.00     0.031 C 
ATOM     58  C   UNL A   1      42.414  32.831  30.378  1.00  0.00     0.034 A 
BRANCH  45  59
ATOM     59  C   UNL A   1      36.268  33.210  30.760  1.00  0.00     0.023 A 
ATOM     60  C   UNL A   1      35.495  33.994  29.878  1.00  0.00     0.031 A 
ATOM     61  C   UNL A   1      35.737  33.045  32.053  1.00  0.00     0.131 A 
ATOM     62  C   UNL A   1      34.307  34.619  30.288  1.00  0.00     0.055 A 
ATOM     63  C   UNL A   1      34.562  33.689  32.475  1.00  0.00     0.041 A 
ATOM     64  F   UNL A   1      36.317  32.226  32.945  1.00  0.00    -0.206 F 
ATOM     65  C   UNL A   1      33.842  34.486  31.592  1.00  0.00     0.022 A 
BRANCH  62  66
ATOM     66  S   UNL A   1      33.368  35.582  29.071  1.00  0.00     0.124 S 
ATOM     67  O   UNL A   1      32.651  36.531  29.917  1.00  0.00    -0.237 OA
ATOM     68  O   UNL A   1      34.423  36.139  28.231  1.00  0.00    -0.237 OA
ATOM     69  O   UNL A   1      32.527  34.579  28.419  1.00  0.00    -0.744 OA
ENDBRANCH  62  66
ENDBRANCH  45  59
BRANCH  46  70
ATOM     70  C   UNL A   1      43.835  27.043  29.321  1.00  0.00     0.023 A 
ATOM     71  C   UNL A   1      43.827  27.439  27.958  1.00  0.00     0.031 A 
ATOM     72  C   UNL A   1      44.393  25.788  29.607  1.00  0.00     0.131 A 
ATOM     73  C   UNL A   1      44.485  26.682  26.972  1.00  0.00     0.055 A 
ATOM     74  C   UNL A   1      44.980  24.994  28.601  1.00  0.00     0.041 A 
ATOM     75  F   UNL A   1      44.467  25.341  30.868  1.00  0.00    -0.206 F 
ATOM     76  C   UNL A   1      45.062  25.454  27.285  1.00  0.00     0.022 A 
BRANCH  73  77
ATOM     77  S   UNL A   1      44.854  27.460  25.364  1.00  0.00     0.124 S 
ATOM     78  O   UNL A   1      45.575  28.665  25.760  1.00  0.00    -0.237 OA
ATOM     79  O   UNL A   1      45.643  26.434  24.685  1.00  0.00    -0.237 OA
ATOM     80  O   UNL A   1      43.531  27.669  24.783  1.00  0.00    -0.744 OA
ENDBRANCH  73  77
ENDBRANCH  46  70
BRANCH  58  81
ATOM     81  C   UNL A   1      42.838  34.247  30.093  1.00  0.00     0.023 A 
ATOM     82  C   UNL A   1      42.763  34.796  28.814  1.00  0.00     0.031 A 
ATOM     83  C   UNL A   1      43.247  35.129  31.125  1.00  0.00     0.131 A 
ATOM     84  C   UNL A   1      43.214  36.095  28.563  1.00  0.00     0.055 A 
ATOM     85  C   UNL A   1      43.562  36.467  30.894  1.00  0.00     0.041 A 
ATOM     86  F   UNL A   1      43.355  34.737  32.402  1.00  0.00    -0.206 F 
ATOM     87  C   UNL A   1      43.579  36.952  29.598  1.00  0.00     0.022 A 
BRANCH  84  88
ATOM     88  S   UNL A   1      43.444  36.565  26.836  1.00  0.00     0.124 S 
ATOM     89  O   UNL A   1      42.683  35.526  26.144  1.00  0.00    -0.237 OA
ATOM     90  O   UNL A   1      42.865  37.904  26.794  1.00  0.00    -0.237 OA
ATOM     91  O   UNL A   1      44.891  36.502  26.653  1.00  0.00    -0.744 OA
ENDBRANCH  84  88
ENDBRANCH  58  81
ENDBRANCH  32  33
ENDBRANCH  25  27
ENDBRANCH  24  25
ENDBRANCH  23  24
ENDBRANCH   1  23
TORSDOF 17
ENDMDL
MODEL 2
REMARK VINA RESULT:     -11.9      1.559      2.072
REMARK SMILES Cc1ccc(Nc2c(F)cccc2I)c(CC(=O)OCCOC(=O)c2ccc(-c3c4nc(c(-c5cc(S(=O)(=O)[O-])ccc5F)c5ccc([nH]5)c(-c5cc(S(=O)(=O)[O-])ccc5F)c5nc(c(-c6cc(S(=O)(=O)[O-])ccc6F)c6ccc3[nH]6)C=C5)C=C4)cc2)c1
REMARK SMILES IDX 20 1 19 2 17 3 18 4 16 5 15 6 1 7 2 8 3 9 88 10 4 11 5 12
REMARK SMILES IDX 6 13 7 15 8 16 13 17 9 18 10 19 12 20 14 21 11 22 21 23
REMARK SMILES IDX 22 24 23 25 24 26 25 27 26 28 87 29 27 30 86 31 28 32 29 33
REMARK SMILES IDX 30 34 80 35 31 36 85 37 79 38 81 39 32 40 84 41 78 42 77 43
REMARK SMILES IDX 33 45 65 46 45 47 64 48 46 49 49 50 63 51 82 52 47 53 48 54
REMARK SMILES IDX 62 56 83 57 50 58 34 59 35 60 43 61 36 62 42 63 44 64 41 65
REMARK SMILES IDX 37 66 38 67 39 68 40 69 66 70 67 71 75 72 68 73 74 74 76 75
REMARK SMILES IDX 73 76 69 77 70 78 71 79 72 80 51 81 52 82 60 83 53 84 59 85
REMARK SMILES IDX 61 86 58 87 54 88 55 89 56 90 57 91
REMARK H PARENT 6 14 81 44 49 55
REMARK Flexibility Score: inf
ROOT
ATOM      1  C   UNL A   1      36.983  22.898  24.542  1.00  0.00     0.274 C 
ENDROOT
BRANCH   1   2
ATOM      2  O   UNL A   1      35.779  22.494  25.174  1.00  0.00    -0.462 OA
BRANCH   2   3
ATOM      3  C   UNL A   1      35.522  21.166  25.290  1.00  0.00     0.310 C 
ATOM      4  O   UNL A   1      36.291  20.266  25.045  1.00  0.00    -0.252 OA
BRANCH   3   5
ATOM      5  C   UNL A   1      34.084  21.006  25.743  1.00  0.00     0.160 C 
BRANCH   5   6
ATOM      6  C   UNL A   1      33.197  20.913  24.530  1.00  0.00    -0.013 A 
ATOM      7  C   UNL A   1      32.292  17.980  22.304  1.00  0.00     0.044 C 
ATOM      8  C   UNL A   1      32.376  19.375  22.838  1.00  0.00    -0.051 A 
ATOM      9  C   UNL A   1      31.962  20.471  22.079  1.00  0.00     0.005 A 
ATOM     10  C   UNL A   1      32.957  19.604  24.077  1.00  0.00     0.009 A 
ATOM     11  C   UNL A   1      32.154  21.777  22.543  1.00  0.00     0.026 A 
ATOM     12  C   UNL A   1      32.798  22.032  23.757  1.00  0.00     0.042 A 
BRANCH  12  13
ATOM     13  N   UNL A   1      33.153  23.354  24.090  1.00  0.00    -0.352 N 
ATOM     14  H   UNL A   1      34.107  23.478  24.303  1.00  0.00     0.167 HD
BRANCH  13  15
ATOM     15  C   UNL A   1      32.372  24.538  24.171  1.00  0.00     0.088 A 
ATOM     16  C   UNL A   1      32.664  25.627  23.340  1.00  0.00     0.147 A 
ATOM     17  C   UNL A   1      31.118  24.555  24.811  1.00  0.00     0.040 A 
ATOM     18  F   UNL A   1      33.857  25.707  22.729  1.00  0.00    -0.205 F 
ATOM     19  C   UNL A   1      31.741  26.650  23.110  1.00  0.00     0.041 A 
ATOM     20  C   UNL A   1      30.143  25.513  24.495  1.00  0.00     0.017 A 
ATOM     21  I   UNL A   1      30.753  23.431  26.546  1.00  0.00    -0.042 I 
ATOM     22  C   UNL A   1      30.458  26.563  23.641  1.00  0.00     0.004 A 
ENDBRANCH  13  15
ENDBRANCH  12  13
ENDBRANCH   5   6
ENDBRANCH   3   5
ENDBRANCH   2   3
ENDBRANCH   1   2
BRANCH   1  23
ATOM     23  C   UNL A   1      37.672  23.926  25.451  1.00  0.00     0.275 C 
BRANCH  23  24
ATOM     24  O   UNL A   1      38.608  23.391  26.467  1.00  0.00    -0.458 OA
BRANCH  24  25
ATOM     25  C   UNL A   1      39.913  23.706  26.741  1.00  0.00     0.338 C 
ATOM     26  O   UNL A   1      40.850  23.066  26.271  1.00  0.00    -0.246 OA
BRANCH  25  27
ATOM     27  C   UNL A   1      40.170  24.990  27.400  1.00  0.00     0.060 A 
ATOM     28  C   UNL A   1      40.594  26.136  26.702  1.00  0.00     0.016 A 
ATOM     29  C   UNL A   1      39.753  25.078  28.701  1.00  0.00     0.016 A 
ATOM     30  C   UNL A   1      40.427  27.384  27.297  1.00  0.00     0.010 A 
ATOM     31  C   UNL A   1      39.229  26.264  29.097  1.00  0.00     0.010 A 
ATOM     32  C   UNL A   1      39.698  27.427  28.485  1.00  0.00    -0.014 A 
BRANCH  32  33
ATOM     33  C   UNL A   1      39.630  28.552  29.402  1.00  0.00     0.031 A 
ATOM     34  C   UNL A   1      38.639  29.609  29.202  1.00  0.00     0.074 A 
ATOM     35  C   UNL A   1      40.502  28.425  30.433  1.00  0.00     0.049 A 
ATOM     36  N   UNL A   1      38.900  30.869  29.198  1.00  0.00    -0.248 NA
ATOM     37  C   UNL A   1      37.232  29.319  28.915  1.00  0.00     0.031 C 
ATOM     38  C   UNL A   1      40.697  29.156  31.663  1.00  0.00     0.029 A 
ATOM     39  N   UNL A   1      41.561  27.507  30.450  1.00  0.00    -0.354 N 
ATOM     40  C   UNL A   1      37.680  31.491  29.375  1.00  0.00     0.074 A 
ATOM     41  C   UNL A   1      36.686  30.542  28.941  1.00  0.00     0.031 C 
ATOM     42  C   UNL A   1      41.943  28.893  32.121  1.00  0.00     0.029 A 
ATOM     43  C   UNL A   1      42.623  28.028  31.158  1.00  0.00     0.049 A 
ATOM     44  H   UNL A   1      41.547  26.621  30.020  1.00  0.00     0.167 HD
ATOM     45  C   UNL A   1      37.585  32.564  30.214  1.00  0.00     0.034 A 
ATOM     46  C   UNL A   1      43.739  28.285  30.414  1.00  0.00     0.034 A 
ATOM     47  C   UNL A   1      38.852  32.751  30.915  1.00  0.00     0.049 A 
ATOM     48  C   UNL A   1      43.842  29.775  30.208  1.00  0.00     0.074 A 
ATOM     49  C   UNL A   1      39.262  32.375  32.184  1.00  0.00     0.029 A 
ATOM     50  N   UNL A   1      40.005  33.025  30.193  1.00  0.00    -0.354 N 
ATOM     51  N   UNL A   1      42.824  30.593  30.255  1.00  0.00    -0.248 NA
ATOM     52  C   UNL A   1      45.114  30.461  30.047  1.00  0.00     0.031 C 
ATOM     53  C   UNL A   1      40.683  32.361  32.196  1.00  0.00     0.029 A 
ATOM     54  C   UNL A   1      41.128  32.722  30.936  1.00  0.00     0.049 A 
ATOM     55  H   UNL A   1      40.019  33.385  29.277  1.00  0.00     0.167 HD
ATOM     56  C   UNL A   1      43.276  31.883  30.238  1.00  0.00     0.074 A 
ATOM     57  C   UNL A   1      44.718  31.745  30.091  1.00  0.00     0.031 C 
ATOM     58  C   UNL A   1      42.447  32.961  30.377  1.00  0.00     0.034 A 
BRANCH  45  59
ATOM     59  C   UNL A   1      36.288  33.170  30.692  1.00  0.00     0.023 A 
ATOM     60  C   UNL A   1      35.520  33.952  29.803  1.00  0.00     0.031 A 
ATOM     61  C   UNL A   1      35.733  32.976  31.970  1.00  0.00     0.131 A 
ATOM     62  C   UNL A   1      34.311  34.548  30.196  1.00  0.00     0.055 A 
ATOM     63  C   UNL A   1      34.536  33.592  32.374  1.00  0.00     0.041 A 
ATOM     64  F   UNL A   1      36.309  32.155  32.863  1.00  0.00    -0.206 F 
ATOM     65  C   UNL A   1      33.820  34.387  31.486  1.00  0.00     0.022 A 
BRANCH  62  66
ATOM     66  S   UNL A   1      33.380  35.510  28.971  1.00  0.00     0.124 S 
ATOM     67  O   UNL A   1      34.446  36.083  28.156  1.00  0.00    -0.237 OA
ATOM     68  O   UNL A   1      32.557  34.489  28.331  1.00  0.00    -0.237 OA
ATOM     69  O   UNL A   1      32.642  36.474  29.787  1.00  0.00    -0.744 OA
ENDBRANCH  62  66
ENDBRANCH  45  59
BRANCH  46  70
ATOM     70  C   UNL A   1      44.041  27.206  29.392  1.00  0.00     0.023 A 
ATOM     71  C   UNL A   1      43.963  27.571  28.022  1.00  0.00     0.031 A 
ATOM     72  C   UNL A   1      44.693  25.999  29.683  1.00  0.00     0.131 A 
ATOM     73  C   UNL A   1      44.641  26.840  27.030  1.00  0.00     0.055 A 
ATOM     74  C   UNL A   1      45.302  25.225  28.674  1.00  0.00     0.041 A 
ATOM     75  F   UNL A   1      44.838  25.585  30.949  1.00  0.00    -0.206 F 
ATOM     76  C   UNL A   1      45.311  25.662  27.347  1.00  0.00     0.022 A 
BRANCH  73  77
ATOM     77  S   UNL A   1      44.905  27.607  25.396  1.00  0.00     0.124 S 
ATOM     78  O   UNL A   1      45.727  26.613  24.715  1.00  0.00    -0.237 OA
ATOM     79  O   UNL A   1      43.542  27.766  24.893  1.00  0.00    -0.237 OA
ATOM     80  O   UNL A   1      45.566  28.868  25.723  1.00  0.00    -0.744 OA
ENDBRANCH  73  77
ENDBRANCH  46  70
BRANCH  58  81
ATOM     81  C   UNL A   1      42.833  34.386  30.084  1.00  0.00     0.023 A 
ATOM     82  C   UNL A   1      42.633  34.961  28.830  1.00  0.00     0.031 A 
ATOM     83  C   UNL A   1      43.335  35.249  31.090  1.00  0.00     0.131 A 
ATOM     84  C   UNL A   1      43.051  36.268  28.565  1.00  0.00     0.055 A 
ATOM     85  C   UNL A   1      43.618  36.595  30.858  1.00  0.00     0.041 A 
ATOM     86  F   UNL A   1      43.566  34.832  32.343  1.00  0.00    -0.206 F 
ATOM     87  C   UNL A   1      43.508  37.106  29.577  1.00  0.00     0.022 A 
BRANCH  84  88
ATOM     88  S   UNL A   1      43.112  36.776  26.834  1.00  0.00     0.124 S 
ATOM     89  O   UNL A   1      42.718  35.544  26.152  1.00  0.00    -0.237 OA
ATOM     90  O   UNL A   1      42.136  37.860  26.789  1.00  0.00    -0.237 OA
ATOM     91  O   UNL A   1      44.503  37.175  26.642  1.00  0.00    -0.744 OA
ENDBRANCH  84  88
ENDBRANCH  58  81
ENDBRANCH  32  33
ENDBRANCH  25  27
ENDBRANCH  24  25
ENDBRANCH  23  24
ENDBRANCH   1  23
TORSDOF 17
ENDMDL
MODEL 3
REMARK VINA RESULT:     -11.8      4.124      9.535
REMARK SMILES Cc1ccc(Nc2c(F)cccc2I)c(CC(=O)OCCOC(=O)c2ccc(-c3c4nc(c(-c5cc(S(=O)(=O)[O-])ccc5F)c5ccc([nH]5)c(-c5cc(S(=O)(=O)[O-])ccc5F)c5nc(c(-c6cc(S(=O)(=O)[O-])ccc6F)c6ccc3[nH]6)C=C5)C=C4)cc2)c1
REMARK SMILES IDX 20 1 19 2 17 3 18 4 16 5 15 6 1 7 2 8 3 9 88 10 4 11 5 12
REMARK SMILES IDX 6 13 7 15 8 16 13 17 9 18 10 19 12 20 14 21 11 22 21 23
REMARK SMILES IDX 22 24 23 25 24 26 25 27 26 28 87 29 27 30 86 31 28 32 29 33
REMARK SMILES IDX 30 34 80 35 31 36 85 37 79 38 81 39 32 40 84 41 78 42 77 43
REMARK SMILES IDX 33 45 65 46 45 47 64 48 46 49 49 50 63 51 82 52 47 53 48 54
REMARK SMILES IDX 62 56 83 57 50 58 34 59 35 60 43 61 36 62 42 63 44 64 41 65
REMARK SMILES IDX 37 66 38 67 39 68 40 69 66 70 67 71 75 72 68 73 74 74 76 75
REMARK SMILES IDX 73 76 69 77 70 78 71 79 72 80 51 81 52 82 60 83 53 84 59 85
REMARK SMILES IDX 61 86 58 87 54 88 55 89 56 90 57 91
REMARK H PARENT 6 14 81 44 49 55
REMARK Flexibility Score: inf
ROOT
ATOM      1  C   UNL A   1      33.840  30.462  27.328  1.00  0.00     0.274 C 
ENDROOT
BRANCH   1   2
ATOM      2  O   UNL A   1      32.458  30.140  27.326  1.00  0.00    -0.462 OA
BRANCH   2   3
ATOM      3  C   UNL A   1      32.097  28.837  27.199  1.00  0.00     0.310 C 
ATOM      4  O   UNL A   1      31.437  28.199  27.986  1.00  0.00    -0.252 OA
BRANCH   3   5
ATOM      5  C   UNL A   1      32.702  28.307  25.914  1.00  0.00     0.160 C 
BRANCH   5   6
ATOM      6  C   UNL A   1      31.593  27.844  25.006  1.00  0.00    -0.013 A 
ATOM      7  C   UNL A   1      29.314  29.754  22.653  1.00  0.00     0.044 C 
ATOM      8  C   UNL A   1      29.916  28.627  23.433  1.00  0.00    -0.051 A 
ATOM      9  C   UNL A   1      29.274  27.393  23.541  1.00  0.00     0.005 A 
ATOM     10  C   UNL A   1      31.094  28.830  24.138  1.00  0.00     0.009 A 
ATOM     11  C   UNL A   1      29.789  26.387  24.367  1.00  0.00     0.026 A 
ATOM     12  C   UNL A   1      30.936  26.595  25.138  1.00  0.00     0.042 A 
BRANCH  12  13
ATOM     13  N   UNL A   1      31.304  25.639  26.105  1.00  0.00    -0.352 N 
ATOM     14  H   UNL A   1      31.359  25.989  27.024  1.00  0.00     0.167 HD
BRANCH  13  15
ATOM     15  C   UNL A   1      31.608  24.256  25.982  1.00  0.00     0.088 A 
ATOM     16  C   UNL A   1      30.645  23.295  26.318  1.00  0.00     0.147 A 
ATOM     17  C   UNL A   1      32.711  23.805  25.231  1.00  0.00     0.040 A 
ATOM     18  F   UNL A   1      29.587  23.637  27.070  1.00  0.00    -0.205 F 
ATOM     19  C   UNL A   1      30.741  21.970  25.885  1.00  0.00     0.041 A 
ATOM     20  C   UNL A   1      32.756  22.510  24.695  1.00  0.00     0.017 A 
ATOM     21  I   UNL A   1      34.524  24.862  25.197  1.00  0.00    -0.042 I 
ATOM     22  C   UNL A   1      31.766  21.591  25.024  1.00  0.00     0.004 A 
ENDBRANCH  13  15
ENDBRANCH  12  13
ENDBRANCH   5   6
ENDBRANCH   3   5
ENDBRANCH   2   3
ENDBRANCH   1   2
BRANCH   1  23
ATOM     23  C   UNL A   1      33.980  31.934  27.741  1.00  0.00     0.275 C 
BRANCH  23  24
ATOM     24  O   UNL A   1      35.192  32.294  28.514  1.00  0.00    -0.458 OA
BRANCH  24  25
ATOM     25  C   UNL A   1      35.586  31.948  29.780  1.00  0.00     0.338 C 
ATOM     26  O   UNL A   1      34.816  31.988  30.736  1.00  0.00    -0.246 OA
BRANCH  25  27
ATOM     27  C   UNL A   1      36.881  31.276  29.920  1.00  0.00     0.060 A 
ATOM     28  C   UNL A   1      37.119  30.264  30.868  1.00  0.00     0.016 A 
ATOM     29  C   UNL A   1      37.786  31.526  28.922  1.00  0.00     0.016 A 
ATOM     30  C   UNL A   1      38.203  29.410  30.680  1.00  0.00     0.010 A 
ATOM     31  C   UNL A   1      38.563  30.488  28.527  1.00  0.00     0.010 A 
ATOM     32  C   UNL A   1      38.891  29.515  29.472  1.00  0.00    -0.014 A 
BRANCH  32  33
ATOM     33  C   UNL A   1      40.187  28.929  29.176  1.00  0.00     0.031 A 
ATOM     34  C   UNL A   1      40.291  27.526  28.779  1.00  0.00     0.074 A 
ATOM     35  C   UNL A   1      41.187  29.844  29.239  1.00  0.00     0.049 A 
ATOM     36  N   UNL A   1      41.101  26.673  29.300  1.00  0.00    -0.248 NA
ATOM     37  C   UNL A   1      39.411  26.932  27.769  1.00  0.00     0.031 C 
ATOM     38  C   UNL A   1      42.584  29.812  28.871  1.00  0.00     0.029 A 
ATOM     39  N   UNL A   1      41.053  31.108  29.828  1.00  0.00    -0.354 N 
ATOM     40  C   UNL A   1      41.152  25.627  28.400  1.00  0.00     0.074 A 
ATOM     41  C   UNL A   1      39.934  25.706  27.633  1.00  0.00     0.031 C 
ATOM     42  C   UNL A   1      43.216  30.818  29.519  1.00  0.00     0.029 A 
ATOM     43  C   UNL A   1      42.252  31.496  30.385  1.00  0.00     0.049 A 
ATOM     44  H   UNL A   1      40.224  31.639  29.841  1.00  0.00     0.167 HD
ATOM     45  C   UNL A   1      42.351  25.040  28.114  1.00  0.00     0.034 A 
ATOM     46  C   UNL A   1      42.248  31.599  31.747  1.00  0.00     0.034 A 
ATOM     47  C   UNL A   1      43.428  25.792  28.753  1.00  0.00     0.049 A 
ATOM     48  C   UNL A   1      42.984  30.413  32.317  1.00  0.00     0.074 A 
ATOM     49  C   UNL A   1      44.297  26.750  28.255  1.00  0.00     0.029 A 
ATOM     50  N   UNL A   1      43.462  25.908  30.134  1.00  0.00    -0.354 N 
ATOM     51  N   UNL A   1      43.124  29.271  31.698  1.00  0.00    -0.248 NA
ATOM     52  C   UNL A   1      43.711  30.468  33.575  1.00  0.00     0.031 C 
ATOM     53  C   UNL A   1      44.804  27.490  29.356  1.00  0.00     0.029 A 
ATOM     54  C   UNL A   1      44.238  26.985  30.514  1.00  0.00     0.049 A 
ATOM     55  H   UNL A   1      42.996  25.306  30.757  1.00  0.00     0.167 HD
ATOM     56  C   UNL A   1      44.009  28.487  32.383  1.00  0.00     0.074 A 
ATOM     57  C   UNL A   1      44.336  29.279  33.561  1.00  0.00     0.031 C 
ATOM     58  C   UNL A   1      44.433  27.270  31.924  1.00  0.00     0.034 A 
BRANCH  45  59
ATOM     59  C   UNL A   1      42.588  24.076  26.978  1.00  0.00     0.023 A 
ATOM     60  C   UNL A   1      42.155  22.738  27.103  1.00  0.00     0.031 A 
ATOM     61  C   UNL A   1      43.174  24.414  25.745  1.00  0.00     0.131 A 
ATOM     62  C   UNL A   1      42.358  21.796  26.083  1.00  0.00     0.055 A 
ATOM     63  C   UNL A   1      43.401  23.467  24.731  1.00  0.00     0.041 A 
ATOM     64  F   UNL A   1      43.516  25.681  25.461  1.00  0.00    -0.206 F 
ATOM     65  C   UNL A   1      42.996  22.148  24.899  1.00  0.00     0.022 A 
BRANCH  62  66
ATOM     66  S   UNL A   1      41.738  20.108  26.326  1.00  0.00     0.124 S 
ATOM     67  O   UNL A   1      40.302  20.276  26.128  1.00  0.00    -0.237 OA
ATOM     68  O   UNL A   1      42.448  19.362  25.292  1.00  0.00    -0.237 OA
ATOM     69  O   UNL A   1      42.139  19.793  27.697  1.00  0.00    -0.744 OA
ENDBRANCH  62  66
ENDBRANCH  45  59
BRANCH  46  70
ATOM     70  C   UNL A   1      40.984  32.230  32.298  1.00  0.00     0.023 A 
ATOM     71  C   UNL A   1      40.146  31.411  33.100  1.00  0.00     0.031 A 
ATOM     72  C   UNL A   1      40.746  33.611  32.350  1.00  0.00     0.131 A 
ATOM     73  C   UNL A   1      39.235  31.970  34.014  1.00  0.00     0.055 A 
ATOM     74  C   UNL A   1      39.774  34.163  33.209  1.00  0.00     0.041 A 
ATOM     75  F   UNL A   1      41.502  34.465  31.646  1.00  0.00    -0.206 F 
ATOM     76  C   UNL A   1      39.040  33.347  34.073  1.00  0.00     0.022 A 
BRANCH  73  77
ATOM     77  S   UNL A   1      38.552  30.912  35.334  1.00  0.00     0.124 S 
ATOM     78  O   UNL A   1      38.159  29.714  34.601  1.00  0.00    -0.237 OA
ATOM     79  O   UNL A   1      39.685  30.764  36.245  1.00  0.00    -0.237 OA
ATOM     80  O   UNL A   1      37.460  31.717  35.874  1.00  0.00    -0.744 OA
ENDBRANCH  73  77
ENDBRANCH  46  70
BRANCH  58  81
ATOM     81  C   UNL A   1      45.168  26.249  32.749  1.00  0.00     0.023 A 
ATOM     82  C   UNL A   1      44.499  25.246  33.448  1.00  0.00     0.031 A 
ATOM     83  C   UNL A   1      46.584  26.194  32.787  1.00  0.00     0.131 A 
ATOM     84  C   UNL A   1      45.199  24.342  34.252  1.00  0.00     0.055 A 
ATOM     85  C   UNL A   1      47.283  25.204  33.476  1.00  0.00     0.041 A 
ATOM     86  F   UNL A   1      47.354  27.090  32.153  1.00  0.00    -0.206 F 
ATOM     87  C   UNL A   1      46.590  24.286  34.245  1.00  0.00     0.022 A 
BRANCH  84  88
ATOM     88  S   UNL A   1      44.231  23.351  35.409  1.00  0.00     0.124 S 
ATOM     89  O   UNL A   1      42.881  23.861  35.174  1.00  0.00    -0.237 OA
ATOM     90  O   UNL A   1      44.481  21.991  34.944  1.00  0.00    -0.237 OA
ATOM     91  O   UNL A   1      44.804  23.685  36.710  1.00  0.00    -0.744 OA
ENDBRANCH  84  88
ENDBRANCH  58  81
ENDBRANCH  32  33
ENDBRANCH  25  27
ENDBRANCH  24  25
ENDBRANCH  23  24
ENDBRANCH   1  23
TORSDOF 17
ENDMDL
