MODEL 1
REMARK VINA RESULT:     -10.7      0.000      0.000
REMARK SMILES [NH3+][C@]1(C(=O)OCCOC(=O)c2ccc(-c3c4nc(c(-c5cc(S(=O)(=O)[O-])ccc5F)c5ccc([nH]5)c(-c5cc(S(=O)(=O)[O-])ccc5F)c5nc(c(-c6cc(S(=O)(=O)[O-])ccc6F)c6ccc3[nH]6)C=C5)C=C4)cc2)CCC[C@@H]1CCOc1ccc(CO)cc1
REMARK SMILES IDX 5 1 3 2 4 3 2 4 74 5 77 6 75 7 76 8 1 9 78 13 79 14 80 15
REMARK SMILES IDX 81 16 82 17 88 18 83 19 87 20 84 21 85 22 86 23 6 25 7 26
REMARK SMILES IDX 8 27 9 28 10 29 11 30 12 31 73 32 13 33 72 34 14 35 15 36
REMARK SMILES IDX 16 37 66 38 17 39 71 40 65 41 67 42 18 43 70 44 64 45 63 46
REMARK SMILES IDX 19 48 51 49 31 50 50 51 32 52 35 53 49 54 68 55 33 56 34 57
REMARK SMILES IDX 48 59 69 60 36 61 20 62 21 63 29 64 22 65 28 66 30 67 27 68
REMARK SMILES IDX 23 69 24 70 25 71 26 72 52 73 53 74 61 75 54 76 60 77 62 78
REMARK SMILES IDX 59 79 55 80 56 81 57 82 58 83 37 84 38 85 46 86 39 87 45 88
REMARK SMILES IDX 47 89 44 90 40 91 41 92 42 93 43 94
REMARK H PARENT 1 10 1 11 1 12 86 24 67 47 35 58
REMARK Flexibility Score: inf
ROOT
ATOM      1  O   UNL A   1      44.079  21.220  25.689  1.00  0.00    -0.457 OA
ENDROOT
BRANCH   1   2
ATOM      2  C   UNL A   1      43.042  20.333  25.774  1.00  0.00     0.368 C 
ATOM      3  O   UNL A   1      42.897  19.396  24.993  1.00  0.00    -0.245 OA
BRANCH   2   4
ATOM      4  C   UNL A   1      42.020  20.698  26.888  1.00  0.00     0.195 C 
ATOM      5  C   UNL A   1      42.683  21.751  27.808  1.00  0.00     0.081 C 
ATOM      6  C   UNL A   1      40.746  21.466  26.435  1.00  0.00     0.066 C 
ATOM      7  C   UNL A   1      41.558  22.460  28.541  1.00  0.00     0.008 C 
ATOM      8  C   UNL A   1      40.319  22.275  27.678  1.00  0.00     0.011 C 
BRANCH   4   9
ATOM      9  N   UNL A   1      41.720  19.490  27.694  1.00  0.00    -0.343 N 
ATOM     10  H   UNL A   1      41.751  19.727  28.685  1.00  0.00     0.345 HD
ATOM     11  H   UNL A   1      42.412  18.768  27.495  1.00  0.00     0.345 HD
ATOM     12  H   UNL A   1      40.790  19.145  27.456  1.00  0.00     0.345 HD
ENDBRANCH   4   9
BRANCH   6  13
ATOM     13  C   UNL A   1      39.579  20.625  25.864  1.00  0.00     0.052 C 
BRANCH  13  14
ATOM     14  C   UNL A   1      38.411  21.483  25.334  1.00  0.00     0.230 C 
BRANCH  14  15
ATOM     15  O   UNL A   1      37.141  20.831  25.531  1.00  0.00    -0.494 OA
BRANCH  15  16
ATOM     16  C   UNL A   1      36.168  21.554  24.890  1.00  0.00     0.119 A 
ATOM     17  C   UNL A   1      36.488  22.688  24.150  1.00  0.00     0.047 A 
ATOM     18  C   UNL A   1      34.861  21.095  24.940  1.00  0.00     0.047 A 
ATOM     19  C   UNL A   1      35.502  23.306  23.371  1.00  0.00     0.010 A 
ATOM     20  C   UNL A   1      33.886  21.692  24.143  1.00  0.00     0.010 A 
ATOM     21  C   UNL A   1      34.195  22.799  23.342  1.00  0.00    -0.022 A 
BRANCH  21  22
ATOM     22  C   UNL A   1      33.168  23.365  22.392  1.00  0.00     0.191 C 
BRANCH  22  23
ATOM     23  O   UNL A   1      32.032  22.509  22.289  1.00  0.00    -0.392 OA
ATOM     24  H   UNL A   1      32.085  22.001  21.465  1.00  0.00     0.211 HD
ENDBRANCH  22  23
ENDBRANCH  21  22
ENDBRANCH  15  16
ENDBRANCH  14  15
ENDBRANCH  13  14
ENDBRANCH   6  13
ENDBRANCH   2   4
ENDBRANCH   1   2
BRANCH   1  25
ATOM     25  C   UNL A   1      44.563  21.459  24.350  1.00  0.00     0.274 C 
BRANCH  25  26
ATOM     26  C   UNL A   1      44.457  22.920  23.892  1.00  0.00     0.275 C 
BRANCH  26  27
ATOM     27  O   UNL A   1      43.612  23.728  24.735  1.00  0.00    -0.458 OA
BRANCH  27  28
ATOM     28  C   UNL A   1      44.178  24.911  25.052  1.00  0.00     0.338 C 
ATOM     29  O   UNL A   1      45.229  25.338  24.604  1.00  0.00    -0.246 OA
BRANCH  28  30
ATOM     30  C   UNL A   1      43.382  25.727  25.968  1.00  0.00     0.060 A 
ATOM     31  C   UNL A   1      43.902  26.960  26.358  1.00  0.00     0.016 A 
ATOM     32  C   UNL A   1      42.305  25.159  26.654  1.00  0.00     0.016 A 
ATOM     33  C   UNL A   1      43.391  27.601  27.480  1.00  0.00     0.010 A 
ATOM     34  C   UNL A   1      41.749  25.837  27.742  1.00  0.00     0.010 A 
ATOM     35  C   UNL A   1      42.308  27.049  28.181  1.00  0.00    -0.014 A 
BRANCH  35  36
ATOM     36  C   UNL A   1      41.743  27.780  29.339  1.00  0.00     0.031 A 
ATOM     37  C   UNL A   1      40.467  28.566  29.222  1.00  0.00     0.074 A 
ATOM     38  C   UNL A   1      42.393  27.708  30.516  1.00  0.00     0.049 A 
ATOM     39  N   UNL A   1      39.877  29.315  30.118  1.00  0.00    -0.248 NA
ATOM     40  C   UNL A   1      39.764  28.505  27.931  1.00  0.00     0.031 C 
ATOM     41  C   UNL A   1      43.630  26.957  30.746  1.00  0.00     0.029 A 
ATOM     42  N   UNL A   1      42.109  28.268  31.733  1.00  0.00    -0.354 N 
ATOM     43  C   UNL A   1      38.745  29.835  29.499  1.00  0.00     0.074 A 
ATOM     44  C   UNL A   1      38.738  29.320  28.144  1.00  0.00     0.031 C 
ATOM     45  C   UNL A   1      43.995  27.096  32.028  1.00  0.00     0.029 A 
ATOM     46  C   UNL A   1      43.053  27.990  32.691  1.00  0.00     0.049 A 
ATOM     47  H   UNL A   1      41.310  28.814  31.904  1.00  0.00     0.167 HD
ATOM     48  C   UNL A   1      37.807  30.666  30.019  1.00  0.00     0.034 A 
ATOM     49  C   UNL A   1      43.176  28.437  33.954  1.00  0.00     0.034 A 
ATOM     50  C   UNL A   1      37.823  31.154  31.378  1.00  0.00     0.049 A 
ATOM     51  C   UNL A   1      42.146  29.383  34.492  1.00  0.00     0.074 A 
ATOM     52  C   UNL A   1      36.892  31.954  32.021  1.00  0.00     0.029 A 
ATOM     53  N   UNL A   1      38.826  30.896  32.305  1.00  0.00    -0.354 N 
ATOM     54  N   UNL A   1      41.095  29.884  33.886  1.00  0.00    -0.248 NA
ATOM     55  C   UNL A   1      42.323  29.826  35.878  1.00  0.00     0.031 C 
ATOM     56  C   UNL A   1      37.356  32.220  33.316  1.00  0.00     0.029 A 
ATOM     57  C   UNL A   1      38.551  31.545  33.500  1.00  0.00     0.049 A 
ATOM     58  H   UNL A   1      39.615  30.334  32.138  1.00  0.00     0.167 HD
ATOM     59  C   UNL A   1      40.490  30.718  34.817  1.00  0.00     0.074 A 
ATOM     60  C   UNL A   1      41.278  30.628  36.032  1.00  0.00     0.031 C 
ATOM     61  C   UNL A   1      39.381  31.488  34.681  1.00  0.00     0.034 A 
BRANCH  48  62
ATOM     62  C   UNL A   1      36.711  31.145  29.101  1.00  0.00     0.023 A 
ATOM     63  C   UNL A   1      35.701  30.286  28.632  1.00  0.00     0.031 A 
ATOM     64  C   UNL A   1      36.672  32.493  28.702  1.00  0.00     0.131 A 
ATOM     65  C   UNL A   1      34.715  30.781  27.761  1.00  0.00     0.055 A 
ATOM     66  C   UNL A   1      35.659  32.989  27.879  1.00  0.00     0.041 A 
ATOM     67  F   UNL A   1      37.622  33.351  29.107  1.00  0.00    -0.206 F 
ATOM     68  C   UNL A   1      34.676  32.129  27.399  1.00  0.00     0.022 A 
BRANCH  65  69
ATOM     69  S   UNL A   1      33.524  29.617  27.038  1.00  0.00     0.124 S 
ATOM     70  O   UNL A   1      32.324  30.445  26.942  1.00  0.00    -0.237 OA
ATOM     71  O   UNL A   1      34.158  29.260  25.775  1.00  0.00    -0.237 OA
ATOM     72  O   UNL A   1      33.452  28.543  28.026  1.00  0.00    -0.744 OA
ENDBRANCH  65  69
ENDBRANCH  48  62
BRANCH  49  73
ATOM     73  C   UNL A   1      44.367  28.048  34.750  1.00  0.00     0.023 A 
ATOM     74  C   UNL A   1      44.388  26.867  35.503  1.00  0.00     0.031 A 
ATOM     75  C   UNL A   1      45.524  28.848  34.724  1.00  0.00     0.131 A 
ATOM     76  C   UNL A   1      45.549  26.518  36.209  1.00  0.00     0.055 A 
ATOM     77  C   UNL A   1      46.685  28.482  35.404  1.00  0.00     0.041 A 
ATOM     78  F   UNL A   1      45.550  29.980  34.002  1.00  0.00    -0.206 F 
ATOM     79  C   UNL A   1      46.700  27.311  36.155  1.00  0.00     0.022 A 
BRANCH  76  80
ATOM     80  S   UNL A   1      45.536  25.008  37.212  1.00  0.00     0.124 S 
ATOM     81  O   UNL A   1      45.615  23.968  36.190  1.00  0.00    -0.237 OA
ATOM     82  O   UNL A   1      46.724  25.184  38.041  1.00  0.00    -0.237 OA
ATOM     83  O   UNL A   1      44.264  25.084  37.927  1.00  0.00    -0.744 OA
ENDBRANCH  76  80
ENDBRANCH  49  73
BRANCH  61  84
ATOM     84  C   UNL A   1      38.985  32.292  35.888  1.00  0.00     0.023 A 
ATOM     85  C   UNL A   1      39.442  33.611  36.062  1.00  0.00     0.031 A 
ATOM     86  C   UNL A   1      38.203  31.717  36.903  1.00  0.00     0.131 A 
ATOM     87  C   UNL A   1      39.163  34.292  37.254  1.00  0.00     0.055 A 
ATOM     88  C   UNL A   1      37.890  32.417  38.069  1.00  0.00     0.041 A 
ATOM     89  F   UNL A   1      37.750  30.459  36.785  1.00  0.00    -0.206 F 
ATOM     90  C   UNL A   1      38.383  33.707  38.256  1.00  0.00     0.022 A 
BRANCH  87  91
ATOM     91  S   UNL A   1      39.918  35.920  37.523  1.00  0.00     0.124 S 
ATOM     92  O   UNL A   1      39.167  36.417  38.672  1.00  0.00    -0.237 OA
ATOM     93  O   UNL A   1      41.313  35.578  37.773  1.00  0.00    -0.237 OA
ATOM     94  O   UNL A   1      39.667  36.626  36.269  1.00  0.00    -0.744 OA
ENDBRANCH  87  91
ENDBRANCH  61  84
ENDBRANCH  35  36
ENDBRANCH  28  30
ENDBRANCH  27  28
ENDBRANCH  26  27
ENDBRANCH  25  26
ENDBRANCH   1  25
TORSDOF 21
ENDMDL
MODEL 2
REMARK VINA RESULT:     -10.1      4.512      7.134
REMARK SMILES [NH3+][C@]1(C(=O)OCCOC(=O)c2ccc(-c3c4nc(c(-c5cc(S(=O)(=O)[O-])ccc5F)c5ccc([nH]5)c(-c5cc(S(=O)(=O)[O-])ccc5F)c5nc(c(-c6cc(S(=O)(=O)[O-])ccc6F)c6ccc3[nH]6)C=C5)C=C4)cc2)CCC[C@@H]1CCOc1ccc(CO)cc1
REMARK SMILES IDX 5 1 3 2 4 3 2 4 74 5 77 6 75 7 76 8 1 9 78 13 79 14 80 15
REMARK SMILES IDX 81 16 82 17 88 18 83 19 87 20 84 21 85 22 86 23 6 25 7 26
REMARK SMILES IDX 8 27 9 28 10 29 11 30 12 31 73 32 13 33 72 34 14 35 15 36
REMARK SMILES IDX 16 37 66 38 17 39 71 40 65 41 67 42 18 43 70 44 64 45 63 46
REMARK SMILES IDX 19 48 51 49 31 50 50 51 32 52 35 53 49 54 68 55 33 56 34 57
REMARK SMILES IDX 48 59 69 60 36 61 20 62 21 63 29 64 22 65 28 66 30 67 27 68
REMARK SMILES IDX 23 69 24 70 25 71 26 72 52 73 53 74 61 75 54 76 60 77 62 78
REMARK SMILES IDX 59 79 55 80 56 81 57 82 58 83 37 84 38 85 46 86 39 87 45 88
REMARK SMILES IDX 47 89 44 90 40 91 41 92 42 93 43 94
REMARK H PARENT 1 10 1 11 1 12 86 24 67 47 35 58
REMARK Flexibility Score: inf
ROOT
ATOM      1  O   UNL A   1      42.680  20.674  27.026  1.00  0.00    -0.457 OA
ENDROOT
BRANCH   1   2
ATOM      2  C   UNL A   1      43.582  20.836  26.012  1.00  0.00     0.368 C 
ATOM      3  O   UNL A   1      44.047  19.896  25.372  1.00  0.00    -0.245 OA
BRANCH   2   4
ATOM      4  C   UNL A   1      44.032  22.313  25.831  1.00  0.00     0.195 C 
ATOM      5  C   UNL A   1      43.098  22.965  24.783  1.00  0.00     0.081 C 
ATOM      6  C   UNL A   1      43.815  23.259  27.046  1.00  0.00     0.066 C 
ATOM      7  C   UNL A   1      43.194  24.466  24.987  1.00  0.00     0.008 C 
ATOM      8  C   UNL A   1      43.659  24.662  26.422  1.00  0.00     0.011 C 
BRANCH   4   9
ATOM      9  N   UNL A   1      45.420  22.343  25.307  1.00  0.00    -0.343 N 
ATOM     10  H   UNL A   1      45.844  23.245  25.521  1.00  0.00     0.345 HD
ATOM     11  H   UNL A   1      45.404  22.205  24.296  1.00  0.00     0.345 HD
ATOM     12  H   UNL A   1      45.964  21.599  25.744  1.00  0.00     0.345 HD
ENDBRANCH   4   9
BRANCH   6  13
ATOM     13  C   UNL A   1      44.888  23.237  28.160  1.00  0.00     0.052 C 
BRANCH  13  14
ATOM     14  C   UNL A   1      45.842  24.449  28.112  1.00  0.00     0.230 C 
BRANCH  14  15
ATOM     15  O   UNL A   1      47.147  24.080  27.626  1.00  0.00    -0.494 OA
BRANCH  15  16
ATOM     16  C   UNL A   1      47.556  25.009  26.705  1.00  0.00     0.119 A 
ATOM     17  C   UNL A   1      48.908  25.200  26.433  1.00  0.00     0.047 A 
ATOM     18  C   UNL A   1      46.593  25.712  26.000  1.00  0.00     0.047 A 
ATOM     19  C   UNL A   1      49.288  26.031  25.372  1.00  0.00     0.010 A 
ATOM     20  C   UNL A   1      46.969  26.517  24.926  1.00  0.00     0.010 A 
ATOM     21  C   UNL A   1      48.320  26.680  24.591  1.00  0.00    -0.022 A 
BRANCH  21  22
ATOM     22  C   UNL A   1      48.714  27.453  23.358  1.00  0.00     0.191 C 
BRANCH  22  23
ATOM     23  O   UNL A   1      48.654  26.633  22.193  1.00  0.00    -0.392 OA
ATOM     24  H   UNL A   1      47.788  26.198  22.147  1.00  0.00     0.211 HD
ENDBRANCH  22  23
ENDBRANCH  21  22
ENDBRANCH  15  16
ENDBRANCH  14  15
ENDBRANCH  13  14
ENDBRANCH   6  13
ENDBRANCH   2   4
ENDBRANCH   1   2
BRANCH   1  25
ATOM     25  C   UNL A   1      41.527  19.872  26.687  1.00  0.00     0.274 C 
BRANCH  25  26
ATOM     26  C   UNL A   1      40.265  20.685  26.366  1.00  0.00     0.275 C 
BRANCH  26  27
ATOM     27  O   UNL A   1      39.992  21.728  27.322  1.00  0.00    -0.458 OA
BRANCH  27  28
ATOM     28  C   UNL A   1      39.387  22.796  26.764  1.00  0.00     0.338 C 
ATOM     29  O   UNL A   1      38.351  22.769  26.119  1.00  0.00    -0.246 OA
BRANCH  28  30
ATOM     30  C   UNL A   1      40.047  24.070  27.043  1.00  0.00     0.060 A 
ATOM     31  C   UNL A   1      40.585  24.258  28.315  1.00  0.00     0.016 A 
ATOM     32  C   UNL A   1      39.871  25.153  26.178  1.00  0.00     0.016 A 
ATOM     33  C   UNL A   1      40.886  25.541  28.755  1.00  0.00     0.010 A 
ATOM     34  C   UNL A   1      40.237  26.435  26.598  1.00  0.00     0.010 A 
ATOM     35  C   UNL A   1      40.720  26.641  27.901  1.00  0.00    -0.014 A 
BRANCH  35  36
ATOM     36  C   UNL A   1      41.103  27.993  28.372  1.00  0.00     0.031 A 
ATOM     37  C   UNL A   1      40.074  28.970  28.868  1.00  0.00     0.074 A 
ATOM     38  C   UNL A   1      42.409  28.322  28.366  1.00  0.00     0.049 A 
ATOM     39  N   UNL A   1      40.236  30.211  29.250  1.00  0.00    -0.248 NA
ATOM     40  C   UNL A   1      38.685  28.493  28.942  1.00  0.00     0.031 C 
ATOM     41  C   UNL A   1      43.494  27.442  27.924  1.00  0.00     0.029 A 
ATOM     42  N   UNL A   1      43.044  29.475  28.740  1.00  0.00    -0.354 N 
ATOM     43  C   UNL A   1      38.969  30.676  29.590  1.00  0.00     0.074 A 
ATOM     44  C   UNL A   1      38.048  29.580  29.359  1.00  0.00     0.031 C 
ATOM     45  C   UNL A   1      44.662  28.084  28.059  1.00  0.00     0.029 A 
ATOM     46  C   UNL A   1      44.403  29.436  28.541  1.00  0.00     0.049 A 
ATOM     47  H   UNL A   1      42.575  30.255  29.115  1.00  0.00     0.167 HD
ATOM     48  C   UNL A   1      38.617  31.903  30.048  1.00  0.00     0.034 A 
ATOM     49  C   UNL A   1      45.337  30.394  28.686  1.00  0.00     0.034 A 
ATOM     50  C   UNL A   1      39.554  32.976  30.289  1.00  0.00     0.049 A 
ATOM     51  C   UNL A   1      44.916  31.751  29.159  1.00  0.00     0.074 A 
ATOM     52  C   UNL A   1      39.310  34.238  30.805  1.00  0.00     0.029 A 
ATOM     53  N   UNL A   1      40.917  32.918  30.022  1.00  0.00    -0.354 N 
ATOM     54  N   UNL A   1      43.711  32.182  29.453  1.00  0.00    -0.248 NA
ATOM     55  C   UNL A   1      45.977  32.751  29.312  1.00  0.00     0.031 C 
ATOM     56  C   UNL A   1      40.512  34.958  30.802  1.00  0.00     0.029 A 
ATOM     57  C   UNL A   1      41.518  34.129  30.333  1.00  0.00     0.049 A 
ATOM     58  H   UNL A   1      41.387  32.131  29.666  1.00  0.00     0.167 HD
ATOM     59  C   UNL A   1      43.869  33.514  29.814  1.00  0.00     0.074 A 
ATOM     60  C   UNL A   1      45.288  33.803  29.728  1.00  0.00     0.031 C 
ATOM     61  C   UNL A   1      42.925  34.416  30.185  1.00  0.00     0.034 A 
BRANCH  48  62
ATOM     62  C   UNL A   1      37.150  32.173  30.270  1.00  0.00     0.023 A 
ATOM     63  C   UNL A   1      36.308  32.618  29.236  1.00  0.00     0.031 A 
ATOM     64  C   UNL A   1      36.585  31.964  31.541  1.00  0.00     0.131 A 
ATOM     65  C   UNL A   1      34.952  32.873  29.503  1.00  0.00     0.055 A 
ATOM     66  C   UNL A   1      35.226  32.170  31.786  1.00  0.00     0.041 A 
ATOM     67  F   UNL A   1      37.349  31.558  32.567  1.00  0.00    -0.206 F 
ATOM     68  C   UNL A   1      34.403  32.633  30.765  1.00  0.00     0.022 A 
BRANCH  65  69
ATOM     69  S   UNL A   1      33.927  33.605  28.196  1.00  0.00     0.124 S 
ATOM     70  O   UNL A   1      34.934  34.248  27.356  1.00  0.00    -0.237 OA
ATOM     71  O   UNL A   1      33.266  32.439  27.622  1.00  0.00    -0.237 OA
ATOM     72  O   UNL A   1      33.052  34.524  28.921  1.00  0.00    -0.744 OA
ENDBRANCH  65  69
ENDBRANCH  48  62
BRANCH  49  73
ATOM     73  C   UNL A   1      46.740  30.104  28.298  1.00  0.00     0.023 A 
ATOM     74  C   UNL A   1      47.632  29.492  29.188  1.00  0.00     0.031 A 
ATOM     75  C   UNL A   1      47.188  30.404  26.999  1.00  0.00     0.131 A 
ATOM     76  C   UNL A   1      48.938  29.201  28.767  1.00  0.00     0.055 A 
ATOM     77  C   UNL A   1      48.478  30.087  26.576  1.00  0.00     0.041 A 
ATOM     78  F   UNL A   1      46.359  30.977  26.111  1.00  0.00    -0.206 F 
ATOM     79  C   UNL A   1      49.362  29.483  27.464  1.00  0.00     0.022 A 
BRANCH  76  80
ATOM     80  S   UNL A   1      50.087  28.450  29.951  1.00  0.00     0.124 S 
ATOM     81  O   UNL A   1      51.350  29.082  29.585  1.00  0.00    -0.237 OA
ATOM     82  O   UNL A   1      49.513  28.856  31.230  1.00  0.00    -0.237 OA
ATOM     83  O   UNL A   1      49.996  27.022  29.656  1.00  0.00    -0.744 OA
ENDBRANCH  76  80
ENDBRANCH  49  73
BRANCH  61  84
ATOM     84  C   UNL A   1      43.425  35.796  30.509  1.00  0.00     0.023 A 
ATOM     85  C   UNL A   1      43.651  36.191  31.839  1.00  0.00     0.031 A 
ATOM     86  C   UNL A   1      43.614  36.743  29.490  1.00  0.00     0.131 A 
ATOM     87  C   UNL A   1      43.995  37.520  32.122  1.00  0.00     0.055 A 
ATOM     88  C   UNL A   1      44.001  38.054  29.773  1.00  0.00     0.041 A 
ATOM     89  F   UNL A   1      43.404  36.415  28.205  1.00  0.00    -0.206 F 
ATOM     90  C   UNL A   1      44.180  38.452  31.097  1.00  0.00     0.022 A 
BRANCH  87  91
ATOM     91  S   UNL A   1      44.101  38.042  33.856  1.00  0.00     0.124 S 
ATOM     92  O   UNL A   1      44.897  39.261  33.759  1.00  0.00    -0.237 OA
ATOM     93  O   UNL A   1      42.698  38.222  34.212  1.00  0.00    -0.237 OA
ATOM     94  O   UNL A   1      44.768  36.919  34.512  1.00  0.00    -0.744 OA
ENDBRANCH  87  91
ENDBRANCH  61  84
ENDBRANCH  35  36
ENDBRANCH  28  30
ENDBRANCH  27  28
ENDBRANCH  26  27
ENDBRANCH  25  26
ENDBRANCH   1  25
TORSDOF 21
ENDMDL
MODEL 3
REMARK VINA RESULT:      -9.8      7.520     13.865
REMARK SMILES [NH3+][C@]1(C(=O)OCCOC(=O)c2ccc(-c3c4nc(c(-c5cc(S(=O)(=O)[O-])ccc5F)c5ccc([nH]5)c(-c5cc(S(=O)(=O)[O-])ccc5F)c5nc(c(-c6cc(S(=O)(=O)[O-])ccc6F)c6ccc3[nH]6)C=C5)C=C4)cc2)CCC[C@@H]1CCOc1ccc(CO)cc1
REMARK SMILES IDX 5 1 3 2 4 3 2 4 74 5 77 6 75 7 76 8 1 9 78 13 79 14 80 15
REMARK SMILES IDX 81 16 82 17 88 18 83 19 87 20 84 21 85 22 86 23 6 25 7 26
REMARK SMILES IDX 8 27 9 28 10 29 11 30 12 31 73 32 13 33 72 34 14 35 15 36
REMARK SMILES IDX 16 37 66 38 17 39 71 40 65 41 67 42 18 43 70 44 64 45 63 46
REMARK SMILES IDX 19 48 51 49 31 50 50 51 32 52 35 53 49 54 68 55 33 56 34 57
REMARK SMILES IDX 48 59 69 60 36 61 20 62 21 63 29 64 22 65 28 66 30 67 27 68
REMARK SMILES IDX 23 69 24 70 25 71 26 72 52 73 53 74 61 75 54 76 60 77 62 78
REMARK SMILES IDX 59 79 55 80 56 81 57 82 58 83 37 84 38 85 46 86 39 87 45 88
REMARK SMILES IDX 47 89 44 90 40 91 41 92 42 93 43 94
REMARK H PARENT 1 10 1 11 1 12 86 24 67 47 35 58
REMARK Flexibility Score: inf
ROOT
ATOM      1  O   UNL A   1      45.706  40.510  30.010  1.00  0.00    -0.457 OA
ENDROOT
BRANCH   1   2
ATOM      2  C   UNL A   1      44.628  41.123  29.434  1.00  0.00     0.368 C 
ATOM      3  O   UNL A   1      44.076  42.105  29.924  1.00  0.00    -0.245 OA
BRANCH   2   4
ATOM      4  C   UNL A   1      44.119  40.388  28.163  1.00  0.00     0.195 C 
ATOM      5  C   UNL A   1      42.684  39.886  28.452  1.00  0.00     0.081 C 
ATOM      6  C   UNL A   1      43.873  41.268  26.904  1.00  0.00     0.066 C 
ATOM      7  C   UNL A   1      42.024  39.647  27.105  1.00  0.00     0.008 C 
ATOM      8  C   UNL A   1      42.782  40.516  26.113  1.00  0.00     0.011 C 
BRANCH   4   9
ATOM      9  N   UNL A   1      44.983  39.212  27.895  1.00  0.00    -0.343 N 
ATOM     10  H   UNL A   1      44.618  38.402  28.394  1.00  0.00     0.345 HD
ATOM     11  H   UNL A   1      45.932  39.409  28.212  1.00  0.00     0.345 HD
ATOM     12  H   UNL A   1      44.992  39.019  26.893  1.00  0.00     0.345 HD
ENDBRANCH   4   9
BRANCH   6  13
ATOM     13  C   UNL A   1      45.100  41.601  26.023  1.00  0.00     0.052 C 
BRANCH  13  14
ATOM     14  C   UNL A   1      44.725  42.011  24.583  1.00  0.00     0.230 C 
BRANCH  14  15
ATOM     15  O   UNL A   1      43.939  43.217  24.562  1.00  0.00    -0.494 OA
BRANCH  15  16
ATOM     16  C   UNL A   1      43.360  43.347  23.326  1.00  0.00     0.119 A 
ATOM     17  C   UNL A   1      44.091  43.817  22.239  1.00  0.00     0.047 A 
ATOM     18  C   UNL A   1      42.046  42.939  23.163  1.00  0.00     0.047 A 
ATOM     19  C   UNL A   1      43.526  43.779  20.958  1.00  0.00     0.010 A 
ATOM     20  C   UNL A   1      41.492  42.875  21.886  1.00  0.00     0.010 A 
ATOM     21  C   UNL A   1      42.227  43.284  20.765  1.00  0.00    -0.022 A 
BRANCH  21  22
ATOM     22  C   UNL A   1      41.670  43.100  19.376  1.00  0.00     0.191 C 
BRANCH  22  23
ATOM     23  O   UNL A   1      42.657  42.583  18.487  1.00  0.00    -0.392 OA
ATOM     24  H   UNL A   1      43.350  43.248  18.352  1.00  0.00     0.211 HD
ENDBRANCH  22  23
ENDBRANCH  21  22
ENDBRANCH  15  16
ENDBRANCH  14  15
ENDBRANCH  13  14
ENDBRANCH   6  13
ENDBRANCH   2   4
ENDBRANCH   1   2
BRANCH   1  25
ATOM     25  C   UNL A   1      45.429  39.855  31.267  1.00  0.00     0.274 C 
BRANCH  25  26
ATOM     26  C   UNL A   1      46.107  38.488  31.429  1.00  0.00     0.275 C 
BRANCH  26  27
ATOM     27  O   UNL A   1      45.511  37.450  30.625  1.00  0.00    -0.458 OA
BRANCH  27  28
ATOM     28  C   UNL A   1      46.392  36.884  29.775  1.00  0.00     0.338 C 
ATOM     29  O   UNL A   1      47.424  37.399  29.375  1.00  0.00    -0.246 OA
BRANCH  28  30
ATOM     30  C   UNL A   1      46.054  35.516  29.388  1.00  0.00     0.060 A 
ATOM     31  C   UNL A   1      45.320  35.335  28.216  1.00  0.00     0.016 A 
ATOM     32  C   UNL A   1      46.194  34.474  30.309  1.00  0.00     0.016 A 
ATOM     33  C   UNL A   1      44.664  34.131  27.992  1.00  0.00     0.010 A 
ATOM     34  C   UNL A   1      45.588  33.242  30.049  1.00  0.00     0.010 A 
ATOM     35  C   UNL A   1      44.794  33.071  28.903  1.00  0.00    -0.014 A 
BRANCH  35  36
ATOM     36  C   UNL A   1      44.133  31.778  28.612  1.00  0.00     0.031 A 
ATOM     37  C   UNL A   1      42.780  31.446  29.178  1.00  0.00     0.074 A 
ATOM     38  C   UNL A   1      44.766  30.906  27.805  1.00  0.00     0.049 A 
ATOM     39  N   UNL A   1      42.097  30.335  29.077  1.00  0.00    -0.248 NA
ATOM     40  C   UNL A   1      42.111  32.495  29.961  1.00  0.00     0.031 C 
ATOM     41  C   UNL A   1      46.074  31.135  27.185  1.00  0.00     0.029 A 
ATOM     42  N   UNL A   1      44.402  29.661  27.368  1.00  0.00    -0.354 N 
ATOM     43  C   UNL A   1      40.925  30.537  29.799  1.00  0.00     0.074 A 
ATOM     44  C   UNL A   1      40.998  31.880  30.341  1.00  0.00     0.031 C 
ATOM     45  C   UNL A   1      46.400  30.069  26.441  1.00  0.00     0.029 A 
ATOM     46  C   UNL A   1      45.354  29.062  26.579  1.00  0.00     0.049 A 
ATOM     47  H   UNL A   1      43.544  29.236  27.596  1.00  0.00     0.167 HD
ATOM     48  C   UNL A   1      39.893  29.678  29.988  1.00  0.00     0.034 A 
ATOM     49  C   UNL A   1      45.405  27.823  26.058  1.00  0.00     0.034 A 
ATOM     50  C   UNL A   1      39.831  28.350  29.423  1.00  0.00     0.049 A 
ATOM     51  C   UNL A   1      44.268  26.882  26.312  1.00  0.00     0.074 A 
ATOM     52  C   UNL A   1      38.807  27.421  29.507  1.00  0.00     0.029 A 
ATOM     53  N   UNL A   1      40.840  27.757  28.675  1.00  0.00    -0.354 N 
ATOM     54  N   UNL A   1      43.179  27.080  27.018  1.00  0.00    -0.248 NA
ATOM     55  C   UNL A   1      44.372  25.550  25.708  1.00  0.00     0.031 C 
ATOM     56  C   UNL A   1      39.217  26.251  28.855  1.00  0.00     0.029 A 
ATOM     57  C   UNL A   1      40.476  26.466  28.318  1.00  0.00     0.049 A 
ATOM     58  H   UNL A   1      41.690  28.189  28.431  1.00  0.00     0.167 HD
ATOM     59  C   UNL A   1      42.470  25.888  26.953  1.00  0.00     0.074 A 
ATOM     60  C   UNL A   1      43.243  24.988  26.117  1.00  0.00     0.031 C 
ATOM     61  C   UNL A   1      41.286  25.565  27.533  1.00  0.00     0.034 A 
BRANCH  48  62
ATOM     62  C   UNL A   1      38.766  30.125  30.886  1.00  0.00     0.023 A 
ATOM     63  C   UNL A   1      37.694  30.900  30.410  1.00  0.00     0.031 A 
ATOM     64  C   UNL A   1      38.763  29.751  32.242  1.00  0.00     0.131 A 
ATOM     65  C   UNL A   1      36.681  31.306  31.295  1.00  0.00     0.055 A 
ATOM     66  C   UNL A   1      37.726  30.114  33.104  1.00  0.00     0.041 A 
ATOM     67  F   UNL A   1      39.772  29.027  32.752  1.00  0.00    -0.206 F 
ATOM     68  C   UNL A   1      36.681  30.902  32.633  1.00  0.00     0.022 A 
BRANCH  65  69
ATOM     69  S   UNL A   1      35.401  32.443  30.695  1.00  0.00     0.124 S 
ATOM     70  O   UNL A   1      34.341  32.242  31.682  1.00  0.00    -0.237 OA
ATOM     71  O   UNL A   1      36.077  33.734  30.739  1.00  0.00    -0.237 OA
ATOM     72  O   UNL A   1      35.098  31.943  29.356  1.00  0.00    -0.744 OA
ENDBRANCH  65  69
ENDBRANCH  48  62
BRANCH  49  73
ATOM     73  C   UNL A   1      46.618  27.397  25.315  1.00  0.00     0.023 A 
ATOM     74  C   UNL A   1      46.836  27.789  23.988  1.00  0.00     0.031 A 
ATOM     75  C   UNL A   1      47.600  26.620  25.955  1.00  0.00     0.131 A 
ATOM     76  C   UNL A   1      48.015  27.397  23.337  1.00  0.00     0.055 A 
ATOM     77  C   UNL A   1      48.783  26.257  25.313  1.00  0.00     0.041 A 
ATOM     78  F   UNL A   1      47.435  26.237  27.232  1.00  0.00    -0.206 F 
ATOM     79  C   UNL A   1      48.994  26.644  23.994  1.00  0.00     0.022 A 
BRANCH  76  80
ATOM     80  S   UNL A   1      48.254  27.879  21.605  1.00  0.00     0.124 S 
ATOM     81  O   UNL A   1      46.923  28.351  21.239  1.00  0.00    -0.237 OA
ATOM     82  O   UNL A   1      49.290  28.901  21.715  1.00  0.00    -0.237 OA
ATOM     83  O   UNL A   1      48.675  26.637  20.961  1.00  0.00    -0.744 OA
ENDBRANCH  76  80
ENDBRANCH  49  73
BRANCH  61  84
ATOM     84  C   UNL A   1      40.784  24.172  27.273  1.00  0.00     0.023 A 
ATOM     85  C   UNL A   1      39.670  23.946  26.445  1.00  0.00     0.031 A 
ATOM     86  C   UNL A   1      41.379  23.070  27.908  1.00  0.00     0.131 A 
ATOM     87  C   UNL A   1      39.146  22.653  26.321  1.00  0.00     0.055 A 
ATOM     88  C   UNL A   1      40.880  21.777  27.745  1.00  0.00     0.041 A 
ATOM     89  F   UNL A   1      42.441  23.237  28.713  1.00  0.00    -0.206 F 
ATOM     90  C   UNL A   1      39.749  21.564  26.959  1.00  0.00     0.022 A 
BRANCH  87  91
ATOM     91  S   UNL A   1      37.603  22.423  25.395  1.00  0.00     0.124 S 
ATOM     92  O   UNL A   1      36.612  22.366  26.465  1.00  0.00    -0.237 OA
ATOM     93  O   UNL A   1      37.566  23.613  24.553  1.00  0.00    -0.237 OA
ATOM     94  O   UNL A   1      37.816  21.165  24.682  1.00  0.00    -0.744 OA
ENDBRANCH  87  91
ENDBRANCH  61  84
ENDBRANCH  35  36
ENDBRANCH  28  30
ENDBRANCH  27  28
ENDBRANCH  26  27
ENDBRANCH  25  26
ENDBRANCH   1  25
TORSDOF 21
ENDMDL
