MODEL 1
REMARK VINA RESULT:     -10.2      0.000      0.000
REMARK SMILES C=CC[NH2+]CC(=O)N1CCC[C@@H]1C(=O)OCCOC(=O)c1ccc(-c2c3nc(c(-c4cc(S(=O)(=O)[O-])ccc4F)c4ccc([nH]4)c(-c4cc(S(=O)(=O)[O-])ccc4F)c4nc(c(-c5cc(S(=O)(=O)[O-])ccc5F)c5ccc2[nH]5)C=C4)C=C3)cc1
REMARK SMILES IDX 16 1 15 2 13 3 14 4 12 5 8 6 9 7 10 8 11 9 6 10 7 11 5 12
REMARK SMILES IDX 4 13 3 16 2 17 1 18 17 19 18 20 19 21 20 22 21 23 22 24
REMARK SMILES IDX 83 25 23 26 82 27 24 28 25 29 26 30 76 31 27 32 81 33 75 34
REMARK SMILES IDX 77 35 28 36 80 37 74 38 73 39 29 41 61 42 41 43 60 44 42 45
REMARK SMILES IDX 45 46 59 47 78 48 43 49 44 50 58 52 79 53 46 54 30 55 31 56
REMARK SMILES IDX 39 57 32 58 38 59 40 60 37 61 33 62 34 63 35 64 36 65 62 66
REMARK SMILES IDX 63 67 71 68 64 69 70 70 72 71 69 72 65 73 66 74 67 75 68 76
REMARK SMILES IDX 47 77 48 78 56 79 49 80 55 81 57 82 54 83 50 84 51 85 52 86
REMARK SMILES IDX 53 87
REMARK H PARENT 4 14 4 15 77 40 45 51
REMARK Flexibility Score: inf
ROOT
ATOM      1  C   UNL A   1      31.175  30.795  25.391  1.00  0.00     0.274 C 
ENDROOT
BRANCH   1   2
ATOM      2  O   UNL A   1      31.549  29.435  25.669  1.00  0.00    -0.461 OA
BRANCH   2   3
ATOM      3  C   UNL A   1      32.289  28.809  24.718  1.00  0.00     0.328 C 
ATOM      4  O   UNL A   1      33.186  29.347  24.077  1.00  0.00    -0.250 OA
BRANCH   3   5
ATOM      5  C   UNL A   1      31.824  27.372  24.457  1.00  0.00     0.195 C 
ATOM      6  N   UNL A   1      30.383  27.355  24.237  1.00  0.00    -0.324 N 
ATOM      7  C   UNL A   1      29.844  26.144  24.821  1.00  0.00     0.121 C 
ATOM      8  C   UNL A   1      30.730  25.867  26.013  1.00  0.00     0.024 C 
ATOM      9  C   UNL A   1      32.099  26.322  25.542  1.00  0.00     0.039 C 
BRANCH   6  10
ATOM     10  C   UNL A   1      29.916  27.781  22.998  1.00  0.00     0.278 C 
ATOM     11  O   UNL A   1      30.539  27.606  21.954  1.00  0.00    -0.268 OA
BRANCH  10  12
ATOM     12  C   UNL A   1      28.533  28.445  23.044  1.00  0.00     0.362 C 
BRANCH  12  13
ATOM     13  N   UNL A   1      28.619  29.922  22.982  1.00  0.00    -0.335 N 
ATOM     14  H   UNL A   1      28.097  30.323  23.761  1.00  0.00     0.347 HD
ATOM     15  H   UNL A   1      29.598  30.201  23.039  1.00  0.00     0.347 HD
BRANCH  13  16
ATOM     16  C   UNL A   1      28.060  30.407  21.728  1.00  0.00     0.289 C 
BRANCH  16  17
ATOM     17  C   UNL A   1      28.544  31.769  21.366  1.00  0.00     0.025 C 
ATOM     18  C   UNL A   1      27.820  32.617  20.622  1.00  0.00     0.010 C 
ENDBRANCH  16  17
ENDBRANCH  13  16
ENDBRANCH  12  13
ENDBRANCH  10  12
ENDBRANCH   6  10
ENDBRANCH   3   5
ENDBRANCH   2   3
ENDBRANCH   1   2
BRANCH   1  19
ATOM     19  C   UNL A   1      31.559  31.680  26.577  1.00  0.00     0.275 C 
BRANCH  19  20
ATOM     20  O   UNL A   1      32.791  31.231  27.180  1.00  0.00    -0.458 OA
BRANCH  20  21
ATOM     21  C   UNL A   1      33.611  32.222  27.602  1.00  0.00     0.338 C 
ATOM     22  O   UNL A   1      33.328  33.404  27.739  1.00  0.00    -0.246 OA
BRANCH  21  23
ATOM     23  C   UNL A   1      34.914  31.672  28.000  1.00  0.00     0.060 A 
ATOM     24  C   UNL A   1      34.984  30.324  28.359  1.00  0.00     0.016 A 
ATOM     25  C   UNL A   1      36.026  32.499  28.148  1.00  0.00     0.016 A 
ATOM     26  C   UNL A   1      36.157  29.796  28.886  1.00  0.00     0.010 A 
ATOM     27  C   UNL A   1      37.210  31.966  28.672  1.00  0.00     0.010 A 
ATOM     28  C   UNL A   1      37.276  30.617  29.064  1.00  0.00    -0.014 A 
BRANCH  28  29
ATOM     29  C   UNL A   1      38.479  30.069  29.737  1.00  0.00     0.031 A 
ATOM     30  C   UNL A   1      38.822  30.518  31.130  1.00  0.00     0.074 A 
ATOM     31  C   UNL A   1      39.230  29.137  29.120  1.00  0.00     0.049 A 
ATOM     32  N   UNL A   1      39.852  30.207  31.873  1.00  0.00    -0.248 NA
ATOM     33  C   UNL A   1      37.878  31.447  31.768  1.00  0.00     0.031 C 
ATOM     34  C   UNL A   1      38.961  28.582  27.792  1.00  0.00     0.029 A 
ATOM     35  N   UNL A   1      40.367  28.489  29.530  1.00  0.00    -0.354 N 
ATOM     36  C   UNL A   1      39.695  30.917  33.058  1.00  0.00     0.074 A 
ATOM     37  C   UNL A   1      38.479  31.693  32.922  1.00  0.00     0.031 C 
ATOM     38  C   UNL A   1      39.903  27.672  27.501  1.00  0.00     0.029 A 
ATOM     39  C   UNL A   1      40.869  27.613  28.595  1.00  0.00     0.049 A 
ATOM     40  H   UNL A   1      40.785  28.636  30.409  1.00  0.00     0.167 HD
ATOM     41  C   UNL A   1      40.491  30.917  34.157  1.00  0.00     0.034 A 
ATOM     42  C   UNL A   1      41.992  26.870  28.608  1.00  0.00     0.034 A 
ATOM     43  C   UNL A   1      41.693  30.130  34.278  1.00  0.00     0.049 A 
ATOM     44  C   UNL A   1      42.892  26.932  29.817  1.00  0.00     0.074 A 
ATOM     45  C   UNL A   1      42.571  30.050  35.347  1.00  0.00     0.029 A 
ATOM     46  N   UNL A   1      42.194  29.286  33.294  1.00  0.00    -0.354 N 
ATOM     47  N   UNL A   1      42.746  27.628  30.920  1.00  0.00    -0.248 NA
ATOM     48  C   UNL A   1      44.106  26.107  29.781  1.00  0.00     0.031 C 
ATOM     49  C   UNL A   1      43.628  29.205  34.988  1.00  0.00     0.029 A 
ATOM     50  C   UNL A   1      43.379  28.704  33.720  1.00  0.00     0.049 A 
ATOM     51  H   UNL A   1      41.769  29.125  32.421  1.00  0.00     0.167 HD
ATOM     52  C   UNL A   1      43.838  27.304  31.720  1.00  0.00     0.074 A 
ATOM     53  C   UNL A   1      44.625  26.342  30.977  1.00  0.00     0.031 C 
ATOM     54  C   UNL A   1      44.159  27.755  32.960  1.00  0.00     0.034 A 
BRANCH  41  55
ATOM     55  C   UNL A   1      40.112  31.849  35.284  1.00  0.00     0.023 A 
ATOM     56  C   UNL A   1      39.236  31.457  36.311  1.00  0.00     0.031 A 
ATOM     57  C   UNL A   1      40.604  33.166  35.304  1.00  0.00     0.131 A 
ATOM     58  C   UNL A   1      38.828  32.391  37.276  1.00  0.00     0.055 A 
ATOM     59  C   UNL A   1      40.253  34.068  36.309  1.00  0.00     0.041 A 
ATOM     60  F   UNL A   1      41.425  33.603  34.336  1.00  0.00    -0.206 F 
ATOM     61  C   UNL A   1      39.348  33.688  37.295  1.00  0.00     0.022 A 
BRANCH  58  62
ATOM     62  S   UNL A   1      37.498  31.933  38.422  1.00  0.00     0.124 S 
ATOM     63  O   UNL A   1      36.467  32.912  38.088  1.00  0.00    -0.237 OA
ATOM     64  O   UNL A   1      37.216  30.554  38.042  1.00  0.00    -0.237 OA
ATOM     65  O   UNL A   1      38.106  32.104  39.740  1.00  0.00    -0.744 OA
ENDBRANCH  58  62
ENDBRANCH  41  55
BRANCH  42  66
ATOM     66  C   UNL A   1      42.358  26.038  27.428  1.00  0.00     0.023 A 
ATOM     67  C   UNL A   1      41.997  24.684  27.351  1.00  0.00     0.031 A 
ATOM     68  C   UNL A   1      43.112  26.582  26.372  1.00  0.00     0.131 A 
ATOM     69  C   UNL A   1      42.422  23.909  26.260  1.00  0.00     0.055 A 
ATOM     70  C   UNL A   1      43.490  25.820  25.266  1.00  0.00     0.041 A 
ATOM     71  F   UNL A   1      43.485  27.872  26.398  1.00  0.00    -0.206 F 
ATOM     72  C   UNL A   1      43.154  24.471  25.211  1.00  0.00     0.022 A 
BRANCH  69  73
ATOM     73  S   UNL A   1      42.068  22.131  26.267  1.00  0.00     0.124 S 
ATOM     74  O   UNL A   1      40.617  22.115  26.120  1.00  0.00    -0.237 OA
ATOM     75  O   UNL A   1      42.834  21.664  25.117  1.00  0.00    -0.237 OA
ATOM     76  O   UNL A   1      42.567  21.688  27.567  1.00  0.00    -0.744 OA
ENDBRANCH  69  73
ENDBRANCH  42  66
BRANCH  54  77
ATOM     77  C   UNL A   1      45.395  27.172  33.597  1.00  0.00     0.023 A 
ATOM     78  C   UNL A   1      45.343  26.007  34.382  1.00  0.00     0.031 A 
ATOM     79  C   UNL A   1      46.638  27.806  33.431  1.00  0.00     0.131 A 
ATOM     80  C   UNL A   1      46.505  25.541  35.015  1.00  0.00     0.055 A 
ATOM     81  C   UNL A   1      47.801  27.310  34.022  1.00  0.00     0.041 A 
ATOM     82  F   UNL A   1      46.742  28.923  32.692  1.00  0.00    -0.206 F 
ATOM     83  C   UNL A   1      47.735  26.177  34.829  1.00  0.00     0.022 A 
BRANCH  80  84
ATOM     84  S   UNL A   1      46.373  24.137  36.156  1.00  0.00     0.124 S 
ATOM     85  O   UNL A   1      44.930  23.934  36.224  1.00  0.00    -0.237 OA
ATOM     86  O   UNL A   1      47.131  23.100  35.463  1.00  0.00    -0.237 OA
ATOM     87  O   UNL A   1      46.987  24.634  37.386  1.00  0.00    -0.744 OA
ENDBRANCH  80  84
ENDBRANCH  54  77
ENDBRANCH  28  29
ENDBRANCH  21  23
ENDBRANCH  20  21
ENDBRANCH  19  20
ENDBRANCH   1  19
TORSDOF 19
ENDMDL
MODEL 2
REMARK VINA RESULT:     -10.1      5.345      7.774
REMARK SMILES C=CC[NH2+]CC(=O)N1CCC[C@@H]1C(=O)OCCOC(=O)c1ccc(-c2c3nc(c(-c4cc(S(=O)(=O)[O-])ccc4F)c4ccc([nH]4)c(-c4cc(S(=O)(=O)[O-])ccc4F)c4nc(c(-c5cc(S(=O)(=O)[O-])ccc5F)c5ccc2[nH]5)C=C4)C=C3)cc1
REMARK SMILES IDX 16 1 15 2 13 3 14 4 12 5 8 6 9 7 10 8 11 9 6 10 7 11 5 12
REMARK SMILES IDX 4 13 3 16 2 17 1 18 17 19 18 20 19 21 20 22 21 23 22 24
REMARK SMILES IDX 83 25 23 26 82 27 24 28 25 29 26 30 76 31 27 32 81 33 75 34
REMARK SMILES IDX 77 35 28 36 80 37 74 38 73 39 29 41 61 42 41 43 60 44 42 45
REMARK SMILES IDX 45 46 59 47 78 48 43 49 44 50 58 52 79 53 46 54 30 55 31 56
REMARK SMILES IDX 39 57 32 58 38 59 40 60 37 61 33 62 34 63 35 64 36 65 62 66
REMARK SMILES IDX 63 67 71 68 64 69 70 70 72 71 69 72 65 73 66 74 67 75 68 76
REMARK SMILES IDX 47 77 48 78 56 79 49 80 55 81 57 82 54 83 50 84 51 85 52 86
REMARK SMILES IDX 53 87
REMARK H PARENT 4 14 4 15 77 40 45 51
REMARK Flexibility Score: inf
ROOT
ATOM      1  C   UNL A   1      35.015  21.009  25.663  1.00  0.00     0.274 C 
ENDROOT
BRANCH   1   2
ATOM      2  O   UNL A   1      35.254  22.159  26.491  1.00  0.00    -0.461 OA
BRANCH   2   3
ATOM      3  C   UNL A   1      34.154  22.831  26.918  1.00  0.00     0.328 C 
ATOM      4  O   UNL A   1      33.460  22.484  27.869  1.00  0.00    -0.250 OA
BRANCH   3   5
ATOM      5  C   UNL A   1      33.805  24.026  26.026  1.00  0.00     0.195 C 
ATOM      6  N   UNL A   1      32.734  23.658  25.108  1.00  0.00    -0.324 N 
ATOM      7  C   UNL A   1      32.970  24.316  23.839  1.00  0.00     0.121 C 
ATOM      8  C   UNL A   1      34.474  24.395  23.722  1.00  0.00     0.024 C 
ATOM      9  C   UNL A   1      34.923  24.620  25.155  1.00  0.00     0.039 C 
BRANCH   6  10
ATOM     10  C   UNL A   1      31.441  23.603  25.617  1.00  0.00     0.278 C 
ATOM     11  O   UNL A   1      30.815  22.553  25.736  1.00  0.00    -0.268 OA
BRANCH  10  12
ATOM     12  C   UNL A   1      30.884  24.963  26.060  1.00  0.00     0.362 C 
BRANCH  12  13
ATOM     13  N   UNL A   1      29.525  25.212  25.525  1.00  0.00    -0.335 N 
ATOM     14  H   UNL A   1      29.175  24.361  25.087  1.00  0.00     0.347 HD
ATOM     15  H   UNL A   1      28.911  25.488  26.291  1.00  0.00     0.347 HD
BRANCH  13  16
ATOM     16  C   UNL A   1      29.561  26.281  24.538  1.00  0.00     0.289 C 
BRANCH  16  17
ATOM     17  C   UNL A   1      30.770  27.144  24.660  1.00  0.00     0.025 C 
ATOM     18  C   UNL A   1      31.031  28.144  23.807  1.00  0.00     0.010 C 
ENDBRANCH  16  17
ENDBRANCH  13  16
ENDBRANCH  12  13
ENDBRANCH  10  12
ENDBRANCH   6  10
ENDBRANCH   3   5
ENDBRANCH   2   3
ENDBRANCH   1   2
BRANCH   1  19
ATOM     19  C   UNL A   1      36.342  20.513  25.088  1.00  0.00     0.275 C 
BRANCH  19  20
ATOM     20  O   UNL A   1      37.336  21.559  25.105  1.00  0.00    -0.458 OA
BRANCH  20  21
ATOM     21  C   UNL A   1      38.516  21.212  25.671  1.00  0.00     0.338 C 
ATOM     22  O   UNL A   1      39.054  20.114  25.637  1.00  0.00    -0.246 OA
BRANCH  21  23
ATOM     23  C   UNL A   1      39.162  22.389  26.268  1.00  0.00     0.060 A 
ATOM     24  C   UNL A   1      38.593  23.644  26.043  1.00  0.00     0.016 A 
ATOM     25  C   UNL A   1      40.384  22.277  26.929  1.00  0.00     0.016 A 
ATOM     26  C   UNL A   1      39.248  24.798  26.458  1.00  0.00     0.010 A 
ATOM     27  C   UNL A   1      41.040  23.439  27.353  1.00  0.00     0.010 A 
ATOM     28  C   UNL A   1      40.487  24.707  27.101  1.00  0.00    -0.014 A 
BRANCH  28  29
ATOM     29  C   UNL A   1      41.228  25.949  27.429  1.00  0.00     0.031 A 
ATOM     30  C   UNL A   1      40.585  26.990  28.304  1.00  0.00     0.074 A 
ATOM     31  C   UNL A   1      42.487  26.119  26.985  1.00  0.00     0.049 A 
ATOM     32  N   UNL A   1      41.035  28.164  28.666  1.00  0.00    -0.248 NA
ATOM     33  C   UNL A   1      39.255  26.663  28.840  1.00  0.00     0.031 C 
ATOM     34  C   UNL A   1      43.234  25.153  26.178  1.00  0.00     0.029 A 
ATOM     35  N   UNL A   1      43.363  27.162  27.154  1.00  0.00    -0.354 N 
ATOM     36  C   UNL A   1      40.036  28.728  29.452  1.00  0.00     0.074 A 
ATOM     37  C   UNL A   1      38.948  27.773  29.494  1.00  0.00     0.031 C 
ATOM     38  C   UNL A   1      44.458  25.645  25.930  1.00  0.00     0.029 A 
ATOM     39  C   UNL A   1      44.566  26.979  26.514  1.00  0.00     0.049 A 
ATOM     40  H   UNL A   1      43.151  27.964  27.684  1.00  0.00     0.167 HD
ATOM     41  C   UNL A   1      40.032  29.930  30.081  1.00  0.00     0.034 A 
ATOM     42  C   UNL A   1      45.624  27.804  26.390  1.00  0.00     0.034 A 
ATOM     43  C   UNL A   1      41.130  30.864  30.035  1.00  0.00     0.049 A 
ATOM     44  C   UNL A   1      45.572  29.159  27.050  1.00  0.00     0.074 A 
ATOM     45  C   UNL A   1      41.234  32.107  30.640  1.00  0.00     0.029 A 
ATOM     46  N   UNL A   1      42.317  30.664  29.341  1.00  0.00    -0.354 N 
ATOM     47  N   UNL A   1      44.611  29.691  27.768  1.00  0.00    -0.248 NA
ATOM     48  C   UNL A   1      46.748  30.022  26.881  1.00  0.00     0.031 C 
ATOM     49  C   UNL A   1      42.455  32.678  30.265  1.00  0.00     0.029 A 
ATOM     50  C   UNL A   1      43.145  31.768  29.481  1.00  0.00     0.049 A 
ATOM     51  H   UNL A   1      42.538  29.855  28.825  1.00  0.00     0.167 HD
ATOM     52  C   UNL A   1      45.079  30.942  28.159  1.00  0.00     0.074 A 
ATOM     53  C   UNL A   1      46.411  31.078  27.606  1.00  0.00     0.031 C 
ATOM     54  C   UNL A   1      44.466  31.892  28.912  1.00  0.00     0.034 A 
BRANCH  41  55
ATOM     55  C   UNL A   1      38.771  30.319  30.816  1.00  0.00     0.023 A 
ATOM     56  C   UNL A   1      37.711  30.982  30.175  1.00  0.00     0.031 A 
ATOM     57  C   UNL A   1      38.649  30.058  32.193  1.00  0.00     0.131 A 
ATOM     58  C   UNL A   1      36.606  31.421  30.923  1.00  0.00     0.055 A 
ATOM     59  C   UNL A   1      37.515  30.430  32.915  1.00  0.00     0.041 A 
ATOM     60  F   UNL A   1      39.640  29.448  32.863  1.00  0.00    -0.206 F 
ATOM     61  C   UNL A   1      36.492  31.130  32.285  1.00  0.00     0.022 A 
BRANCH  58  62
ATOM     62  S   UNL A   1      35.390  32.503  30.123  1.00  0.00     0.124 S 
ATOM     63  O   UNL A   1      35.024  31.719  28.945  1.00  0.00    -0.237 OA
ATOM     64  O   UNL A   1      34.361  32.633  31.148  1.00  0.00    -0.237 OA
ATOM     65  O   UNL A   1      36.146  33.721  29.840  1.00  0.00    -0.744 OA
ENDBRANCH  58  62
ENDBRANCH  41  55
BRANCH  42  66
ATOM     66  C   UNL A   1      46.804  27.397  25.576  1.00  0.00     0.023 A 
ATOM     67  C   UNL A   1      46.963  27.836  24.253  1.00  0.00     0.031 A 
ATOM     68  C   UNL A   1      47.773  26.524  26.104  1.00  0.00     0.131 A 
ATOM     69  C   UNL A   1      48.046  27.373  23.489  1.00  0.00     0.055 A 
ATOM     70  C   UNL A   1      48.875  26.106  25.357  1.00  0.00     0.041 A 
ATOM     71  F   UNL A   1      47.667  26.073  27.364  1.00  0.00    -0.206 F 
ATOM     72  C   UNL A   1      49.010  26.522  24.036  1.00  0.00     0.022 A 
BRANCH  69  73
ATOM     73  S   UNL A   1      48.138  27.840  21.739  1.00  0.00     0.124 S 
ATOM     74  O   UNL A   1      48.381  26.552  21.100  1.00  0.00    -0.237 OA
ATOM     75  O   UNL A   1      46.824  28.432  21.513  1.00  0.00    -0.237 OA
ATOM     76  O   UNL A   1      49.258  28.779  21.695  1.00  0.00    -0.744 OA
ENDBRANCH  69  73
ENDBRANCH  42  66
BRANCH  54  77
ATOM     77  C   UNL A   1      45.260  33.139  29.211  1.00  0.00     0.023 A 
ATOM     78  C   UNL A   1      45.177  34.281  28.397  1.00  0.00     0.031 A 
ATOM     79  C   UNL A   1      46.127  33.173  30.317  1.00  0.00     0.131 A 
ATOM     80  C   UNL A   1      45.988  35.393  28.671  1.00  0.00     0.055 A 
ATOM     81  C   UNL A   1      46.895  34.300  30.614  1.00  0.00     0.041 A 
ATOM     82  F   UNL A   1      46.245  32.107  31.125  1.00  0.00    -0.206 F 
ATOM     83  C   UNL A   1      46.836  35.414  29.782  1.00  0.00     0.022 A 
BRANCH  80  84
ATOM     84  S   UNL A   1      45.983  36.785  27.507  1.00  0.00     0.124 S 
ATOM     85  O   UNL A   1      46.910  37.716  28.143  1.00  0.00    -0.237 OA
ATOM     86  O   UNL A   1      46.451  36.162  26.274  1.00  0.00    -0.237 OA
ATOM     87  O   UNL A   1      44.587  37.215  27.491  1.00  0.00    -0.744 OA
ENDBRANCH  80  84
ENDBRANCH  54  77
ENDBRANCH  28  29
ENDBRANCH  21  23
ENDBRANCH  20  21
ENDBRANCH  19  20
ENDBRANCH   1  19
TORSDOF 19
ENDMDL
MODEL 3
REMARK VINA RESULT:     -10.1      0.793      7.797
REMARK SMILES C=CC[NH2+]CC(=O)N1CCC[C@@H]1C(=O)OCCOC(=O)c1ccc(-c2c3nc(c(-c4cc(S(=O)(=O)[O-])ccc4F)c4ccc([nH]4)c(-c4cc(S(=O)(=O)[O-])ccc4F)c4nc(c(-c5cc(S(=O)(=O)[O-])ccc5F)c5ccc2[nH]5)C=C4)C=C3)cc1
REMARK SMILES IDX 16 1 15 2 13 3 14 4 12 5 8 6 9 7 10 8 11 9 6 10 7 11 5 12
REMARK SMILES IDX 4 13 3 16 2 17 1 18 17 19 18 20 19 21 20 22 21 23 22 24
REMARK SMILES IDX 83 25 23 26 82 27 24 28 25 29 26 30 76 31 27 32 81 33 75 34
REMARK SMILES IDX 77 35 28 36 80 37 74 38 73 39 29 41 61 42 41 43 60 44 42 45
REMARK SMILES IDX 45 46 59 47 78 48 43 49 44 50 58 52 79 53 46 54 30 55 31 56
REMARK SMILES IDX 39 57 32 58 38 59 40 60 37 61 33 62 34 63 35 64 36 65 62 66
REMARK SMILES IDX 63 67 71 68 64 69 70 70 72 71 69 72 65 73 66 74 67 75 68 76
REMARK SMILES IDX 47 77 48 78 56 79 49 80 55 81 57 82 54 83 50 84 51 85 52 86
REMARK SMILES IDX 53 87
REMARK H PARENT 4 14 4 15 77 40 45 51
REMARK Flexibility Score: inf
ROOT
ATOM      1  C   UNL A   1      31.228  30.501  25.215  1.00  0.00     0.274 C 
ENDROOT
BRANCH   1   2
ATOM      2  O   UNL A   1      31.407  29.076  25.285  1.00  0.00    -0.461 OA
BRANCH   2   3
ATOM      3  C   UNL A   1      32.029  28.496  24.225  1.00  0.00     0.328 C 
ATOM      4  O   UNL A   1      33.079  28.899  23.736  1.00  0.00    -0.250 OA
BRANCH   3   5
ATOM      5  C   UNL A   1      31.229  27.330  23.635  1.00  0.00     0.195 C 
ATOM      6  N   UNL A   1      29.806  27.647  23.662  1.00  0.00    -0.324 N 
ATOM      7  C   UNL A   1      29.070  26.433  23.947  1.00  0.00     0.121 C 
ATOM      8  C   UNL A   1      29.986  25.630  24.842  1.00  0.00     0.024 C 
ATOM      9  C   UNL A   1      31.368  25.955  24.305  1.00  0.00     0.039 C 
BRANCH   6  10
ATOM     10  C   UNL A   1      29.324  28.525  22.697  1.00  0.00     0.278 C 
ATOM     11  O   UNL A   1      29.988  28.879  21.726  1.00  0.00    -0.268 OA
BRANCH  10  12
ATOM     12  C   UNL A   1      27.875  28.975  22.927  1.00  0.00     0.362 C 
BRANCH  12  13
ATOM     13  N   UNL A   1      27.518  30.154  22.105  1.00  0.00    -0.335 N 
ATOM     14  H   UNL A   1      28.169  30.230  21.323  1.00  0.00     0.347 HD
ATOM     15  H   UNL A   1      26.567  30.042  21.756  1.00  0.00     0.347 HD
BRANCH  13  16
ATOM     16  C   UNL A   1      27.588  31.367  22.907  1.00  0.00     0.289 C 
BRANCH  16  17
ATOM     17  C   UNL A   1      28.596  32.340  22.399  1.00  0.00     0.025 C 
ATOM     18  C   UNL A   1      29.000  33.400  23.115  1.00  0.00     0.010 C 
ENDBRANCH  16  17
ENDBRANCH  13  16
ENDBRANCH  12  13
ENDBRANCH  10  12
ENDBRANCH   6  10
ENDBRANCH   3   5
ENDBRANCH   2   3
ENDBRANCH   1   2
BRANCH   1  19
ATOM     19  C   UNL A   1      31.673  31.134  26.532  1.00  0.00     0.275 C 
BRANCH  19  20
ATOM     20  O   UNL A   1      33.092  30.965  26.734  1.00  0.00    -0.458 OA
BRANCH  20  21
ATOM     21  C   UNL A   1      33.687  31.953  27.443  1.00  0.00     0.338 C 
ATOM     22  O   UNL A   1      33.216  33.047  27.720  1.00  0.00    -0.246 OA
BRANCH  21  23
ATOM     23  C   UNL A   1      34.987  31.501  27.959  1.00  0.00     0.060 A 
ATOM     24  C   UNL A   1      35.084  30.203  28.466  1.00  0.00     0.016 A 
ATOM     25  C   UNL A   1      36.061  32.382  28.065  1.00  0.00     0.016 A 
ATOM     26  C   UNL A   1      36.247  29.782  29.102  1.00  0.00     0.010 A 
ATOM     27  C   UNL A   1      37.235  31.956  28.699  1.00  0.00     0.010 A 
ATOM     28  C   UNL A   1      37.327  30.661  29.240  1.00  0.00    -0.014 A 
BRANCH  28  29
ATOM     29  C   UNL A   1      38.513  30.236  30.023  1.00  0.00     0.031 A 
ATOM     30  C   UNL A   1      39.493  29.267  29.424  1.00  0.00     0.074 A 
ATOM     31  C   UNL A   1      38.733  30.756  31.246  1.00  0.00     0.049 A 
ATOM     32  N   UNL A   1      40.559  28.727  29.956  1.00  0.00    -0.248 NA
ATOM     33  C   UNL A   1      39.233  28.846  28.039  1.00  0.00     0.031 C 
ATOM     34  C   UNL A   1      37.882  31.748  31.905  1.00  0.00     0.029 A 
ATOM     35  N   UNL A   1      39.741  30.527  32.147  1.00  0.00    -0.354 N 
ATOM     36  C   UNL A   1      41.087  27.886  28.983  1.00  0.00     0.074 A 
ATOM     37  C   UNL A   1      40.207  27.972  27.835  1.00  0.00     0.031 C 
ATOM     38  C   UNL A   1      38.409  32.048  33.103  1.00  0.00     0.029 A 
ATOM     39  C   UNL A   1      39.603  31.236  33.318  1.00  0.00     0.049 A 
ATOM     40  H   UNL A   1      40.492  29.915  31.973  1.00  0.00     0.167 HD
ATOM     41  C   UNL A   1      42.203  27.118  29.043  1.00  0.00     0.034 A 
ATOM     42  C   UNL A   1      40.340  31.212  34.446  1.00  0.00     0.034 A 
ATOM     43  C   UNL A   1      43.073  27.053  30.192  1.00  0.00     0.049 A 
ATOM     44  C   UNL A   1      41.544  30.305  34.510  1.00  0.00     0.074 A 
ATOM     45  C   UNL A   1      44.232  26.313  30.359  1.00  0.00     0.029 A 
ATOM     46  N   UNL A   1      42.879  27.752  31.377  1.00  0.00    -0.354 N 
ATOM     47  N   UNL A   1      42.017  29.494  33.592  1.00  0.00    -0.248 NA
ATOM     48  C   UNL A   1      42.311  30.312  35.761  1.00  0.00     0.031 C 
ATOM     49  C   UNL A   1      44.705  26.520  31.659  1.00  0.00     0.029 A 
ATOM     50  C   UNL A   1      43.880  27.441  32.286  1.00  0.00     0.049 A 
ATOM     51  H   UNL A   1      42.138  28.378  31.547  1.00  0.00     0.167 HD
ATOM     52  C   UNL A   1      43.153  28.915  34.148  1.00  0.00     0.074 A 
ATOM     53  C   UNL A   1      43.299  29.478  35.475  1.00  0.00     0.031 C 
ATOM     54  C   UNL A   1      44.004  28.003  33.610  1.00  0.00     0.034 A 
BRANCH  41  55
ATOM     55  C   UNL A   1      42.502  26.240  27.851  1.00  0.00     0.023 A 
ATOM     56  C   UNL A   1      41.964  24.948  27.724  1.00  0.00     0.031 A 
ATOM     57  C   UNL A   1      43.373  26.693  26.844  1.00  0.00     0.131 A 
ATOM     58  C   UNL A   1      42.356  24.128  26.654  1.00  0.00     0.055 A 
ATOM     59  C   UNL A   1      43.700  25.901  25.742  1.00  0.00     0.041 A 
ATOM     60  F   UNL A   1      43.936  27.909  26.923  1.00  0.00    -0.206 F 
ATOM     61  C   UNL A   1      43.204  24.604  25.650  1.00  0.00     0.022 A 
BRANCH  58  62
ATOM     62  S   UNL A   1      41.858  22.384  26.666  1.00  0.00     0.124 S 
ATOM     63  O   UNL A   1      42.216  21.963  25.315  1.00  0.00    -0.237 OA
ATOM     64  O   UNL A   1      42.669  21.832  27.744  1.00  0.00    -0.237 OA
ATOM     65  O   UNL A   1      40.421  22.439  26.933  1.00  0.00    -0.744 OA
ENDBRANCH  58  62
ENDBRANCH  41  55
BRANCH  42  66
ATOM     66  C   UNL A   1      39.943  32.035  35.621  1.00  0.00     0.023 A 
ATOM     67  C   UNL A   1      39.026  31.556  36.571  1.00  0.00     0.031 A 
ATOM     68  C   UNL A   1      40.448  33.338  35.790  1.00  0.00     0.131 A 
ATOM     69  C   UNL A   1      38.615  32.386  37.625  1.00  0.00     0.055 A 
ATOM     70  C   UNL A   1      40.074  34.141  36.867  1.00  0.00     0.041 A 
ATOM     71  F   UNL A   1      41.326  33.845  34.909  1.00  0.00    -0.206 F 
ATOM     72  C   UNL A   1      39.143  33.670  37.788  1.00  0.00     0.022 A 
BRANCH  69  73
ATOM     73  S   UNL A   1      37.319  31.791  38.745  1.00  0.00     0.124 S 
ATOM     74  O   UNL A   1      37.994  31.844  40.037  1.00  0.00    -0.237 OA
ATOM     75  O   UNL A   1      36.261  32.773  38.534  1.00  0.00    -0.237 OA
ATOM     76  O   UNL A   1      37.029  30.448  38.248  1.00  0.00    -0.744 OA
ENDBRANCH  69  73
ENDBRANCH  42  66
BRANCH  54  77
ATOM     77  C   UNL A   1      45.189  27.600  34.450  1.00  0.00     0.023 A 
ATOM     78  C   UNL A   1      45.147  26.481  35.300  1.00  0.00     0.031 A 
ATOM     79  C   UNL A   1      46.370  28.362  34.413  1.00  0.00     0.131 A 
ATOM     80  C   UNL A   1      46.247  26.186  36.119  1.00  0.00     0.055 A 
ATOM     81  C   UNL A   1      47.480  28.034  35.192  1.00  0.00     0.041 A 
ATOM     82  F   UNL A   1      46.461  29.441  33.619  1.00  0.00    -0.206 F 
ATOM     83  C   UNL A   1      47.418  26.947  36.060  1.00  0.00     0.022 A 
BRANCH  80  84
ATOM     84  S   UNL A   1      46.101  24.840  37.326  1.00  0.00     0.124 S 
ATOM     85  O   UNL A   1      44.764  24.324  37.047  1.00  0.00    -0.237 OA
ATOM     86  O   UNL A   1      47.211  23.968  36.957  1.00  0.00    -0.237 OA
ATOM     87  O   UNL A   1      46.246  25.515  38.614  1.00  0.00    -0.744 OA
ENDBRANCH  80  84
ENDBRANCH  54  77
ENDBRANCH  28  29
ENDBRANCH  21  23
ENDBRANCH  20  21
ENDBRANCH  19  20
ENDBRANCH   1  19
TORSDOF 19
ENDMDL
