MODEL 1
REMARK VINA RESULT:     -12.4      0.000      0.000
REMARK SMILES CC(C)CCc1cc2c(cc1Cl)C=C(C(=O)OCCOC(=O)c1ccc(-c3c4nc(c(-c5cc(S(=O)(=O)[O-])ccc5F)c5ccc([nH]5)c(-c5cc(S(=O)(=O)[O-])ccc5F)c5nc(c(-c6cc(S(=O)(=O)[O-])ccc6F)c6ccc3[nH]6)C=C5)C=C4)cc1)[C@@H](C(F)(F)F)O2
REMARK SMILES IDX 18 1 17 2 15 3 16 4 14 5 6 6 7 7 11 8 8 9 10 10 12 11 9 12
REMARK SMILES IDX 91 13 13 14 86 15 5 16 4 17 2 18 1 19 3 20 87 21 88 22 89 23
REMARK SMILES IDX 90 24 19 25 20 26 21 27 22 28 23 29 24 30 85 31 25 32 84 33
REMARK SMILES IDX 26 34 27 35 28 36 78 37 29 38 83 39 77 40 79 41 30 42 82 43
REMARK SMILES IDX 76 44 75 45 31 47 63 48 43 49 62 50 44 51 47 52 61 53 80 54
REMARK SMILES IDX 45 55 46 56 60 58 81 59 48 60 32 61 33 62 41 63 34 64 40 65
REMARK SMILES IDX 42 66 39 67 35 68 36 69 37 70 38 71 64 72 65 73 73 74 66 75
REMARK SMILES IDX 72 76 74 77 71 78 67 79 68 80 69 81 70 82 49 83 50 84 58 85
REMARK SMILES IDX 51 86 57 87 59 88 56 89 52 90 53 91 54 92 55 93
REMARK H PARENT 79 46 47 57
REMARK Flexibility Score: inf
ROOT
ATOM      1  C   UNL A   1      35.133  21.442  24.923  1.00  0.00     0.275 C 
ENDROOT
BRANCH   1   2
ATOM      2  O   UNL A   1      34.989  22.872  24.808  1.00  0.00    -0.459 OA
BRANCH   2   3
ATOM      3  C   UNL A   1      35.052  23.377  23.553  1.00  0.00     0.338 C 
ATOM      4  O   UNL A   1      35.756  22.970  22.641  1.00  0.00    -0.246 OA
BRANCH   3   5
ATOM      5  C   UNL A   1      34.086  24.484  23.406  1.00  0.00     0.087 C 
ATOM      6  C   UNL A   1      31.325  28.668  23.841  1.00  0.00    -0.026 A 
ATOM      7  C   UNL A   1      31.334  27.573  22.960  1.00  0.00     0.052 A 
ATOM      8  C   UNL A   1      32.406  28.791  24.735  1.00  0.00     0.045 A 
ATOM      9  C   UNL A   1      32.271  26.551  23.079  1.00  0.00     0.128 A 
ATOM     10  C   UNL A   1      33.395  27.809  24.801  1.00  0.00     0.032 A 
ATOM     11  Cl  UNL A   1      32.556  30.137  25.811  1.00  0.00    -0.084 Cl
ATOM     12  C   UNL A   1      33.291  26.663  24.010  1.00  0.00     0.019 A 
ATOM     13  O   UNL A   1      32.112  25.476  22.247  1.00  0.00    -0.475 OA
ATOM     14  C   UNL A   1      34.243  25.583  24.152  1.00  0.00     0.027 C 
ATOM     15  C   UNL A   1      32.893  24.280  22.518  1.00  0.00     0.316 C 
BRANCH   6  16
ATOM     16  C   UNL A   1      30.174  29.653  23.903  1.00  0.00     0.037 C 
BRANCH  16  17
ATOM     17  C   UNL A   1      29.421  29.999  22.610  1.00  0.00     0.008 C 
BRANCH  17  18
ATOM     18  C   UNL A   1      27.880  30.081  22.687  1.00  0.00    -0.017 C 
ATOM     19  C   UNL A   1      27.227  28.794  23.181  1.00  0.00     0.007 C 
ATOM     20  C   UNL A   1      27.491  31.263  23.578  1.00  0.00     0.007 C 
ENDBRANCH  17  18
ENDBRANCH  16  17
ENDBRANCH   6  16
BRANCH  15  21
ATOM     21  C   UNL A   1      31.991  23.186  23.119  1.00  0.00     0.430 C 
ATOM     22  F   UNL A   1      32.047  23.177  24.472  1.00  0.00    -0.167 F 
ATOM     23  F   UNL A   1      30.690  23.385  22.790  1.00  0.00    -0.167 F 
ATOM     24  F   UNL A   1      32.325  21.946  22.693  1.00  0.00    -0.167 F 
ENDBRANCH  15  21
ENDBRANCH   3   5
ENDBRANCH   2   3
ENDBRANCH   1   2
BRANCH   1  25
ATOM     25  C   UNL A   1      36.369  21.074  25.747  1.00  0.00     0.275 C 
BRANCH  25  26
ATOM     26  O   UNL A   1      37.541  21.739  25.241  1.00  0.00    -0.458 OA
BRANCH  26  27
ATOM     27  C   UNL A   1      38.703  21.378  25.834  1.00  0.00     0.338 C 
ATOM     28  O   UNL A   1      39.281  20.310  25.733  1.00  0.00    -0.246 OA
BRANCH  27  29
ATOM     29  C   UNL A   1      39.282  22.536  26.527  1.00  0.00     0.060 A 
ATOM     30  C   UNL A   1      40.377  22.433  27.371  1.00  0.00     0.016 A 
ATOM     31  C   UNL A   1      38.799  23.787  26.177  1.00  0.00     0.016 A 
ATOM     32  C   UNL A   1      40.958  23.608  27.870  1.00  0.00     0.010 A 
ATOM     33  C   UNL A   1      39.490  24.943  26.516  1.00  0.00     0.010 A 
ATOM     34  C   UNL A   1      40.552  24.883  27.417  1.00  0.00    -0.014 A 
BRANCH  34  35
ATOM     35  C   UNL A   1      41.213  26.141  27.882  1.00  0.00     0.031 A 
ATOM     36  C   UNL A   1      42.645  26.466  27.502  1.00  0.00     0.074 A 
ATOM     37  C   UNL A   1      40.535  26.990  28.684  1.00  0.00     0.049 A 
ATOM     38  N   UNL A   1      43.349  27.535  27.785  1.00  0.00    -0.248 NA
ATOM     39  C   UNL A   1      43.407  25.452  26.752  1.00  0.00     0.031 C 
ATOM     40  C   UNL A   1      39.200  26.739  29.232  1.00  0.00     0.029 A 
ATOM     41  N   UNL A   1      40.853  28.239  29.162  1.00  0.00    -0.354 N 
ATOM     42  C   UNL A   1      44.622  27.306  27.267  1.00  0.00     0.074 A 
ATOM     43  C   UNL A   1      44.628  25.962  26.747  1.00  0.00     0.031 C 
ATOM     44  C   UNL A   1      38.777  27.830  29.883  1.00  0.00     0.029 A 
ATOM     45  C   UNL A   1      39.830  28.842  29.860  1.00  0.00     0.049 A 
ATOM     46  H   UNL A   1      41.731  28.662  29.021  1.00  0.00     0.167 HD
ATOM     47  C   UNL A   1      45.672  28.156  27.174  1.00  0.00     0.034 A 
ATOM     48  C   UNL A   1      39.735  30.074  30.404  1.00  0.00     0.034 A 
ATOM     49  C   UNL A   1      45.628  29.519  27.635  1.00  0.00     0.049 A 
ATOM     50  C   UNL A   1      40.890  31.029  30.238  1.00  0.00     0.074 A 
ATOM     51  C   UNL A   1      46.598  30.494  27.504  1.00  0.00     0.029 A 
ATOM     52  N   UNL A   1      44.558  30.101  28.299  1.00  0.00    -0.354 N 
ATOM     53  N   UNL A   1      42.035  30.837  29.625  1.00  0.00    -0.248 NA
ATOM     54  C   UNL A   1      40.744  32.370  30.819  1.00  0.00     0.031 C 
ATOM     55  C   UNL A   1      46.147  31.644  28.149  1.00  0.00     0.029 A 
ATOM     56  C   UNL A   1      44.857  31.417  28.607  1.00  0.00     0.049 A 
ATOM     57  H   UNL A   1      43.713  29.648  28.518  1.00  0.00     0.167 HD
ATOM     58  C   UNL A   1      42.732  32.037  29.726  1.00  0.00     0.074 A 
ATOM     59  C   UNL A   1      41.868  32.959  30.431  1.00  0.00     0.031 C 
ATOM     60  C   UNL A   1      43.979  32.341  29.283  1.00  0.00     0.034 A 
BRANCH  47  61
ATOM     61  C   UNL A   1      46.941  27.691  26.493  1.00  0.00     0.023 A 
ATOM     62  C   UNL A   1      47.147  27.954  25.125  1.00  0.00     0.031 A 
ATOM     63  C   UNL A   1      47.866  26.860  27.153  1.00  0.00     0.131 A 
ATOM     64  C   UNL A   1      48.222  27.356  24.454  1.00  0.00     0.055 A 
ATOM     65  C   UNL A   1      48.968  26.314  26.493  1.00  0.00     0.041 A 
ATOM     66  F   UNL A   1      47.714  26.566  28.454  1.00  0.00    -0.206 F 
ATOM     67  C   UNL A   1      49.140  26.548  25.133  1.00  0.00     0.022 A 
BRANCH  64  68
ATOM     68  S   UNL A   1      48.423  27.527  22.659  1.00  0.00     0.124 S 
ATOM     69  O   UNL A   1      48.454  26.133  22.226  1.00  0.00    -0.237 OA
ATOM     70  O   UNL A   1      47.220  28.268  22.289  1.00  0.00    -0.237 OA
ATOM     71  O   UNL A   1      49.681  28.251  22.514  1.00  0.00    -0.744 OA
ENDBRANCH  64  68
ENDBRANCH  47  61
BRANCH  48  72
ATOM     72  C   UNL A   1      38.455  30.484  31.062  1.00  0.00     0.023 A 
ATOM     73  C   UNL A   1      37.426  31.100  30.327  1.00  0.00     0.031 A 
ATOM     74  C   UNL A   1      38.295  30.379  32.454  1.00  0.00     0.131 A 
ATOM     75  C   UNL A   1      36.327  31.658  30.995  1.00  0.00     0.055 A 
ATOM     76  C   UNL A   1      37.159  30.861  33.107  1.00  0.00     0.041 A 
ATOM     77  F   UNL A   1      39.255  29.815  33.206  1.00  0.00    -0.206 F 
ATOM     78  C   UNL A   1      36.177  31.525  32.378  1.00  0.00     0.022 A 
BRANCH  75  79
ATOM     79  S   UNL A   1      35.139  32.709  30.113  1.00  0.00     0.124 S 
ATOM     80  O   UNL A   1      34.195  33.056  31.170  1.00  0.00    -0.237 OA
ATOM     81  O   UNL A   1      35.995  33.799  29.648  1.00  0.00    -0.237 OA
ATOM     82  O   UNL A   1      34.622  31.838  29.063  1.00  0.00    -0.744 OA
ENDBRANCH  75  79
ENDBRANCH  48  72
BRANCH  60  83
ATOM     83  C   UNL A   1      44.519  33.731  29.519  1.00  0.00     0.023 A 
ATOM     84  C   UNL A   1      45.143  34.036  30.745  1.00  0.00     0.031 A 
ATOM     85  C   UNL A   1      44.246  34.783  28.631  1.00  0.00     0.131 A 
ATOM     86  C   UNL A   1      45.416  35.369  31.074  1.00  0.00     0.055 A 
ATOM     87  C   UNL A   1      44.576  36.104  28.938  1.00  0.00     0.041 A 
ATOM     88  F   UNL A   1      43.638  34.546  27.458  1.00  0.00    -0.206 F 
ATOM     89  C   UNL A   1      45.146  36.404  30.173  1.00  0.00     0.022 A 
BRANCH  86  90
ATOM     90  S   UNL A   1      46.019  35.819  32.725  1.00  0.00     0.124 S 
ATOM     91  O   UNL A   1      45.223  34.946  33.585  1.00  0.00    -0.237 OA
ATOM     92  O   UNL A   1      47.437  35.482  32.636  1.00  0.00    -0.237 OA
ATOM     93  O   UNL A   1      45.718  37.242  32.836  1.00  0.00    -0.744 OA
ENDBRANCH  86  90
ENDBRANCH  60  83
ENDBRANCH  34  35
ENDBRANCH  27  29
ENDBRANCH  26  27
ENDBRANCH  25  26
ENDBRANCH   1  25
TORSDOF 18
ENDMDL
MODEL 2
REMARK VINA RESULT:     -12.4      1.451      1.774
REMARK SMILES CC(C)CCc1cc2c(cc1Cl)C=C(C(=O)OCCOC(=O)c1ccc(-c3c4nc(c(-c5cc(S(=O)(=O)[O-])ccc5F)c5ccc([nH]5)c(-c5cc(S(=O)(=O)[O-])ccc5F)c5nc(c(-c6cc(S(=O)(=O)[O-])ccc6F)c6ccc3[nH]6)C=C5)C=C4)cc1)[C@@H](C(F)(F)F)O2
REMARK SMILES IDX 18 1 17 2 15 3 16 4 14 5 6 6 7 7 11 8 8 9 10 10 12 11 9 12
REMARK SMILES IDX 91 13 13 14 86 15 5 16 4 17 2 18 1 19 3 20 87 21 88 22 89 23
REMARK SMILES IDX 90 24 19 25 20 26 21 27 22 28 23 29 24 30 85 31 25 32 84 33
REMARK SMILES IDX 26 34 27 35 28 36 78 37 29 38 83 39 77 40 79 41 30 42 82 43
REMARK SMILES IDX 76 44 75 45 31 47 63 48 43 49 62 50 44 51 47 52 61 53 80 54
REMARK SMILES IDX 45 55 46 56 60 58 81 59 48 60 32 61 33 62 41 63 34 64 40 65
REMARK SMILES IDX 42 66 39 67 35 68 36 69 37 70 38 71 64 72 65 73 73 74 66 75
REMARK SMILES IDX 72 76 74 77 71 78 67 79 68 80 69 81 70 82 49 83 50 84 58 85
REMARK SMILES IDX 51 86 57 87 59 88 56 89 52 90 53 91 54 92 55 93
REMARK H PARENT 79 46 47 57
REMARK Flexibility Score: inf
ROOT
ATOM      1  C   UNL A   1      35.488  21.287  24.860  1.00  0.00     0.275 C 
ENDROOT
BRANCH   1   2
ATOM      2  O   UNL A   1      35.414  22.724  24.768  1.00  0.00    -0.459 OA
BRANCH   2   3
ATOM      3  C   UNL A   1      35.461  23.243  23.518  1.00  0.00     0.338 C 
ATOM      4  O   UNL A   1      36.218  22.907  22.620  1.00  0.00    -0.246 OA
BRANCH   3   5
ATOM      5  C   UNL A   1      34.408  24.265  23.356  1.00  0.00     0.087 C 
ATOM      6  C   UNL A   1      31.323  28.223  23.724  1.00  0.00    -0.026 A 
ATOM      7  C   UNL A   1      31.411  27.110  22.870  1.00  0.00     0.052 A 
ATOM      8  C   UNL A   1      32.399  28.455  24.602  1.00  0.00     0.045 A 
ATOM      9  C   UNL A   1      32.429  26.170  23.002  1.00  0.00     0.128 A 
ATOM     10  C   UNL A   1      33.466  27.558  24.678  1.00  0.00     0.032 A 
ATOM     11  Cl  UNL A   1      32.452  29.836  25.642  1.00  0.00    -0.084 Cl
ATOM     12  C   UNL A   1      33.447  26.387  23.918  1.00  0.00     0.019 A 
ATOM     13  O   UNL A   1      32.348  25.066  22.199  1.00  0.00    -0.475 OA
ATOM     14  C   UNL A   1      34.484  25.392  24.074  1.00  0.00     0.027 C 
ATOM     15  C   UNL A   1      33.226  23.943  22.489  1.00  0.00     0.316 C 
BRANCH   6  16
ATOM     16  C   UNL A   1      30.097  29.113  23.776  1.00  0.00     0.037 C 
BRANCH  16  17
ATOM     17  C   UNL A   1      29.311  29.373  22.483  1.00  0.00     0.008 C 
BRANCH  17  18
ATOM     18  C   UNL A   1      27.811  29.720  22.622  1.00  0.00    -0.017 C 
ATOM     19  C   UNL A   1      26.998  28.633  23.318  1.00  0.00     0.007 C 
ATOM     20  C   UNL A   1      27.678  31.054  23.361  1.00  0.00     0.007 C 
ENDBRANCH  17  18
ENDBRANCH  16  17
ENDBRANCH   6  16
BRANCH  15  21
ATOM     21  C   UNL A   1      32.422  22.796  23.128  1.00  0.00     0.430 C 
ATOM     22  F   UNL A   1      32.929  21.584  22.799  1.00  0.00    -0.167 F 
ATOM     23  F   UNL A   1      32.451  22.869  24.482  1.00  0.00    -0.167 F 
ATOM     24  F   UNL A   1      31.121  22.803  22.756  1.00  0.00    -0.167 F 
ENDBRANCH  15  21
ENDBRANCH   3   5
ENDBRANCH   2   3
ENDBRANCH   1   2
BRANCH   1  25
ATOM     25  C   UNL A   1      36.863  20.833  25.357  1.00  0.00     0.275 C 
BRANCH  25  26
ATOM     26  O   UNL A   1      37.739  21.959  25.544  1.00  0.00    -0.458 OA
BRANCH  26  27
ATOM     27  C   UNL A   1      38.944  21.661  26.082  1.00  0.00     0.338 C 
ATOM     28  O   UNL A   1      39.581  20.631  25.941  1.00  0.00    -0.246 OA
BRANCH  27  29
ATOM     29  C   UNL A   1      39.482  22.842  26.770  1.00  0.00     0.060 A 
ATOM     30  C   UNL A   1      40.586  22.785  27.606  1.00  0.00     0.016 A 
ATOM     31  C   UNL A   1      38.948  24.073  26.420  1.00  0.00     0.016 A 
ATOM     32  C   UNL A   1      41.124  23.983  28.098  1.00  0.00     0.010 A 
ATOM     33  C   UNL A   1      39.595  25.256  26.751  1.00  0.00     0.010 A 
ATOM     34  C   UNL A   1      40.665  25.240  27.645  1.00  0.00    -0.014 A 
BRANCH  34  35
ATOM     35  C   UNL A   1      41.279  26.524  28.104  1.00  0.00     0.031 A 
ATOM     36  C   UNL A   1      42.714  26.877  27.763  1.00  0.00     0.074 A 
ATOM     37  C   UNL A   1      40.555  27.373  28.865  1.00  0.00     0.049 A 
ATOM     38  N   UNL A   1      43.382  27.969  28.044  1.00  0.00    -0.248 NA
ATOM     39  C   UNL A   1      43.525  25.867  27.060  1.00  0.00     0.031 C 
ATOM     40  C   UNL A   1      39.209  27.099  29.375  1.00  0.00     0.029 A 
ATOM     41  N   UNL A   1      40.826  28.639  29.325  1.00  0.00    -0.354 N 
ATOM     42  C   UNL A   1      44.676  27.762  27.573  1.00  0.00     0.074 A 
ATOM     43  C   UNL A   1      44.733  26.408  27.083  1.00  0.00     0.031 C 
ATOM     44  C   UNL A   1      38.739  28.193  29.988  1.00  0.00     0.029 A 
ATOM     45  C   UNL A   1      39.766  29.230  29.976  1.00  0.00     0.049 A 
ATOM     46  H   UNL A   1      41.698  29.081  29.202  1.00  0.00     0.167 HD
ATOM     47  C   UNL A   1      45.707  28.637  27.495  1.00  0.00     0.034 A 
ATOM     48  C   UNL A   1      39.622  30.471  30.489  1.00  0.00     0.034 A 
ATOM     49  C   UNL A   1      45.614  30.007  27.923  1.00  0.00     0.049 A 
ATOM     50  C   UNL A   1      40.759  31.451  30.339  1.00  0.00     0.074 A 
ATOM     51  C   UNL A   1      46.564  31.004  27.802  1.00  0.00     0.029 A 
ATOM     52  N   UNL A   1      44.509  30.576  28.540  1.00  0.00    -0.354 N 
ATOM     53  N   UNL A   1      41.928  31.275  29.768  1.00  0.00    -0.248 NA
ATOM     54  C   UNL A   1      40.560  32.800  30.886  1.00  0.00     0.031 C 
ATOM     55  C   UNL A   1      46.064  32.155  28.407  1.00  0.00     0.029 A 
ATOM     56  C   UNL A   1      44.766  31.906  28.828  1.00  0.00     0.049 A 
ATOM     57  H   UNL A   1      43.669  30.106  28.742  1.00  0.00     0.167 HD
ATOM     58  C   UNL A   1      42.591  32.494  29.864  1.00  0.00     0.074 A 
ATOM     59  C   UNL A   1      41.682  33.409  30.521  1.00  0.00     0.031 C 
ATOM     60  C   UNL A   1      43.843  32.821  29.455  1.00  0.00     0.034 A 
BRANCH  47  61
ATOM     61  C   UNL A   1      47.009  28.190  26.865  1.00  0.00     0.023 A 
ATOM     62  C   UNL A   1      47.152  28.183  25.464  1.00  0.00     0.031 A 
ATOM     63  C   UNL A   1      48.044  27.628  27.638  1.00  0.00     0.131 A 
ATOM     64  C   UNL A   1      48.278  27.585  24.881  1.00  0.00     0.055 A 
ATOM     65  C   UNL A   1      49.190  27.088  27.053  1.00  0.00     0.041 A 
ATOM     66  F   UNL A   1      47.957  27.598  28.977  1.00  0.00    -0.206 F 
ATOM     67  C   UNL A   1      49.303  27.050  25.667  1.00  0.00     0.022 A 
BRANCH  64  68
ATOM     68  S   UNL A   1      48.417  27.399  23.081  1.00  0.00     0.124 S 
ATOM     69  O   UNL A   1      47.263  28.160  22.610  1.00  0.00    -0.237 OA
ATOM     70  O   UNL A   1      49.717  28.009  22.814  1.00  0.00    -0.237 OA
ATOM     71  O   UNL A   1      48.340  25.958  22.870  1.00  0.00    -0.744 OA
ENDBRANCH  64  68
ENDBRANCH  47  61
BRANCH  48  72
ATOM     72  C   UNL A   1      38.312  30.862  31.097  1.00  0.00     0.023 A 
ATOM     73  C   UNL A   1      37.305  31.465  30.322  1.00  0.00     0.031 A 
ATOM     74  C   UNL A   1      38.100  30.753  32.482  1.00  0.00     0.131 A 
ATOM     75  C   UNL A   1      36.172  32.006  30.947  1.00  0.00     0.055 A 
ATOM     76  C   UNL A   1      36.932  31.219  33.089  1.00  0.00     0.041 A 
ATOM     77  F   UNL A   1      39.036  30.202  33.270  1.00  0.00    -0.206 F 
ATOM     78  C   UNL A   1      35.970  31.869  32.324  1.00  0.00     0.022 A 
BRANCH  75  79
ATOM     79  S   UNL A   1      35.005  33.041  30.020  1.00  0.00     0.124 S 
ATOM     80  O   UNL A   1      35.892  34.021  29.400  1.00  0.00    -0.237 OA
ATOM     81  O   UNL A   1      34.405  32.069  29.108  1.00  0.00    -0.237 OA
ATOM     82  O   UNL A   1      34.110  33.558  31.049  1.00  0.00    -0.744 OA
ENDBRANCH  75  79
ENDBRANCH  48  72
BRANCH  60  83
ATOM     83  C   UNL A   1      44.341  34.229  29.678  1.00  0.00     0.023 A 
ATOM     84  C   UNL A   1      43.993  35.243  28.764  1.00  0.00     0.031 A 
ATOM     85  C   UNL A   1      45.301  34.519  30.660  1.00  0.00     0.131 A 
ATOM     86  C   UNL A   1      44.646  36.480  28.814  1.00  0.00     0.055 A 
ATOM     87  C   UNL A   1      45.906  35.775  30.743  1.00  0.00     0.041 A 
ATOM     88  F   UNL A   1      45.680  33.582  31.543  1.00  0.00    -0.206 F 
ATOM     89  C   UNL A   1      45.594  36.755  29.805  1.00  0.00     0.022 A 
BRANCH  86  90
ATOM     90  S   UNL A   1      44.379  37.730  27.526  1.00  0.00     0.124 S 
ATOM     91  O   UNL A   1      45.711  37.843  26.934  1.00  0.00    -0.237 OA
ATOM     92  O   UNL A   1      43.374  37.091  26.682  1.00  0.00    -0.237 OA
ATOM     93  O   UNL A   1      43.927  38.905  28.262  1.00  0.00    -0.744 OA
ENDBRANCH  86  90
ENDBRANCH  60  83
ENDBRANCH  34  35
ENDBRANCH  27  29
ENDBRANCH  26  27
ENDBRANCH  25  26
ENDBRANCH   1  25
TORSDOF 18
ENDMDL
MODEL 3
REMARK VINA RESULT:     -12.3      4.831     10.024
REMARK SMILES CC(C)CCc1cc2c(cc1Cl)C=C(C(=O)OCCOC(=O)c1ccc(-c3c4nc(c(-c5cc(S(=O)(=O)[O-])ccc5F)c5ccc([nH]5)c(-c5cc(S(=O)(=O)[O-])ccc5F)c5nc(c(-c6cc(S(=O)(=O)[O-])ccc6F)c6ccc3[nH]6)C=C5)C=C4)cc1)[C@@H](C(F)(F)F)O2
REMARK SMILES IDX 18 1 17 2 15 3 16 4 14 5 6 6 7 7 11 8 8 9 10 10 12 11 9 12
REMARK SMILES IDX 91 13 13 14 86 15 5 16 4 17 2 18 1 19 3 20 87 21 88 22 89 23
REMARK SMILES IDX 90 24 19 25 20 26 21 27 22 28 23 29 24 30 85 31 25 32 84 33
REMARK SMILES IDX 26 34 27 35 28 36 78 37 29 38 83 39 77 40 79 41 30 42 82 43
REMARK SMILES IDX 76 44 75 45 31 47 63 48 43 49 62 50 44 51 47 52 61 53 80 54
REMARK SMILES IDX 45 55 46 56 60 58 81 59 48 60 32 61 33 62 41 63 34 64 40 65
REMARK SMILES IDX 42 66 39 67 35 68 36 69 37 70 38 71 64 72 65 73 73 74 66 75
REMARK SMILES IDX 72 76 74 77 71 78 67 79 68 80 69 81 70 82 49 83 50 84 58 85
REMARK SMILES IDX 51 86 57 87 59 88 56 89 52 90 53 91 54 92 55 93
REMARK H PARENT 79 46 47 57
REMARK Flexibility Score: inf
ROOT
ATOM      1  C   UNL A   1      31.621  28.965  24.977  1.00  0.00     0.275 C 
ENDROOT
BRANCH   1   2
ATOM      2  O   UNL A   1      32.370  27.841  25.482  1.00  0.00    -0.459 OA
BRANCH   2   3
ATOM      3  C   UNL A   1      31.715  27.030  26.348  1.00  0.00     0.338 C 
ATOM      4  O   UNL A   1      30.897  27.374  27.187  1.00  0.00    -0.246 OA
BRANCH   3   5
ATOM      5  C   UNL A   1      32.088  25.622  26.100  1.00  0.00     0.087 C 
ATOM      6  C   UNL A   1      34.429  21.243  25.295  1.00  0.00    -0.026 A 
ATOM      7  C   UNL A   1      33.086  21.647  25.386  1.00  0.00     0.052 A 
ATOM      8  C   UNL A   1      35.416  22.176  25.667  1.00  0.00     0.045 A 
ATOM      9  C   UNL A   1      32.741  22.968  25.658  1.00  0.00     0.128 A 
ATOM     10  C   UNL A   1      35.068  23.480  26.022  1.00  0.00     0.032 A 
ATOM     11  Cl  UNL A   1      37.098  21.776  25.681  1.00  0.00    -0.084 Cl
ATOM     12  C   UNL A   1      33.734  23.887  25.960  1.00  0.00     0.019 A 
ATOM     13  O   UNL A   1      31.409  23.274  25.603  1.00  0.00    -0.475 OA
ATOM     14  C   UNL A   1      33.372  25.265  26.210  1.00  0.00     0.027 C 
ATOM     15  C   UNL A   1      31.029  24.678  25.611  1.00  0.00     0.316 C 
BRANCH   6  16
ATOM     16  C   UNL A   1      34.836  19.888  24.750  1.00  0.00     0.037 C 
BRANCH  16  17
ATOM     17  C   UNL A   1      33.761  18.807  24.566  1.00  0.00     0.008 C 
BRANCH  17  18
ATOM     18  C   UNL A   1      34.236  17.339  24.492  1.00  0.00    -0.017 C 
ATOM     19  C   UNL A   1      33.487  16.409  25.442  1.00  0.00     0.007 C 
ATOM     20  C   UNL A   1      34.112  16.851  23.047  1.00  0.00     0.007 C 
ENDBRANCH  17  18
ENDBRANCH  16  17
ENDBRANCH   6  16
BRANCH  15  21
ATOM     21  C   UNL A   1      30.571  25.109  24.205  1.00  0.00     0.430 C 
ATOM     22  F   UNL A   1      31.578  25.679  23.502  1.00  0.00    -0.167 F 
ATOM     23  F   UNL A   1      30.151  24.044  23.476  1.00  0.00    -0.167 F 
ATOM     24  F   UNL A   1      29.550  25.995  24.240  1.00  0.00    -0.167 F 
ENDBRANCH  15  21
ENDBRANCH   3   5
ENDBRANCH   2   3
ENDBRANCH   1   2
BRANCH   1  25
ATOM     25  C   UNL A   1      31.894  30.227  25.799  1.00  0.00     0.275 C 
BRANCH  25  26
ATOM     26  O   UNL A   1      32.994  30.024  26.704  1.00  0.00    -0.458 OA
BRANCH  26  27
ATOM     27  C   UNL A   1      33.527  31.156  27.219  1.00  0.00     0.338 C 
ATOM     28  O   UNL A   1      32.955  32.213  27.422  1.00  0.00    -0.246 OA
BRANCH  27  29
ATOM     29  C   UNL A   1      34.904  30.897  27.658  1.00  0.00     0.060 A 
ATOM     30  C   UNL A   1      35.814  31.912  27.910  1.00  0.00     0.016 A 
ATOM     31  C   UNL A   1      35.227  29.589  27.982  1.00  0.00     0.016 A 
ATOM     32  C   UNL A   1      37.056  31.582  28.471  1.00  0.00     0.010 A 
ATOM     33  C   UNL A   1      36.372  29.291  28.710  1.00  0.00     0.010 A 
ATOM     34  C   UNL A   1      37.340  30.273  28.920  1.00  0.00    -0.014 A 
BRANCH  34  35
ATOM     35  C   UNL A   1      38.630  29.923  29.590  1.00  0.00     0.031 A 
ATOM     36  C   UNL A   1      38.980  30.467  30.962  1.00  0.00     0.074 A 
ATOM     37  C   UNL A   1      39.519  29.134  28.948  1.00  0.00     0.049 A 
ATOM     38  N   UNL A   1      40.036  30.224  31.698  1.00  0.00    -0.248 NA
ATOM     39  C   UNL A   1      38.059  31.443  31.572  1.00  0.00     0.031 C 
ATOM     40  C   UNL A   1      39.368  28.648  27.575  1.00  0.00     0.029 A 
ATOM     41  N   UNL A   1      40.707  28.581  29.360  1.00  0.00    -0.354 N 
ATOM     42  C   UNL A   1      39.908  31.025  32.831  1.00  0.00     0.074 A 
ATOM     43  C   UNL A   1      38.733  31.837  32.641  1.00  0.00     0.031 C 
ATOM     44  C   UNL A   1      40.364  27.798  27.295  1.00  0.00     0.029 A 
ATOM     45  C   UNL A   1      41.266  27.721  28.440  1.00  0.00     0.049 A 
ATOM     46  H   UNL A   1      41.121  28.781  30.231  1.00  0.00     0.167 HD
ATOM     47  C   UNL A   1      40.662  31.041  33.956  1.00  0.00     0.034 A 
ATOM     48  C   UNL A   1      42.366  26.941  28.511  1.00  0.00     0.034 A 
ATOM     49  C   UNL A   1      41.792  30.174  34.161  1.00  0.00     0.049 A 
ATOM     50  C   UNL A   1      43.160  26.925  29.794  1.00  0.00     0.074 A 
ATOM     51  C   UNL A   1      42.567  30.039  35.298  1.00  0.00     0.029 A 
ATOM     52  N   UNL A   1      42.300  29.290  33.220  1.00  0.00    -0.354 N 
ATOM     53  N   UNL A   1      42.942  27.591  30.904  1.00  0.00    -0.248 NA
ATOM     54  C   UNL A   1      44.336  26.047  29.847  1.00  0.00     0.031 C 
ATOM     55  C   UNL A   1      43.584  29.127  35.024  1.00  0.00     0.029 A 
ATOM     56  C   UNL A   1      43.394  28.625  33.745  1.00  0.00     0.049 A 
ATOM     57  H   UNL A   1      41.936  29.155  32.316  1.00  0.00     0.167 HD
ATOM     58  C   UNL A   1      43.937  27.194  31.792  1.00  0.00     0.074 A 
ATOM     59  C   UNL A   1      44.739  26.206  31.101  1.00  0.00     0.031 C 
ATOM     60  C   UNL A   1      44.170  27.619  33.060  1.00  0.00     0.034 A 
BRANCH  47  61
ATOM     61  C   UNL A   1      40.272  31.960  35.094  1.00  0.00     0.023 A 
ATOM     62  C   UNL A   1      39.376  31.517  36.086  1.00  0.00     0.031 A 
ATOM     63  C   UNL A   1      40.662  33.313  35.111  1.00  0.00     0.131 A 
ATOM     64  C   UNL A   1      38.866  32.428  37.021  1.00  0.00     0.055 A 
ATOM     65  C   UNL A   1      40.196  34.202  36.081  1.00  0.00     0.041 A 
ATOM     66  F   UNL A   1      41.506  33.794  34.184  1.00  0.00    -0.206 F 
ATOM     67  C   UNL A   1      39.280  33.764  37.032  1.00  0.00     0.022 A 
BRANCH  64  68
ATOM     68  S   UNL A   1      37.579  31.940  38.203  1.00  0.00     0.124 S 
ATOM     69  O   UNL A   1      37.280  30.576  37.776  1.00  0.00    -0.237 OA
ATOM     70  O   UNL A   1      38.281  32.053  39.479  1.00  0.00    -0.237 OA
ATOM     71  O   UNL A   1      36.511  32.908  37.980  1.00  0.00    -0.744 OA
ENDBRANCH  64  68
ENDBRANCH  47  61
BRANCH  48  72
ATOM     72  C   UNL A   1      42.703  26.049  27.359  1.00  0.00     0.023 A 
ATOM     73  C   UNL A   1      42.253  24.717  27.317  1.00  0.00     0.031 A 
ATOM     74  C   UNL A   1      43.581  26.477  26.349  1.00  0.00     0.131 A 
ATOM     75  C   UNL A   1      42.745  23.842  26.338  1.00  0.00     0.055 A 
ATOM     76  C   UNL A   1      44.004  25.625  25.326  1.00  0.00     0.041 A 
ATOM     77  F   UNL A   1      44.055  27.733  26.351  1.00  0.00    -0.206 F 
ATOM     78  C   UNL A   1      43.602  24.294  25.330  1.00  0.00     0.022 A 
BRANCH  75  79
ATOM     79  S   UNL A   1      42.416  22.060  26.433  1.00  0.00     0.124 S 
ATOM     80  O   UNL A   1      43.433  21.514  25.541  1.00  0.00    -0.237 OA
ATOM     81  O   UNL A   1      42.618  21.796  27.856  1.00  0.00    -0.237 OA
ATOM     82  O   UNL A   1      41.038  21.940  25.972  1.00  0.00    -0.744 OA
ENDBRANCH  75  79
ENDBRANCH  48  72
BRANCH  60  83
ATOM     83  C   UNL A   1      45.329  27.028  33.827  1.00  0.00     0.023 A 
ATOM     84  C   UNL A   1      45.104  25.957  34.714  1.00  0.00     0.031 A 
ATOM     85  C   UNL A   1      46.593  27.641  33.831  1.00  0.00     0.131 A 
ATOM     86  C   UNL A   1      46.108  25.573  35.611  1.00  0.00     0.055 A 
ATOM     87  C   UNL A   1      47.611  27.213  34.685  1.00  0.00     0.041 A 
ATOM     88  F   UNL A   1      46.852  28.677  33.017  1.00  0.00    -0.206 F 
ATOM     89  C   UNL A   1      47.364  26.188  35.594  1.00  0.00     0.022 A 
BRANCH  86  90
ATOM     90  S   UNL A   1      45.782  24.346  36.908  1.00  0.00     0.124 S 
ATOM     91  O   UNL A   1      45.947  23.088  36.182  1.00  0.00    -0.237 OA
ATOM     92  O   UNL A   1      46.827  24.645  37.882  1.00  0.00    -0.237 OA
ATOM     93  O   UNL A   1      44.419  24.639  37.338  1.00  0.00    -0.744 OA
ENDBRANCH  86  90
ENDBRANCH  60  83
ENDBRANCH  34  35
ENDBRANCH  27  29
ENDBRANCH  26  27
ENDBRANCH  25  26
ENDBRANCH   1  25
TORSDOF 18
ENDMDL
