MODEL 1
REMARK VINA RESULT:     -10.5      0.000      0.000
REMARK SMILES CC(C)OCCS(=O)(=O)N1CCC[C@H](C(=O)OCCOC(=O)c2ccc(-c3c4nc(c(-c5cc(S(=O)(=O)[O-])ccc5F)c5ccc([nH]5)c(-c5cc(S(=O)(=O)[O-])ccc5F)c5nc(c(-c6cc(S(=O)(=O)[O-])ccc6F)c6ccc3[nH]6)C=C5)C=C4)cc2)C1
REMARK SMILES IDX 18 1 17 2 15 3 16 4 14 5 10 6 11 7 86 8 12 9 13 10 7 11 8 12
REMARK SMILES IDX 9 13 6 14 5 15 4 16 2 17 1 18 3 19 19 20 20 21 21 22 22 23
REMARK SMILES IDX 23 24 24 25 85 26 25 27 84 28 26 29 27 30 28 31 78 32 29 33
REMARK SMILES IDX 83 34 77 35 79 36 30 37 82 38 76 39 75 40 31 42 63 43 43 44
REMARK SMILES IDX 62 45 44 46 47 47 61 48 80 49 45 50 46 51 60 53 81 54 48 55
REMARK SMILES IDX 32 56 33 57 41 58 34 59 40 60 42 61 39 62 35 63 36 64 37 65
REMARK SMILES IDX 38 66 64 67 65 68 73 69 66 70 72 71 74 72 71 73 67 74 68 75
REMARK SMILES IDX 69 76 70 77 49 78 50 79 58 80 51 81 57 82 59 83 56 84 52 85
REMARK SMILES IDX 53 86 54 87 55 88
REMARK H PARENT 79 41 47 52
REMARK Flexibility Score: inf
ROOT
ATOM      1  C   UNL A   1      31.820  28.516  27.275  1.00  0.00     0.274 C 
ENDROOT
BRANCH   1   2
ATOM      2  O   UNL A   1      32.239  27.515  26.326  1.00  0.00    -0.462 OA
BRANCH   2   3
ATOM      3  C   UNL A   1      31.357  26.509  26.114  1.00  0.00     0.310 C 
ATOM      4  O   UNL A   1      30.344  26.320  26.784  1.00  0.00    -0.252 OA
BRANCH   3   5
ATOM      5  C   UNL A   1      31.694  25.630  24.927  1.00  0.00     0.114 C 
ATOM      6  N   UNL A   1      33.349  23.834  25.601  1.00  0.00    -0.201 NA
ATOM      7  C   UNL A   1      34.211  24.195  24.457  1.00  0.00     0.102 C 
ATOM      8  C   UNL A   1      31.923  24.200  25.405  1.00  0.00     0.117 C 
ATOM      9  C   UNL A   1      34.144  25.705  24.263  1.00  0.00     0.018 C 
ATOM     10  C   UNL A   1      32.728  26.143  23.928  1.00  0.00     0.018 C 
BRANCH   6  11
ATOM     11  S   UNL A   1      33.648  22.335  26.354  1.00  0.00     0.216 S 
ATOM     12  O   UNL A   1      32.944  22.330  27.618  1.00  0.00    -0.212 OA
ATOM     13  O   UNL A   1      35.082  22.123  26.343  1.00  0.00    -0.212 OA
BRANCH  11  14
ATOM     14  C   UNL A   1      32.914  21.107  25.258  1.00  0.00     0.182 C 
BRANCH  14  15
ATOM     15  C   UNL A   1      33.190  19.662  25.670  1.00  0.00     0.178 C 
BRANCH  15  16
ATOM     16  O   UNL A   1      33.705  18.947  24.550  1.00  0.00    -0.378 OA
BRANCH  16  17
ATOM     17  C   UNL A   1      33.111  17.719  24.121  1.00  0.00     0.112 C 
ATOM     18  C   UNL A   1      34.049  16.966  23.186  1.00  0.00     0.038 C 
ATOM     19  C   UNL A   1      32.559  16.776  25.184  1.00  0.00     0.038 C 
ENDBRANCH  16  17
ENDBRANCH  15  16
ENDBRANCH  14  15
ENDBRANCH  11  14
ENDBRANCH   6  11
ENDBRANCH   3   5
ENDBRANCH   2   3
ENDBRANCH   1   2
BRANCH   1  20
ATOM     20  C   UNL A   1      31.795  29.913  26.644  1.00  0.00     0.275 C 
BRANCH  20  21
ATOM     21  O   UNL A   1      33.115  30.421  26.371  1.00  0.00    -0.458 OA
BRANCH  21  22
ATOM     22  C   UNL A   1      33.532  31.408  27.198  1.00  0.00     0.338 C 
ATOM     23  O   UNL A   1      32.912  32.405  27.527  1.00  0.00    -0.246 OA
BRANCH  22  24
ATOM     24  C   UNL A   1      34.863  31.092  27.735  1.00  0.00     0.060 A 
ATOM     25  C   UNL A   1      35.136  29.779  28.127  1.00  0.00     0.016 A 
ATOM     26  C   UNL A   1      35.783  32.112  27.975  1.00  0.00     0.016 A 
ATOM     27  C   UNL A   1      36.323  29.485  28.795  1.00  0.00     0.010 A 
ATOM     28  C   UNL A   1      36.983  31.810  28.624  1.00  0.00     0.010 A 
ATOM     29  C   UNL A   1      37.254  30.498  29.057  1.00  0.00    -0.014 A 
BRANCH  29  30
ATOM     30  C   UNL A   1      38.491  30.211  29.827  1.00  0.00     0.031 A 
ATOM     31  C   UNL A   1      39.493  29.229  29.287  1.00  0.00     0.074 A 
ATOM     32  C   UNL A   1      38.702  30.810  31.014  1.00  0.00     0.049 A 
ATOM     33  N   UNL A   1      40.543  28.709  29.869  1.00  0.00    -0.248 NA
ATOM     34  C   UNL A   1      39.272  28.764  27.911  1.00  0.00     0.031 C 
ATOM     35  C   UNL A   1      37.828  31.816  31.617  1.00  0.00     0.029 A 
ATOM     36  N   UNL A   1      39.708  30.645  31.933  1.00  0.00    -0.354 N 
ATOM     37  C   UNL A   1      41.096  27.832  28.940  1.00  0.00     0.074 A 
ATOM     38  C   UNL A   1      40.249  27.879  27.767  1.00  0.00     0.031 C 
ATOM     39  C   UNL A   1      38.329  32.168  32.813  1.00  0.00     0.029 A 
ATOM     40  C   UNL A   1      39.521  31.370  33.086  1.00  0.00     0.049 A 
ATOM     41  H   UNL A   1      40.488  30.063  31.780  1.00  0.00     0.167 HD
ATOM     42  C   UNL A   1      42.207  27.062  29.062  1.00  0.00     0.034 A 
ATOM     43  C   UNL A   1      40.201  31.356  34.248  1.00  0.00     0.034 A 
ATOM     44  C   UNL A   1      43.040  27.034  30.241  1.00  0.00     0.049 A 
ATOM     45  C   UNL A   1      41.388  30.437  34.390  1.00  0.00     0.074 A 
ATOM     46  C   UNL A   1      44.196  26.305  30.465  1.00  0.00     0.029 A 
ATOM     47  N   UNL A   1      42.804  27.764  31.400  1.00  0.00    -0.354 N 
ATOM     48  N   UNL A   1      41.890  29.594  33.516  1.00  0.00    -0.248 NA
ATOM     49  C   UNL A   1      42.098  30.465  35.675  1.00  0.00     0.031 C 
ATOM     50  C   UNL A   1      44.619  26.543  31.778  1.00  0.00     0.029 A 
ATOM     51  C   UNL A   1      43.773  27.479  32.351  1.00  0.00     0.049 A 
ATOM     52  H   UNL A   1      42.057  28.392  31.528  1.00  0.00     0.167 HD
ATOM     53  C   UNL A   1      42.989  29.011  34.139  1.00  0.00     0.074 A 
ATOM     54  C   UNL A   1      43.084  29.609  35.456  1.00  0.00     0.031 C 
ATOM     55  C   UNL A   1      43.847  28.072  33.665  1.00  0.00     0.034 A 
BRANCH  42  56
ATOM     56  C   UNL A   1      42.543  26.144  27.910  1.00  0.00     0.023 A 
ATOM     57  C   UNL A   1      41.954  24.874  27.774  1.00  0.00     0.031 A 
ATOM     58  C   UNL A   1      43.491  26.535  26.948  1.00  0.00     0.131 A 
ATOM     59  C   UNL A   1      42.374  24.014  26.747  1.00  0.00     0.055 A 
ATOM     60  C   UNL A   1      43.847  25.705  25.883  1.00  0.00     0.041 A 
ATOM     61  F   UNL A   1      44.103  27.727  27.036  1.00  0.00    -0.206 F 
ATOM     62  C   UNL A   1      43.299  24.430  25.787  1.00  0.00     0.022 A 
BRANCH  59  63
ATOM     63  S   UNL A   1      41.803  22.293  26.770  1.00  0.00     0.124 S 
ATOM     64  O   UNL A   1      40.369  22.460  26.994  1.00  0.00    -0.237 OA
ATOM     65  O   UNL A   1      42.192  21.814  25.449  1.00  0.00    -0.237 OA
ATOM     66  O   UNL A   1      42.535  21.703  27.889  1.00  0.00    -0.744 OA
ENDBRANCH  59  63
ENDBRANCH  42  56
BRANCH  43  67
ATOM     67  C   UNL A   1      39.745  32.191  35.396  1.00  0.00     0.023 A 
ATOM     68  C   UNL A   1      38.936  31.653  36.407  1.00  0.00     0.031 A 
ATOM     69  C   UNL A   1      40.084  33.554  35.475  1.00  0.00     0.131 A 
ATOM     70  C   UNL A   1      38.458  32.482  37.434  1.00  0.00     0.055 A 
ATOM     71  C   UNL A   1      39.649  34.362  36.526  1.00  0.00     0.041 A 
ATOM     72  F   UNL A   1      40.857  34.117  34.532  1.00  0.00    -0.206 F 
ATOM     73  C   UNL A   1      38.821  33.830  37.508  1.00  0.00     0.022 A 
BRANCH  70  74
ATOM     74  S   UNL A   1      37.289  31.790  38.635  1.00  0.00     0.124 S 
ATOM     75  O   UNL A   1      36.168  32.717  38.527  1.00  0.00    -0.237 OA
ATOM     76  O   UNL A   1      37.066  30.450  38.103  1.00  0.00    -0.237 OA
ATOM     77  O   UNL A   1      38.025  31.843  39.896  1.00  0.00    -0.744 OA
ENDBRANCH  70  74
ENDBRANCH  43  67
BRANCH  55  78
ATOM     78  C   UNL A   1      44.990  27.674  34.567  1.00  0.00     0.023 A 
ATOM     79  C   UNL A   1      44.882  26.603  35.472  1.00  0.00     0.031 A 
ATOM     80  C   UNL A   1      46.199  28.391  34.530  1.00  0.00     0.131 A 
ATOM     81  C   UNL A   1      45.946  26.312  36.339  1.00  0.00     0.055 A 
ATOM     82  C   UNL A   1      47.274  28.061  35.357  1.00  0.00     0.041 A 
ATOM     83  F   UNL A   1      46.355  29.423  33.686  1.00  0.00    -0.206 F 
ATOM     84  C   UNL A   1      47.146  27.025  36.277  1.00  0.00     0.022 A 
BRANCH  81  85
ATOM     85  S   UNL A   1      45.711  25.044  37.614  1.00  0.00     0.124 S 
ATOM     86  O   UNL A   1      45.637  23.822  36.820  1.00  0.00    -0.237 OA
ATOM     87  O   UNL A   1      46.908  25.200  38.435  1.00  0.00    -0.237 OA
ATOM     88  O   UNL A   1      44.461  25.438  38.264  1.00  0.00    -0.744 OA
ENDBRANCH  81  85
ENDBRANCH  55  78
ENDBRANCH  29  30
ENDBRANCH  22  24
ENDBRANCH  21  22
ENDBRANCH  20  21
ENDBRANCH   1  20
TORSDOF 19
ENDMDL
MODEL 2
REMARK VINA RESULT:     -10.5      1.791      2.271
REMARK SMILES CC(C)OCCS(=O)(=O)N1CCC[C@H](C(=O)OCCOC(=O)c2ccc(-c3c4nc(c(-c5cc(S(=O)(=O)[O-])ccc5F)c5ccc([nH]5)c(-c5cc(S(=O)(=O)[O-])ccc5F)c5nc(c(-c6cc(S(=O)(=O)[O-])ccc6F)c6ccc3[nH]6)C=C5)C=C4)cc2)C1
REMARK SMILES IDX 18 1 17 2 15 3 16 4 14 5 10 6 11 7 86 8 12 9 13 10 7 11 8 12
REMARK SMILES IDX 9 13 6 14 5 15 4 16 2 17 1 18 3 19 19 20 20 21 21 22 22 23
REMARK SMILES IDX 23 24 24 25 85 26 25 27 84 28 26 29 27 30 28 31 78 32 29 33
REMARK SMILES IDX 83 34 77 35 79 36 30 37 82 38 76 39 75 40 31 42 63 43 43 44
REMARK SMILES IDX 62 45 44 46 47 47 61 48 80 49 45 50 46 51 60 53 81 54 48 55
REMARK SMILES IDX 32 56 33 57 41 58 34 59 40 60 42 61 39 62 35 63 36 64 37 65
REMARK SMILES IDX 38 66 64 67 65 68 73 69 66 70 72 71 74 72 71 73 67 74 68 75
REMARK SMILES IDX 69 76 70 77 49 78 50 79 58 80 51 81 57 82 59 83 56 84 52 85
REMARK SMILES IDX 53 86 54 87 55 88
REMARK H PARENT 79 41 47 52
REMARK Flexibility Score: inf
ROOT
ATOM      1  C   UNL A   1      31.556  28.850  24.216  1.00  0.00     0.274 C 
ENDROOT
BRANCH   1   2
ATOM      2  O   UNL A   1      31.226  27.448  24.266  1.00  0.00    -0.462 OA
BRANCH   2   3
ATOM      3  C   UNL A   1      31.646  26.714  23.208  1.00  0.00     0.310 C 
ATOM      4  O   UNL A   1      31.145  26.759  22.088  1.00  0.00    -0.252 OA
BRANCH   3   5
ATOM      5  C   UNL A   1      32.846  25.836  23.502  1.00  0.00     0.114 C 
ATOM      6  N   UNL A   1      32.410  24.404  25.547  1.00  0.00    -0.201 NA
ATOM      7  C   UNL A   1      33.697  24.839  26.129  1.00  0.00     0.102 C 
ATOM      8  C   UNL A   1      32.369  24.501  24.066  1.00  0.00     0.117 C 
ATOM      9  C   UNL A   1      33.924  26.298  25.754  1.00  0.00     0.018 C 
ATOM     10  C   UNL A   1      34.024  26.459  24.246  1.00  0.00     0.018 C 
BRANCH   6  11
ATOM     11  S   UNL A   1      31.673  23.031  26.236  1.00  0.00     0.216 S 
ATOM     12  O   UNL A   1      30.274  23.052  25.868  1.00  0.00    -0.212 OA
ATOM     13  O   UNL A   1      32.034  23.005  27.640  1.00  0.00    -0.212 OA
BRANCH  11  14
ATOM     14  C   UNL A   1      32.476  21.624  25.447  1.00  0.00     0.182 C 
BRANCH  14  15
ATOM     15  C   UNL A   1      33.674  21.077  26.222  1.00  0.00     0.178 C 
BRANCH  15  16
ATOM     16  O   UNL A   1      34.706  20.730  25.302  1.00  0.00    -0.378 OA
BRANCH  16  17
ATOM     17  C   UNL A   1      35.807  21.610  25.063  1.00  0.00     0.112 C 
ATOM     18  C   UNL A   1      37.115  20.830  24.997  1.00  0.00     0.038 C 
ATOM     19  C   UNL A   1      35.713  22.578  23.890  1.00  0.00     0.038 C 
ENDBRANCH  16  17
ENDBRANCH  15  16
ENDBRANCH  14  15
ENDBRANCH  11  14
ENDBRANCH   6  11
ENDBRANCH   3   5
ENDBRANCH   2   3
ENDBRANCH   1   2
BRANCH   1  20
ATOM     20  C   UNL A   1      31.747  29.434  25.620  1.00  0.00     0.275 C 
BRANCH  20  21
ATOM     21  O   UNL A   1      33.029  30.070  25.785  1.00  0.00    -0.458 OA
BRANCH  21  22
ATOM     22  C   UNL A   1      33.069  31.047  26.721  1.00  0.00     0.338 C 
ATOM     23  O   UNL A   1      32.282  31.968  26.859  1.00  0.00    -0.246 OA
BRANCH  22  24
ATOM     24  C   UNL A   1      34.192  30.823  27.642  1.00  0.00     0.060 A 
ATOM     25  C   UNL A   1      34.959  31.919  28.047  1.00  0.00     0.016 A 
ATOM     26  C   UNL A   1      34.564  29.525  27.991  1.00  0.00     0.016 A 
ATOM     27  C   UNL A   1      36.127  31.717  28.779  1.00  0.00     0.010 A 
ATOM     28  C   UNL A   1      35.724  29.329  28.746  1.00  0.00     0.010 A 
ATOM     29  C   UNL A   1      36.525  30.421  29.128  1.00  0.00    -0.014 A 
BRANCH  29  30
ATOM     30  C   UNL A   1      37.803  30.188  29.850  1.00  0.00     0.031 A 
ATOM     31  C   UNL A   1      38.828  29.256  29.266  1.00  0.00     0.074 A 
ATOM     32  C   UNL A   1      38.030  30.789  31.032  1.00  0.00     0.049 A 
ATOM     33  N   UNL A   1      39.922  28.783  29.804  1.00  0.00    -0.248 NA
ATOM     34  C   UNL A   1      38.578  28.788  27.895  1.00  0.00     0.031 C 
ATOM     35  C   UNL A   1      37.134  31.750  31.674  1.00  0.00     0.029 A 
ATOM     36  N   UNL A   1      39.077  30.666  31.911  1.00  0.00    -0.354 N 
ATOM     37  C   UNL A   1      40.480  27.937  28.850  1.00  0.00     0.074 A 
ATOM     38  C   UNL A   1      39.588  27.950  27.709  1.00  0.00     0.031 C 
ATOM     39  C   UNL A   1      37.663  32.120  32.853  1.00  0.00     0.029 A 
ATOM     40  C   UNL A   1      38.900  31.376  33.076  1.00  0.00     0.049 A 
ATOM     41  H   UNL A   1      39.876  30.123  31.726  1.00  0.00     0.167 HD
ATOM     42  C   UNL A   1      41.630  27.220  28.924  1.00  0.00     0.034 A 
ATOM     43  C   UNL A   1      39.623  31.388  34.212  1.00  0.00     0.034 A 
ATOM     44  C   UNL A   1      42.507  27.224  30.071  1.00  0.00     0.049 A 
ATOM     45  C   UNL A   1      40.856  30.525  34.302  1.00  0.00     0.074 A 
ATOM     46  C   UNL A   1      43.703  26.549  30.246  1.00  0.00     0.029 A 
ATOM     47  N   UNL A   1      42.281  27.936  31.243  1.00  0.00    -0.354 N 
ATOM     48  N   UNL A   1      41.363  29.711  33.404  1.00  0.00    -0.248 NA
ATOM     49  C   UNL A   1      41.612  30.579  35.560  1.00  0.00     0.031 C 
ATOM     50  C   UNL A   1      44.164  26.799  31.544  1.00  0.00     0.029 A 
ATOM     51  C   UNL A   1      43.297  27.691  32.155  1.00  0.00     0.049 A 
ATOM     52  H   UNL A   1      41.511  28.528  31.403  1.00  0.00     0.167 HD
ATOM     53  C   UNL A   1      42.511  29.176  33.982  1.00  0.00     0.074 A 
ATOM     54  C   UNL A   1      42.628  29.771  35.298  1.00  0.00     0.031 C 
ATOM     55  C   UNL A   1      43.393  28.281  33.470  1.00  0.00     0.034 A 
BRANCH  42  56
ATOM     56  C   UNL A   1      41.964  26.324  27.754  1.00  0.00     0.023 A 
ATOM     57  C   UNL A   1      41.530  24.988  27.691  1.00  0.00     0.031 A 
ATOM     58  C   UNL A   1      42.757  26.808  26.698  1.00  0.00     0.131 A 
ATOM     59  C   UNL A   1      41.952  24.163  26.637  1.00  0.00     0.055 A 
ATOM     60  C   UNL A   1      43.109  26.004  25.612  1.00  0.00     0.041 A 
ATOM     61  F   UNL A   1      43.219  28.068  26.712  1.00  0.00    -0.206 F 
ATOM     62  C   UNL A   1      42.719  24.669  25.584  1.00  0.00     0.022 A 
BRANCH  59  63
ATOM     63  S   UNL A   1      41.607  22.386  26.734  1.00  0.00     0.124 S 
ATOM     64  O   UNL A   1      40.187  22.378  27.077  1.00  0.00    -0.237 OA
ATOM     65  O   UNL A   1      41.943  21.924  25.393  1.00  0.00    -0.237 OA
ATOM     66  O   UNL A   1      42.498  21.921  27.795  1.00  0.00    -0.744 OA
ENDBRANCH  59  63
ENDBRANCH  42  56
BRANCH  43  67
ATOM     67  C   UNL A   1      39.172  32.195  35.381  1.00  0.00     0.023 A 
ATOM     68  C   UNL A   1      39.659  33.492  35.598  1.00  0.00     0.031 A 
ATOM     69  C   UNL A   1      38.274  31.660  36.322  1.00  0.00     0.131 A 
ATOM     70  C   UNL A   1      39.276  34.198  36.749  1.00  0.00     0.055 A 
ATOM     71  C   UNL A   1      37.855  32.386  37.437  1.00  0.00     0.041 A 
ATOM     72  F   UNL A   1      37.778  30.422  36.161  1.00  0.00    -0.206 F 
ATOM     73  C   UNL A   1      38.366  33.659  37.663  1.00  0.00     0.022 A 
BRANCH  70  74
ATOM     74  S   UNL A   1      40.045  35.807  37.076  1.00  0.00     0.124 S 
ATOM     75  O   UNL A   1      41.457  35.450  37.164  1.00  0.00    -0.237 OA
ATOM     76  O   UNL A   1      39.650  36.576  35.900  1.00  0.00    -0.237 OA
ATOM     77  O   UNL A   1      39.428  36.231  38.330  1.00  0.00    -0.744 OA
ENDBRANCH  70  74
ENDBRANCH  43  67
BRANCH  55  78
ATOM     78  C   UNL A   1      44.586  27.932  34.325  1.00  0.00     0.023 A 
ATOM     79  C   UNL A   1      44.569  26.840  35.212  1.00  0.00     0.031 A 
ATOM     80  C   UNL A   1      45.751  28.716  34.263  1.00  0.00     0.131 A 
ATOM     81  C   UNL A   1      45.676  26.595  36.038  1.00  0.00     0.055 A 
ATOM     82  C   UNL A   1      46.871  28.433  35.047  1.00  0.00     0.041 A 
ATOM     83  F   UNL A   1      45.821  29.770  33.435  1.00  0.00    -0.206 F 
ATOM     84  C   UNL A   1      46.832  27.375  35.950  1.00  0.00     0.022 A 
BRANCH  81  85
ATOM     85  S   UNL A   1      45.556  25.292  37.295  1.00  0.00     0.124 S 
ATOM     86  O   UNL A   1      46.723  25.562  38.127  1.00  0.00    -0.237 OA
ATOM     87  O   UNL A   1      44.259  25.568  37.906  1.00  0.00    -0.237 OA
ATOM     88  O   UNL A   1      45.621  24.056  36.516  1.00  0.00    -0.744 OA
ENDBRANCH  81  85
ENDBRANCH  55  78
ENDBRANCH  29  30
ENDBRANCH  22  24
ENDBRANCH  21  22
ENDBRANCH  20  21
ENDBRANCH   1  20
TORSDOF 19
ENDMDL
MODEL 3
REMARK VINA RESULT:     -10.1      5.128      7.876
REMARK SMILES CC(C)OCCS(=O)(=O)N1CCC[C@H](C(=O)OCCOC(=O)c2ccc(-c3c4nc(c(-c5cc(S(=O)(=O)[O-])ccc5F)c5ccc([nH]5)c(-c5cc(S(=O)(=O)[O-])ccc5F)c5nc(c(-c6cc(S(=O)(=O)[O-])ccc6F)c6ccc3[nH]6)C=C5)C=C4)cc2)C1
REMARK SMILES IDX 18 1 17 2 15 3 16 4 14 5 10 6 11 7 86 8 12 9 13 10 7 11 8 12
REMARK SMILES IDX 9 13 6 14 5 15 4 16 2 17 1 18 3 19 19 20 20 21 21 22 22 23
REMARK SMILES IDX 23 24 24 25 85 26 25 27 84 28 26 29 27 30 28 31 78 32 29 33
REMARK SMILES IDX 83 34 77 35 79 36 30 37 82 38 76 39 75 40 31 42 63 43 43 44
REMARK SMILES IDX 62 45 44 46 47 47 61 48 80 49 45 50 46 51 60 53 81 54 48 55
REMARK SMILES IDX 32 56 33 57 41 58 34 59 40 60 42 61 39 62 35 63 36 64 37 65
REMARK SMILES IDX 38 66 64 67 65 68 73 69 66 70 72 71 74 72 71 73 67 74 68 75
REMARK SMILES IDX 69 76 70 77 49 78 50 79 58 80 51 81 57 82 59 83 56 84 52 85
REMARK SMILES IDX 53 86 54 87 55 88
REMARK H PARENT 79 41 47 52
REMARK Flexibility Score: inf
ROOT
ATOM      1  C   UNL A   1      36.324  20.454  24.955  1.00  0.00     0.274 C 
ENDROOT
BRANCH   1   2
ATOM      2  O   UNL A   1      35.486  21.242  25.823  1.00  0.00    -0.462 OA
BRANCH   2   3
ATOM      3  C   UNL A   1      35.106  22.444  25.330  1.00  0.00     0.310 C 
ATOM      4  O   UNL A   1      35.674  23.506  25.572  1.00  0.00    -0.252 OA
BRANCH   3   5
ATOM      5  C   UNL A   1      33.917  22.381  24.393  1.00  0.00     0.114 C 
ATOM      6  N   UNL A   1      32.136  24.033  25.115  1.00  0.00    -0.201 NA
ATOM      7  C   UNL A   1      31.118  22.965  25.057  1.00  0.00     0.102 C 
ATOM      8  C   UNL A   1      33.313  23.775  24.247  1.00  0.00     0.117 C 
ATOM      9  C   UNL A   1      31.760  21.664  25.524  1.00  0.00     0.018 C 
ATOM     10  C   UNL A   1      32.899  21.263  24.602  1.00  0.00     0.018 C 
BRANCH   6  11
ATOM     11  S   UNL A   1      31.572  25.640  25.164  1.00  0.00     0.216 S 
ATOM     12  O   UNL A   1      32.712  26.512  24.988  1.00  0.00    -0.212 OA
ATOM     13  O   UNL A   1      30.755  25.776  26.354  1.00  0.00    -0.212 OA
BRANCH  11  14
ATOM     14  C   UNL A   1      30.477  25.794  23.740  1.00  0.00     0.182 C 
BRANCH  14  15
ATOM     15  C   UNL A   1      31.156  26.356  22.492  1.00  0.00     0.178 C 
BRANCH  15  16
ATOM     16  O   UNL A   1      30.592  27.628  22.185  1.00  0.00    -0.378 OA
BRANCH  16  17
ATOM     17  C   UNL A   1      29.793  28.330  23.142  1.00  0.00     0.112 C 
ATOM     18  C   UNL A   1      30.631  29.360  23.890  1.00  0.00     0.038 C 
ATOM     19  C   UNL A   1      28.488  28.958  22.666  1.00  0.00     0.038 C 
ENDBRANCH  16  17
ENDBRANCH  15  16
ENDBRANCH  14  15
ENDBRANCH  11  14
ENDBRANCH   6  11
ENDBRANCH   3   5
ENDBRANCH   2   3
ENDBRANCH   1   2
BRANCH   1  20
ATOM     20  C   UNL A   1      37.776  20.945  24.976  1.00  0.00     0.275 C 
BRANCH  20  21
ATOM     21  O   UNL A   1      38.228  21.280  26.302  1.00  0.00    -0.458 OA
BRANCH  21  22
ATOM     22  C   UNL A   1      39.568  21.420  26.434  1.00  0.00     0.338 C 
ATOM     23  O   UNL A   1      40.424  20.596  26.163  1.00  0.00    -0.246 OA
BRANCH  22  24
ATOM     24  C   UNL A   1      39.893  22.773  26.903  1.00  0.00     0.060 A 
ATOM     25  C   UNL A   1      39.328  23.869  26.244  1.00  0.00     0.016 A 
ATOM     26  C   UNL A   1      40.855  22.959  27.896  1.00  0.00     0.016 A 
ATOM     27  C   UNL A   1      39.749  25.160  26.555  1.00  0.00     0.010 A 
ATOM     28  C   UNL A   1      41.258  24.257  28.222  1.00  0.00     0.010 A 
ATOM     29  C   UNL A   1      40.723  25.367  27.540  1.00  0.00    -0.014 A 
BRANCH  29  30
ATOM     30  C   UNL A   1      41.229  26.732  27.832  1.00  0.00     0.031 A 
ATOM     31  C   UNL A   1      42.653  27.085  27.502  1.00  0.00     0.074 A 
ATOM     32  C   UNL A   1      40.424  27.640  28.412  1.00  0.00     0.049 A 
ATOM     33  N   UNL A   1      43.341  28.149  27.826  1.00  0.00    -0.248 NA
ATOM     34  C   UNL A   1      43.402  26.099  26.711  1.00  0.00     0.031 C 
ATOM     35  C   UNL A   1      39.012  27.432  28.734  1.00  0.00     0.029 A 
ATOM     36  N   UNL A   1      40.683  28.915  28.851  1.00  0.00    -0.354 N 
ATOM     37  C   UNL A   1      44.615  27.951  27.302  1.00  0.00     0.074 A 
ATOM     38  C   UNL A   1      44.605  26.654  26.659  1.00  0.00     0.031 C 
ATOM     39  C   UNL A   1      38.533  28.535  29.332  1.00  0.00     0.029 A 
ATOM     40  C   UNL A   1      39.616  29.501  29.491  1.00  0.00     0.049 A 
ATOM     41  H   UNL A   1      41.548  29.365  28.720  1.00  0.00     0.167 HD
ATOM     42  C   UNL A   1      45.689  28.779  27.356  1.00  0.00     0.034 A 
ATOM     43  C   UNL A   1      39.534  30.661  30.171  1.00  0.00     0.034 A 
ATOM     44  C   UNL A   1      45.677  30.071  28.000  1.00  0.00     0.049 A 
ATOM     45  C   UNL A   1      40.760  31.531  30.285  1.00  0.00     0.074 A 
ATOM     46  C   UNL A   1      46.702  30.997  28.100  1.00  0.00     0.029 A 
ATOM     47  N   UNL A   1      44.584  30.620  28.660  1.00  0.00    -0.354 N 
ATOM     48  N   UNL A   1      41.966  31.325  29.807  1.00  0.00    -0.248 NA
ATOM     49  C   UNL A   1      40.614  32.787  31.032  1.00  0.00     0.031 C 
ATOM     50  C   UNL A   1      46.250  32.072  28.874  1.00  0.00     0.029 A 
ATOM     51  C   UNL A   1      44.920  31.856  29.196  1.00  0.00     0.049 A 
ATOM     52  H   UNL A   1      43.700  30.195  28.738  1.00  0.00     0.167 HD
ATOM     53  C   UNL A   1      42.715  32.439  30.176  1.00  0.00     0.074 A 
ATOM     54  C   UNL A   1      41.821  33.317  30.902  1.00  0.00     0.031 C 
ATOM     55  C   UNL A   1      44.021  32.715  29.931  1.00  0.00     0.034 A 
BRANCH  42  56
ATOM     56  C   UNL A   1      46.981  28.277  26.754  1.00  0.00     0.023 A 
ATOM     57  C   UNL A   1      47.204  28.273  25.366  1.00  0.00     0.031 A 
ATOM     58  C   UNL A   1      47.994  27.764  27.584  1.00  0.00     0.131 A 
ATOM     59  C   UNL A   1      48.375  27.699  24.846  1.00  0.00     0.055 A 
ATOM     60  C   UNL A   1      49.191  27.266  27.065  1.00  0.00     0.041 A 
ATOM     61  F   UNL A   1      47.831  27.721  28.915  1.00  0.00    -0.206 F 
ATOM     62  C   UNL A   1      49.381  27.218  25.688  1.00  0.00     0.022 A 
BRANCH  59  63
ATOM     63  S   UNL A   1      48.501  27.460  23.053  1.00  0.00     0.124 S 
ATOM     64  O   UNL A   1      48.403  26.006  22.940  1.00  0.00    -0.237 OA
ATOM     65  O   UNL A   1      47.362  28.218  22.552  1.00  0.00    -0.237 OA
ATOM     66  O   UNL A   1      49.813  28.015  22.724  1.00  0.00    -0.744 OA
ENDBRANCH  59  63
ENDBRANCH  42  56
BRANCH  43  67
ATOM     67  C   UNL A   1      38.265  31.043  30.854  1.00  0.00     0.023 A 
ATOM     68  C   UNL A   1      37.257  31.741  30.172  1.00  0.00     0.031 A 
ATOM     69  C   UNL A   1      38.061  30.748  32.214  1.00  0.00     0.131 A 
ATOM     70  C   UNL A   1      36.106  32.155  30.862  1.00  0.00     0.055 A 
ATOM     71  C   UNL A   1      36.893  31.116  32.881  1.00  0.00     0.041 A 
ATOM     72  F   UNL A   1      38.995  30.082  32.911  1.00  0.00    -0.206 F 
ATOM     73  C   UNL A   1      35.911  31.835  32.208  1.00  0.00     0.022 A 
BRANCH  70  74
ATOM     74  S   UNL A   1      34.897  33.188  29.990  1.00  0.00     0.124 S 
ATOM     75  O   UNL A   1      34.075  33.677  31.091  1.00  0.00    -0.237 OA
ATOM     76  O   UNL A   1      35.754  34.175  29.342  1.00  0.00    -0.237 OA
ATOM     77  O   UNL A   1      34.237  32.250  29.086  1.00  0.00    -0.744 OA
ENDBRANCH  70  74
ENDBRANCH  43  67
BRANCH  55  78
ATOM     78  C   UNL A   1      44.541  34.046  30.416  1.00  0.00     0.023 A 
ATOM     79  C   UNL A   1      44.411  35.217  29.649  1.00  0.00     0.031 A 
ATOM     80  C   UNL A   1      45.191  34.137  31.659  1.00  0.00     0.131 A 
ATOM     81  C   UNL A   1      44.970  36.419  30.109  1.00  0.00     0.055 A 
ATOM     82  C   UNL A   1      45.697  35.348  32.137  1.00  0.00     0.041 A 
ATOM     83  F   UNL A   1      45.344  33.050  32.431  1.00  0.00    -0.206 F 
ATOM     84  C   UNL A   1      45.599  36.494  31.355  1.00  0.00     0.022 A 
BRANCH  81  85
ATOM     85  S   UNL A   1      44.943  37.868  29.019  1.00  0.00     0.124 S 
ATOM     86  O   UNL A   1      43.549  38.290  29.106  1.00  0.00    -0.237 OA
ATOM     87  O   UNL A   1      45.918  38.752  29.650  1.00  0.00    -0.237 OA
ATOM     88  O   UNL A   1      45.348  37.329  27.721  1.00  0.00    -0.744 OA
ENDBRANCH  81  85
ENDBRANCH  55  78
ENDBRANCH  29  30
ENDBRANCH  22  24
ENDBRANCH  21  22
ENDBRANCH  20  21
ENDBRANCH   1  20
TORSDOF 19
ENDMDL
