MODEL 1
REMARK VINA RESULT:     -13.2      0.000      0.000
REMARK SMILES Cc1c(CC(=O)OCCOC(=O)c2ccc(-c3c4nc(c(-c5cc(S(=O)(=O)[O-])ccc5F)c5ccc([nH]5)c(-c5cc(S(=O)(=O)[O-])ccc5F)c5nc(c(-c6cc(S(=O)(=O)[O-])ccc6F)c6ccc3[nH]6)C=C5)C=C4)cc2)c2cc(O)ccc2n1C(=O)c1ccc(Cl)cc1
REMARK SMILES IDX 8 1 7 2 5 3 6 4 4 5 3 6 1 7 2 8 83 9 76 10 82 11 77 12 81 13
REMARK SMILES IDX 78 14 80 15 84 16 85 17 86 18 87 19 92 20 88 21 91 22 89 23
REMARK SMILES IDX 90 24 79 25 9 27 10 28 11 29 12 30 13 31 14 32 75 33 15 34
REMARK SMILES IDX 74 35 16 36 17 37 18 38 68 39 19 40 73 41 67 42 69 43 20 44
REMARK SMILES IDX 72 45 66 46 65 47 21 49 53 50 33 51 52 52 34 53 37 54 51 55
REMARK SMILES IDX 70 56 35 57 36 58 50 60 71 61 38 62 22 63 23 64 31 65 24 66
REMARK SMILES IDX 30 67 32 68 29 69 25 70 26 71 27 72 28 73 54 74 55 75 63 76
REMARK SMILES IDX 56 77 62 78 64 79 61 80 57 81 58 82 59 83 60 84 39 85 40 86
REMARK SMILES IDX 48 87 41 88 47 89 49 90 46 91 42 92 43 93 44 94 45 95
REMARK H PARENT 79 26 69 48 37 59
REMARK Flexibility Score: inf
ROOT
ATOM      1  C   UNL A   1      34.660  22.211  24.689  1.00  0.00     0.274 C 
ENDROOT
BRANCH   1   2
ATOM      2  O   UNL A   1      34.731  22.848  23.394  1.00  0.00    -0.462 OA
BRANCH   2   3
ATOM      3  C   UNL A   1      34.330  24.143  23.356  1.00  0.00     0.310 C 
ATOM      4  O   UNL A   1      34.344  24.828  22.336  1.00  0.00    -0.252 OA
BRANCH   3   5
ATOM      5  C   UNL A   1      33.903  24.733  24.674  1.00  0.00     0.160 C 
BRANCH   5   6
ATOM      6  C   UNL A   1      32.833  25.791  24.744  1.00  0.00    -0.008 A 
ATOM      7  C   UNL A   1      30.921  24.391  23.657  1.00  0.00     0.065 C 
ATOM      8  C   UNL A   1      31.534  25.608  24.284  1.00  0.00     0.028 A 
ATOM      9  N   UNL A   1      30.803  26.771  24.513  1.00  0.00    -0.280 N 
ATOM     10  C   UNL A   1      32.833  27.027  25.471  1.00  0.00     0.008 A 
ATOM     11  C   UNL A   1      31.539  27.560  25.409  1.00  0.00     0.057 A 
ATOM     12  C   UNL A   1      33.792  27.722  26.240  1.00  0.00     0.056 A 
ATOM     13  C   UNL A   1      31.190  28.700  26.174  1.00  0.00     0.031 A 
ATOM     14  C   UNL A   1      33.441  28.852  26.979  1.00  0.00     0.116 A 
ATOM     15  C   UNL A   1      32.152  29.338  26.957  1.00  0.00     0.048 A 
BRANCH   9  16
ATOM     16  C   UNL A   1      29.538  27.082  23.949  1.00  0.00     0.262 C 
ATOM     17  O   UNL A   1      28.619  26.270  24.023  1.00  0.00    -0.268 OA
BRANCH  16  18
ATOM     18  C   UNL A   1      29.239  28.323  23.226  1.00  0.00     0.040 A 
ATOM     19  C   UNL A   1      27.959  28.885  23.295  1.00  0.00     0.015 A 
ATOM     20  C   UNL A   1      30.237  28.881  22.422  1.00  0.00     0.015 A 
ATOM     21  C   UNL A   1      27.659  29.986  22.495  1.00  0.00     0.021 A 
ATOM     22  C   UNL A   1      29.929  29.983  21.626  1.00  0.00     0.021 A 
ATOM     23  C   UNL A   1      28.641  30.521  21.656  1.00  0.00     0.041 A 
ATOM     24  Cl  UNL A   1      28.249  31.845  20.629  1.00  0.00    -0.084 Cl
ENDBRANCH  16  18
ENDBRANCH   9  16
BRANCH  14  25
ATOM     25  O   UNL A   1      34.401  29.448  27.741  1.00  0.00    -0.508 OA
ATOM     26  H   UNL A   1      34.345  29.415  28.675  1.00  0.00     0.293 HD
ENDBRANCH  14  25
ENDBRANCH   5   6
ENDBRANCH   3   5
ENDBRANCH   2   3
ENDBRANCH   1   2
BRANCH   1  27
ATOM     27  C   UNL A   1      35.495  20.928  24.716  1.00  0.00     0.275 C 
BRANCH  27  28
ATOM     28  O   UNL A   1      36.557  21.089  25.668  1.00  0.00    -0.458 OA
BRANCH  28  29
ATOM     29  C   UNL A   1      37.768  20.585  25.337  1.00  0.00     0.338 C 
ATOM     30  O   UNL A   1      38.000  19.649  24.592  1.00  0.00    -0.246 OA
BRANCH  29  31
ATOM     31  C   UNL A   1      38.740  21.607  25.772  1.00  0.00     0.060 A 
ATOM     32  C   UNL A   1      39.953  21.213  26.345  1.00  0.00     0.016 A 
ATOM     33  C   UNL A   1      38.300  22.931  25.865  1.00  0.00     0.016 A 
ATOM     34  C   UNL A   1      40.636  22.109  27.153  1.00  0.00     0.010 A 
ATOM     35  C   UNL A   1      38.966  23.809  26.705  1.00  0.00     0.010 A 
ATOM     36  C   UNL A   1      40.095  23.379  27.397  1.00  0.00    -0.014 A 
BRANCH  36  37
ATOM     37  C   UNL A   1      40.886  24.324  28.168  1.00  0.00     0.031 A 
ATOM     38  C   UNL A   1      40.220  25.634  28.300  1.00  0.00     0.074 A 
ATOM     39  C   UNL A   1      42.059  24.129  28.795  1.00  0.00     0.049 A 
ATOM     40  N   UNL A   1      40.359  26.650  27.518  1.00  0.00    -0.248 NA
ATOM     41  C   UNL A   1      39.139  25.756  29.284  1.00  0.00     0.031 C 
ATOM     42  C   UNL A   1      42.723  22.878  29.150  1.00  0.00     0.029 A 
ATOM     43  N   UNL A   1      42.885  25.087  29.312  1.00  0.00    -0.354 N 
ATOM     44  C   UNL A   1      39.517  27.624  28.033  1.00  0.00     0.074 A 
ATOM     45  C   UNL A   1      38.637  26.944  28.950  1.00  0.00     0.031 C 
ATOM     46  C   UNL A   1      43.755  23.149  29.989  1.00  0.00     0.029 A 
ATOM     47  C   UNL A   1      43.926  24.593  30.076  1.00  0.00     0.049 A 
ATOM     48  H   UNL A   1      42.749  26.049  29.153  1.00  0.00     0.167 HD
ATOM     49  C   UNL A   1      39.777  28.949  27.856  1.00  0.00     0.034 A 
ATOM     50  C   UNL A   1      44.848  25.330  30.740  1.00  0.00     0.034 A 
ATOM     51  C   UNL A   1      40.885  29.138  26.954  1.00  0.00     0.049 A 
ATOM     52  C   UNL A   1      44.922  26.678  30.125  1.00  0.00     0.074 A 
ATOM     53  C   UNL A   1      41.097  29.030  25.599  1.00  0.00     0.029 A 
ATOM     54  N   UNL A   1      42.117  29.152  27.562  1.00  0.00    -0.354 N 
ATOM     55  N   UNL A   1      45.404  26.915  28.938  1.00  0.00    -0.248 NA
ATOM     56  C   UNL A   1      44.189  27.786  30.728  1.00  0.00     0.031 C 
ATOM     57  C   UNL A   1      42.485  28.752  25.439  1.00  0.00     0.029 A 
ATOM     58  C   UNL A   1      43.086  28.706  26.699  1.00  0.00     0.049 A 
ATOM     59  H   UNL A   1      42.282  29.442  28.489  1.00  0.00     0.167 HD
ATOM     60  C   UNL A   1      44.669  27.990  28.477  1.00  0.00     0.074 A 
ATOM     61  C   UNL A   1      44.100  28.598  29.671  1.00  0.00     0.031 C 
ATOM     62  C   UNL A   1      44.325  28.099  27.161  1.00  0.00     0.034 A 
BRANCH  49  63
ATOM     63  C   UNL A   1      39.324  30.048  28.786  1.00  0.00     0.023 A 
ATOM     64  C   UNL A   1      38.131  30.769  28.607  1.00  0.00     0.031 A 
ATOM     65  C   UNL A   1      39.984  30.255  30.015  1.00  0.00     0.131 A 
ATOM     66  C   UNL A   1      37.643  31.649  29.580  1.00  0.00     0.055 A 
ATOM     67  C   UNL A   1      39.464  31.082  31.018  1.00  0.00     0.041 A 
ATOM     68  F   UNL A   1      41.131  29.619  30.300  1.00  0.00    -0.206 F 
ATOM     69  C   UNL A   1      38.285  31.787  30.803  1.00  0.00     0.022 A 
BRANCH  66  70
ATOM     70  S   UNL A   1      36.143  32.616  29.259  1.00  0.00     0.124 S 
ATOM     71  O   UNL A   1      36.652  33.983  29.295  1.00  0.00    -0.237 OA
ATOM     72  O   UNL A   1      35.746  32.121  27.943  1.00  0.00    -0.237 OA
ATOM     73  O   UNL A   1      35.252  32.240  30.353  1.00  0.00    -0.744 OA
ENDBRANCH  66  70
ENDBRANCH  49  63
BRANCH  50  74
ATOM     74  C   UNL A   1      45.467  25.056  32.052  1.00  0.00     0.023 A 
ATOM     75  C   UNL A   1      44.665  24.589  33.108  1.00  0.00     0.031 A 
ATOM     76  C   UNL A   1      46.739  25.563  32.374  1.00  0.00     0.131 A 
ATOM     77  C   UNL A   1      45.105  24.703  34.432  1.00  0.00     0.055 A 
ATOM     78  C   UNL A   1      47.184  25.657  33.696  1.00  0.00     0.041 A 
ATOM     79  F   UNL A   1      47.543  26.047  31.415  1.00  0.00    -0.206 F 
ATOM     80  C   UNL A   1      46.357  25.243  34.736  1.00  0.00     0.022 A 
BRANCH  77  81
ATOM     81  S   UNL A   1      44.015  24.235  35.805  1.00  0.00     0.124 S 
ATOM     82  O   UNL A   1      44.250  25.309  36.768  1.00  0.00    -0.237 OA
ATOM     83  O   UNL A   1      42.707  24.244  35.161  1.00  0.00    -0.237 OA
ATOM     84  O   UNL A   1      44.519  22.925  36.207  1.00  0.00    -0.744 OA
ENDBRANCH  77  81
ENDBRANCH  50  74
BRANCH  62  85
ATOM     85  C   UNL A   1      45.161  27.371  26.136  1.00  0.00     0.023 A 
ATOM     86  C   UNL A   1      44.846  26.019  25.901  1.00  0.00     0.031 A 
ATOM     87  C   UNL A   1      46.309  27.890  25.513  1.00  0.00     0.131 A 
ATOM     88  C   UNL A   1      45.680  25.223  25.110  1.00  0.00     0.055 A 
ATOM     89  C   UNL A   1      47.096  27.111  24.657  1.00  0.00     0.041 A 
ATOM     90  F   UNL A   1      46.746  29.132  25.765  1.00  0.00    -0.206 F 
ATOM     91  C   UNL A   1      46.794  25.767  24.465  1.00  0.00     0.022 A 
BRANCH  88  92
ATOM     92  S   UNL A   1      45.425  23.431  25.026  1.00  0.00     0.124 S 
ATOM     93  O   UNL A   1      46.604  22.917  25.718  1.00  0.00    -0.237 OA
ATOM     94  O   UNL A   1      44.159  23.263  25.737  1.00  0.00    -0.237 OA
ATOM     95  O   UNL A   1      45.369  23.149  23.594  1.00  0.00    -0.744 OA
ENDBRANCH  88  92
ENDBRANCH  62  85
ENDBRANCH  36  37
ENDBRANCH  29  31
ENDBRANCH  28  29
ENDBRANCH  27  28
ENDBRANCH   1  27
TORSDOF 18
ENDMDL
MODEL 2
REMARK VINA RESULT:     -12.8      3.369      7.854
REMARK SMILES Cc1c(CC(=O)OCCOC(=O)c2ccc(-c3c4nc(c(-c5cc(S(=O)(=O)[O-])ccc5F)c5ccc([nH]5)c(-c5cc(S(=O)(=O)[O-])ccc5F)c5nc(c(-c6cc(S(=O)(=O)[O-])ccc6F)c6ccc3[nH]6)C=C5)C=C4)cc2)c2cc(O)ccc2n1C(=O)c1ccc(Cl)cc1
REMARK SMILES IDX 8 1 7 2 5 3 6 4 4 5 3 6 1 7 2 8 83 9 76 10 82 11 77 12 81 13
REMARK SMILES IDX 78 14 80 15 84 16 85 17 86 18 87 19 92 20 88 21 91 22 89 23
REMARK SMILES IDX 90 24 79 25 9 27 10 28 11 29 12 30 13 31 14 32 75 33 15 34
REMARK SMILES IDX 74 35 16 36 17 37 18 38 68 39 19 40 73 41 67 42 69 43 20 44
REMARK SMILES IDX 72 45 66 46 65 47 21 49 53 50 33 51 52 52 34 53 37 54 51 55
REMARK SMILES IDX 70 56 35 57 36 58 50 60 71 61 38 62 22 63 23 64 31 65 24 66
REMARK SMILES IDX 30 67 32 68 29 69 25 70 26 71 27 72 28 73 54 74 55 75 63 76
REMARK SMILES IDX 56 77 62 78 64 79 61 80 57 81 58 82 59 83 60 84 39 85 40 86
REMARK SMILES IDX 48 87 41 88 47 89 49 90 46 91 42 92 43 93 44 94 45 95
REMARK H PARENT 79 26 69 48 37 59
REMARK Flexibility Score: inf
ROOT
ATOM      1  C   UNL A   1      36.997  21.509  24.483  1.00  0.00     0.274 C 
ENDROOT
BRANCH   1   2
ATOM      2  O   UNL A   1      35.834  20.709  24.796  1.00  0.00    -0.462 OA
BRANCH   2   3
ATOM      3  C   UNL A   1      34.637  21.315  24.596  1.00  0.00     0.310 C 
ATOM      4  O   UNL A   1      33.586  20.924  25.099  1.00  0.00    -0.252 OA
BRANCH   3   5
ATOM      5  C   UNL A   1      34.651  22.493  23.658  1.00  0.00     0.160 C 
BRANCH   5   6
ATOM      6  C   UNL A   1      33.808  23.712  23.928  1.00  0.00    -0.008 A 
ATOM      7  C   UNL A   1      34.502  24.043  26.419  1.00  0.00     0.065 C 
ATOM      8  C   UNL A   1      33.764  24.366  25.154  1.00  0.00     0.028 A 
ATOM      9  N   UNL A   1      32.904  25.457  25.056  1.00  0.00    -0.280 N 
ATOM     10  C   UNL A   1      33.120  24.558  22.996  1.00  0.00     0.008 A 
ATOM     11  C   UNL A   1      32.666  25.684  23.693  1.00  0.00     0.057 A 
ATOM     12  C   UNL A   1      32.893  24.513  21.602  1.00  0.00     0.056 A 
ATOM     13  C   UNL A   1      32.091  26.778  23.001  1.00  0.00     0.031 A 
ATOM     14  C   UNL A   1      32.312  25.591  20.933  1.00  0.00     0.116 A 
ATOM     15  C   UNL A   1      31.919  26.719  21.619  1.00  0.00     0.048 A 
BRANCH   9  16
ATOM     16  C   UNL A   1      32.382  26.204  26.145  1.00  0.00     0.262 C 
ATOM     17  O   UNL A   1      31.532  25.703  26.878  1.00  0.00    -0.268 OA
BRANCH  16  18
ATOM     18  C   UNL A   1      32.760  27.586  26.454  1.00  0.00     0.040 A 
ATOM     19  C   UNL A   1      34.108  27.960  26.464  1.00  0.00     0.015 A 
ATOM     20  C   UNL A   1      31.752  28.490  26.802  1.00  0.00     0.015 A 
ATOM     21  C   UNL A   1      34.454  29.241  26.891  1.00  0.00     0.021 A 
ATOM     22  C   UNL A   1      32.106  29.770  27.227  1.00  0.00     0.021 A 
ATOM     23  C   UNL A   1      33.452  30.134  27.282  1.00  0.00     0.041 A 
ATOM     24  Cl  UNL A   1      33.887  31.694  27.862  1.00  0.00    -0.084 Cl
ENDBRANCH  16  18
ENDBRANCH   9  16
BRANCH  14  25
ATOM     25  O   UNL A   1      32.166  25.507  19.581  1.00  0.00    -0.508 OA
ATOM     26  H   UNL A   1      32.206  24.672  19.157  1.00  0.00     0.293 HD
ENDBRANCH  14  25
ENDBRANCH   5   6
ENDBRANCH   3   5
ENDBRANCH   2   3
ENDBRANCH   1   2
BRANCH   1  27
ATOM     27  C   UNL A   1      38.160  21.176  25.422  1.00  0.00     0.275 C 
BRANCH  27  28
ATOM     28  O   UNL A   1      38.651  22.396  25.998  1.00  0.00    -0.458 OA
BRANCH  28  29
ATOM     29  C   UNL A   1      39.850  22.347  26.623  1.00  0.00     0.338 C 
ATOM     30  O   UNL A   1      40.788  21.614  26.365  1.00  0.00    -0.246 OA
BRANCH  29  31
ATOM     31  C   UNL A   1      39.912  23.582  27.428  1.00  0.00     0.060 A 
ATOM     32  C   UNL A   1      38.865  24.506  27.366  1.00  0.00     0.016 A 
ATOM     33  C   UNL A   1      41.140  23.928  28.003  1.00  0.00     0.016 A 
ATOM     34  C   UNL A   1      39.108  25.822  27.727  1.00  0.00     0.010 A 
ATOM     35  C   UNL A   1      41.389  25.253  28.323  1.00  0.00     0.010 A 
ATOM     36  C   UNL A   1      40.395  26.208  28.125  1.00  0.00    -0.014 A 
BRANCH  36  37
ATOM     37  C   UNL A   1      40.589  27.573  28.589  1.00  0.00     0.031 A 
ATOM     38  C   UNL A   1      41.839  28.165  28.078  1.00  0.00     0.074 A 
ATOM     39  C   UNL A   1      39.770  28.335  29.334  1.00  0.00     0.049 A 
ATOM     40  N   UNL A   1      42.992  28.148  28.656  1.00  0.00    -0.248 NA
ATOM     41  C   UNL A   1      41.852  28.647  26.693  1.00  0.00     0.031 C 
ATOM     42  C   UNL A   1      38.352  28.153  29.634  1.00  0.00     0.029 A 
ATOM     43  N   UNL A   1      40.075  29.520  29.942  1.00  0.00    -0.354 N 
ATOM     44  C   UNL A   1      43.848  28.801  27.782  1.00  0.00     0.074 A 
ATOM     45  C   UNL A   1      43.155  28.865  26.520  1.00  0.00     0.031 C 
ATOM     46  C   UNL A   1      37.874  29.285  30.209  1.00  0.00     0.029 A 
ATOM     47  C   UNL A   1      38.988  30.185  30.478  1.00  0.00     0.049 A 
ATOM     48  H   UNL A   1      40.993  29.870  29.995  1.00  0.00     0.167 HD
ATOM     49  C   UNL A   1      44.951  29.460  28.235  1.00  0.00     0.034 A 
ATOM     50  C   UNL A   1      39.012  31.397  31.082  1.00  0.00     0.034 A 
ATOM     51  C   UNL A   1      45.153  29.218  29.641  1.00  0.00     0.049 A 
ATOM     52  C   UNL A   1      40.388  31.667  31.566  1.00  0.00     0.074 A 
ATOM     53  C   UNL A   1      45.597  28.173  30.418  1.00  0.00     0.029 A 
ATOM     54  N   UNL A   1      44.499  30.096  30.469  1.00  0.00    -0.354 N 
ATOM     55  N   UNL A   1      40.959  31.025  32.546  1.00  0.00    -0.248 NA
ATOM     56  C   UNL A   1      41.283  32.495  30.764  1.00  0.00     0.031 C 
ATOM     57  C   UNL A   1      44.988  28.347  31.695  1.00  0.00     0.029 A 
ATOM     58  C   UNL A   1      44.197  29.497  31.666  1.00  0.00     0.049 A 
ATOM     59  H   UNL A   1      44.276  31.027  30.237  1.00  0.00     0.167 HD
ATOM     60  C   UNL A   1      42.299  31.008  32.211  1.00  0.00     0.074 A 
ATOM     61  C   UNL A   1      42.460  32.081  31.241  1.00  0.00     0.031 C 
ATOM     62  C   UNL A   1      43.086  29.931  32.499  1.00  0.00     0.034 A 
BRANCH  49  63
ATOM     63  C   UNL A   1      45.603  30.629  27.537  1.00  0.00     0.023 A 
ATOM     64  C   UNL A   1      44.884  31.592  26.808  1.00  0.00     0.031 A 
ATOM     65  C   UNL A   1      46.960  30.929  27.771  1.00  0.00     0.131 A 
ATOM     66  C   UNL A   1      45.486  32.762  26.331  1.00  0.00     0.055 A 
ATOM     67  C   UNL A   1      47.549  32.130  27.355  1.00  0.00     0.041 A 
ATOM     68  F   UNL A   1      47.747  30.086  28.459  1.00  0.00    -0.206 F 
ATOM     69  C   UNL A   1      46.810  33.056  26.628  1.00  0.00     0.022 A 
BRANCH  66  70
ATOM     70  S   UNL A   1      44.529  33.928  25.323  1.00  0.00     0.124 S 
ATOM     71  O   UNL A   1      45.528  34.945  25.011  1.00  0.00    -0.237 OA
ATOM     72  O   UNL A   1      44.112  33.084  24.207  1.00  0.00    -0.237 OA
ATOM     73  O   UNL A   1      43.452  34.348  26.215  1.00  0.00    -0.744 OA
ENDBRANCH  66  70
ENDBRANCH  49  63
BRANCH  50  74
ATOM     74  C   UNL A   1      38.001  32.471  31.023  1.00  0.00     0.023 A 
ATOM     75  C   UNL A   1      37.318  32.839  32.195  1.00  0.00     0.031 A 
ATOM     76  C   UNL A   1      37.462  32.892  29.795  1.00  0.00     0.131 A 
ATOM     77  C   UNL A   1      36.106  33.535  32.116  1.00  0.00     0.055 A 
ATOM     78  C   UNL A   1      36.262  33.605  29.719  1.00  0.00     0.041 A 
ATOM     79  F   UNL A   1      38.053  32.553  28.638  1.00  0.00    -0.206 F 
ATOM     80  C   UNL A   1      35.567  33.914  30.884  1.00  0.00     0.022 A 
BRANCH  77  81
ATOM     81  S   UNL A   1      35.149  33.886  33.617  1.00  0.00     0.124 S 
ATOM     82  O   UNL A   1      33.813  33.421  33.249  1.00  0.00    -0.237 OA
ATOM     83  O   UNL A   1      35.845  33.074  34.608  1.00  0.00    -0.237 OA
ATOM     84  O   UNL A   1      35.279  35.331  33.772  1.00  0.00    -0.744 OA
ENDBRANCH  77  81
ENDBRANCH  50  74
BRANCH  62  85
ATOM     85  C   UNL A   1      42.663  29.011  33.619  1.00  0.00     0.023 A 
ATOM     86  C   UNL A   1      43.400  29.086  34.817  1.00  0.00     0.031 A 
ATOM     87  C   UNL A   1      41.698  27.995  33.511  1.00  0.00     0.131 A 
ATOM     88  C   UNL A   1      43.197  28.147  35.834  1.00  0.00     0.055 A 
ATOM     89  C   UNL A   1      41.443  27.109  34.564  1.00  0.00     0.041 A 
ATOM     90  F   UNL A   1      41.027  27.780  32.371  1.00  0.00    -0.206 F 
ATOM     91  C   UNL A   1      42.205  27.171  35.726  1.00  0.00     0.022 A 
BRANCH  88  92
ATOM     92  S   UNL A   1      44.323  28.079  37.253  1.00  0.00     0.124 S 
ATOM     93  O   UNL A   1      45.601  27.767  36.621  1.00  0.00    -0.237 OA
ATOM     94  O   UNL A   1      44.210  29.427  37.806  1.00  0.00    -0.237 OA
ATOM     95  O   UNL A   1      43.768  27.021  38.093  1.00  0.00    -0.744 OA
ENDBRANCH  88  92
ENDBRANCH  62  85
ENDBRANCH  36  37
ENDBRANCH  29  31
ENDBRANCH  28  29
ENDBRANCH  27  28
ENDBRANCH   1  27
TORSDOF 18
ENDMDL
MODEL 3
REMARK VINA RESULT:     -12.7      4.908      7.726
REMARK SMILES Cc1c(CC(=O)OCCOC(=O)c2ccc(-c3c4nc(c(-c5cc(S(=O)(=O)[O-])ccc5F)c5ccc([nH]5)c(-c5cc(S(=O)(=O)[O-])ccc5F)c5nc(c(-c6cc(S(=O)(=O)[O-])ccc6F)c6ccc3[nH]6)C=C5)C=C4)cc2)c2cc(O)ccc2n1C(=O)c1ccc(Cl)cc1
REMARK SMILES IDX 8 1 7 2 5 3 6 4 4 5 3 6 1 7 2 8 83 9 76 10 82 11 77 12 81 13
REMARK SMILES IDX 78 14 80 15 84 16 85 17 86 18 87 19 92 20 88 21 91 22 89 23
REMARK SMILES IDX 90 24 79 25 9 27 10 28 11 29 12 30 13 31 14 32 75 33 15 34
REMARK SMILES IDX 74 35 16 36 17 37 18 38 68 39 19 40 73 41 67 42 69 43 20 44
REMARK SMILES IDX 72 45 66 46 65 47 21 49 53 50 33 51 52 52 34 53 37 54 51 55
REMARK SMILES IDX 70 56 35 57 36 58 50 60 71 61 38 62 22 63 23 64 31 65 24 66
REMARK SMILES IDX 30 67 32 68 29 69 25 70 26 71 27 72 28 73 54 74 55 75 63 76
REMARK SMILES IDX 56 77 62 78 64 79 61 80 57 81 58 82 59 83 60 84 39 85 40 86
REMARK SMILES IDX 48 87 41 88 47 89 49 90 46 91 42 92 43 93 44 94 45 95
REMARK H PARENT 79 26 69 48 37 59
REMARK Flexibility Score: inf
ROOT
ATOM      1  C   UNL A   1      37.382  23.605  26.265  1.00  0.00     0.274 C 
ENDROOT
BRANCH   1   2
ATOM      2  O   UNL A   1      36.652  24.099  25.119  1.00  0.00    -0.462 OA
BRANCH   2   3
ATOM      3  C   UNL A   1      35.323  24.291  25.311  1.00  0.00     0.310 C 
ATOM      4  O   UNL A   1      34.722  23.919  26.316  1.00  0.00    -0.252 OA
BRANCH   3   5
ATOM      5  C   UNL A   1      34.590  24.959  24.177  1.00  0.00     0.160 C 
BRANCH   5   6
ATOM      6  C   UNL A   1      33.378  25.816  24.432  1.00  0.00    -0.008 A 
ATOM      7  C   UNL A   1      31.664  24.358  23.116  1.00  0.00     0.065 C 
ATOM      8  C   UNL A   1      32.108  25.524  23.947  1.00  0.00     0.028 A 
ATOM      9  N   UNL A   1      31.221  26.507  24.378  1.00  0.00    -0.280 N 
ATOM     10  C   UNL A   1      33.215  26.893  25.365  1.00  0.00     0.008 A 
ATOM     11  C   UNL A   1      31.855  27.230  25.398  1.00  0.00     0.057 A 
ATOM     12  C   UNL A   1      34.082  27.579  26.245  1.00  0.00     0.056 A 
ATOM     13  C   UNL A   1      31.363  28.154  26.352  1.00  0.00     0.031 A 
ATOM     14  C   UNL A   1      33.587  28.498  27.171  1.00  0.00     0.116 A 
ATOM     15  C   UNL A   1      32.241  28.783  27.235  1.00  0.00     0.048 A 
BRANCH   9  16
ATOM     16  C   UNL A   1      29.909  26.719  23.877  1.00  0.00     0.262 C 
ATOM     17  O   UNL A   1      29.074  25.820  23.947  1.00  0.00    -0.268 OA
BRANCH  16  18
ATOM     18  C   UNL A   1      29.464  27.955  23.226  1.00  0.00     0.040 A 
ATOM     19  C   UNL A   1      28.110  28.309  23.239  1.00  0.00     0.015 A 
ATOM     20  C   UNL A   1      30.409  28.723  22.539  1.00  0.00     0.015 A 
ATOM     21  C   UNL A   1      27.690  29.414  22.500  1.00  0.00     0.021 A 
ATOM     22  C   UNL A   1      29.981  29.828  21.804  1.00  0.00     0.021 A 
ATOM     23  C   UNL A   1      28.626  30.160  21.778  1.00  0.00     0.041 A 
ATOM     24  Cl  UNL A   1      28.094  31.488  20.822  1.00  0.00    -0.084 Cl
ENDBRANCH  16  18
ENDBRANCH   9  16
BRANCH  14  25
ATOM     25  O   UNL A   1      34.469  29.089  28.026  1.00  0.00    -0.508 OA
ATOM     26  H   UNL A   1      34.154  29.583  28.756  1.00  0.00     0.293 HD
ENDBRANCH  14  25
ENDBRANCH   5   6
ENDBRANCH   3   5
ENDBRANCH   2   3
ENDBRANCH   1   2
BRANCH   1  27
ATOM     27  C   UNL A   1      38.642  24.438  26.513  1.00  0.00     0.275 C 
BRANCH  27  28
ATOM     28  O   UNL A   1      38.799  24.628  27.927  1.00  0.00    -0.458 OA
BRANCH  28  29
ATOM     29  C   UNL A   1      39.864  25.352  28.341  1.00  0.00     0.338 C 
ATOM     30  O   UNL A   1      41.023  25.229  27.988  1.00  0.00    -0.246 OA
BRANCH  29  31
ATOM     31  C   UNL A   1      39.286  26.529  29.020  1.00  0.00     0.060 A 
ATOM     32  C   UNL A   1      39.635  27.815  28.599  1.00  0.00     0.016 A 
ATOM     33  C   UNL A   1      38.639  26.325  30.243  1.00  0.00     0.016 A 
ATOM     34  C   UNL A   1      39.484  28.874  29.481  1.00  0.00     0.010 A 
ATOM     35  C   UNL A   1      38.529  27.380  31.135  1.00  0.00     0.010 A 
ATOM     36  C   UNL A   1      39.008  28.637  30.778  1.00  0.00    -0.014 A 
BRANCH  36  37
ATOM     37  C   UNL A   1      38.772  29.784  31.641  1.00  0.00     0.031 A 
ATOM     38  C   UNL A   1      37.718  30.671  31.115  1.00  0.00     0.074 A 
ATOM     39  C   UNL A   1      39.327  30.073  32.830  1.00  0.00     0.049 A 
ATOM     40  N   UNL A   1      37.886  31.693  30.346  1.00  0.00    -0.248 NA
ATOM     41  C   UNL A   1      36.322  30.261  31.298  1.00  0.00     0.031 C 
ATOM     42  C   UNL A   1      40.074  29.208  33.740  1.00  0.00     0.029 A 
ATOM     43  N   UNL A   1      39.258  31.260  33.504  1.00  0.00    -0.354 N 
ATOM     44  C   UNL A   1      36.610  32.181  30.103  1.00  0.00     0.074 A 
ATOM     45  C   UNL A   1      35.702  31.137  30.508  1.00  0.00     0.031 C 
ATOM     46  C   UNL A   1      40.227  29.845  34.928  1.00  0.00     0.029 A 
ATOM     47  C   UNL A   1      39.752  31.216  34.794  1.00  0.00     0.049 A 
ATOM     48  H   UNL A   1      38.887  32.079  33.102  1.00  0.00     0.167 HD
ATOM     49  C   UNL A   1      36.398  33.498  29.827  1.00  0.00     0.034 A 
ATOM     50  C   UNL A   1      39.750  32.237  35.684  1.00  0.00     0.034 A 
ATOM     51  C   UNL A   1      37.648  34.195  29.661  1.00  0.00     0.049 A 
ATOM     52  C   UNL A   1      39.649  33.520  34.947  1.00  0.00     0.074 A 
ATOM     53  C   UNL A   1      38.628  34.268  28.699  1.00  0.00     0.029 A 
ATOM     54  N   UNL A   1      38.177  34.700  30.824  1.00  0.00    -0.354 N 
ATOM     55  N   UNL A   1      40.595  34.009  34.197  1.00  0.00    -0.248 NA
ATOM     56  C   UNL A   1      38.350  34.170  34.808  1.00  0.00     0.031 C 
ATOM     57  C   UNL A   1      39.827  34.621  29.384  1.00  0.00     0.029 A 
ATOM     58  C   UNL A   1      39.545  34.763  30.744  1.00  0.00     0.049 A 
ATOM     59  H   UNL A   1      37.648  34.978  31.607  1.00  0.00     0.167 HD
ATOM     60  C   UNL A   1      39.925  34.691  33.200  1.00  0.00     0.074 A 
ATOM     61  C   UNL A   1      38.592  34.926  33.734  1.00  0.00     0.031 C 
ATOM     62  C   UNL A   1      40.400  34.719  31.921  1.00  0.00     0.034 A 
BRANCH  49  63
ATOM     63  C   UNL A   1      35.115  34.240  30.109  1.00  0.00     0.023 A 
ATOM     64  C   UNL A   1      34.917  35.039  31.249  1.00  0.00     0.031 A 
ATOM     65  C   UNL A   1      34.119  34.339  29.115  1.00  0.00     0.131 A 
ATOM     66  C   UNL A   1      33.795  35.861  31.392  1.00  0.00     0.055 A 
ATOM     67  C   UNL A   1      33.030  35.212  29.225  1.00  0.00     0.041 A 
ATOM     68  F   UNL A   1      34.201  33.626  27.980  1.00  0.00    -0.206 F 
ATOM     69  C   UNL A   1      32.862  35.980  30.371  1.00  0.00     0.022 A 
BRANCH  66  70
ATOM     70  S   UNL A   1      33.551  36.805  32.922  1.00  0.00     0.124 S 
ATOM     71  O   UNL A   1      34.395  36.076  33.863  1.00  0.00    -0.237 OA
ATOM     72  O   UNL A   1      34.031  38.129  32.534  1.00  0.00    -0.237 OA
ATOM     73  O   UNL A   1      32.112  36.714  33.155  1.00  0.00    -0.744 OA
ENDBRANCH  66  70
ENDBRANCH  49  63
BRANCH  50  74
ATOM     74  C   UNL A   1      39.539  32.178  37.145  1.00  0.00     0.023 A 
ATOM     75  C   UNL A   1      38.310  31.710  37.644  1.00  0.00     0.031 A 
ATOM     76  C   UNL A   1      40.377  32.881  38.028  1.00  0.00     0.131 A 
ATOM     77  C   UNL A   1      37.921  32.011  38.955  1.00  0.00     0.055 A 
ATOM     78  C   UNL A   1      39.994  33.163  39.343  1.00  0.00     0.041 A 
ATOM     79  F   UNL A   1      41.551  33.374  37.607  1.00  0.00    -0.206 F 
ATOM     80  C   UNL A   1      38.752  32.743  39.807  1.00  0.00     0.022 A 
BRANCH  77  81
ATOM     81  S   UNL A   1      36.278  31.535  39.557  1.00  0.00     0.124 S 
ATOM     82  O   UNL A   1      36.492  31.440  40.999  1.00  0.00    -0.237 OA
ATOM     83  O   UNL A   1      35.463  32.660  39.115  1.00  0.00    -0.237 OA
ATOM     84  O   UNL A   1      36.026  30.263  38.886  1.00  0.00    -0.744 OA
ENDBRANCH  77  81
ENDBRANCH  50  74
BRANCH  62  85
ATOM     85  C   UNL A   1      41.873  34.480  31.695  1.00  0.00     0.023 A 
ATOM     86  C   UNL A   1      42.685  35.618  31.525  1.00  0.00     0.031 A 
ATOM     87  C   UNL A   1      42.468  33.221  31.497  1.00  0.00     0.131 A 
ATOM     88  C   UNL A   1      44.019  35.485  31.129  1.00  0.00     0.055 A 
ATOM     89  C   UNL A   1      43.825  33.091  31.180  1.00  0.00     0.041 A 
ATOM     90  F   UNL A   1      41.749  32.091  31.531  1.00  0.00    -0.206 F 
ATOM     91  C   UNL A   1      44.603  34.226  30.978  1.00  0.00     0.022 A 
BRANCH  88  92
ATOM     92  S   UNL A   1      44.982  36.945  30.651  1.00  0.00     0.124 S 
ATOM     93  O   UNL A   1      45.872  36.408  29.627  1.00  0.00    -0.237 OA
ATOM     94  O   UNL A   1      43.946  37.856  30.167  1.00  0.00    -0.237 OA
ATOM     95  O   UNL A   1      45.634  37.359  31.891  1.00  0.00    -0.744 OA
ENDBRANCH  88  92
ENDBRANCH  62  85
ENDBRANCH  36  37
ENDBRANCH  29  31
ENDBRANCH  28  29
ENDBRANCH  27  28
ENDBRANCH   1  27
TORSDOF 18
ENDMDL
