MODEL 1
REMARK VINA RESULT:     -12.1      0.000      0.000
REMARK SMILES O=C(CSc1ccc(NC(=O)c2cccc3ccccc23)cc1)OCCOC(=O)c1ccc(-c2c3nc(c(-c4cc(S(=O)(=O)[O-])ccc4F)c4ccc([nH]4)c(-c4cc(S(=O)(=O)[O-])ccc4F)c4nc(c(-c5cc(S(=O)(=O)[O-])ccc5F)c5ccc2[nH]5)C=C4)C=C3)cc1
REMARK SMILES IDX 25 1 24 2 2 3 1 4 3 5 4 6 5 7 6 8 23 9 7 10 22 11 8 12 9 13
REMARK SMILES IDX 10 14 11 16 12 17 13 18 21 19 14 20 16 21 20 22 15 23 17 24
REMARK SMILES IDX 19 25 18 26 26 27 27 28 28 29 29 30 30 31 31 32 92 33 32 34
REMARK SMILES IDX 91 35 33 36 34 37 35 38 85 39 36 40 90 41 84 42 86 43 37 44
REMARK SMILES IDX 89 45 83 46 82 47 38 49 70 50 50 51 69 52 51 53 54 54 68 55
REMARK SMILES IDX 87 56 52 57 53 58 67 60 88 61 55 62 39 63 40 64 48 65 41 66
REMARK SMILES IDX 47 67 49 68 46 69 42 70 43 71 44 72 45 73 71 74 72 75 80 76
REMARK SMILES IDX 73 77 79 78 81 79 78 80 74 81 75 82 76 83 77 84 56 85 57 86
REMARK SMILES IDX 65 87 58 88 64 89 66 90 63 91 59 92 60 93 61 94 62 95
REMARK H PARENT 9 15 86 48 54 59
REMARK Flexibility Score: inf
ROOT
ATOM      1  C   UNL A   1      36.654  21.897  24.314  1.00  0.00     0.274 C 
ENDROOT
BRANCH   1   2
ATOM      2  O   UNL A   1      35.801  22.123  25.455  1.00  0.00    -0.461 OA
BRANCH   2   3
ATOM      3  C   UNL A   1      34.828  21.268  25.853  1.00  0.00     0.316 C 
ATOM      4  O   UNL A   1      34.386  21.328  26.999  1.00  0.00    -0.251 OA
BRANCH   3   5
ATOM      5  C   UNL A   1      34.271  20.279  24.849  1.00  0.00     0.197 C 
BRANCH   5   6
ATOM      6  S   UNL A   1      32.484  20.099  25.014  1.00  0.00    -0.114 SA
BRANCH   6   7
ATOM      7  C   UNL A   1      31.977  21.787  24.779  1.00  0.00     0.008 A 
ATOM      8  C   UNL A   1      32.139  22.329  23.506  1.00  0.00     0.017 A 
ATOM      9  C   UNL A   1      31.359  22.544  25.780  1.00  0.00     0.017 A 
ATOM     10  C   UNL A   1      31.567  23.558  23.198  1.00  0.00     0.027 A 
ATOM     11  C   UNL A   1      30.802  23.783  25.477  1.00  0.00     0.027 A 
ATOM     12  C   UNL A   1      30.797  24.218  24.152  1.00  0.00     0.041 A 
BRANCH  12  13
ATOM     13  N   UNL A   1      29.862  25.206  23.825  1.00  0.00    -0.322 N 
ATOM     14  C   UNL A   1      30.041  26.565  23.679  1.00  0.00     0.256 C 
ATOM     15  H   UNL A   1      28.944  24.885  23.679  1.00  0.00     0.170 HD
ATOM     16  O   UNL A   1      29.064  27.271  23.422  1.00  0.00    -0.269 OA
BRANCH  14  17
ATOM     17  C   UNL A   1      31.363  27.235  23.823  1.00  0.00     0.048 A 
ATOM     18  C   UNL A   1      32.054  27.382  22.608  1.00  0.00     0.014 A 
ATOM     19  C   UNL A   1      31.946  27.683  25.051  1.00  0.00    -0.006 A 
ATOM     20  C   UNL A   1      33.305  27.982  22.574  1.00  0.00     0.001 A 
ATOM     21  C   UNL A   1      33.216  28.314  24.985  1.00  0.00    -0.018 A 
ATOM     22  C   UNL A   1      31.360  27.566  26.340  1.00  0.00     0.009 A 
ATOM     23  C   UNL A   1      33.879  28.443  23.754  1.00  0.00     0.009 A 
ATOM     24  C   UNL A   1      33.823  28.823  26.146  1.00  0.00     0.009 A 
ATOM     25  C   UNL A   1      31.955  28.121  27.480  1.00  0.00     0.001 A 
ATOM     26  C   UNL A   1      33.188  28.747  27.383  1.00  0.00     0.001 A 
ENDBRANCH  14  17
ENDBRANCH  12  13
ENDBRANCH   6   7
ENDBRANCH   5   6
ENDBRANCH   3   5
ENDBRANCH   2   3
ENDBRANCH   1   2
BRANCH   1  27
ATOM     27  C   UNL A   1      37.750  20.880  24.642  1.00  0.00     0.275 C 
BRANCH  27  28
ATOM     28  O   UNL A   1      38.131  20.988  26.027  1.00  0.00    -0.458 OA
BRANCH  28  29
ATOM     29  C   UNL A   1      39.450  20.793  26.310  1.00  0.00     0.338 C 
ATOM     30  O   UNL A   1      40.102  19.804  26.043  1.00  0.00    -0.246 OA
BRANCH  29  31
ATOM     31  C   UNL A   1      40.028  22.082  26.780  1.00  0.00     0.060 A 
ATOM     32  C   UNL A   1      39.480  23.277  26.293  1.00  0.00     0.016 A 
ATOM     33  C   UNL A   1      41.041  22.126  27.745  1.00  0.00     0.016 A 
ATOM     34  C   UNL A   1      39.956  24.511  26.751  1.00  0.00     0.010 A 
ATOM     35  C   UNL A   1      41.518  23.360  28.198  1.00  0.00     0.010 A 
ATOM     36  C   UNL A   1      40.997  24.562  27.688  1.00  0.00    -0.014 A 
BRANCH  36  37
ATOM     37  C   UNL A   1      41.679  25.846  28.000  1.00  0.00     0.031 A 
ATOM     38  C   UNL A   1      40.885  26.922  28.689  1.00  0.00     0.074 A 
ATOM     39  C   UNL A   1      42.958  26.078  27.651  1.00  0.00     0.049 A 
ATOM     40  N   UNL A   1      41.228  28.145  28.996  1.00  0.00    -0.248 NA
ATOM     41  C   UNL A   1      39.508  26.566  29.066  1.00  0.00     0.031 C 
ATOM     42  C   UNL A   1      43.844  25.120  26.995  1.00  0.00     0.029 A 
ATOM     43  N   UNL A   1      43.726  27.211  27.784  1.00  0.00    -0.354 N 
ATOM     44  C   UNL A   1      40.112  28.708  29.605  1.00  0.00     0.074 A 
ATOM     45  C   UNL A   1      39.069  27.703  29.580  1.00  0.00     0.031 C 
ATOM     46  C   UNL A   1      45.028  25.716  26.758  1.00  0.00     0.029 A 
ATOM     47  C   UNL A   1      44.974  27.104  27.218  1.00  0.00     0.049 A 
ATOM     48  H   UNL A   1      43.410  28.023  28.243  1.00  0.00     0.167 HD
ATOM     49  C   UNL A   1      39.969  29.943  30.148  1.00  0.00     0.034 A 
ATOM     50  C   UNL A   1      45.949  28.027  27.062  1.00  0.00     0.034 A 
ATOM     51  C   UNL A   1      41.002  30.948  30.146  1.00  0.00     0.049 A 
ATOM     52  C   UNL A   1      45.741  29.428  27.592  1.00  0.00     0.074 A 
ATOM     53  C   UNL A   1      40.969  32.217  30.697  1.00  0.00     0.029 A 
ATOM     54  N   UNL A   1      42.244  30.811  29.542  1.00  0.00    -0.354 N 
ATOM     55  N   UNL A   1      44.698  29.934  28.209  1.00  0.00    -0.248 NA
ATOM     56  C   UNL A   1      46.844  30.384  27.407  1.00  0.00     0.031 C 
ATOM     57  C   UNL A   1      42.157  32.874  30.359  1.00  0.00     0.029 A 
ATOM     58  C   UNL A   1      42.967  31.988  29.667  1.00  0.00     0.049 A 
ATOM     59  H   UNL A   1      42.564  29.998  29.089  1.00  0.00     0.167 HD
ATOM     60  C   UNL A   1      45.035  31.252  28.515  1.00  0.00     0.074 A 
ATOM     61  C   UNL A   1      46.376  31.465  28.017  1.00  0.00     0.031 C 
ATOM     62  C   UNL A   1      44.303  32.197  29.160  1.00  0.00     0.034 A 
BRANCH  49  63
ATOM     63  C   UNL A   1      38.621  30.279  30.736  1.00  0.00     0.023 A 
ATOM     64  C   UNL A   1      37.639  30.953  29.989  1.00  0.00     0.031 A 
ATOM     65  C   UNL A   1      38.335  29.972  32.077  1.00  0.00     0.131 A 
ATOM     66  C   UNL A   1      36.456  31.375  30.612  1.00  0.00     0.055 A 
ATOM     67  C   UNL A   1      37.119  30.318  32.667  1.00  0.00     0.041 A 
ATOM     68  F   UNL A   1      39.244  29.350  32.845  1.00  0.00    -0.206 F 
ATOM     69  C   UNL A   1      36.178  31.040  31.938  1.00  0.00     0.022 A 
BRANCH  66  70
ATOM     70  S   UNL A   1      35.365  32.512  29.713  1.00  0.00     0.124 S 
ATOM     71  O   UNL A   1      34.291  32.720  30.682  1.00  0.00    -0.237 OA
ATOM     72  O   UNL A   1      36.236  33.656  29.467  1.00  0.00    -0.237 OA
ATOM     73  O   UNL A   1      34.983  31.751  28.525  1.00  0.00    -0.744 OA
ENDBRANCH  66  70
ENDBRANCH  49  63
BRANCH  50  74
ATOM     74  C   UNL A   1      47.200  27.684  26.323  1.00  0.00     0.023 A 
ATOM     75  C   UNL A   1      47.317  27.905  24.942  1.00  0.00     0.031 A 
ATOM     76  C   UNL A   1      48.276  27.068  26.986  1.00  0.00     0.131 A 
ATOM     77  C   UNL A   1      48.465  27.471  24.260  1.00  0.00     0.055 A 
ATOM     78  C   UNL A   1      49.437  26.685  26.312  1.00  0.00     0.041 A 
ATOM     79  F   UNL A   1      48.214  26.831  28.306  1.00  0.00    -0.206 F 
ATOM     80  C   UNL A   1      49.532  26.874  24.937  1.00  0.00     0.022 A 
BRANCH  77  81
ATOM     81  S   UNL A   1      48.514  27.624  22.452  1.00  0.00     0.124 S 
ATOM     82  O   UNL A   1      48.627  26.229  22.040  1.00  0.00    -0.237 OA
ATOM     83  O   UNL A   1      47.239  28.275  22.170  1.00  0.00    -0.237 OA
ATOM     84  O   UNL A   1      49.698  28.445  22.212  1.00  0.00    -0.744 OA
ENDBRANCH  77  81
ENDBRANCH  50  74
BRANCH  62  85
ATOM     85  C   UNL A   1      44.955  33.536  29.415  1.00  0.00     0.023 A 
ATOM     86  C   UNL A   1      44.751  34.640  28.569  1.00  0.00     0.031 A 
ATOM     87  C   UNL A   1      45.774  33.713  30.546  1.00  0.00     0.131 A 
ATOM     88  C   UNL A   1      45.384  35.862  28.848  1.00  0.00     0.055 A 
ATOM     89  C   UNL A   1      46.359  34.944  30.847  1.00  0.00     0.041 A 
ATOM     90  F   UNL A   1      46.004  32.693  31.388  1.00  0.00    -0.206 F 
ATOM     91  C   UNL A   1      46.172  36.025  29.991  1.00  0.00     0.022 A 
BRANCH  88  92
ATOM     92  S   UNL A   1      45.211  37.230  27.669  1.00  0.00     0.124 S 
ATOM     93  O   UNL A   1      45.092  38.383  28.555  1.00  0.00    -0.237 OA
ATOM     94  O   UNL A   1      46.449  37.141  26.901  1.00  0.00    -0.237 OA
ATOM     95  O   UNL A   1      43.998  36.892  26.925  1.00  0.00    -0.744 OA
ENDBRANCH  88  92
ENDBRANCH  62  85
ENDBRANCH  36  37
ENDBRANCH  29  31
ENDBRANCH  28  29
ENDBRANCH  27  28
ENDBRANCH   1  27
TORSDOF 18
ENDMDL
MODEL 2
REMARK VINA RESULT:     -12.0      1.763      7.618
REMARK SMILES O=C(CSc1ccc(NC(=O)c2cccc3ccccc23)cc1)OCCOC(=O)c1ccc(-c2c3nc(c(-c4cc(S(=O)(=O)[O-])ccc4F)c4ccc([nH]4)c(-c4cc(S(=O)(=O)[O-])ccc4F)c4nc(c(-c5cc(S(=O)(=O)[O-])ccc5F)c5ccc2[nH]5)C=C4)C=C3)cc1
REMARK SMILES IDX 25 1 24 2 2 3 1 4 3 5 4 6 5 7 6 8 23 9 7 10 22 11 8 12 9 13
REMARK SMILES IDX 10 14 11 16 12 17 13 18 21 19 14 20 16 21 20 22 15 23 17 24
REMARK SMILES IDX 19 25 18 26 26 27 27 28 28 29 29 30 30 31 31 32 92 33 32 34
REMARK SMILES IDX 91 35 33 36 34 37 35 38 85 39 36 40 90 41 84 42 86 43 37 44
REMARK SMILES IDX 89 45 83 46 82 47 38 49 70 50 50 51 69 52 51 53 54 54 68 55
REMARK SMILES IDX 87 56 52 57 53 58 67 60 88 61 55 62 39 63 40 64 48 65 41 66
REMARK SMILES IDX 47 67 49 68 46 69 42 70 43 71 44 72 45 73 71 74 72 75 80 76
REMARK SMILES IDX 73 77 79 78 81 79 78 80 74 81 75 82 76 83 77 84 56 85 57 86
REMARK SMILES IDX 65 87 58 88 64 89 66 90 63 91 59 92 60 93 61 94 62 95
REMARK H PARENT 9 15 86 48 54 59
REMARK Flexibility Score: inf
ROOT
ATOM      1  C   UNL A   1      36.319  21.055  24.789  1.00  0.00     0.274 C 
ENDROOT
BRANCH   1   2
ATOM      2  O   UNL A   1      35.499  19.872  24.875  1.00  0.00    -0.461 OA
BRANCH   2   3
ATOM      3  C   UNL A   1      34.149  19.894  24.990  1.00  0.00     0.316 C 
ATOM      4  O   UNL A   1      33.467  19.060  24.397  1.00  0.00    -0.251 OA
BRANCH   3   5
ATOM      5  C   UNL A   1      33.512  20.929  25.895  1.00  0.00     0.197 C 
BRANCH   5   6
ATOM      6  S   UNL A   1      31.874  21.405  25.310  1.00  0.00    -0.114 SA
BRANCH   6   7
ATOM      7  C   UNL A   1      32.226  23.033  24.689  1.00  0.00     0.008 A 
ATOM      8  C   UNL A   1      33.300  23.714  25.259  1.00  0.00     0.017 A 
ATOM      9  C   UNL A   1      31.534  23.607  23.617  1.00  0.00     0.017 A 
ATOM     10  C   UNL A   1      33.764  24.888  24.678  1.00  0.00     0.027 A 
ATOM     11  C   UNL A   1      31.987  24.792  23.045  1.00  0.00     0.027 A 
ATOM     12  C   UNL A   1      33.180  25.351  23.501  1.00  0.00     0.041 A 
BRANCH  12  13
ATOM     13  N   UNL A   1      33.819  26.246  22.636  1.00  0.00    -0.322 N 
ATOM     14  C   UNL A   1      33.623  27.601  22.476  1.00  0.00     0.256 C 
ATOM     15  H   UNL A   1      34.509  25.850  22.056  1.00  0.00     0.170 HD
ATOM     16  O   UNL A   1      34.274  28.201  21.619  1.00  0.00    -0.269 OA
BRANCH  14  17
ATOM     17  C   UNL A   1      32.651  28.386  23.286  1.00  0.00     0.048 A 
ATOM     18  C   UNL A   1      31.463  28.690  22.600  1.00  0.00     0.014 A 
ATOM     19  C   UNL A   1      32.857  28.846  24.626  1.00  0.00    -0.006 A 
ATOM     20  C   UNL A   1      30.458  29.424  23.217  1.00  0.00     0.001 A 
ATOM     21  C   UNL A   1      31.804  29.574  25.241  1.00  0.00    -0.018 A 
ATOM     22  C   UNL A   1      34.021  28.627  25.410  1.00  0.00     0.009 A 
ATOM     23  C   UNL A   1      30.631  29.860  24.526  1.00  0.00     0.009 A 
ATOM     24  C   UNL A   1      31.919  30.010  26.572  1.00  0.00     0.009 A 
ATOM     25  C   UNL A   1      34.101  29.026  26.750  1.00  0.00     0.001 A 
ATOM     26  C   UNL A   1      33.050  29.720  27.330  1.00  0.00     0.001 A 
ENDBRANCH  14  17
ENDBRANCH  12  13
ENDBRANCH   6   7
ENDBRANCH   5   6
ENDBRANCH   3   5
ENDBRANCH   2   3
ENDBRANCH   1   2
BRANCH   1  27
ATOM     27  C   UNL A   1      37.790  20.723  25.053  1.00  0.00     0.275 C 
BRANCH  27  28
ATOM     28  O   UNL A   1      38.519  21.922  25.383  1.00  0.00    -0.458 OA
BRANCH  28  29
ATOM     29  C   UNL A   1      39.344  21.851  26.465  1.00  0.00     0.338 C 
ATOM     30  O   UNL A   1      39.886  20.850  26.889  1.00  0.00    -0.246 OA
BRANCH  29  31
ATOM     31  C   UNL A   1      39.671  23.236  26.902  1.00  0.00     0.060 A 
ATOM     32  C   UNL A   1      38.886  24.292  26.417  1.00  0.00     0.016 A 
ATOM     33  C   UNL A   1      40.682  23.494  27.834  1.00  0.00     0.016 A 
ATOM     34  C   UNL A   1      39.124  25.603  26.846  1.00  0.00     0.010 A 
ATOM     35  C   UNL A   1      40.921  24.806  28.258  1.00  0.00     0.010 A 
ATOM     36  C   UNL A   1      40.160  25.873  27.750  1.00  0.00    -0.014 A 
BRANCH  36  37
ATOM     37  C   UNL A   1      40.586  27.271  28.025  1.00  0.00     0.031 A 
ATOM     38  C   UNL A   1      42.033  27.626  27.819  1.00  0.00     0.074 A 
ATOM     39  C   UNL A   1      39.727  28.201  28.485  1.00  0.00     0.049 A 
ATOM     40  N   UNL A   1      42.660  28.747  28.062  1.00  0.00    -0.248 NA
ATOM     41  C   UNL A   1      42.888  26.558  27.279  1.00  0.00     0.031 C 
ATOM     42  C   UNL A   1      38.300  27.996  28.715  1.00  0.00     0.029 A 
ATOM     43  N   UNL A   1      39.946  29.505  28.863  1.00  0.00    -0.354 N 
ATOM     44  C   UNL A   1      43.984  28.523  27.702  1.00  0.00     0.074 A 
ATOM     45  C   UNL A   1      44.074  27.144  27.270  1.00  0.00     0.031 C 
ATOM     46  C   UNL A   1      37.775  29.129  29.220  1.00  0.00     0.029 A 
ATOM     47  C   UNL A   1      38.833  30.127  29.378  1.00  0.00     0.049 A 
ATOM     48  H   UNL A   1      40.819  29.951  28.773  1.00  0.00     0.167 HD
ATOM     49  C   UNL A   1      45.029  29.388  27.718  1.00  0.00     0.034 A 
ATOM     50  C   UNL A   1      38.691  31.348  29.939  1.00  0.00     0.034 A 
ATOM     51  C   UNL A   1      44.940  30.752  28.175  1.00  0.00     0.049 A 
ATOM     52  C   UNL A   1      39.887  32.269  30.034  1.00  0.00     0.074 A 
ATOM     53  C   UNL A   1      45.930  31.717  28.201  1.00  0.00     0.029 A 
ATOM     54  N   UNL A   1      43.801  31.338  28.712  1.00  0.00    -0.354 N 
ATOM     55  N   UNL A   1      41.124  32.062  29.645  1.00  0.00    -0.248 NA
ATOM     56  C   UNL A   1      39.666  33.591  30.639  1.00  0.00     0.031 C 
ATOM     57  C   UNL A   1      45.415  32.859  28.825  1.00  0.00     0.029 A 
ATOM     58  C   UNL A   1      44.078  32.636  29.114  1.00  0.00     0.049 A 
ATOM     59  H   UNL A   1      42.926  30.896  28.796  1.00  0.00     0.167 HD
ATOM     60  C   UNL A   1      41.816  33.239  29.928  1.00  0.00     0.074 A 
ATOM     61  C   UNL A   1      40.861  34.152  30.518  1.00  0.00     0.031 C 
ATOM     62  C   UNL A   1      43.122  33.540  29.709  1.00  0.00     0.034 A 
BRANCH  49  63
ATOM     63  C   UNL A   1      46.367  28.851  27.275  1.00  0.00     0.023 A 
ATOM     64  C   UNL A   1      46.662  28.637  25.917  1.00  0.00     0.031 A 
ATOM     65  C   UNL A   1      47.340  28.495  28.225  1.00  0.00     0.131 A 
ATOM     66  C   UNL A   1      47.859  28.002  25.554  1.00  0.00     0.055 A 
ATOM     67  C   UNL A   1      48.566  27.943  27.851  1.00  0.00     0.041 A 
ATOM     68  F   UNL A   1      47.104  28.655  29.537  1.00  0.00    -0.206 F 
ATOM     69  C   UNL A   1      48.824  27.677  26.509  1.00  0.00     0.022 A 
BRANCH  66  70
ATOM     70  S   UNL A   1      48.059  27.456  23.835  1.00  0.00     0.124 S 
ATOM     71  O   UNL A   1      49.451  27.816  23.572  1.00  0.00    -0.237 OA
ATOM     72  O   UNL A   1      47.773  26.029  23.923  1.00  0.00    -0.237 OA
ATOM     73  O   UNL A   1      47.070  28.248  23.108  1.00  0.00    -0.744 OA
ENDBRANCH  66  70
ENDBRANCH  49  63
BRANCH  50  74
ATOM     74  C   UNL A   1      37.377  31.765  30.513  1.00  0.00     0.023 A 
ATOM     75  C   UNL A   1      36.438  32.476  29.750  1.00  0.00     0.031 A 
ATOM     76  C   UNL A   1      37.073  31.509  31.862  1.00  0.00     0.131 A 
ATOM     77  C   UNL A   1      35.260  32.946  30.352  1.00  0.00     0.055 A 
ATOM     78  C   UNL A   1      35.877  31.935  32.443  1.00  0.00     0.041 A 
ATOM     79  F   UNL A   1      37.938  30.836  32.637  1.00  0.00    -0.206 F 
ATOM     80  C   UNL A   1      34.967  32.670  31.690  1.00  0.00     0.022 A 
BRANCH  77  81
ATOM     81  S   UNL A   1      34.147  34.000  29.381  1.00  0.00     0.124 S 
ATOM     82  O   UNL A   1      35.084  34.934  28.768  1.00  0.00    -0.237 OA
ATOM     83  O   UNL A   1      33.523  33.034  28.483  1.00  0.00    -0.237 OA
ATOM     84  O   UNL A   1      33.258  34.576  30.388  1.00  0.00    -0.744 OA
ENDBRANCH  77  81
ENDBRANCH  50  74
BRANCH  62  85
ATOM     85  C   UNL A   1      43.589  34.934  30.059  1.00  0.00     0.023 A 
ATOM     86  C   UNL A   1      43.431  36.018  29.178  1.00  0.00     0.031 A 
ATOM     87  C   UNL A   1      44.178  35.182  31.313  1.00  0.00     0.131 A 
ATOM     88  C   UNL A   1      43.887  37.293  29.551  1.00  0.00     0.055 A 
ATOM     89  C   UNL A   1      44.581  36.461  31.698  1.00  0.00     0.041 A 
ATOM     90  F   UNL A   1      44.354  34.184  32.194  1.00  0.00    -0.206 F 
ATOM     91  C   UNL A   1      44.444  37.524  30.811  1.00  0.00     0.022 A 
BRANCH  88  92
ATOM     92  S   UNL A   1      43.792  38.645  28.344  1.00  0.00     0.124 S 
ATOM     93  O   UNL A   1      42.373  38.653  28.006  1.00  0.00    -0.237 OA
ATOM     94  O   UNL A   1      44.270  39.789  29.115  1.00  0.00    -0.237 OA
ATOM     95  O   UNL A   1      44.684  38.211  27.269  1.00  0.00    -0.744 OA
ENDBRANCH  88  92
ENDBRANCH  62  85
ENDBRANCH  36  37
ENDBRANCH  29  31
ENDBRANCH  28  29
ENDBRANCH  27  28
ENDBRANCH   1  27
TORSDOF 18
ENDMDL
MODEL 3
REMARK VINA RESULT:     -11.9      0.913      7.421
REMARK SMILES O=C(CSc1ccc(NC(=O)c2cccc3ccccc23)cc1)OCCOC(=O)c1ccc(-c2c3nc(c(-c4cc(S(=O)(=O)[O-])ccc4F)c4ccc([nH]4)c(-c4cc(S(=O)(=O)[O-])ccc4F)c4nc(c(-c5cc(S(=O)(=O)[O-])ccc5F)c5ccc2[nH]5)C=C4)C=C3)cc1
REMARK SMILES IDX 25 1 24 2 2 3 1 4 3 5 4 6 5 7 6 8 23 9 7 10 22 11 8 12 9 13
REMARK SMILES IDX 10 14 11 16 12 17 13 18 21 19 14 20 16 21 20 22 15 23 17 24
REMARK SMILES IDX 19 25 18 26 26 27 27 28 28 29 29 30 30 31 31 32 92 33 32 34
REMARK SMILES IDX 91 35 33 36 34 37 35 38 85 39 36 40 90 41 84 42 86 43 37 44
REMARK SMILES IDX 89 45 83 46 82 47 38 49 70 50 50 51 69 52 51 53 54 54 68 55
REMARK SMILES IDX 87 56 52 57 53 58 67 60 88 61 55 62 39 63 40 64 48 65 41 66
REMARK SMILES IDX 47 67 49 68 46 69 42 70 43 71 44 72 45 73 71 74 72 75 80 76
REMARK SMILES IDX 73 77 79 78 81 79 78 80 74 81 75 82 76 83 77 84 56 85 57 86
REMARK SMILES IDX 65 87 58 88 64 89 66 90 63 91 59 92 60 93 61 94 62 95
REMARK H PARENT 9 15 86 48 54 59
REMARK Flexibility Score: inf
ROOT
ATOM      1  C   UNL A   1      37.967  19.712  25.361  1.00  0.00     0.274 C 
ENDROOT
BRANCH   1   2
ATOM      2  O   UNL A   1      37.718  21.129  25.280  1.00  0.00    -0.461 OA
BRANCH   2   3
ATOM      3  C   UNL A   1      36.491  21.691  25.409  1.00  0.00     0.316 C 
ATOM      4  O   UNL A   1      36.350  22.715  26.075  1.00  0.00    -0.251 OA
BRANCH   3   5
ATOM      5  C   UNL A   1      35.321  21.060  24.682  1.00  0.00     0.197 C 
BRANCH   5   6
ATOM      6  S   UNL A   1      33.913  20.810  25.781  1.00  0.00    -0.114 SA
BRANCH   6   7
ATOM      7  C   UNL A   1      32.965  22.267  25.409  1.00  0.00     0.008 A 
ATOM      8  C   UNL A   1      32.783  22.583  24.064  1.00  0.00     0.017 A 
ATOM      9  C   UNL A   1      32.339  23.041  26.392  1.00  0.00     0.017 A 
ATOM     10  C   UNL A   1      31.878  23.572  23.700  1.00  0.00     0.027 A 
ATOM     11  C   UNL A   1      31.447  24.045  26.028  1.00  0.00     0.027 A 
ATOM     12  C   UNL A   1      31.124  24.211  24.682  1.00  0.00     0.041 A 
BRANCH  12  13
ATOM     13  N   UNL A   1      29.931  24.886  24.406  1.00  0.00    -0.322 N 
ATOM     14  C   UNL A   1      29.720  26.225  24.156  1.00  0.00     0.256 C 
ATOM     15  H   UNL A   1      29.123  24.323  24.389  1.00  0.00     0.170 HD
ATOM     16  O   UNL A   1      28.570  26.625  23.971  1.00  0.00    -0.269 OA
BRANCH  14  17
ATOM     17  C   UNL A   1      30.820  27.229  24.103  1.00  0.00     0.048 A 
ATOM     18  C   UNL A   1      31.217  27.557  22.795  1.00  0.00     0.014 A 
ATOM     19  C   UNL A   1      31.473  27.816  25.232  1.00  0.00    -0.006 A 
ATOM     20  C   UNL A   1      32.237  28.474  22.576  1.00  0.00     0.001 A 
ATOM     21  C   UNL A   1      32.496  28.768  24.980  1.00  0.00    -0.018 A 
ATOM     22  C   UNL A   1      31.180  27.545  26.596  1.00  0.00     0.009 A 
ATOM     23  C   UNL A   1      32.869  29.072  23.661  1.00  0.00     0.009 A 
ATOM     24  C   UNL A   1      33.143  29.422  26.043  1.00  0.00     0.009 A 
ATOM     25  C   UNL A   1      31.799  28.240  27.642  1.00  0.00     0.001 A 
ATOM     26  C   UNL A   1      32.783  29.177  27.365  1.00  0.00     0.001 A 
ENDBRANCH  14  17
ENDBRANCH  12  13
ENDBRANCH   6   7
ENDBRANCH   5   6
ENDBRANCH   3   5
ENDBRANCH   2   3
ENDBRANCH   1   2
BRANCH   1  27
ATOM     27  C   UNL A   1      39.460  19.427  25.544  1.00  0.00     0.275 C 
BRANCH  27  28
ATOM     28  O   UNL A   1      40.166  20.646  25.849  1.00  0.00    -0.458 OA
BRANCH  28  29
ATOM     29  C   UNL A   1      40.734  20.725  27.085  1.00  0.00     0.338 C 
ATOM     30  O   UNL A   1      41.164  19.795  27.737  1.00  0.00    -0.246 OA
BRANCH  29  31
ATOM     31  C   UNL A   1      40.966  22.159  27.408  1.00  0.00     0.060 A 
ATOM     32  C   UNL A   1      40.248  23.129  26.694  1.00  0.00     0.016 A 
ATOM     33  C   UNL A   1      41.815  22.552  28.449  1.00  0.00     0.016 A 
ATOM     34  C   UNL A   1      40.393  24.487  27.003  1.00  0.00     0.010 A 
ATOM     35  C   UNL A   1      41.962  23.909  28.754  1.00  0.00     0.010 A 
ATOM     36  C   UNL A   1      41.272  24.888  28.019  1.00  0.00    -0.014 A 
BRANCH  36  37
ATOM     37  C   UNL A   1      41.625  26.321  28.197  1.00  0.00     0.031 A 
ATOM     38  C   UNL A   1      43.009  26.765  27.807  1.00  0.00     0.074 A 
ATOM     39  C   UNL A   1      40.763  27.208  28.728  1.00  0.00     0.049 A 
ATOM     40  N   UNL A   1      43.578  27.935  27.937  1.00  0.00    -0.248 NA
ATOM     41  C   UNL A   1      43.869  25.737  27.202  1.00  0.00     0.031 C 
ATOM     42  C   UNL A   1      39.391  26.917  29.134  1.00  0.00     0.029 A 
ATOM     43  N   UNL A   1      40.930  28.539  29.036  1.00  0.00    -0.354 N 
ATOM     44  C   UNL A   1      44.863  27.786  27.428  1.00  0.00     0.074 A 
ATOM     45  C   UNL A   1      45.000  26.400  27.031  1.00  0.00     0.031 C 
ATOM     46  C   UNL A   1      38.849  28.031  29.663  1.00  0.00     0.029 A 
ATOM     47  C   UNL A   1      39.844  29.103  29.661  1.00  0.00     0.049 A 
ATOM     48  H   UNL A   1      41.752  29.039  28.827  1.00  0.00     0.167 HD
ATOM     49  C   UNL A   1      45.838  28.720  27.291  1.00  0.00     0.034 A 
ATOM     50  C   UNL A   1      39.682  30.333  30.197  1.00  0.00     0.034 A 
ATOM     51  C   UNL A   1      45.706  30.091  27.713  1.00  0.00     0.049 A 
ATOM     52  C   UNL A   1      40.811  31.336  30.118  1.00  0.00     0.074 A 
ATOM     53  C   UNL A   1      46.621  31.122  27.589  1.00  0.00     0.029 A 
ATOM     54  N   UNL A   1      44.599  30.620  28.364  1.00  0.00    -0.354 N 
ATOM     55  N   UNL A   1      42.006  31.198  29.590  1.00  0.00    -0.248 NA
ATOM     56  C   UNL A   1      40.569  32.664  30.704  1.00  0.00     0.031 C 
ATOM     57  C   UNL A   1      46.102  32.250  28.235  1.00  0.00     0.029 A 
ATOM     58  C   UNL A   1      44.828  31.949  28.689  1.00  0.00     0.049 A 
ATOM     59  H   UNL A   1      43.774  30.123  28.567  1.00  0.00     0.167 HD
ATOM     60  C   UNL A   1      42.641  32.430  29.751  1.00  0.00     0.074 A 
ATOM     61  C   UNL A   1      41.699  33.299  30.422  1.00  0.00     0.031 C 
ATOM     62  C   UNL A   1      43.887  32.809  29.367  1.00  0.00     0.034 A 
BRANCH  49  63
ATOM     63  C   UNL A   1      47.150  28.257  26.707  1.00  0.00     0.023 A 
ATOM     64  C   UNL A   1      47.340  28.147  25.318  1.00  0.00     0.031 A 
ATOM     65  C   UNL A   1      48.204  27.866  27.550  1.00  0.00     0.131 A 
ATOM     66  C   UNL A   1      48.520  27.578  24.818  1.00  0.00     0.055 A 
ATOM     67  C   UNL A   1      49.410  27.381  27.042  1.00  0.00     0.041 A 
ATOM     68  F   UNL A   1      48.071  27.926  28.885  1.00  0.00    -0.206 F 
ATOM     69  C   UNL A   1      49.566  27.217  25.669  1.00  0.00     0.022 A 
BRANCH  66  70
ATOM     70  S   UNL A   1      48.595  27.159  23.054  1.00  0.00     0.124 S 
ATOM     71  O   UNL A   1      50.006  27.396  22.755  1.00  0.00    -0.237 OA
ATOM     72  O   UNL A   1      48.164  25.766  23.042  1.00  0.00    -0.237 OA
ATOM     73  O   UNL A   1      47.668  28.106  22.438  1.00  0.00    -0.744 OA
ENDBRANCH  66  70
ENDBRANCH  49  63
BRANCH  50  74
ATOM     74  C   UNL A   1      38.419  30.683  30.911  1.00  0.00     0.023 A 
ATOM     75  C   UNL A   1      37.389  31.392  30.273  1.00  0.00     0.031 A 
ATOM     76  C   UNL A   1      38.255  30.365  32.272  1.00  0.00     0.131 A 
ATOM     77  C   UNL A   1      36.262  31.798  31.005  1.00  0.00     0.055 A 
ATOM     78  C   UNL A   1      37.110  30.728  32.982  1.00  0.00     0.041 A 
ATOM     79  F   UNL A   1      39.211  29.692  32.931  1.00  0.00    -0.206 F 
ATOM     80  C   UNL A   1      36.109  31.460  32.352  1.00  0.00     0.022 A 
BRANCH  77  81
ATOM     81  S   UNL A   1      35.029  32.852  30.191  1.00  0.00     0.124 S 
ATOM     82  O   UNL A   1      34.474  31.942  29.195  1.00  0.00    -0.237 OA
ATOM     83  O   UNL A   1      34.149  33.201  31.301  1.00  0.00    -0.237 OA
ATOM     84  O   UNL A   1      35.824  33.955  29.656  1.00  0.00    -0.744 OA
ENDBRANCH  77  81
ENDBRANCH  50  74
BRANCH  62  85
ATOM     85  C   UNL A   1      44.290  34.244  29.614  1.00  0.00     0.023 A 
ATOM     86  C   UNL A   1      44.018  35.267  28.689  1.00  0.00     0.031 A 
ATOM     87  C   UNL A   1      44.936  34.594  30.815  1.00  0.00     0.131 A 
ATOM     88  C   UNL A   1      44.418  36.584  28.966  1.00  0.00     0.055 A 
ATOM     89  C   UNL A   1      45.285  35.913  31.107  1.00  0.00     0.041 A 
ATOM     90  F   UNL A   1      45.221  33.657  31.733  1.00  0.00    -0.206 F 
ATOM     91  C   UNL A   1      45.034  36.916  30.176  1.00  0.00     0.022 A 
BRANCH  88  92
ATOM     92  S   UNL A   1      44.174  37.860  27.699  1.00  0.00     0.124 S 
ATOM     93  O   UNL A   1      43.033  37.336  26.954  1.00  0.00    -0.237 OA
ATOM     94  O   UNL A   1      43.918  39.054  28.499  1.00  0.00    -0.237 OA
ATOM     95  O   UNL A   1      45.441  37.867  26.968  1.00  0.00    -0.744 OA
ENDBRANCH  88  92
ENDBRANCH  62  85
ENDBRANCH  36  37
ENDBRANCH  29  31
ENDBRANCH  28  29
ENDBRANCH  27  28
ENDBRANCH   1  27
TORSDOF 18
ENDMDL
