MODEL 1
REMARK VINA RESULT:     -13.2      0.000      0.000
REMARK SMILES O=C(OCCOC(=O)c1nnn(-c2cccc(C(F)(F)F)c2)c1[C@H]1COc2ccccc2O1)c1ccc(-c2c3nc(c(-c4cc(S(=O)(=O)[O-])ccc4F)c4ccc([nH]4)c(-c4cc(S(=O)(=O)[O-])ccc4F)c4nc(c(-c5cc(S(=O)(=O)[O-])ccc5F)c5ccc2[nH]5)C=C4)C=C3)cc1
REMARK SMILES IDX 4 1 3 2 2 3 1 4 34 5 35 6 96 7 36 8 95 9 37 10 38 11 39 12
REMARK SMILES IDX 89 13 40 14 94 15 88 16 90 17 41 18 93 19 87 20 86 21 42 23
REMARK SMILES IDX 74 24 54 25 73 26 55 27 58 28 72 29 91 30 56 31 57 32 71 34
REMARK SMILES IDX 92 35 59 36 43 37 44 38 52 39 45 40 51 41 53 42 50 43 46 44
REMARK SMILES IDX 47 45 48 46 49 47 75 48 76 49 84 50 77 51 83 52 85 53 82 54
REMARK SMILES IDX 78 55 79 56 80 57 81 58 60 59 61 60 69 61 62 62 68 63 70 64
REMARK SMILES IDX 67 65 63 66 64 67 65 68 66 69 5 70 6 71 7 72 8 73 9 74 10 75
REMARK SMILES IDX 23 76 11 77 12 78 24 79 25 80 33 81 26 82 32 83 27 84 31 85
REMARK SMILES IDX 28 86 30 87 29 88 13 89 14 90 22 91 15 92 17 93 16 94 18 95
REMARK SMILES IDX 19 96 20 97 21 98
REMARK H PARENT 90 22 58 33
REMARK Flexibility Score: inf
ROOT
ATOM      1  C   UNL A   1      33.387  31.064  27.247  1.00  0.00     0.275 C 
ENDROOT
BRANCH   1   2
ATOM      2  O   UNL A   1      34.356  31.228  28.300  1.00  0.00    -0.458 OA
BRANCH   2   3
ATOM      3  C   UNL A   1      35.533  31.822  28.016  1.00  0.00     0.338 C 
ATOM      4  O   UNL A   1      35.628  32.951  27.548  1.00  0.00    -0.246 OA
BRANCH   3   5
ATOM      5  C   UNL A   1      36.688  31.051  28.522  1.00  0.00     0.060 A 
ATOM      6  C   UNL A   1      37.817  31.672  29.069  1.00  0.00     0.016 A 
ATOM      7  C   UNL A   1      36.636  29.656  28.404  1.00  0.00     0.016 A 
ATOM      8  C   UNL A   1      38.933  30.918  29.387  1.00  0.00     0.010 A 
ATOM      9  C   UNL A   1      37.755  28.901  28.715  1.00  0.00     0.010 A 
ATOM     10  C   UNL A   1      38.913  29.543  29.159  1.00  0.00    -0.014 A 
BRANCH  10  11
ATOM     11  C   UNL A   1      40.115  28.784  29.469  1.00  0.00     0.031 A 
ATOM     12  C   UNL A   1      40.438  28.688  30.917  1.00  0.00     0.074 A 
ATOM     13  C   UNL A   1      40.808  28.118  28.526  1.00  0.00     0.049 A 
ATOM     14  N   UNL A   1      41.476  29.145  31.535  1.00  0.00    -0.248 NA
ATOM     15  C   UNL A   1      39.419  28.117  31.811  1.00  0.00     0.031 C 
ATOM     16  C   UNL A   1      40.442  27.916  27.123  1.00  0.00     0.029 A 
ATOM     17  N   UNL A   1      41.941  27.372  28.657  1.00  0.00    -0.354 N 
ATOM     18  C   UNL A   1      41.356  28.725  32.858  1.00  0.00     0.074 A 
ATOM     19  C   UNL A   1      40.003  28.256  33.002  1.00  0.00     0.031 C 
ATOM     20  C   UNL A   1      41.193  26.917  26.607  1.00  0.00     0.029 A 
ATOM     21  C   UNL A   1      42.175  26.501  27.597  1.00  0.00     0.049 A 
ATOM     22  H   UNL A   1      42.542  27.443  29.434  1.00  0.00     0.167 HD
ATOM     23  C   UNL A   1      42.445  28.600  33.667  1.00  0.00     0.034 A 
ATOM     24  C   UNL A   1      43.055  25.463  27.566  1.00  0.00     0.034 A 
ATOM     25  C   UNL A   1      43.579  29.312  33.128  1.00  0.00     0.049 A 
ATOM     26  C   UNL A   1      44.075  25.728  28.612  1.00  0.00     0.074 A 
ATOM     27  C   UNL A   1      43.831  30.630  32.802  1.00  0.00     0.029 A 
ATOM     28  N   UNL A   1      44.565  28.584  32.501  1.00  0.00    -0.354 N 
ATOM     29  N   UNL A   1      44.914  26.726  28.557  1.00  0.00    -0.248 NA
ATOM     30  C   UNL A   1      43.847  25.190  29.946  1.00  0.00     0.031 C 
ATOM     31  C   UNL A   1      44.603  30.568  31.605  1.00  0.00     0.029 A 
ATOM     32  C   UNL A   1      44.845  29.222  31.319  1.00  0.00     0.049 A 
ATOM     33  H   UNL A   1      44.991  27.762  32.837  1.00  0.00     0.167 HD
ATOM     34  C   UNL A   1      44.969  27.222  29.851  1.00  0.00     0.074 A 
ATOM     35  C   UNL A   1      44.372  26.176  30.680  1.00  0.00     0.031 C 
ATOM     36  C   UNL A   1      45.226  28.541  30.097  1.00  0.00     0.034 A 
BRANCH  23  37
ATOM     37  C   UNL A   1      42.608  27.561  34.756  1.00  0.00     0.023 A 
ATOM     38  C   UNL A   1      43.371  26.418  34.448  1.00  0.00     0.031 A 
ATOM     39  C   UNL A   1      41.830  27.479  35.932  1.00  0.00     0.131 A 
ATOM     40  C   UNL A   1      43.253  25.240  35.207  1.00  0.00     0.055 A 
ATOM     41  C   UNL A   1      41.770  26.328  36.726  1.00  0.00     0.041 A 
ATOM     42  F   UNL A   1      41.013  28.460  36.332  1.00  0.00    -0.206 F 
ATOM     43  C   UNL A   1      42.455  25.188  36.345  1.00  0.00     0.022 A 
BRANCH  40  44
ATOM     44  S   UNL A   1      44.013  23.726  34.565  1.00  0.00     0.124 S 
ATOM     45  O   UNL A   1      44.833  24.248  33.478  1.00  0.00    -0.237 OA
ATOM     46  O   UNL A   1      44.731  23.232  35.736  1.00  0.00    -0.237 OA
ATOM     47  O   UNL A   1      42.865  22.922  34.153  1.00  0.00    -0.744 OA
ENDBRANCH  40  44
ENDBRANCH  23  37
BRANCH  24  48
ATOM     48  C   UNL A   1      42.841  24.129  26.933  1.00  0.00     0.023 A 
ATOM     49  C   UNL A   1      43.771  23.532  26.055  1.00  0.00     0.031 A 
ATOM     50  C   UNL A   1      41.783  23.307  27.384  1.00  0.00     0.131 A 
ATOM     51  C   UNL A   1      43.614  22.179  25.661  1.00  0.00     0.055 A 
ATOM     52  C   UNL A   1      41.628  21.977  26.988  1.00  0.00     0.041 A 
ATOM     53  F   UNL A   1      40.903  23.744  28.299  1.00  0.00    -0.206 F 
ATOM     54  C   UNL A   1      42.550  21.404  26.129  1.00  0.00     0.022 A 
BRANCH  51  55
ATOM     55  S   UNL A   1      44.852  21.369  24.594  1.00  0.00     0.124 S 
ATOM     56  O   UNL A   1      46.087  21.569  25.342  1.00  0.00    -0.237 OA
ATOM     57  O   UNL A   1      44.353  20.001  24.517  1.00  0.00    -0.237 OA
ATOM     58  O   UNL A   1      44.767  22.119  23.339  1.00  0.00    -0.744 OA
ENDBRANCH  51  55
ENDBRANCH  24  48
BRANCH  36  59
ATOM     59  C   UNL A   1      45.732  29.409  28.963  1.00  0.00     0.023 A 
ATOM     60  C   UNL A   1      44.962  30.382  28.284  1.00  0.00     0.031 A 
ATOM     61  C   UNL A   1      47.102  29.332  28.658  1.00  0.00     0.131 A 
ATOM     62  C   UNL A   1      45.573  31.224  27.334  1.00  0.00     0.055 A 
ATOM     63  C   UNL A   1      47.707  30.182  27.732  1.00  0.00     0.041 A 
ATOM     64  F   UNL A   1      47.893  28.450  29.291  1.00  0.00    -0.206 F 
ATOM     65  C   UNL A   1      46.942  31.129  27.063  1.00  0.00     0.022 A 
BRANCH  62  66
ATOM     66  S   UNL A   1      44.596  32.464  26.422  1.00  0.00     0.124 S 
ATOM     67  O   UNL A   1      43.572  31.669  25.755  1.00  0.00    -0.237 OA
ATOM     68  O   UNL A   1      44.131  33.346  27.488  1.00  0.00    -0.237 OA
ATOM     69  O   UNL A   1      45.577  33.071  25.520  1.00  0.00    -0.744 OA
ENDBRANCH  62  66
ENDBRANCH  36  59
ENDBRANCH  10  11
ENDBRANCH   3   5
ENDBRANCH   2   3
ENDBRANCH   1   2
BRANCH   1  70
ATOM     70  C   UNL A   1      33.460  29.777  26.432  1.00  0.00     0.275 C 
BRANCH  70  71
ATOM     71  O   UNL A   1      33.222  28.628  27.263  1.00  0.00    -0.457 OA
BRANCH  71  72
ATOM     72  C   UNL A   1      32.110  27.895  26.978  1.00  0.00     0.361 C 
ATOM     73  O   UNL A   1      31.262  27.535  27.808  1.00  0.00    -0.244 OA
BRANCH  72  74
ATOM     74  C   UNL A   1      32.103  27.429  25.612  1.00  0.00     0.198 A 
ATOM     75  N   UNL A   1      31.357  27.960  24.592  1.00  0.00    -0.122 NA
ATOM     76  C   UNL A   1      32.842  26.364  25.125  1.00  0.00     0.123 A 
ATOM     77  N   UNL A   1      31.603  27.255  23.489  1.00  0.00    -0.061 NA
ATOM     78  N   UNL A   1      32.370  26.205  23.844  1.00  0.00    -0.213 N 
BRANCH  76  79
ATOM     79  C   UNL A   1      33.934  25.555  25.732  1.00  0.00     0.262 C 
ATOM     80  C   UNL A   1      33.362  24.351  26.490  1.00  0.00     0.281 C 
ATOM     81  O   UNL A   1      34.778  25.178  24.639  1.00  0.00    -0.477 OA
ATOM     82  O   UNL A   1      34.413  23.501  26.964  1.00  0.00    -0.485 OA
ATOM     83  C   UNL A   1      35.403  23.977  24.803  1.00  0.00     0.162 A 
ATOM     84  C   UNL A   1      35.241  23.167  25.926  1.00  0.00     0.161 A 
ATOM     85  C   UNL A   1      36.216  23.563  23.750  1.00  0.00     0.050 A 
ATOM     86  C   UNL A   1      35.928  21.961  26.019  1.00  0.00     0.050 A 
ATOM     87  C   UNL A   1      36.873  22.337  23.823  1.00  0.00     0.004 A 
ATOM     88  C   UNL A   1      36.738  21.541  24.961  1.00  0.00     0.004 A 
ENDBRANCH  76  79
BRANCH  78  89
ATOM     89  C   UNL A   1      32.472  25.049  23.053  1.00  0.00     0.067 A 
ATOM     90  C   UNL A   1      32.804  25.141  21.705  1.00  0.00     0.028 A 
ATOM     91  C   UNL A   1      32.304  23.805  23.678  1.00  0.00     0.041 A 
ATOM     92  C   UNL A   1      33.060  23.962  21.002  1.00  0.00     0.003 A 
ATOM     93  C   UNL A   1      32.529  22.623  22.971  1.00  0.00     0.058 A 
ATOM     94  C   UNL A   1      32.933  22.714  21.631  1.00  0.00     0.013 A 
BRANCH  93  95
ATOM     95  C   UNL A   1      32.364  21.286  23.650  1.00  0.00     0.416 C 
ATOM     96  F   UNL A   1      33.540  20.772  24.101  1.00  0.00    -0.166 F 
ATOM     97  F   UNL A   1      31.541  21.350  24.733  1.00  0.00    -0.166 F 
ATOM     98  F   UNL A   1      31.828  20.329  22.838  1.00  0.00    -0.166 F 
ENDBRANCH  93  95
ENDBRANCH  78  89
ENDBRANCH  72  74
ENDBRANCH  71  72
ENDBRANCH  70  71
ENDBRANCH   1  70
TORSDOF 17
ENDMDL
MODEL 2
REMARK VINA RESULT:     -12.9      3.434      8.792
REMARK SMILES O=C(OCCOC(=O)c1nnn(-c2cccc(C(F)(F)F)c2)c1[C@H]1COc2ccccc2O1)c1ccc(-c2c3nc(c(-c4cc(S(=O)(=O)[O-])ccc4F)c4ccc([nH]4)c(-c4cc(S(=O)(=O)[O-])ccc4F)c4nc(c(-c5cc(S(=O)(=O)[O-])ccc5F)c5ccc2[nH]5)C=C4)C=C3)cc1
REMARK SMILES IDX 4 1 3 2 2 3 1 4 34 5 35 6 96 7 36 8 95 9 37 10 38 11 39 12
REMARK SMILES IDX 89 13 40 14 94 15 88 16 90 17 41 18 93 19 87 20 86 21 42 23
REMARK SMILES IDX 74 24 54 25 73 26 55 27 58 28 72 29 91 30 56 31 57 32 71 34
REMARK SMILES IDX 92 35 59 36 43 37 44 38 52 39 45 40 51 41 53 42 50 43 46 44
REMARK SMILES IDX 47 45 48 46 49 47 75 48 76 49 84 50 77 51 83 52 85 53 82 54
REMARK SMILES IDX 78 55 79 56 80 57 81 58 60 59 61 60 69 61 62 62 68 63 70 64
REMARK SMILES IDX 67 65 63 66 64 67 65 68 66 69 5 70 6 71 7 72 8 73 9 74 10 75
REMARK SMILES IDX 23 76 11 77 12 78 24 79 25 80 33 81 26 82 32 83 27 84 31 85
REMARK SMILES IDX 28 86 30 87 29 88 13 89 14 90 22 91 15 92 17 93 16 94 18 95
REMARK SMILES IDX 19 96 20 97 21 98
REMARK H PARENT 90 22 58 33
REMARK Flexibility Score: inf
ROOT
ATOM      1  C   UNL A   1      38.280  21.875  25.856  1.00  0.00     0.275 C 
ENDROOT
BRANCH   1   2
ATOM      2  O   UNL A   1      39.511  22.606  26.011  1.00  0.00    -0.458 OA
BRANCH   2   3
ATOM      3  C   UNL A   1      40.055  22.713  27.240  1.00  0.00     0.338 C 
ATOM      4  O   UNL A   1      40.442  21.752  27.897  1.00  0.00    -0.246 OA
BRANCH   3   5
ATOM      5  C   UNL A   1      40.322  24.117  27.615  1.00  0.00     0.060 A 
ATOM      6  C   UNL A   1      41.545  24.522  28.165  1.00  0.00     0.016 A 
ATOM      7  C   UNL A   1      39.288  25.043  27.436  1.00  0.00     0.016 A 
ATOM      8  C   UNL A   1      41.693  25.813  28.641  1.00  0.00     0.010 A 
ATOM      9  C   UNL A   1      39.432  26.333  27.919  1.00  0.00     0.010 A 
ATOM     10  C   UNL A   1      40.617  26.695  28.562  1.00  0.00    -0.014 A 
BRANCH  10  11
ATOM     11  C   UNL A   1      40.794  28.033  29.105  1.00  0.00     0.031 A 
ATOM     12  C   UNL A   1      41.892  28.820  28.485  1.00  0.00     0.074 A 
ATOM     13  C   UNL A   1      39.947  28.560  30.010  1.00  0.00     0.049 A 
ATOM     14  N   UNL A   1      42.966  29.268  29.044  1.00  0.00    -0.248 NA
ATOM     15  C   UNL A   1      41.848  29.032  27.030  1.00  0.00     0.031 C 
ATOM     16  C   UNL A   1      38.686  27.990  30.492  1.00  0.00     0.029 A 
ATOM     17  N   UNL A   1      39.978  29.784  30.607  1.00  0.00    -0.354 N 
ATOM     18  C   UNL A   1      43.629  30.013  28.070  1.00  0.00     0.074 A 
ATOM     19  C   UNL A   1      42.991  29.687  26.823  1.00  0.00     0.031 C 
ATOM     20  C   UNL A   1      37.968  28.958  31.106  1.00  0.00     0.029 A 
ATOM     21  C   UNL A   1      38.768  30.172  31.174  1.00  0.00     0.049 A 
ATOM     22  H   UNL A   1      40.786  30.346  30.636  1.00  0.00     0.167 HD
ATOM     23  C   UNL A   1      44.509  30.999  28.403  1.00  0.00     0.034 A 
ATOM     24  C   UNL A   1      38.419  31.419  31.594  1.00  0.00     0.034 A 
ATOM     25  C   UNL A   1      44.933  30.876  29.778  1.00  0.00     0.049 A 
ATOM     26  C   UNL A   1      39.681  32.162  31.839  1.00  0.00     0.074 A 
ATOM     27  C   UNL A   1      45.576  29.897  30.510  1.00  0.00     0.029 A 
ATOM     28  N   UNL A   1      44.377  31.725  30.709  1.00  0.00    -0.354 N 
ATOM     29  N   UNL A   1      40.527  31.843  32.781  1.00  0.00    -0.248 NA
ATOM     30  C   UNL A   1      40.243  32.941  30.745  1.00  0.00     0.031 C 
ATOM     31  C   UNL A   1      44.937  29.916  31.785  1.00  0.00     0.029 A 
ATOM     32  C   UNL A   1      44.003  30.955  31.781  1.00  0.00     0.049 A 
ATOM     33  H   UNL A   1      44.270  32.700  30.622  1.00  0.00     0.167 HD
ATOM     34  C   UNL A   1      41.779  31.982  32.201  1.00  0.00     0.074 A 
ATOM     35  C   UNL A   1      41.546  32.756  30.982  1.00  0.00     0.031 C 
ATOM     36  C   UNL A   1      42.838  31.219  32.604  1.00  0.00     0.034 A 
BRANCH  23  37
ATOM     37  C   UNL A   1      44.726  32.276  27.620  1.00  0.00     0.023 A 
ATOM     38  C   UNL A   1      44.083  33.438  28.090  1.00  0.00     0.031 A 
ATOM     39  C   UNL A   1      45.253  32.354  26.312  1.00  0.00     0.131 A 
ATOM     40  C   UNL A   1      43.882  34.546  27.248  1.00  0.00     0.055 A 
ATOM     41  C   UNL A   1      45.112  33.486  25.502  1.00  0.00     0.041 A 
ATOM     42  F   UNL A   1      45.846  31.319  25.705  1.00  0.00    -0.206 F 
ATOM     43  C   UNL A   1      44.392  34.577  25.955  1.00  0.00     0.022 A 
BRANCH  40  44
ATOM     44  S   UNL A   1      42.774  35.864  27.815  1.00  0.00     0.124 S 
ATOM     45  O   UNL A   1      41.647  35.097  28.331  1.00  0.00    -0.237 OA
ATOM     46  O   UNL A   1      43.601  36.543  28.807  1.00  0.00    -0.237 OA
ATOM     47  O   UNL A   1      42.508  36.627  26.598  1.00  0.00    -0.744 OA
ENDBRANCH  40  44
ENDBRANCH  23  37
BRANCH  24  48
ATOM     48  C   UNL A   1      37.086  32.072  31.445  1.00  0.00     0.023 A 
ATOM     49  C   UNL A   1      36.504  32.364  30.192  1.00  0.00     0.031 A 
ATOM     50  C   UNL A   1      36.249  32.211  32.575  1.00  0.00     0.131 A 
ATOM     51  C   UNL A   1      35.152  32.781  30.113  1.00  0.00     0.055 A 
ATOM     52  C   UNL A   1      34.919  32.629  32.493  1.00  0.00     0.041 A 
ATOM     53  F   UNL A   1      36.670  31.860  33.801  1.00  0.00    -0.206 F 
ATOM     54  C   UNL A   1      34.362  32.909  31.257  1.00  0.00     0.022 A 
BRANCH  51  55
ATOM     55  S   UNL A   1      34.363  33.082  28.496  1.00  0.00     0.124 S 
ATOM     56  O   UNL A   1      33.367  34.097  28.818  1.00  0.00    -0.237 OA
ATOM     57  O   UNL A   1      35.488  33.514  27.673  1.00  0.00    -0.237 OA
ATOM     58  O   UNL A   1      33.812  31.774  28.135  1.00  0.00    -0.744 OA
ENDBRANCH  51  55
ENDBRANCH  24  48
BRANCH  36  59
ATOM     59  C   UNL A   1      42.713  30.416  33.883  1.00  0.00     0.023 A 
ATOM     60  C   UNL A   1      42.219  29.093  33.962  1.00  0.00     0.031 A 
ATOM     61  C   UNL A   1      43.253  30.982  35.052  1.00  0.00     0.131 A 
ATOM     62  C   UNL A   1      42.271  28.396  35.186  1.00  0.00     0.055 A 
ATOM     63  C   UNL A   1      43.322  30.280  36.254  1.00  0.00     0.041 A 
ATOM     64  F   UNL A   1      43.768  32.222  35.033  1.00  0.00    -0.206 F 
ATOM     65  C   UNL A   1      42.825  28.984  36.327  1.00  0.00     0.022 A 
BRANCH  62  66
ATOM     66  S   UNL A   1      41.610  26.702  35.322  1.00  0.00     0.124 S 
ATOM     67  O   UNL A   1      42.762  25.860  35.022  1.00  0.00    -0.237 OA
ATOM     68  O   UNL A   1      41.128  26.662  36.700  1.00  0.00    -0.237 OA
ATOM     69  O   UNL A   1      40.552  26.669  34.310  1.00  0.00    -0.744 OA
ENDBRANCH  62  66
ENDBRANCH  36  59
ENDBRANCH  10  11
ENDBRANCH   3   5
ENDBRANCH   2   3
ENDBRANCH   1   2
BRANCH   1  70
ATOM     70  C   UNL A   1      37.413  22.225  24.651  1.00  0.00     0.275 C 
BRANCH  70  71
ATOM     71  O   UNL A   1      36.084  21.698  24.804  1.00  0.00    -0.457 OA
BRANCH  71  72
ATOM     72  C   UNL A   1      35.334  22.231  25.809  1.00  0.00     0.361 C 
ATOM     73  O   UNL A   1      35.081  21.669  26.885  1.00  0.00    -0.244 OA
BRANCH  72  74
ATOM     74  C   UNL A   1      34.713  23.474  25.420  1.00  0.00     0.198 A 
ATOM     75  N   UNL A   1      35.226  24.726  25.643  1.00  0.00    -0.122 NA
ATOM     76  C   UNL A   1      33.495  23.594  24.773  1.00  0.00     0.123 A 
ATOM     77  N   UNL A   1      34.364  25.619  25.161  1.00  0.00    -0.061 NA
ATOM     78  N   UNL A   1      33.257  24.948  24.783  1.00  0.00    -0.213 N 
BRANCH  76  79
ATOM     79  C   UNL A   1      32.605  22.583  24.139  1.00  0.00     0.262 C 
ATOM     80  C   UNL A   1      32.978  22.379  22.665  1.00  0.00     0.281 C 
ATOM     81  O   UNL A   1      32.762  21.396  24.923  1.00  0.00    -0.477 OA
ATOM     82  O   UNL A   1      32.212  21.316  22.088  1.00  0.00    -0.485 OA
ATOM     83  C   UNL A   1      32.609  20.237  24.221  1.00  0.00     0.162 A 
ATOM     84  C   UNL A   1      32.333  20.189  22.855  1.00  0.00     0.161 A 
ATOM     85  C   UNL A   1      32.776  19.058  24.945  1.00  0.00     0.050 A 
ATOM     86  C   UNL A   1      32.178  18.962  22.219  1.00  0.00     0.050 A 
ATOM     87  C   UNL A   1      32.663  17.828  24.302  1.00  0.00     0.004 A 
ATOM     88  C   UNL A   1      32.353  17.780  22.942  1.00  0.00     0.004 A 
ENDBRANCH  76  79
BRANCH  78  89
ATOM     89  C   UNL A   1      32.012  25.579  24.628  1.00  0.00     0.067 A 
ATOM     90  C   UNL A   1      30.881  25.079  25.265  1.00  0.00     0.028 A 
ATOM     91  C   UNL A   1      31.962  26.763  23.877  1.00  0.00     0.041 A 
ATOM     92  C   UNL A   1      29.706  25.831  25.220  1.00  0.00     0.003 A 
ATOM     93  C   UNL A   1      30.781  27.503  23.804  1.00  0.00     0.058 A 
ATOM     94  C   UNL A   1      29.657  27.037  24.504  1.00  0.00     0.013 A 
BRANCH  93  95
ATOM     95  C   UNL A   1      30.733  28.784  23.010  1.00  0.00     0.416 C 
ATOM     96  F   UNL A   1      31.922  29.087  22.421  1.00  0.00    -0.166 F 
ATOM     97  F   UNL A   1      29.815  28.740  22.005  1.00  0.00    -0.166 F 
ATOM     98  F   UNL A   1      30.401  29.874  23.761  1.00  0.00    -0.166 F 
ENDBRANCH  93  95
ENDBRANCH  78  89
ENDBRANCH  72  74
ENDBRANCH  71  72
ENDBRANCH  70  71
ENDBRANCH   1  70
TORSDOF 17
ENDMDL
MODEL 3
REMARK VINA RESULT:     -12.9      1.581      2.108
REMARK SMILES O=C(OCCOC(=O)c1nnn(-c2cccc(C(F)(F)F)c2)c1[C@H]1COc2ccccc2O1)c1ccc(-c2c3nc(c(-c4cc(S(=O)(=O)[O-])ccc4F)c4ccc([nH]4)c(-c4cc(S(=O)(=O)[O-])ccc4F)c4nc(c(-c5cc(S(=O)(=O)[O-])ccc5F)c5ccc2[nH]5)C=C4)C=C3)cc1
REMARK SMILES IDX 4 1 3 2 2 3 1 4 34 5 35 6 96 7 36 8 95 9 37 10 38 11 39 12
REMARK SMILES IDX 89 13 40 14 94 15 88 16 90 17 41 18 93 19 87 20 86 21 42 23
REMARK SMILES IDX 74 24 54 25 73 26 55 27 58 28 72 29 91 30 56 31 57 32 71 34
REMARK SMILES IDX 92 35 59 36 43 37 44 38 52 39 45 40 51 41 53 42 50 43 46 44
REMARK SMILES IDX 47 45 48 46 49 47 75 48 76 49 84 50 77 51 83 52 85 53 82 54
REMARK SMILES IDX 78 55 79 56 80 57 81 58 60 59 61 60 69 61 62 62 68 63 70 64
REMARK SMILES IDX 67 65 63 66 64 67 65 68 66 69 5 70 6 71 7 72 8 73 9 74 10 75
REMARK SMILES IDX 23 76 11 77 12 78 24 79 25 80 33 81 26 82 32 83 27 84 31 85
REMARK SMILES IDX 28 86 30 87 29 88 13 89 14 90 22 91 15 92 17 93 16 94 18 95
REMARK SMILES IDX 19 96 20 97 21 98
REMARK H PARENT 90 22 58 33
REMARK Flexibility Score: inf
ROOT
ATOM      1  C   UNL A   1      32.585  30.602  26.695  1.00  0.00     0.275 C 
ENDROOT
BRANCH   1   2
ATOM      2  O   UNL A   1      33.969  30.332  26.988  1.00  0.00    -0.458 OA
BRANCH   2   3
ATOM      3  C   UNL A   1      34.685  31.255  27.662  1.00  0.00     0.338 C 
ATOM      4  O   UNL A   1      34.259  32.370  27.945  1.00  0.00    -0.246 OA
BRANCH   3   5
ATOM      5  C   UNL A   1      35.947  30.705  28.197  1.00  0.00     0.060 A 
ATOM      6  C   UNL A   1      37.042  31.520  28.512  1.00  0.00     0.016 A 
ATOM      7  C   UNL A   1      36.034  29.317  28.353  1.00  0.00     0.016 A 
ATOM      8  C   UNL A   1      38.251  30.947  28.864  1.00  0.00     0.010 A 
ATOM      9  C   UNL A   1      37.246  28.740  28.698  1.00  0.00     0.010 A 
ATOM     10  C   UNL A   1      38.359  29.558  28.904  1.00  0.00    -0.014 A 
BRANCH  10  11
ATOM     11  C   UNL A   1      39.653  28.986  29.242  1.00  0.00     0.031 A 
ATOM     12  C   UNL A   1      39.959  28.946  30.696  1.00  0.00     0.074 A 
ATOM     13  C   UNL A   1      40.455  28.423  28.317  1.00  0.00     0.049 A 
ATOM     14  N   UNL A   1      40.907  29.554  31.329  1.00  0.00    -0.248 NA
ATOM     15  C   UNL A   1      39.019  28.237  31.577  1.00  0.00     0.031 C 
ATOM     16  C   UNL A   1      40.148  28.161  26.909  1.00  0.00     0.029 A 
ATOM     17  N   UNL A   1      41.682  27.852  28.475  1.00  0.00    -0.354 N 
ATOM     18  C   UNL A   1      40.825  29.128  32.653  1.00  0.00     0.074 A 
ATOM     19  C   UNL A   1      39.554  28.467  32.777  1.00  0.00     0.031 C 
ATOM     20  C   UNL A   1      41.048  27.281  26.415  1.00  0.00     0.029 A 
ATOM     21  C   UNL A   1      42.061  27.020  27.426  1.00  0.00     0.049 A 
ATOM     22  H   UNL A   1      42.251  28.015  29.261  1.00  0.00     0.167 HD
ATOM     23  C   UNL A   1      41.905  29.169  33.483  1.00  0.00     0.034 A 
ATOM     24  C   UNL A   1      43.084  26.122  27.419  1.00  0.00     0.034 A 
ATOM     25  C   UNL A   1      42.933  30.036  32.958  1.00  0.00     0.049 A 
ATOM     26  C   UNL A   1      44.035  26.539  28.481  1.00  0.00     0.074 A 
ATOM     27  C   UNL A   1      42.994  31.376  32.625  1.00  0.00     0.029 A 
ATOM     28  N   UNL A   1      44.027  29.458  32.354  1.00  0.00    -0.354 N 
ATOM     29  N   UNL A   1      44.718  27.649  28.432  1.00  0.00    -0.248 NA
ATOM     30  C   UNL A   1      43.862  25.981  29.815  1.00  0.00     0.031 C 
ATOM     31  C   UNL A   1      43.790  31.421  31.443  1.00  0.00     0.029 A 
ATOM     32  C   UNL A   1      44.232  30.124  31.173  1.00  0.00     0.049 A 
ATOM     33  H   UNL A   1      44.562  28.709  32.705  1.00  0.00     0.167 HD
ATOM     34  C   UNL A   1      44.676  28.155  29.723  1.00  0.00     0.074 A 
ATOM     35  C   UNL A   1      44.223  27.037  30.551  1.00  0.00     0.031 C 
ATOM     36  C   UNL A   1      44.732  29.499  29.963  1.00  0.00     0.034 A 
BRANCH  23  37
ATOM     37  C   UNL A   1      42.198  28.171  34.583  1.00  0.00     0.023 A 
ATOM     38  C   UNL A   1      42.972  27.044  34.242  1.00  0.00     0.031 A 
ATOM     39  C   UNL A   1      41.528  28.101  35.824  1.00  0.00     0.131 A 
ATOM     40  C   UNL A   1      42.962  25.888  35.042  1.00  0.00     0.055 A 
ATOM     41  C   UNL A   1      41.579  26.975  36.653  1.00  0.00     0.041 A 
ATOM     42  F   UNL A   1      40.716  29.068  36.265  1.00  0.00    -0.206 F 
ATOM     43  C   UNL A   1      42.267  25.846  36.247  1.00  0.00     0.022 A 
BRANCH  40  44
ATOM     44  S   UNL A   1      43.715  24.379  34.380  1.00  0.00     0.124 S 
ATOM     45  O   UNL A   1      42.653  23.403  34.594  1.00  0.00    -0.237 OA
ATOM     46  O   UNL A   1      43.975  24.758  32.995  1.00  0.00    -0.237 OA
ATOM     47  O   UNL A   1      44.904  24.203  35.212  1.00  0.00    -0.744 OA
ENDBRANCH  40  44
ENDBRANCH  23  37
BRANCH  24  48
ATOM     48  C   UNL A   1      43.080  24.768  26.793  1.00  0.00     0.023 A 
ATOM     49  C   UNL A   1      44.017  24.364  25.816  1.00  0.00     0.031 A 
ATOM     50  C   UNL A   1      42.263  23.751  27.339  1.00  0.00     0.131 A 
ATOM     51  C   UNL A   1      44.096  23.005  25.423  1.00  0.00     0.055 A 
ATOM     52  C   UNL A   1      42.340  22.415  26.943  1.00  0.00     0.041 A 
ATOM     53  F   UNL A   1      41.412  24.008  28.346  1.00  0.00    -0.206 F 
ATOM     54  C   UNL A   1      43.265  22.034  25.986  1.00  0.00     0.022 A 
BRANCH  51  55
ATOM     55  S   UNL A   1      45.356  22.455  24.223  1.00  0.00     0.124 S 
ATOM     56  O   UNL A   1      46.022  23.704  23.875  1.00  0.00    -0.237 OA
ATOM     57  O   UNL A   1      46.135  21.499  25.002  1.00  0.00    -0.237 OA
ATOM     58  O   UNL A   1      44.565  21.860  23.144  1.00  0.00    -0.744 OA
ENDBRANCH  51  55
ENDBRANCH  24  48
BRANCH  36  59
ATOM     59  C   UNL A   1      45.126  30.426  28.831  1.00  0.00     0.023 A 
ATOM     60  C   UNL A   1      46.453  30.807  28.524  1.00  0.00     0.031 A 
ATOM     61  C   UNL A   1      44.111  30.824  27.943  1.00  0.00     0.131 A 
ATOM     62  C   UNL A   1      46.716  31.568  27.368  1.00  0.00     0.055 A 
ATOM     63  C   UNL A   1      44.379  31.559  26.790  1.00  0.00     0.041 A 
ATOM     64  F   UNL A   1      42.836  30.466  28.162  1.00  0.00    -0.206 F 
ATOM     65  C   UNL A   1      45.684  31.938  26.500  1.00  0.00     0.022 A 
BRANCH  62  66
ATOM     66  S   UNL A   1      48.413  32.101  26.968  1.00  0.00     0.124 S 
ATOM     67  O   UNL A   1      48.220  33.112  25.935  1.00  0.00    -0.237 OA
ATOM     68  O   UNL A   1      48.903  32.585  28.256  1.00  0.00    -0.237 OA
ATOM     69  O   UNL A   1      49.054  30.869  26.501  1.00  0.00    -0.744 OA
ENDBRANCH  62  66
ENDBRANCH  36  59
ENDBRANCH  10  11
ENDBRANCH   3   5
ENDBRANCH   2   3
ENDBRANCH   1   2
BRANCH   1  70
ATOM     70  C   UNL A   1      31.786  29.484  26.032  1.00  0.00     0.275 C 
BRANCH  70  71
ATOM     71  O   UNL A   1      31.524  29.790  24.651  1.00  0.00    -0.457 OA
BRANCH  71  72
ATOM     72  C   UNL A   1      32.088  28.960  23.730  1.00  0.00     0.361 C 
ATOM     73  O   UNL A   1      32.899  29.309  22.859  1.00  0.00    -0.244 OA
BRANCH  72  74
ATOM     74  C   UNL A   1      31.510  27.638  23.766  1.00  0.00     0.198 A 
ATOM     75  N   UNL A   1      30.220  27.322  23.424  1.00  0.00    -0.122 NA
ATOM     76  C   UNL A   1      32.166  26.487  24.165  1.00  0.00     0.123 A 
ATOM     77  N   UNL A   1      30.053  26.014  23.605  1.00  0.00    -0.061 NA
ATOM     78  N   UNL A   1      31.169  25.542  24.196  1.00  0.00    -0.213 N 
BRANCH  76  79
ATOM     79  C   UNL A   1      33.600  26.215  24.461  1.00  0.00     0.262 C 
ATOM     80  C   UNL A   1      33.780  25.775  25.920  1.00  0.00     0.281 C 
ATOM     81  O   UNL A   1      33.997  25.211  23.522  1.00  0.00    -0.477 OA
ATOM     82  O   UNL A   1      35.135  25.389  26.172  1.00  0.00    -0.485 OA
ATOM     83  C   UNL A   1      34.966  24.368  23.980  1.00  0.00     0.162 A 
ATOM     84  C   UNL A   1      35.529  24.453  25.253  1.00  0.00     0.161 A 
ATOM     85  C   UNL A   1      35.365  23.362  23.103  1.00  0.00     0.050 A 
ATOM     86  C   UNL A   1      36.524  23.560  25.636  1.00  0.00     0.050 A 
ATOM     87  C   UNL A   1      36.332  22.441  23.498  1.00  0.00     0.004 A 
ATOM     88  C   UNL A   1      36.919  22.546  24.760  1.00  0.00     0.004 A 
ENDBRANCH  76  79
BRANCH  78  89
ATOM     89  C   UNL A   1      31.189  24.329  24.903  1.00  0.00     0.067 A 
ATOM     90  C   UNL A   1      30.536  24.212  26.126  1.00  0.00     0.028 A 
ATOM     91  C   UNL A   1      31.820  23.228  24.307  1.00  0.00     0.041 A 
ATOM     92  C   UNL A   1      30.439  22.947  26.709  1.00  0.00     0.003 A 
ATOM     93  C   UNL A   1      31.752  21.967  24.901  1.00  0.00     0.058 A 
ATOM     94  C   UNL A   1      31.033  21.832  26.099  1.00  0.00     0.013 A 
BRANCH  93  95
ATOM     95  C   UNL A   1      32.417  20.780  24.250  1.00  0.00     0.416 C 
ATOM     96  F   UNL A   1      31.908  19.590  24.671  1.00  0.00    -0.166 F 
ATOM     97  F   UNL A   1      32.284  20.788  22.895  1.00  0.00    -0.166 F 
ATOM     98  F   UNL A   1      33.759  20.715  24.486  1.00  0.00    -0.166 F 
ENDBRANCH  93  95
ENDBRANCH  78  89
ENDBRANCH  72  74
ENDBRANCH  71  72
ENDBRANCH  70  71
ENDBRANCH   1  70
TORSDOF 17
ENDMDL
