MODEL 1
REMARK VINA RESULT:     -10.3      0.000      0.000
REMARK SMILES Cc1c(Cl)ccc2c(OCC(=O)OCCOC(=O)c3ccc(-c4c5nc(c(-c6cc(S(=O)(=O)[O-])ccc6F)c6ccc([nH]6)c(-c6cc(S(=O)(=O)[O-])ccc6F)c6nc(c(-c7cc(S(=O)(=O)[O-])ccc7F)c7ccc4[nH]7)C=C6)C=C5)cc3)ccnc12
REMARK SMILES IDX 15 1 14 2 13 3 11 4 12 5 10 6 9 7 8 8 1 9 2 10 3 11 85 12
REMARK SMILES IDX 4 13 5 14 7 15 84 16 6 17 83 18 82 19 16 20 17 21 18 22
REMARK SMILES IDX 19 23 20 24 81 25 21 26 80 27 22 28 23 29 24 30 74 31 25 32
REMARK SMILES IDX 79 33 73 34 75 35 26 36 78 37 72 38 71 39 27 41 59 42 39 43
REMARK SMILES IDX 58 44 40 45 43 46 57 47 76 48 41 49 42 50 56 52 77 53 44 54
REMARK SMILES IDX 28 55 29 56 37 57 30 58 36 59 38 60 35 61 31 62 32 63 33 64
REMARK SMILES IDX 34 65 60 66 61 67 69 68 62 69 68 70 70 71 67 72 63 73 64 74
REMARK SMILES IDX 65 75 66 76 45 77 46 78 54 79 47 80 53 81 55 82 52 83 48 84
REMARK SMILES IDX 49 85 50 86 51 87
REMARK H PARENT 75 40 43 51
REMARK Flexibility Score: inf
ROOT
ATOM      1  C   UNL A   1      33.404  33.753  28.290  1.00  0.00     0.275 C 
ENDROOT
BRANCH   1   2
ATOM      2  C   UNL A   1      33.654  35.064  29.028  1.00  0.00     0.274 C 
BRANCH   2   3
ATOM      3  O   UNL A   1      32.659  35.278  30.053  1.00  0.00    -0.460 OA
BRANCH   3   4
ATOM      4  C   UNL A   1      33.100  35.904  31.179  1.00  0.00     0.344 C 
ATOM      5  O   UNL A   1      33.353  37.101  31.260  1.00  0.00    -0.248 OA
BRANCH   4   6
ATOM      6  C   UNL A   1      33.303  34.952  32.356  1.00  0.00     0.352 C 
BRANCH   6   7
ATOM      7  O   UNL A   1      34.137  33.819  32.196  1.00  0.00    -0.481 OA
BRANCH   7   8
ATOM      8  C   UNL A   1      35.203  33.629  33.039  1.00  0.00     0.131 A 
ATOM      9  C   UNL A   1      38.641  30.525  34.777  1.00  0.00     0.048 C 
ATOM     10  C   UNL A   1      37.572  30.860  33.764  1.00  0.00    -0.006 A 
ATOM     11  C   UNL A   1      37.254  29.962  32.731  1.00  0.00     0.046 A 
ATOM     12  C   UNL A   1      36.923  32.104  33.832  1.00  0.00     0.078 A 
ATOM     13  Cl  UNL A   1      38.082  28.455  32.535  1.00  0.00    -0.084 Cl
ATOM     14  C   UNL A   1      36.255  30.261  31.811  1.00  0.00     0.022 A 
ATOM     15  C   UNL A   1      35.881  32.394  32.920  1.00  0.00     0.043 A 
ATOM     16  N   UNL A   1      37.300  33.001  34.759  1.00  0.00    -0.256 NA
ATOM     17  C   UNL A   1      35.559  31.458  31.918  1.00  0.00     0.016 A 
ATOM     18  C   UNL A   1      36.679  34.194  34.809  1.00  0.00     0.115 A 
ATOM     19  C   UNL A   1      35.636  34.550  33.980  1.00  0.00     0.067 A 
ENDBRANCH   7   8
ENDBRANCH   6   7
ENDBRANCH   4   6
ENDBRANCH   3   4
ENDBRANCH   2   3
ENDBRANCH   1   2
BRANCH   1  20
ATOM     20  O   UNL A   1      34.638  33.272  27.736  1.00  0.00    -0.458 OA
BRANCH  20  21
ATOM     21  C   UNL A   1      34.755  31.929  27.653  1.00  0.00     0.338 C 
ATOM     22  O   UNL A   1      33.950  31.162  27.133  1.00  0.00    -0.246 OA
BRANCH  21  23
ATOM     23  C   UNL A   1      36.028  31.466  28.248  1.00  0.00     0.060 A 
ATOM     24  C   UNL A   1      37.009  32.357  28.702  1.00  0.00     0.016 A 
ATOM     25  C   UNL A   1      36.284  30.091  28.256  1.00  0.00     0.016 A 
ATOM     26  C   UNL A   1      38.261  31.876  29.096  1.00  0.00     0.010 A 
ATOM     27  C   UNL A   1      37.508  29.610  28.719  1.00  0.00     0.010 A 
ATOM     28  C   UNL A   1      38.518  30.497  29.119  1.00  0.00    -0.014 A 
BRANCH  28  29
ATOM     29  C   UNL A   1      39.816  29.951  29.594  1.00  0.00     0.031 A 
ATOM     30  C   UNL A   1      40.401  28.715  28.967  1.00  0.00     0.074 A 
ATOM     31  C   UNL A   1      40.434  30.530  30.641  1.00  0.00     0.049 A 
ATOM     32  N   UNL A   1      41.424  27.999  29.356  1.00  0.00    -0.248 NA
ATOM     33  C   UNL A   1      39.746  28.214  27.747  1.00  0.00     0.031 C 
ATOM     34  C   UNL A   1      39.976  31.739  31.324  1.00  0.00     0.029 A 
ATOM     35  N   UNL A   1      41.567  30.167  31.328  1.00  0.00    -0.354 N 
ATOM     36  C   UNL A   1      41.524  26.952  28.446  1.00  0.00     0.074 A 
ATOM     37  C   UNL A   1      40.445  27.115  27.496  1.00  0.00     0.031 C 
ATOM     38  C   UNL A   1      40.820  32.023  32.325  1.00  0.00     0.029 A 
ATOM     39  C   UNL A   1      41.840  30.982  32.402  1.00  0.00     0.049 A 
ATOM     40  H   UNL A   1      42.128  29.399  31.076  1.00  0.00     0.167 HD
ATOM     41  C   UNL A   1      42.437  25.953  28.405  1.00  0.00     0.034 A 
ATOM     42  C   UNL A   1      42.780  30.886  33.364  1.00  0.00     0.034 A 
ATOM     43  C   UNL A   1      43.515  25.806  29.349  1.00  0.00     0.049 A 
ATOM     44  C   UNL A   1      43.753  29.740  33.329  1.00  0.00     0.074 A 
ATOM     45  C   UNL A   1      44.501  24.835  29.377  1.00  0.00     0.029 A 
ATOM     46  N   UNL A   1      43.757  26.651  30.422  1.00  0.00    -0.354 N 
ATOM     47  N   UNL A   1      43.844  28.765  32.455  1.00  0.00    -0.248 NA
ATOM     48  C   UNL A   1      44.746  29.670  34.410  1.00  0.00     0.031 C 
ATOM     49  C   UNL A   1      45.316  25.071  30.487  1.00  0.00     0.029 A 
ATOM     50  C   UNL A   1      44.867  26.216  31.126  1.00  0.00     0.049 A 
ATOM     51  H   UNL A   1      43.219  27.443  30.650  1.00  0.00     0.167 HD
ATOM     52  C   UNL A   1      44.915  27.980  32.867  1.00  0.00     0.074 A 
ATOM     53  C   UNL A   1      45.450  28.600  34.062  1.00  0.00     0.031 C 
ATOM     54  C   UNL A   1      45.406  26.848  32.304  1.00  0.00     0.034 A 
BRANCH  41  55
ATOM     55  C   UNL A   1      42.335  24.934  27.301  1.00  0.00     0.023 A 
ATOM     56  C   UNL A   1      41.575  23.765  27.485  1.00  0.00     0.031 A 
ATOM     57  C   UNL A   1      43.081  25.067  26.118  1.00  0.00     0.131 A 
ATOM     58  C   UNL A   1      41.597  22.761  26.508  1.00  0.00     0.055 A 
ATOM     59  C   UNL A   1      43.078  24.077  25.134  1.00  0.00     0.041 A 
ATOM     60  F   UNL A   1      43.820  26.168  25.899  1.00  0.00    -0.206 F 
ATOM     61  C   UNL A   1      42.340  22.914  25.332  1.00  0.00     0.022 A 
BRANCH  58  62
ATOM     62  S   UNL A   1      40.693  21.206  26.738  1.00  0.00     0.124 S 
ATOM     63  O   UNL A   1      39.402  21.514  26.127  1.00  0.00    -0.237 OA
ATOM     64  O   UNL A   1      41.522  20.258  25.999  1.00  0.00    -0.237 OA
ATOM     65  O   UNL A   1      40.666  21.028  28.186  1.00  0.00    -0.744 OA
ENDBRANCH  58  62
ENDBRANCH  41  55
BRANCH  42  66
ATOM     66  C   UNL A   1      42.844  31.942  34.413  1.00  0.00     0.023 A 
ATOM     67  C   UNL A   1      42.185  31.781  35.645  1.00  0.00     0.031 A 
ATOM     68  C   UNL A   1      43.459  33.173  34.142  1.00  0.00     0.131 A 
ATOM     69  C   UNL A   1      42.098  32.862  36.530  1.00  0.00     0.055 A 
ATOM     70  C   UNL A   1      43.424  34.229  35.055  1.00  0.00     0.041 A 
ATOM     71  F   UNL A   1      44.089  33.371  32.974  1.00  0.00    -0.206 F 
ATOM     72  C   UNL A   1      42.727  34.080  36.250  1.00  0.00     0.022 A 
BRANCH  69  73
ATOM     73  S   UNL A   1      41.075  32.760  38.025  1.00  0.00     0.124 S 
ATOM     74  O   UNL A   1      41.848  31.852  38.867  1.00  0.00    -0.237 OA
ATOM     75  O   UNL A   1      41.050  34.155  38.459  1.00  0.00    -0.237 OA
ATOM     76  O   UNL A   1      39.804  32.236  37.537  1.00  0.00    -0.744 OA
ENDBRANCH  69  73
ENDBRANCH  42  66
BRANCH  54  77
ATOM     77  C   UNL A   1      46.598  26.187  32.946  1.00  0.00     0.023 A 
ATOM     78  C   UNL A   1      47.880  26.363  32.394  1.00  0.00     0.031 A 
ATOM     79  C   UNL A   1      46.444  25.277  34.005  1.00  0.00     0.131 A 
ATOM     80  C   UNL A   1      48.955  25.608  32.880  1.00  0.00     0.055 A 
ATOM     81  C   UNL A   1      47.524  24.553  34.509  1.00  0.00     0.041 A 
ATOM     82  F   UNL A   1      45.236  25.073  34.557  1.00  0.00    -0.206 F 
ATOM     83  C   UNL A   1      48.785  24.710  33.938  1.00  0.00     0.022 A 
BRANCH  80  84
ATOM     84  S   UNL A   1      50.598  25.727  32.122  1.00  0.00     0.124 S 
ATOM     85  O   UNL A   1      50.361  25.178  30.789  1.00  0.00    -0.237 OA
ATOM     86  O   UNL A   1      50.853  27.164  32.168  1.00  0.00    -0.237 OA
ATOM     87  O   UNL A   1      51.444  24.909  32.985  1.00  0.00    -0.744 OA
ENDBRANCH  80  84
ENDBRANCH  54  77
ENDBRANCH  28  29
ENDBRANCH  21  23
ENDBRANCH  20  21
ENDBRANCH   1  20
TORSDOF 16
ENDMDL
MODEL 2
REMARK VINA RESULT:     -10.2      5.800     11.168
REMARK SMILES Cc1c(Cl)ccc2c(OCC(=O)OCCOC(=O)c3ccc(-c4c5nc(c(-c6cc(S(=O)(=O)[O-])ccc6F)c6ccc([nH]6)c(-c6cc(S(=O)(=O)[O-])ccc6F)c6nc(c(-c7cc(S(=O)(=O)[O-])ccc7F)c7ccc4[nH]7)C=C6)C=C5)cc3)ccnc12
REMARK SMILES IDX 15 1 14 2 13 3 11 4 12 5 10 6 9 7 8 8 1 9 2 10 3 11 85 12
REMARK SMILES IDX 4 13 5 14 7 15 84 16 6 17 83 18 82 19 16 20 17 21 18 22
REMARK SMILES IDX 19 23 20 24 81 25 21 26 80 27 22 28 23 29 24 30 74 31 25 32
REMARK SMILES IDX 79 33 73 34 75 35 26 36 78 37 72 38 71 39 27 41 59 42 39 43
REMARK SMILES IDX 58 44 40 45 43 46 57 47 76 48 41 49 42 50 56 52 77 53 44 54
REMARK SMILES IDX 28 55 29 56 37 57 30 58 36 59 38 60 35 61 31 62 32 63 33 64
REMARK SMILES IDX 34 65 60 66 61 67 69 68 62 69 68 70 70 71 67 72 63 73 64 74
REMARK SMILES IDX 65 75 66 76 45 77 46 78 54 79 47 80 53 81 55 82 52 83 48 84
REMARK SMILES IDX 49 85 50 86 51 87
REMARK H PARENT 75 40 43 51
REMARK Flexibility Score: inf
ROOT
ATOM      1  C   UNL A   1      36.906  20.690  24.964  1.00  0.00     0.275 C 
ENDROOT
BRANCH   1   2
ATOM      2  C   UNL A   1      35.407  20.954  25.069  1.00  0.00     0.274 C 
BRANCH   2   3
ATOM      3  O   UNL A   1      35.077  21.559  26.338  1.00  0.00    -0.460 OA
BRANCH   3   4
ATOM      4  C   UNL A   1      33.757  21.545  26.670  1.00  0.00     0.344 C 
ATOM      5  O   UNL A   1      33.321  21.661  27.811  1.00  0.00    -0.248 OA
BRANCH   4   6
ATOM      6  C   UNL A   1      32.837  21.320  25.472  1.00  0.00     0.352 C 
BRANCH   6   7
ATOM      7  O   UNL A   1      32.055  22.395  24.985  1.00  0.00    -0.481 OA
BRANCH   7   8
ATOM      8  C   UNL A   1      32.538  23.193  23.978  1.00  0.00     0.131 A 
ATOM      9  C   UNL A   1      33.892  27.729  22.540  1.00  0.00     0.048 C 
ATOM     10  C   UNL A   1      33.520  26.760  23.637  1.00  0.00    -0.006 A 
ATOM     11  C   UNL A   1      33.480  27.175  24.979  1.00  0.00     0.046 A 
ATOM     12  C   UNL A   1      33.256  25.419  23.314  1.00  0.00     0.078 A 
ATOM     13  Cl  UNL A   1      33.885  28.788  25.455  1.00  0.00    -0.084 Cl
ATOM     14  C   UNL A   1      33.117  26.288  25.988  1.00  0.00     0.022 A 
ATOM     15  C   UNL A   1      32.851  24.525  24.333  1.00  0.00     0.043 A 
ATOM     16  N   UNL A   1      33.395  25.002  22.043  1.00  0.00    -0.256 NA
ATOM     17  C   UNL A   1      32.784  24.980  25.664  1.00  0.00     0.016 A 
ATOM     18  C   UNL A   1      33.150  23.712  21.745  1.00  0.00     0.115 A 
ATOM     19  C   UNL A   1      32.724  22.780  22.668  1.00  0.00     0.067 A 
ENDBRANCH   7   8
ENDBRANCH   6   7
ENDBRANCH   4   6
ENDBRANCH   3   4
ENDBRANCH   2   3
ENDBRANCH   1   2
BRANCH   1  20
ATOM     20  O   UNL A   1      37.569  21.229  26.119  1.00  0.00    -0.458 OA
BRANCH  20  21
ATOM     21  C   UNL A   1      38.919  21.215  26.073  1.00  0.00     0.338 C 
ATOM     22  O   UNL A   1      39.622  20.296  25.665  1.00  0.00    -0.246 OA
BRANCH  21  23
ATOM     23  C   UNL A   1      39.482  22.497  26.554  1.00  0.00     0.060 A 
ATOM     24  C   UNL A   1      38.995  23.736  26.122  1.00  0.00     0.016 A 
ATOM     25  C   UNL A   1      40.602  22.445  27.390  1.00  0.00     0.016 A 
ATOM     26  C   UNL A   1      39.667  24.912  26.470  1.00  0.00     0.010 A 
ATOM     27  C   UNL A   1      41.228  23.624  27.794  1.00  0.00     0.010 A 
ATOM     28  C   UNL A   1      40.784  24.867  27.319  1.00  0.00    -0.014 A 
BRANCH  28  29
ATOM     29  C   UNL A   1      41.482  26.103  27.759  1.00  0.00     0.031 A 
ATOM     30  C   UNL A   1      40.759  27.141  28.572  1.00  0.00     0.074 A 
ATOM     31  C   UNL A   1      42.749  26.323  27.362  1.00  0.00     0.049 A 
ATOM     32  N   UNL A   1      41.143  28.348  28.897  1.00  0.00    -0.248 NA
ATOM     33  C   UNL A   1      39.426  26.778  29.081  1.00  0.00     0.031 C 
ATOM     34  C   UNL A   1      43.562  25.388  26.585  1.00  0.00     0.029 A 
ATOM     35  N   UNL A   1      43.569  27.411  27.539  1.00  0.00    -0.354 N 
ATOM     36  C   UNL A   1      40.095  28.898  29.628  1.00  0.00     0.074 A 
ATOM     37  C   UNL A   1      39.050  27.899  29.682  1.00  0.00     0.031 C 
ATOM     38  C   UNL A   1      44.764  25.936  26.358  1.00  0.00     0.029 A 
ATOM     39  C   UNL A   1      44.787  27.286  26.911  1.00  0.00     0.049 A 
ATOM     40  H   UNL A   1      43.311  28.202  28.064  1.00  0.00     0.167 HD
ATOM     41  C   UNL A   1      40.018  30.121  30.205  1.00  0.00     0.034 A 
ATOM     42  C   UNL A   1      45.795  28.169  26.762  1.00  0.00     0.034 A 
ATOM     43  C   UNL A   1      41.070  31.104  30.156  1.00  0.00     0.049 A 
ATOM     44  C   UNL A   1      45.669  29.540  27.368  1.00  0.00     0.074 A 
ATOM     45  C   UNL A   1      41.090  32.365  30.727  1.00  0.00     0.029 A 
ATOM     46  N   UNL A   1      42.286  30.940  29.510  1.00  0.00    -0.354 N 
ATOM     47  N   UNL A   1      44.678  30.041  28.067  1.00  0.00    -0.248 NA
ATOM     48  C   UNL A   1      46.787  30.469  27.161  1.00  0.00     0.031 C 
ATOM     49  C   UNL A   1      42.301  32.976  30.396  1.00  0.00     0.029 A 
ATOM     50  C   UNL A   1      43.057  32.080  29.656  1.00  0.00     0.049 A 
ATOM     51  H   UNL A   1      42.561  30.132  29.018  1.00  0.00     0.167 HD
ATOM     52  C   UNL A   1      45.062  31.334  28.403  1.00  0.00     0.074 A 
ATOM     53  C   UNL A   1      46.381  31.536  27.840  1.00  0.00     0.031 C 
ATOM     54  C   UNL A   1      44.378  32.268  29.110  1.00  0.00     0.034 A 
BRANCH  41  55
ATOM     55  C   UNL A   1      38.764  30.480  30.958  1.00  0.00     0.023 A 
ATOM     56  C   UNL A   1      37.718  31.158  30.307  1.00  0.00     0.031 A 
ATOM     57  C   UNL A   1      38.658  30.254  32.341  1.00  0.00     0.131 A 
ATOM     58  C   UNL A   1      36.616  31.607  31.046  1.00  0.00     0.055 A 
ATOM     59  C   UNL A   1      37.546  30.680  33.068  1.00  0.00     0.041 A 
ATOM     60  F   UNL A   1      39.633  29.610  33.003  1.00  0.00    -0.206 F 
ATOM     61  C   UNL A   1      36.523  31.368  32.422  1.00  0.00     0.022 A 
BRANCH  58  62
ATOM     62  S   UNL A   1      35.281  32.551  30.262  1.00  0.00     0.124 S 
ATOM     63  O   UNL A   1      35.966  33.787  29.887  1.00  0.00    -0.237 OA
ATOM     64  O   UNL A   1      34.905  31.684  29.149  1.00  0.00    -0.237 OA
ATOM     65  O   UNL A   1      34.285  32.692  31.318  1.00  0.00    -0.744 OA
ENDBRANCH  58  62
ENDBRANCH  41  55
BRANCH  42  66
ATOM     66  C   UNL A   1      47.020  27.742  26.028  1.00  0.00     0.023 A 
ATOM     67  C   UNL A   1      47.185  28.030  24.662  1.00  0.00     0.031 A 
ATOM     68  C   UNL A   1      47.977  26.932  26.659  1.00  0.00     0.131 A 
ATOM     69  C   UNL A   1      48.246  27.453  23.955  1.00  0.00     0.055 A 
ATOM     70  C   UNL A   1      49.069  26.409  25.964  1.00  0.00     0.041 A 
ATOM     71  F   UNL A   1      47.851  26.624  27.958  1.00  0.00    -0.206 F 
ATOM     72  C   UNL A   1      49.198  26.656  24.600  1.00  0.00     0.022 A 
BRANCH  69  73
ATOM     73  S   UNL A   1      48.366  27.625  22.153  1.00  0.00     0.124 S 
ATOM     74  O   UNL A   1      49.517  28.510  22.004  1.00  0.00    -0.237 OA
ATOM     75  O   UNL A   1      48.577  26.240  21.739  1.00  0.00    -0.237 OA
ATOM     76  O   UNL A   1      47.078  28.199  21.775  1.00  0.00    -0.744 OA
ENDBRANCH  69  73
ENDBRANCH  42  66
BRANCH  54  77
ATOM     77  C   UNL A   1      45.030  33.605  29.349  1.00  0.00     0.023 A 
ATOM     78  C   UNL A   1      44.855  34.646  28.419  1.00  0.00     0.031 A 
ATOM     79  C   UNL A   1      45.930  33.798  30.409  1.00  0.00     0.131 A 
ATOM     80  C   UNL A   1      45.602  35.824  28.546  1.00  0.00     0.055 A 
ATOM     81  C   UNL A   1      46.645  34.987  30.553  1.00  0.00     0.041 A 
ATOM     82  F   UNL A   1      46.131  32.828  31.316  1.00  0.00    -0.206 F 
ATOM     83  C   UNL A   1      46.490  36.002  29.612  1.00  0.00     0.022 A 
BRANCH  80  84
ATOM     84  S   UNL A   1      45.487  37.144  27.308  1.00  0.00     0.124 S 
ATOM     85  O   UNL A   1      44.065  37.123  26.971  1.00  0.00    -0.237 OA
ATOM     86  O   UNL A   1      45.932  38.311  28.063  1.00  0.00    -0.237 OA
ATOM     87  O   UNL A   1      46.381  36.705  26.241  1.00  0.00    -0.744 OA
ENDBRANCH  80  84
ENDBRANCH  54  77
ENDBRANCH  28  29
ENDBRANCH  21  23
ENDBRANCH  20  21
ENDBRANCH   1  20
TORSDOF 16
ENDMDL
MODEL 3
REMARK VINA RESULT:     -10.2      4.408      6.721
REMARK SMILES Cc1c(Cl)ccc2c(OCC(=O)OCCOC(=O)c3ccc(-c4c5nc(c(-c6cc(S(=O)(=O)[O-])ccc6F)c6ccc([nH]6)c(-c6cc(S(=O)(=O)[O-])ccc6F)c6nc(c(-c7cc(S(=O)(=O)[O-])ccc7F)c7ccc4[nH]7)C=C6)C=C5)cc3)ccnc12
REMARK SMILES IDX 15 1 14 2 13 3 11 4 12 5 10 6 9 7 8 8 1 9 2 10 3 11 85 12
REMARK SMILES IDX 4 13 5 14 7 15 84 16 6 17 83 18 82 19 16 20 17 21 18 22
REMARK SMILES IDX 19 23 20 24 81 25 21 26 80 27 22 28 23 29 24 30 74 31 25 32
REMARK SMILES IDX 79 33 73 34 75 35 26 36 78 37 72 38 71 39 27 41 59 42 39 43
REMARK SMILES IDX 58 44 40 45 43 46 57 47 76 48 41 49 42 50 56 52 77 53 44 54
REMARK SMILES IDX 28 55 29 56 37 57 30 58 36 59 38 60 35 61 31 62 32 63 33 64
REMARK SMILES IDX 34 65 60 66 61 67 69 68 62 69 68 70 70 71 67 72 63 73 64 74
REMARK SMILES IDX 65 75 66 76 45 77 46 78 54 79 47 80 53 81 55 82 52 83 48 84
REMARK SMILES IDX 49 85 50 86 51 87
REMARK H PARENT 75 40 43 51
REMARK Flexibility Score: inf
ROOT
ATOM      1  C   UNL A   1      31.838  29.696  25.657  1.00  0.00     0.275 C 
ENDROOT
BRANCH   1   2
ATOM      2  C   UNL A   1      31.889  28.348  26.369  1.00  0.00     0.274 C 
BRANCH   2   3
ATOM      3  O   UNL A   1      31.952  27.263  25.419  1.00  0.00    -0.460 OA
BRANCH   3   4
ATOM      4  C   UNL A   1      31.098  26.228  25.650  1.00  0.00     0.344 C 
ATOM      5  O   UNL A   1      30.280  26.188  26.562  1.00  0.00    -0.248 OA
BRANCH   4   6
ATOM      6  C   UNL A   1      31.281  25.067  24.675  1.00  0.00     0.352 C 
BRANCH   6   7
ATOM      7  O   UNL A   1      31.745  23.820  25.160  1.00  0.00    -0.481 OA
BRANCH   7   8
ATOM      8  C   UNL A   1      33.085  23.524  25.115  1.00  0.00     0.131 A 
ATOM      9  C   UNL A   1      36.577  20.022  25.001  1.00  0.00     0.048 C 
ATOM     10  C   UNL A   1      35.127  20.429  24.887  1.00  0.00    -0.006 A 
ATOM     11  C   UNL A   1      34.131  19.472  24.626  1.00  0.00     0.046 A 
ATOM     12  C   UNL A   1      34.781  21.786  24.997  1.00  0.00     0.078 A 
ATOM     13  Cl  UNL A   1      34.502  17.800  24.386  1.00  0.00    -0.084 Cl
ATOM     14  C   UNL A   1      32.793  19.844  24.541  1.00  0.00     0.022 A 
ATOM     15  C   UNL A   1      33.417  22.160  24.948  1.00  0.00     0.043 A 
ATOM     16  N   UNL A   1      35.747  22.709  25.144  1.00  0.00    -0.256 NA
ATOM     17  C   UNL A   1      32.437  21.174  24.722  1.00  0.00     0.016 A 
ATOM     18  C   UNL A   1      35.404  24.007  25.238  1.00  0.00     0.115 A 
ATOM     19  C   UNL A   1      34.102  24.459  25.229  1.00  0.00     0.067 A 
ENDBRANCH   7   8
ENDBRANCH   6   7
ENDBRANCH   4   6
ENDBRANCH   3   4
ENDBRANCH   2   3
ENDBRANCH   1   2
BRANCH   1  20
ATOM     20  O   UNL A   1      33.098  30.368  25.813  1.00  0.00    -0.458 OA
BRANCH  20  21
ATOM     21  C   UNL A   1      33.153  31.276  26.811  1.00  0.00     0.338 C 
ATOM     22  O   UNL A   1      32.309  32.130  27.062  1.00  0.00    -0.246 OA
BRANCH  21  23
ATOM     23  C   UNL A   1      34.374  31.097  27.627  1.00  0.00     0.060 A 
ATOM     24  C   UNL A   1      35.361  32.085  27.723  1.00  0.00     0.016 A 
ATOM     25  C   UNL A   1      34.578  29.853  28.234  1.00  0.00     0.016 A 
ATOM     26  C   UNL A   1      36.572  31.805  28.365  1.00  0.00     0.010 A 
ATOM     27  C   UNL A   1      35.756  29.601  28.935  1.00  0.00     0.010 A 
ATOM     28  C   UNL A   1      36.775  30.564  28.987  1.00  0.00    -0.014 A 
BRANCH  28  29
ATOM     29  C   UNL A   1      38.025  30.258  29.731  1.00  0.00     0.031 A 
ATOM     30  C   UNL A   1      39.046  29.316  29.155  1.00  0.00     0.074 A 
ATOM     31  C   UNL A   1      38.206  30.775  30.960  1.00  0.00     0.049 A 
ATOM     32  N   UNL A   1      40.103  28.798  29.725  1.00  0.00    -0.248 NA
ATOM     33  C   UNL A   1      38.850  28.894  27.759  1.00  0.00     0.031 C 
ATOM     34  C   UNL A   1      37.298  31.712  31.621  1.00  0.00     0.029 A 
ATOM     35  N   UNL A   1      39.203  30.570  31.883  1.00  0.00    -0.354 N 
ATOM     36  C   UNL A   1      40.687  27.973  28.769  1.00  0.00     0.074 A 
ATOM     37  C   UNL A   1      39.854  28.044  27.587  1.00  0.00     0.031 C 
ATOM     38  C   UNL A   1      37.779  32.007  32.836  1.00  0.00     0.029 A 
ATOM     39  C   UNL A   1      38.993  31.230  33.071  1.00  0.00     0.049 A 
ATOM     40  H   UNL A   1      39.991  30.007  31.710  1.00  0.00     0.167 HD
ATOM     41  C   UNL A   1      41.816  27.232  28.868  1.00  0.00     0.034 A 
ATOM     42  C   UNL A   1      39.674  31.189  34.234  1.00  0.00     0.034 A 
ATOM     43  C   UNL A   1      42.645  27.178  30.045  1.00  0.00     0.049 A 
ATOM     44  C   UNL A   1      40.898  30.321  34.339  1.00  0.00     0.074 A 
ATOM     45  C   UNL A   1      43.819  26.469  30.233  1.00  0.00     0.029 A 
ATOM     46  N   UNL A   1      42.397  27.859  31.227  1.00  0.00    -0.354 N 
ATOM     47  N   UNL A   1      41.445  29.557  33.423  1.00  0.00    -0.248 NA
ATOM     48  C   UNL A   1      41.594  30.298  35.633  1.00  0.00     0.031 C 
ATOM     49  C   UNL A   1      44.261  26.693  31.538  1.00  0.00     0.029 A 
ATOM     50  C   UNL A   1      43.388  27.577  32.152  1.00  0.00     0.049 A 
ATOM     51  H   UNL A   1      41.630  28.456  31.386  1.00  0.00     0.167 HD
ATOM     52  C   UNL A   1      42.560  28.981  34.020  1.00  0.00     0.074 A 
ATOM     53  C   UNL A   1      42.618  29.493  35.374  1.00  0.00     0.031 C 
ATOM     54  C   UNL A   1      43.451  28.105  33.492  1.00  0.00     0.034 A 
BRANCH  41  55
ATOM     55  C   UNL A   1      42.248  26.421  27.674  1.00  0.00     0.023 A 
ATOM     56  C   UNL A   1      41.864  25.073  27.559  1.00  0.00     0.031 A 
ATOM     57  C   UNL A   1      43.130  26.950  26.717  1.00  0.00     0.131 A 
ATOM     58  C   UNL A   1      42.381  24.291  26.519  1.00  0.00     0.055 A 
ATOM     59  C   UNL A   1      43.622  26.175  25.667  1.00  0.00     0.041 A 
ATOM     60  F   UNL A   1      43.522  28.234  26.788  1.00  0.00    -0.206 F 
ATOM     61  C   UNL A   1      43.254  24.835  25.570  1.00  0.00     0.022 A 
BRANCH  58  62
ATOM     62  S   UNL A   1      41.974  22.530  26.376  1.00  0.00     0.124 S 
ATOM     63  O   UNL A   1      42.506  22.204  25.054  1.00  0.00    -0.237 OA
ATOM     64  O   UNL A   1      42.704  21.954  27.501  1.00  0.00    -0.237 OA
ATOM     65  O   UNL A   1      40.519  22.496  26.482  1.00  0.00    -0.744 OA
ENDBRANCH  58  62
ENDBRANCH  41  55
BRANCH  42  66
ATOM     66  C   UNL A   1      39.210  32.036  35.368  1.00  0.00     0.023 A 
ATOM     67  C   UNL A   1      39.660  33.360  35.517  1.00  0.00     0.031 A 
ATOM     68  C   UNL A   1      38.410  31.486  36.382  1.00  0.00     0.131 A 
ATOM     69  C   UNL A   1      39.364  34.065  36.690  1.00  0.00     0.055 A 
ATOM     70  C   UNL A   1      38.065  32.214  37.522  1.00  0.00     0.041 A 
ATOM     71  F   UNL A   1      37.969  30.223  36.284  1.00  0.00    -0.206 F 
ATOM     72  C   UNL A   1      38.556  33.506  37.687  1.00  0.00     0.022 A 
BRANCH  69  73
ATOM     73  S   UNL A   1      40.106  35.689  37.012  1.00  0.00     0.124 S 
ATOM     74  O   UNL A   1      41.531  35.376  37.042  1.00  0.00    -0.237 OA
ATOM     75  O   UNL A   1      39.653  36.453  35.853  1.00  0.00    -0.237 OA
ATOM     76  O   UNL A   1      39.522  36.087  38.289  1.00  0.00    -0.744 OA
ENDBRANCH  69  73
ENDBRANCH  42  66
BRANCH  54  77
ATOM     77  C   UNL A   1      44.593  27.636  34.356  1.00  0.00     0.023 A 
ATOM     78  C   UNL A   1      44.428  26.513  35.187  1.00  0.00     0.031 A 
ATOM     79  C   UNL A   1      45.779  28.379  34.462  1.00  0.00     0.131 A 
ATOM     80  C   UNL A   1      45.421  26.186  36.118  1.00  0.00     0.055 A 
ATOM     81  C   UNL A   1      46.782  28.029  35.366  1.00  0.00     0.041 A 
ATOM     82  F   UNL A   1      45.975  29.462  33.691  1.00  0.00    -0.206 F 
ATOM     83  C   UNL A   1      46.600  26.934  36.207  1.00  0.00     0.022 A 
BRANCH  80  84
ATOM     84  S   UNL A   1      45.198  24.813  37.282  1.00  0.00     0.124 S 
ATOM     85  O   UNL A   1      44.106  25.299  38.122  1.00  0.00    -0.237 OA
ATOM     86  O   UNL A   1      44.854  23.709  36.389  1.00  0.00    -0.237 OA
ATOM     87  O   UNL A   1      46.490  24.704  37.950  1.00  0.00    -0.744 OA
ENDBRANCH  80  84
ENDBRANCH  54  77
ENDBRANCH  28  29
ENDBRANCH  21  23
ENDBRANCH  20  21
ENDBRANCH   1  20
TORSDOF 16
ENDMDL
