MODEL 1
REMARK VINA RESULT:     -13.1      0.000      0.000
REMARK SMILES COC(=O)c1ccc([C@H]2CC(=O)Nc3c(C(=O)OCCOC(=O)c4ccc(-c5c6nc(c(-c7cc(S(=O)(=O)[O-])ccc7F)c7ccc([nH]7)c(-c7cc(S(=O)(=O)[O-])ccc7F)c7nc(c(-c8cc(S(=O)(=O)[O-])ccc8F)c8ccc5[nH]8)C=C7)C=C6)cc4)cn(-c4ccccc4)c32)cc1
REMARK SMILES IDX 19 1 18 2 16 3 17 4 15 5 9 6 10 7 95 8 11 9 14 10 88 11
REMARK SMILES IDX 12 12 13 13 87 14 8 16 5 17 6 18 97 19 7 20 96 21 3 22 4 23
REMARK SMILES IDX 2 24 1 25 89 26 90 27 94 28 91 29 93 30 92 31 20 32 21 33
REMARK SMILES IDX 22 34 23 35 24 36 25 37 86 38 26 39 85 40 27 41 28 42 29 43
REMARK SMILES IDX 79 44 30 45 84 46 78 47 80 48 31 49 83 50 77 51 76 52 32 54
REMARK SMILES IDX 64 55 44 56 63 57 45 58 48 59 62 60 81 61 46 62 47 63 61 65
REMARK SMILES IDX 82 66 49 67 33 68 34 69 42 70 35 71 41 72 43 73 40 74 36 75
REMARK SMILES IDX 37 76 38 77 39 78 65 79 66 80 74 81 67 82 73 83 75 84 72 85
REMARK SMILES IDX 68 86 69 87 70 88 71 89 50 90 51 91 59 92 52 93 58 94 60 95
REMARK SMILES IDX 57 96 53 97 54 98 55 99 56 100
REMARK H PARENT 13 15 80 53 48 64
REMARK Flexibility Score: inf
ROOT
ATOM      1  C   UNL A   1      37.817  22.234  26.226  1.00  0.00     0.275 C 
ENDROOT
BRANCH   1   2
ATOM      2  O   UNL A   1      37.440  23.350  25.404  1.00  0.00    -0.458 OA
BRANCH   2   3
ATOM      3  C   UNL A   1      36.661  23.021  24.319  1.00  0.00     0.341 C 
ATOM      4  O   UNL A   1      37.004  22.273  23.430  1.00  0.00    -0.246 OA
BRANCH   3   5
ATOM      5  C   UNL A   1      35.337  23.629  24.383  1.00  0.00     0.102 A 
ATOM      6  C   UNL A   1      31.651  23.932  23.943  1.00  0.00     0.078 C 
ATOM      7  C   UNL A   1      31.463  22.758  22.971  1.00  0.00     0.115 C 
ATOM      8  C   UNL A   1      33.117  24.108  24.267  1.00  0.00     0.055 A 
ATOM      9  C   UNL A   1      32.405  21.589  23.218  1.00  0.00     0.225 C 
ATOM     10  C   UNL A   1      34.062  23.129  24.044  1.00  0.00     0.078 A 
ATOM     11  N   UNL A   1      33.775  25.213  24.792  1.00  0.00    -0.317 N 
ATOM     12  O   UNL A   1      32.067  20.427  22.995  1.00  0.00    -0.275 OA
ATOM     13  N   UNL A   1      33.691  21.885  23.590  1.00  0.00    -0.324 N 
ATOM     14  C   UNL A   1      35.127  24.946  24.761  1.00  0.00     0.109 A 
ATOM     15  H   UNL A   1      34.375  21.180  23.531  1.00  0.00     0.170 HD
BRANCH   6  16
ATOM     16  C   UNL A   1      30.946  25.179  23.417  1.00  0.00    -0.038 A 
ATOM     17  C   UNL A   1      30.180  27.833  22.957  1.00  0.00     0.060 A 
ATOM     18  C   UNL A   1      29.542  27.084  23.952  1.00  0.00     0.016 A 
ATOM     19  C   UNL A   1      31.044  27.192  22.064  1.00  0.00     0.016 A 
ATOM     20  C   UNL A   1      29.920  25.759  24.179  1.00  0.00     0.005 A 
ATOM     21  C   UNL A   1      31.403  25.857  22.276  1.00  0.00     0.005 A 
BRANCH  17  22
ATOM     22  C   UNL A   1      30.047  29.317  23.008  1.00  0.00     0.337 C 
ATOM     23  O   UNL A   1      30.103  29.965  24.042  1.00  0.00    -0.246 OA
BRANCH  22  24
ATOM     24  O   UNL A   1      30.014  29.826  21.752  1.00  0.00    -0.465 OA
ATOM     25  C   UNL A   1      28.781  30.448  21.391  1.00  0.00     0.282 C 
ENDBRANCH  22  24
ENDBRANCH  17  22
ENDBRANCH   6  16
BRANCH  11  26
ATOM     26  C   UNL A   1      33.234  26.423  25.291  1.00  0.00     0.045 A 
ATOM     27  C   UNL A   1      33.543  27.638  24.675  1.00  0.00     0.026 A 
ATOM     28  C   UNL A   1      32.417  26.392  26.430  1.00  0.00     0.026 A 
ATOM     29  C   UNL A   1      33.068  28.830  25.225  1.00  0.00     0.002 A 
ATOM     30  C   UNL A   1      31.970  27.591  26.989  1.00  0.00     0.002 A 
ATOM     31  C   UNL A   1      32.298  28.807  26.388  1.00  0.00     0.000 A 
ENDBRANCH  11  26
ENDBRANCH   3   5
ENDBRANCH   2   3
ENDBRANCH   1   2
BRANCH   1  32
ATOM     32  C   UNL A   1      39.280  21.858  26.024  1.00  0.00     0.275 C 
BRANCH  32  33
ATOM     33  O   UNL A   1      40.103  22.300  27.104  1.00  0.00    -0.458 OA
BRANCH  33  34
ATOM     34  C   UNL A   1      41.040  23.214  26.758  1.00  0.00     0.338 C 
ATOM     35  O   UNL A   1      42.022  23.022  26.060  1.00  0.00    -0.246 OA
BRANCH  34  36
ATOM     36  C   UNL A   1      40.847  24.430  27.557  1.00  0.00     0.060 A 
ATOM     37  C   UNL A   1      39.807  25.292  27.195  1.00  0.00     0.016 A 
ATOM     38  C   UNL A   1      41.848  24.822  28.458  1.00  0.00     0.016 A 
ATOM     39  C   UNL A   1      39.842  26.599  27.643  1.00  0.00     0.010 A 
ATOM     40  C   UNL A   1      41.897  26.130  28.878  1.00  0.00     0.010 A 
ATOM     41  C   UNL A   1      40.925  27.020  28.425  1.00  0.00    -0.014 A 
BRANCH  41  42
ATOM     42  C   UNL A   1      40.929  28.378  28.939  1.00  0.00     0.031 A 
ATOM     43  C   UNL A   1      42.039  29.181  28.378  1.00  0.00     0.074 A 
ATOM     44  C   UNL A   1      39.936  28.891  29.691  1.00  0.00     0.049 A 
ATOM     45  N   UNL A   1      43.086  29.617  28.994  1.00  0.00    -0.248 NA
ATOM     46  C   UNL A   1      42.106  29.333  26.914  1.00  0.00     0.031 C 
ATOM     47  C   UNL A   1      38.667  28.255  30.050  1.00  0.00     0.029 A 
ATOM     48  N   UNL A   1      39.802  30.147  30.200  1.00  0.00    -0.354 N 
ATOM     49  C   UNL A   1      43.795  30.339  28.043  1.00  0.00     0.074 A 
ATOM     50  C   UNL A   1      43.300  29.905  26.768  1.00  0.00     0.031 C 
ATOM     51  C   UNL A   1      37.813  29.197  30.513  1.00  0.00     0.029 A 
ATOM     52  C   UNL A   1      38.504  30.475  30.588  1.00  0.00     0.049 A 
ATOM     53  H   UNL A   1      40.559  30.771  30.286  1.00  0.00     0.167 HD
ATOM     54  C   UNL A   1      44.490  31.454  28.396  1.00  0.00     0.034 A 
ATOM     55  C   UNL A   1      38.022  31.717  30.875  1.00  0.00     0.034 A 
ATOM     56  C   UNL A   1      44.736  31.473  29.825  1.00  0.00     0.049 A 
ATOM     57  C   UNL A   1      39.193  32.573  31.196  1.00  0.00     0.074 A 
ATOM     58  C   UNL A   1      45.326  30.592  30.713  1.00  0.00     0.029 A 
ATOM     59  N   UNL A   1      43.996  32.338  30.604  1.00  0.00    -0.354 N 
ATOM     60  N   UNL A   1      39.945  32.393  32.248  1.00  0.00    -0.248 NA
ATOM     61  C   UNL A   1      39.826  33.303  30.107  1.00  0.00     0.031 C 
ATOM     62  C   UNL A   1      44.520  30.656  31.887  1.00  0.00     0.029 A 
ATOM     63  C   UNL A   1      43.544  31.635  31.694  1.00  0.00     0.049 A 
ATOM     64  H   UNL A   1      43.823  33.287  30.414  1.00  0.00     0.167 HD
ATOM     65  C   UNL A   1      41.243  32.570  31.795  1.00  0.00     0.074 A 
ATOM     66  C   UNL A   1      41.103  33.229  30.498  1.00  0.00     0.031 C 
ATOM     67  C   UNL A   1      42.290  31.908  32.373  1.00  0.00     0.034 A 
BRANCH  54  68
ATOM     68  C   UNL A   1      44.562  32.708  27.545  1.00  0.00     0.023 A 
ATOM     69  C   UNL A   1      43.902  33.844  28.049  1.00  0.00     0.031 A 
ATOM     70  C   UNL A   1      44.945  32.783  26.184  1.00  0.00     0.131 A 
ATOM     71  C   UNL A   1      43.515  34.892  27.199  1.00  0.00     0.055 A 
ATOM     72  C   UNL A   1      44.623  33.865  25.359  1.00  0.00     0.041 A 
ATOM     73  F   UNL A   1      45.575  31.796  25.540  1.00  0.00    -0.206 F 
ATOM     74  C   UNL A   1      43.866  34.909  25.853  1.00  0.00     0.022 A 
BRANCH  71  75
ATOM     75  S   UNL A   1      42.368  36.127  27.852  1.00  0.00     0.124 S 
ATOM     76  O   UNL A   1      42.815  37.326  27.152  1.00  0.00    -0.237 OA
ATOM     77  O   UNL A   1      41.079  35.582  27.440  1.00  0.00    -0.237 OA
ATOM     78  O   UNL A   1      42.629  36.103  29.288  1.00  0.00    -0.744 OA
ENDBRANCH  71  75
ENDBRANCH  54  68
BRANCH  55  79
ATOM     79  C   UNL A   1      36.665  32.267  30.575  1.00  0.00     0.023 A 
ATOM     80  C   UNL A   1      35.882  32.959  31.529  1.00  0.00     0.031 A 
ATOM     81  C   UNL A   1      36.214  32.326  29.236  1.00  0.00     0.131 A 
ATOM     82  C   UNL A   1      34.718  33.661  31.128  1.00  0.00     0.055 A 
ATOM     83  C   UNL A   1      35.062  33.014  28.848  1.00  0.00     0.041 A 
ATOM     84  F   UNL A   1      36.929  31.788  28.235  1.00  0.00    -0.206 F 
ATOM     85  C   UNL A   1      34.313  33.695  29.792  1.00  0.00     0.022 A 
BRANCH  82  86
ATOM     86  S   UNL A   1      33.747  34.634  32.331  1.00  0.00     0.124 S 
ATOM     87  O   UNL A   1      32.698  35.204  31.496  1.00  0.00    -0.237 OA
ATOM     88  O   UNL A   1      33.335  33.622  33.296  1.00  0.00    -0.237 OA
ATOM     89  O   UNL A   1      34.715  35.606  32.845  1.00  0.00    -0.744 OA
ENDBRANCH  82  86
ENDBRANCH  55  79
BRANCH  67  90
ATOM     90  C   UNL A   1      42.075  31.241  33.717  1.00  0.00     0.023 A 
ATOM     91  C   UNL A   1      41.994  29.845  33.934  1.00  0.00     0.031 A 
ATOM     92  C   UNL A   1      42.055  32.076  34.849  1.00  0.00     0.131 A 
ATOM     93  C   UNL A   1      41.883  29.341  35.245  1.00  0.00     0.055 A 
ATOM     94  C   UNL A   1      41.969  31.572  36.145  1.00  0.00     0.041 A 
ATOM     95  F   UNL A   1      42.154  33.409  34.714  1.00  0.00    -0.206 F 
ATOM     96  C   UNL A   1      41.875  30.201  36.348  1.00  0.00     0.022 A 
BRANCH  93  97
ATOM     97  S   UNL A   1      41.721  27.551  35.549  1.00  0.00     0.124 S 
ATOM     98  O   UNL A   1      43.092  27.062  35.469  1.00  0.00    -0.237 OA
ATOM     99  O   UNL A   1      41.104  27.512  36.872  1.00  0.00    -0.237 OA
ATOM    100  O   UNL A   1      40.850  27.100  34.460  1.00  0.00    -0.744 OA
ENDBRANCH  93  97
ENDBRANCH  67  90
ENDBRANCH  41  42
ENDBRANCH  34  36
ENDBRANCH  33  34
ENDBRANCH  32  33
ENDBRANCH   1  32
TORSDOF 18
ENDMDL
MODEL 2
REMARK VINA RESULT:     -12.9      3.717      8.819
REMARK SMILES COC(=O)c1ccc([C@H]2CC(=O)Nc3c(C(=O)OCCOC(=O)c4ccc(-c5c6nc(c(-c7cc(S(=O)(=O)[O-])ccc7F)c7ccc([nH]7)c(-c7cc(S(=O)(=O)[O-])ccc7F)c7nc(c(-c8cc(S(=O)(=O)[O-])ccc8F)c8ccc5[nH]8)C=C7)C=C6)cc4)cn(-c4ccccc4)c32)cc1
REMARK SMILES IDX 19 1 18 2 16 3 17 4 15 5 9 6 10 7 95 8 11 9 14 10 88 11
REMARK SMILES IDX 12 12 13 13 87 14 8 16 5 17 6 18 97 19 7 20 96 21 3 22 4 23
REMARK SMILES IDX 2 24 1 25 89 26 90 27 94 28 91 29 93 30 92 31 20 32 21 33
REMARK SMILES IDX 22 34 23 35 24 36 25 37 86 38 26 39 85 40 27 41 28 42 29 43
REMARK SMILES IDX 79 44 30 45 84 46 78 47 80 48 31 49 83 50 77 51 76 52 32 54
REMARK SMILES IDX 64 55 44 56 63 57 45 58 48 59 62 60 81 61 46 62 47 63 61 65
REMARK SMILES IDX 82 66 49 67 33 68 34 69 42 70 35 71 41 72 43 73 40 74 36 75
REMARK SMILES IDX 37 76 38 77 39 78 65 79 66 80 74 81 67 82 73 83 75 84 72 85
REMARK SMILES IDX 68 86 69 87 70 88 71 89 50 90 51 91 59 92 52 93 58 94 60 95
REMARK SMILES IDX 57 96 53 97 54 98 55 99 56 100
REMARK H PARENT 13 15 80 53 48 64
REMARK Flexibility Score: inf
ROOT
ATOM      1  C   UNL A   1      33.758  31.057  27.333  1.00  0.00     0.275 C 
ENDROOT
BRANCH   1   2
ATOM      2  O   UNL A   1      33.583  30.000  26.376  1.00  0.00    -0.458 OA
BRANCH   2   3
ATOM      3  C   UNL A   1      32.631  29.070  26.722  1.00  0.00     0.341 C 
ATOM      4  O   UNL A   1      31.754  29.256  27.537  1.00  0.00    -0.246 OA
BRANCH   3   5
ATOM      5  C   UNL A   1      32.753  27.838  25.950  1.00  0.00     0.102 A 
ATOM      6  C   UNL A   1      32.061  25.378  23.241  1.00  0.00     0.078 C 
ATOM      7  C   UNL A   1      30.748  25.991  22.736  1.00  0.00     0.115 C 
ATOM      8  C   UNL A   1      32.572  26.154  24.434  1.00  0.00     0.055 A 
ATOM      9  C   UNL A   1      30.697  27.510  22.823  1.00  0.00     0.225 C 
ATOM     10  C   UNL A   1      32.142  27.425  24.748  1.00  0.00     0.078 A 
ATOM     11  N   UNL A   1      33.491  25.772  25.403  1.00  0.00    -0.317 N 
ATOM     12  O   UNL A   1      30.076  28.185  22.001  1.00  0.00    -0.275 OA
ATOM     13  N   UNL A   1      31.274  28.097  23.919  1.00  0.00    -0.324 N 
ATOM     14  C   UNL A   1      33.513  26.757  26.367  1.00  0.00     0.109 A 
ATOM     15  H   UNL A   1      31.060  29.036  24.121  1.00  0.00     0.170 HD
BRANCH   6  16
ATOM     16  C   UNL A   1      31.899  23.876  23.462  1.00  0.00    -0.038 A 
ATOM     17  C   UNL A   1      32.289  21.231  24.294  1.00  0.00     0.060 A 
ATOM     18  C   UNL A   1      32.819  21.665  23.073  1.00  0.00     0.016 A 
ATOM     19  C   UNL A   1      31.396  22.055  24.986  1.00  0.00     0.016 A 
ATOM     20  C   UNL A   1      32.621  22.983  22.656  1.00  0.00     0.005 A 
ATOM     21  C   UNL A   1      31.177  23.366  24.553  1.00  0.00     0.005 A 
BRANCH  17  22
ATOM     22  C   UNL A   1      32.842  19.982  24.889  1.00  0.00     0.337 C 
ATOM     23  O   UNL A   1      32.153  19.118  25.411  1.00  0.00    -0.246 OA
BRANCH  22  24
ATOM     24  O   UNL A   1      34.169  19.886  24.625  1.00  0.00    -0.465 OA
ATOM     25  C   UNL A   1      34.684  18.555  24.625  1.00  0.00     0.282 C 
ENDBRANCH  22  24
ENDBRANCH  17  22
ENDBRANCH   6  16
BRANCH  11  26
ATOM     26  C   UNL A   1      34.298  24.609  25.462  1.00  0.00     0.045 A 
ATOM     27  C   UNL A   1      34.141  23.697  26.510  1.00  0.00     0.026 A 
ATOM     28  C   UNL A   1      35.279  24.402  24.483  1.00  0.00     0.026 A 
ATOM     29  C   UNL A   1      34.995  22.598  26.600  1.00  0.00     0.002 A 
ATOM     30  C   UNL A   1      36.148  23.315  24.598  1.00  0.00     0.002 A 
ATOM     31  C   UNL A   1      36.007  22.417  25.656  1.00  0.00     0.000 A 
ENDBRANCH  11  26
ENDBRANCH   3   5
ENDBRANCH   2   3
ENDBRANCH   1   2
BRANCH   1  32
ATOM     32  C   UNL A   1      35.218  31.210  27.738  1.00  0.00     0.275 C 
BRANCH  32  33
ATOM     33  O   UNL A   1      35.918  29.965  27.712  1.00  0.00    -0.458 OA
BRANCH  33  34
ATOM     34  C   UNL A   1      36.526  29.639  28.877  1.00  0.00     0.338 C 
ATOM     35  O   UNL A   1      36.218  30.025  29.993  1.00  0.00    -0.246 OA
BRANCH  34  36
ATOM     36  C   UNL A   1      37.785  28.943  28.586  1.00  0.00     0.060 A 
ATOM     37  C   UNL A   1      38.321  28.119  29.581  1.00  0.00     0.016 A 
ATOM     38  C   UNL A   1      38.535  29.325  27.464  1.00  0.00     0.016 A 
ATOM     39  C   UNL A   1      39.660  27.781  29.512  1.00  0.00     0.010 A 
ATOM     40  C   UNL A   1      39.873  29.013  27.413  1.00  0.00     0.010 A 
ATOM     41  C   UNL A   1      40.436  28.289  28.463  1.00  0.00    -0.014 A 
BRANCH  41  42
ATOM     42  C   UNL A   1      41.827  27.886  28.363  1.00  0.00     0.031 A 
ATOM     43  C   UNL A   1      41.976  26.560  27.720  1.00  0.00     0.074 A 
ATOM     44  C   UNL A   1      42.860  28.700  28.653  1.00  0.00     0.049 A 
ATOM     45  N   UNL A   1      42.351  25.455  28.271  1.00  0.00    -0.248 NA
ATOM     46  C   UNL A   1      41.436  26.392  26.359  1.00  0.00     0.031 C 
ATOM     47  C   UNL A   1      42.806  30.116  29.018  1.00  0.00     0.029 A 
ATOM     48  N   UNL A   1      44.197  28.458  28.567  1.00  0.00    -0.354 N 
ATOM     49  C   UNL A   1      42.361  24.520  27.244  1.00  0.00     0.074 A 
ATOM     50  C   UNL A   1      41.550  25.074  26.198  1.00  0.00     0.031 C 
ATOM     51  C   UNL A   1      44.041  30.654  28.898  1.00  0.00     0.029 A 
ATOM     52  C   UNL A   1      44.990  29.605  28.556  1.00  0.00     0.049 A 
ATOM     53  H   UNL A   1      44.573  27.550  28.516  1.00  0.00     0.167 HD
ATOM     54  C   UNL A   1      43.292  23.528  27.220  1.00  0.00     0.034 A 
ATOM     55  C   UNL A   1      46.307  29.690  28.217  1.00  0.00     0.034 A 
ATOM     56  C   UNL A   1      43.880  23.345  28.532  1.00  0.00     0.049 A 
ATOM     57  C   UNL A   1      46.877  28.325  28.352  1.00  0.00     0.074 A 
ATOM     58  C   UNL A   1      43.367  23.093  29.791  1.00  0.00     0.029 A 
ATOM     59  N   UNL A   1      45.161  23.812  28.745  1.00  0.00    -0.354 N 
ATOM     60  N   UNL A   1      46.996  27.708  29.497  1.00  0.00    -0.248 NA
ATOM     61  C   UNL A   1      46.853  27.454  27.185  1.00  0.00     0.031 C 
ATOM     62  C   UNL A   1      44.154  23.885  30.677  1.00  0.00     0.029 A 
ATOM     63  C   UNL A   1      45.161  24.502  29.932  1.00  0.00     0.049 A 
ATOM     64  H   UNL A   1      45.934  23.674  28.153  1.00  0.00     0.167 HD
ATOM     65  C   UNL A   1      46.608  26.402  29.242  1.00  0.00     0.074 A 
ATOM     66  C   UNL A   1      46.631  26.280  27.785  1.00  0.00     0.031 C 
ATOM     67  C   UNL A   1      46.025  25.635  30.211  1.00  0.00     0.034 A 
BRANCH  54  68
ATOM     68  C   UNL A   1      43.969  23.038  25.953  1.00  0.00     0.023 A 
ATOM     69  C   UNL A   1      43.934  21.651  25.723  1.00  0.00     0.031 A 
ATOM     70  C   UNL A   1      44.880  23.764  25.148  1.00  0.00     0.131 A 
ATOM     71  C   UNL A   1      44.865  21.036  24.871  1.00  0.00     0.055 A 
ATOM     72  C   UNL A   1      45.753  23.153  24.244  1.00  0.00     0.041 A 
ATOM     73  F   UNL A   1      45.047  25.087  25.234  1.00  0.00    -0.206 F 
ATOM     74  C   UNL A   1      45.781  21.777  24.132  1.00  0.00     0.022 A 
BRANCH  71  75
ATOM     75  S   UNL A   1      44.983  19.232  24.913  1.00  0.00     0.124 S 
ATOM     76  O   UNL A   1      44.883  18.910  23.494  1.00  0.00    -0.237 OA
ATOM     77  O   UNL A   1      46.290  19.034  25.530  1.00  0.00    -0.237 OA
ATOM     78  O   UNL A   1      43.838  18.839  25.730  1.00  0.00    -0.744 OA
ENDBRANCH  71  75
ENDBRANCH  54  68
BRANCH  55  79
ATOM     79  C   UNL A   1      46.998  30.797  27.489  1.00  0.00     0.023 A 
ATOM     80  C   UNL A   1      46.318  31.923  26.967  1.00  0.00     0.031 A 
ATOM     81  C   UNL A   1      48.410  30.875  27.511  1.00  0.00     0.131 A 
ATOM     82  C   UNL A   1      47.044  33.048  26.501  1.00  0.00     0.055 A 
ATOM     83  C   UNL A   1      49.120  31.985  27.045  1.00  0.00     0.041 A 
ATOM     84  F   UNL A   1      49.153  29.909  28.072  1.00  0.00    -0.206 F 
ATOM     85  C   UNL A   1      48.440  33.082  26.547  1.00  0.00     0.022 A 
BRANCH  82  86
ATOM     86  S   UNL A   1      46.180  34.543  25.908  1.00  0.00     0.124 S 
ATOM     87  O   UNL A   1      45.380  34.920  27.067  1.00  0.00    -0.237 OA
ATOM     88  O   UNL A   1      47.285  35.430  25.563  1.00  0.00    -0.237 OA
ATOM     89  O   UNL A   1      45.407  34.059  24.762  1.00  0.00    -0.744 OA
ENDBRANCH  82  86
ENDBRANCH  55  79
BRANCH  67  90
ATOM     90  C   UNL A   1      46.108  26.099  31.652  1.00  0.00     0.023 A 
ATOM     91  C   UNL A   1      45.058  26.710  32.377  1.00  0.00     0.031 A 
ATOM     92  C   UNL A   1      47.293  25.806  32.351  1.00  0.00     0.131 A 
ATOM     93  C   UNL A   1      45.227  27.016  33.742  1.00  0.00     0.055 A 
ATOM     94  C   UNL A   1      47.448  26.088  33.707  1.00  0.00     0.041 A 
ATOM     95  F   UNL A   1      48.320  25.202  31.728  1.00  0.00    -0.206 F 
ATOM     96  C   UNL A   1      46.418  26.702  34.407  1.00  0.00     0.022 A 
BRANCH  93  97
ATOM     97  S   UNL A   1      43.911  27.854  34.684  1.00  0.00     0.124 S 
ATOM     98  O   UNL A   1      44.531  28.126  35.975  1.00  0.00    -0.237 OA
ATOM     99  O   UNL A   1      43.627  29.021  33.853  1.00  0.00    -0.237 OA
ATOM    100  O   UNL A   1      42.836  26.861  34.722  1.00  0.00    -0.744 OA
ENDBRANCH  93  97
ENDBRANCH  67  90
ENDBRANCH  41  42
ENDBRANCH  34  36
ENDBRANCH  33  34
ENDBRANCH  32  33
ENDBRANCH   1  32
TORSDOF 18
ENDMDL
MODEL 3
REMARK VINA RESULT:     -12.9      3.512      9.473
REMARK SMILES COC(=O)c1ccc([C@H]2CC(=O)Nc3c(C(=O)OCCOC(=O)c4ccc(-c5c6nc(c(-c7cc(S(=O)(=O)[O-])ccc7F)c7ccc([nH]7)c(-c7cc(S(=O)(=O)[O-])ccc7F)c7nc(c(-c8cc(S(=O)(=O)[O-])ccc8F)c8ccc5[nH]8)C=C7)C=C6)cc4)cn(-c4ccccc4)c32)cc1
REMARK SMILES IDX 19 1 18 2 16 3 17 4 15 5 9 6 10 7 95 8 11 9 14 10 88 11
REMARK SMILES IDX 12 12 13 13 87 14 8 16 5 17 6 18 97 19 7 20 96 21 3 22 4 23
REMARK SMILES IDX 2 24 1 25 89 26 90 27 94 28 91 29 93 30 92 31 20 32 21 33
REMARK SMILES IDX 22 34 23 35 24 36 25 37 86 38 26 39 85 40 27 41 28 42 29 43
REMARK SMILES IDX 79 44 30 45 84 46 78 47 80 48 31 49 83 50 77 51 76 52 32 54
REMARK SMILES IDX 64 55 44 56 63 57 45 58 48 59 62 60 81 61 46 62 47 63 61 65
REMARK SMILES IDX 82 66 49 67 33 68 34 69 42 70 35 71 41 72 43 73 40 74 36 75
REMARK SMILES IDX 37 76 38 77 39 78 65 79 66 80 74 81 67 82 73 83 75 84 72 85
REMARK SMILES IDX 68 86 69 87 70 88 71 89 50 90 51 91 59 92 52 93 58 94 60 95
REMARK SMILES IDX 57 96 53 97 54 98 55 99 56 100
REMARK H PARENT 13 15 80 53 48 64
REMARK Flexibility Score: inf
ROOT
ATOM      1  C   UNL A   1      33.039  30.773  26.611  1.00  0.00     0.275 C 
ENDROOT
BRANCH   1   2
ATOM      2  O   UNL A   1      33.542  29.445  26.394  1.00  0.00    -0.458 OA
BRANCH   2   3
ATOM      3  C   UNL A   1      32.777  28.448  26.953  1.00  0.00     0.341 C 
ATOM      4  O   UNL A   1      32.153  28.559  27.987  1.00  0.00    -0.246 OA
BRANCH   3   5
ATOM      5  C   UNL A   1      32.746  27.245  26.129  1.00  0.00     0.102 A 
ATOM      6  C   UNL A   1      31.418  24.764  23.689  1.00  0.00     0.078 C 
ATOM      7  C   UNL A   1      29.962  25.250  23.673  1.00  0.00     0.115 C 
ATOM      8  C   UNL A   1      32.224  25.571  24.681  1.00  0.00     0.055 A 
ATOM      9  C   UNL A   1      29.807  26.755  23.841  1.00  0.00     0.225 C 
ATOM     10  C   UNL A   1      31.810  26.789  25.177  1.00  0.00     0.078 A 
ATOM     11  N   UNL A   1      33.443  25.270  25.276  1.00  0.00    -0.317 N 
ATOM     12  O   UNL A   1      28.891  27.375  23.301  1.00  0.00    -0.275 OA
ATOM     13  N   UNL A   1      30.660  27.382  24.712  1.00  0.00    -0.324 N 
ATOM     14  C   UNL A   1      33.695  26.240  26.223  1.00  0.00     0.109 A 
ATOM     15  H   UNL A   1      30.441  28.293  25.015  1.00  0.00     0.170 HD
BRANCH   6  16
ATOM     16  C   UNL A   1      31.473  23.251  23.883  1.00  0.00    -0.038 A 
ATOM     17  C   UNL A   1      32.342  20.652  24.459  1.00  0.00     0.060 A 
ATOM     18  C   UNL A   1      32.459  21.156  23.158  1.00  0.00     0.016 A 
ATOM     19  C   UNL A   1      31.605  21.367  25.408  1.00  0.00     0.016 A 
ATOM     20  C   UNL A   1      32.022  22.451  22.869  1.00  0.00     0.005 A 
ATOM     21  C   UNL A   1      31.144  22.653  25.110  1.00  0.00     0.005 A 
BRANCH  17  22
ATOM     22  C   UNL A   1      33.161  19.461  24.821  1.00  0.00     0.337 C 
ATOM     23  O   UNL A   1      34.341  19.337  24.526  1.00  0.00    -0.246 OA
BRANCH  22  24
ATOM     24  O   UNL A   1      32.457  18.640  25.639  1.00  0.00    -0.465 OA
ATOM     25  C   UNL A   1      32.675  17.247  25.419  1.00  0.00     0.282 C 
ENDBRANCH  22  24
ENDBRANCH  17  22
ENDBRANCH   6  16
BRANCH  11  26
ATOM     26  C   UNL A   1      34.325  24.193  25.014  1.00  0.00     0.045 A 
ATOM     27  C   UNL A   1      34.626  23.271  26.019  1.00  0.00     0.026 A 
ATOM     28  C   UNL A   1      34.920  24.083  23.749  1.00  0.00     0.026 A 
ATOM     29  C   UNL A   1      35.557  22.262  25.772  1.00  0.00     0.002 A 
ATOM     30  C   UNL A   1      35.871  23.088  23.520  1.00  0.00     0.002 A 
ATOM     31  C   UNL A   1      36.191  22.181  24.531  1.00  0.00     0.000 A 
ENDBRANCH  11  26
ENDBRANCH   3   5
ENDBRANCH   2   3
ENDBRANCH   1   2
BRANCH   1  32
ATOM     32  C   UNL A   1      33.874  31.528  27.637  1.00  0.00     0.275 C 
BRANCH  32  33
ATOM     33  O   UNL A   1      35.111  30.871  27.914  1.00  0.00    -0.458 OA
BRANCH  33  34
ATOM     34  C   UNL A   1      36.080  31.681  28.404  1.00  0.00     0.338 C 
ATOM     35  O   UNL A   1      36.204  32.877  28.194  1.00  0.00    -0.246 OA
BRANCH  34  36
ATOM     36  C   UNL A   1      37.124  30.862  29.030  1.00  0.00     0.060 A 
ATOM     37  C   UNL A   1      38.276  31.510  29.487  1.00  0.00     0.016 A 
ATOM     38  C   UNL A   1      37.064  29.466  28.907  1.00  0.00     0.016 A 
ATOM     39  C   UNL A   1      39.417  30.760  29.702  1.00  0.00     0.010 A 
ATOM     40  C   UNL A   1      38.208  28.727  29.092  1.00  0.00     0.010 A 
ATOM     41  C   UNL A   1      39.387  29.385  29.436  1.00  0.00    -0.014 A 
BRANCH  41  42
ATOM     42  C   UNL A   1      40.571  28.594  29.717  1.00  0.00     0.031 A 
ATOM     43  C   UNL A   1      40.828  28.475  31.171  1.00  0.00     0.074 A 
ATOM     44  C   UNL A   1      41.243  27.902  28.777  1.00  0.00     0.049 A 
ATOM     45  N   UNL A   1      41.793  29.004  31.845  1.00  0.00    -0.248 NA
ATOM     46  C   UNL A   1      39.771  27.883  32.009  1.00  0.00     0.031 C 
ATOM     47  C   UNL A   1      40.888  27.732  27.367  1.00  0.00     0.029 A 
ATOM     48  N   UNL A   1      42.335  27.099  28.914  1.00  0.00    -0.354 N 
ATOM     49  C   UNL A   1      41.607  28.566  33.151  1.00  0.00     0.074 A 
ATOM     50  C   UNL A   1      40.243  28.130  33.230  1.00  0.00     0.031 C 
ATOM     51  C   UNL A   1      41.607  26.712  26.846  1.00  0.00     0.029 A 
ATOM     52  C   UNL A   1      42.548  26.229  27.846  1.00  0.00     0.049 A 
ATOM     53  H   UNL A   1      42.925  27.130  29.702  1.00  0.00     0.167 HD
ATOM     54  C   UNL A   1      42.676  28.303  33.951  1.00  0.00     0.034 A 
ATOM     55  C   UNL A   1      43.380  25.150  27.818  1.00  0.00     0.034 A 
ATOM     56  C   UNL A   1      43.870  28.946  33.440  1.00  0.00     0.049 A 
ATOM     57  C   UNL A   1      44.377  25.345  28.902  1.00  0.00     0.074 A 
ATOM     58  C   UNL A   1      44.197  30.248  33.108  1.00  0.00     0.029 A 
ATOM     59  N   UNL A   1      44.820  28.161  32.819  1.00  0.00    -0.354 N 
ATOM     60  N   UNL A   1      45.270  26.298  28.889  1.00  0.00    -0.248 NA
ATOM     61  C   UNL A   1      44.071  24.807  30.220  1.00  0.00     0.031 C 
ATOM     62  C   UNL A   1      44.987  30.142  31.927  1.00  0.00     0.029 A 
ATOM     63  C   UNL A   1      45.181  28.787  31.652  1.00  0.00     0.049 A 
ATOM     64  H   UNL A   1      45.174  27.306  33.153  1.00  0.00     0.167 HD
ATOM     65  C   UNL A   1      45.296  26.781  30.189  1.00  0.00     0.074 A 
ATOM     66  C   UNL A   1      44.616  25.759  30.984  1.00  0.00     0.031 C 
ATOM     67  C   UNL A   1      45.602  28.086  30.452  1.00  0.00     0.034 A 
BRANCH  54  68
ATOM     68  C   UNL A   1      42.735  27.139  34.923  1.00  0.00     0.023 A 
ATOM     69  C   UNL A   1      43.543  26.051  34.545  1.00  0.00     0.031 A 
ATOM     70  C   UNL A   1      41.847  26.891  35.998  1.00  0.00     0.131 A 
ATOM     71  C   UNL A   1      43.345  24.777  35.099  1.00  0.00     0.055 A 
ATOM     72  C   UNL A   1      41.708  25.636  36.598  1.00  0.00     0.041 A 
ATOM     73  F   UNL A   1      41.004  27.807  36.483  1.00  0.00    -0.206 F 
ATOM     74  C   UNL A   1      42.427  24.559  36.121  1.00  0.00     0.022 A 
BRANCH  71  75
ATOM     75  S   UNL A   1      44.170  23.376  34.308  1.00  0.00     0.124 S 
ATOM     76  O   UNL A   1      44.302  22.455  35.431  1.00  0.00    -0.237 OA
ATOM     77  O   UNL A   1      43.204  23.005  33.279  1.00  0.00    -0.237 OA
ATOM     78  O   UNL A   1      45.418  23.953  33.817  1.00  0.00    -0.744 OA
ENDBRANCH  71  75
ENDBRANCH  54  68
BRANCH  55  79
ATOM     79  C   UNL A   1      43.161  23.839  27.133  1.00  0.00     0.023 A 
ATOM     80  C   UNL A   1      43.977  23.375  26.074  1.00  0.00     0.031 A 
ATOM     81  C   UNL A   1      42.267  22.898  27.693  1.00  0.00     0.131 A 
ATOM     82  C   UNL A   1      43.875  22.034  25.626  1.00  0.00     0.055 A 
ATOM     83  C   UNL A   1      42.167  21.579  27.242  1.00  0.00     0.041 A 
ATOM     84  F   UNL A   1      41.515  23.200  28.763  1.00  0.00    -0.206 F 
ATOM     85  C   UNL A   1      42.979  21.137  26.213  1.00  0.00     0.022 A 
BRANCH  82  86
ATOM     86  S   UNL A   1      44.982  21.393  24.323  1.00  0.00     0.124 S 
ATOM     87  O   UNL A   1      44.567  20.000  24.220  1.00  0.00    -0.237 OA
ATOM     88  O   UNL A   1      44.665  22.253  23.189  1.00  0.00    -0.237 OA
ATOM     89  O   UNL A   1      46.320  21.593  24.883  1.00  0.00    -0.744 OA
ENDBRANCH  82  86
ENDBRANCH  55  79
BRANCH  67  90
ATOM     90  C   UNL A   1      46.237  28.919  29.355  1.00  0.00     0.023 A 
ATOM     91  C   UNL A   1      45.600  29.968  28.650  1.00  0.00     0.031 A 
ATOM     92  C   UNL A   1      47.601  28.694  29.090  1.00  0.00     0.131 A 
ATOM     93  C   UNL A   1      46.326  30.730  27.714  1.00  0.00     0.055 A 
ATOM     94  C   UNL A   1      48.320  29.466  28.180  1.00  0.00     0.041 A 
ATOM     95  F   UNL A   1      48.272  27.730  29.744  1.00  0.00    -0.206 F 
ATOM     96  C   UNL A   1      47.683  30.483  27.482  1.00  0.00     0.022 A 
BRANCH  93  97
ATOM     97  S   UNL A   1      45.514  32.049  26.752  1.00  0.00     0.124 S 
ATOM     98  O   UNL A   1      46.328  33.226  27.027  1.00  0.00    -0.237 OA
ATOM     99  O   UNL A   1      45.582  31.529  25.389  1.00  0.00    -0.237 OA
ATOM    100  O   UNL A   1      44.163  32.097  27.316  1.00  0.00    -0.744 OA
ENDBRANCH  93  97
ENDBRANCH  67  90
ENDBRANCH  41  42
ENDBRANCH  34  36
ENDBRANCH  33  34
ENDBRANCH  32  33
ENDBRANCH   1  32
TORSDOF 18
ENDMDL
