MODEL 1
REMARK VINA RESULT:     -13.1      0.000      0.000
REMARK SMILES Cc1c(NC(=O)c2ccc(Br)cc2N)cccc1C(=O)OCCOC(=O)c1ccc(-c2c3nc(c(-c4cc(S(=O)(=O)[O-])ccc4F)c4ccc([nH]4)c(-c4cc(S(=O)(=O)[O-])ccc4F)c4nc(c(-c5cc(S(=O)(=O)[O-])ccc5F)c5ccc2[nH]5)C=C4)C=C3)cc1
REMARK SMILES IDX 22 1 21 2 19 3 20 4 18 5 1 6 2 7 3 8 15 9 17 10 16 11 4 12
REMARK SMILES IDX 5 13 6 15 7 16 8 17 13 18 9 19 12 20 10 21 11 22 14 23 23 26
REMARK SMILES IDX 24 27 25 28 26 29 27 30 28 31 89 32 29 33 88 34 30 35 31 36
REMARK SMILES IDX 32 37 82 38 33 39 87 40 81 41 83 42 34 43 86 44 80 45 79 46
REMARK SMILES IDX 35 48 67 49 47 50 66 51 48 52 51 53 65 54 84 55 49 56 50 57
REMARK SMILES IDX 64 59 85 60 52 61 36 62 37 63 45 64 38 65 44 66 46 67 43 68
REMARK SMILES IDX 39 69 40 70 41 71 42 72 68 73 69 74 77 75 70 76 76 77 78 78
REMARK SMILES IDX 75 79 71 80 72 81 73 82 74 83 53 84 54 85 62 86 55 87 61 88
REMARK SMILES IDX 63 89 60 90 56 91 57 92 58 93 59 94
REMARK H PARENT 4 14 14 24 14 25 83 47 51 58
REMARK Flexibility Score: inf
ROOT
ATOM      1  C   UNL A   1      33.699  28.745  25.581  1.00  0.00     0.275 C 
ENDROOT
BRANCH   1   2
ATOM      2  O   UNL A   1      33.163  29.156  24.310  1.00  0.00    -0.458 OA
BRANCH   2   3
ATOM      3  C   UNL A   1      31.835  28.871  24.219  1.00  0.00     0.338 C 
ATOM      4  O   UNL A   1      30.945  29.694  24.343  1.00  0.00    -0.246 OA
BRANCH   3   5
ATOM      5  C   UNL A   1      31.518  27.432  24.031  1.00  0.00     0.065 A 
ATOM      6  C   UNL A   1      30.810  27.281  26.479  1.00  0.00     0.047 C 
ATOM      7  C   UNL A   1      30.899  26.721  25.079  1.00  0.00    -0.013 A 
ATOM      8  C   UNL A   1      30.529  25.378  24.839  1.00  0.00     0.045 A 
ATOM      9  C   UNL A   1      30.568  24.843  23.549  1.00  0.00     0.026 A 
ATOM     10  C   UNL A   1      31.735  26.808  22.796  1.00  0.00     0.016 A 
ATOM     11  C   UNL A   1      31.191  25.551  22.528  1.00  0.00     0.003 A 
BRANCH   8  12
ATOM     12  N   UNL A   1      30.273  24.566  25.955  1.00  0.00    -0.322 N 
ATOM     13  C   UNL A   1      31.077  23.639  26.582  1.00  0.00     0.257 C 
ATOM     14  H   UNL A   1      29.378  24.675  26.351  1.00  0.00     0.170 HD
ATOM     15  O   UNL A   1      30.625  23.041  27.563  1.00  0.00    -0.269 OA
BRANCH  13  16
ATOM     16  C   UNL A   1      32.474  23.336  26.159  1.00  0.00     0.063 A 
ATOM     17  C   UNL A   1      33.327  24.456  26.138  1.00  0.00     0.017 A 
ATOM     18  C   UNL A   1      32.973  22.070  25.777  1.00  0.00     0.045 A 
ATOM     19  C   UNL A   1      34.670  24.328  25.791  1.00  0.00     0.016 A 
ATOM     20  C   UNL A   1      34.337  21.957  25.460  1.00  0.00     0.042 A 
ATOM     21  C   UNL A   1      35.173  23.073  25.473  1.00  0.00     0.020 A 
ATOM     22  Br  UNL A   1      36.997  22.885  25.012  1.00  0.00    -0.051 Br
BRANCH  18  23
ATOM     23  N   UNL A   1      32.175  20.949  25.533  1.00  0.00    -0.398 N 
ATOM     24  H   UNL A   1      31.211  21.059  25.359  1.00  0.00     0.156 HD
ATOM     25  H   UNL A   1      32.575  20.050  25.533  1.00  0.00     0.156 HD
ENDBRANCH  18  23
ENDBRANCH  13  16
ENDBRANCH   8  12
ENDBRANCH   3   5
ENDBRANCH   2   3
ENDBRANCH   1   2
BRANCH   1  26
ATOM     26  C   UNL A   1      33.814  29.858  26.634  1.00  0.00     0.275 C 
BRANCH  26  27
ATOM     27  O   UNL A   1      34.551  29.670  27.867  1.00  0.00    -0.458 OA
BRANCH  27  28
ATOM     28  C   UNL A   1      35.406  30.608  28.338  1.00  0.00     0.338 C 
ATOM     29  O   UNL A   1      35.048  31.727  28.695  1.00  0.00    -0.246 OA
BRANCH  28  30
ATOM     30  C   UNL A   1      36.773  30.084  28.558  1.00  0.00     0.060 A 
ATOM     31  C   UNL A   1      37.014  29.272  29.678  1.00  0.00     0.016 A 
ATOM     32  C   UNL A   1      37.707  30.167  27.530  1.00  0.00     0.016 A 
ATOM     33  C   UNL A   1      38.109  28.421  29.704  1.00  0.00     0.010 A 
ATOM     34  C   UNL A   1      38.705  29.229  27.474  1.00  0.00     0.010 A 
ATOM     35  C   UNL A   1      38.926  28.394  28.578  1.00  0.00    -0.014 A 
BRANCH  35  36
ATOM     36  C   UNL A   1      40.270  27.853  28.606  1.00  0.00     0.031 A 
ATOM     37  C   UNL A   1      40.540  26.434  28.339  1.00  0.00     0.074 A 
ATOM     38  C   UNL A   1      41.160  28.855  28.796  1.00  0.00     0.049 A 
ATOM     39  N   UNL A   1      41.621  25.836  28.683  1.00  0.00    -0.248 NA
ATOM     40  C   UNL A   1      39.594  25.518  27.707  1.00  0.00     0.031 C 
ATOM     41  C   UNL A   1      42.599  28.939  28.669  1.00  0.00     0.029 A 
ATOM     42  N   UNL A   1      40.818  30.084  29.369  1.00  0.00    -0.354 N 
ATOM     43  C   UNL A   1      41.669  24.627  28.012  1.00  0.00     0.074 A 
ATOM     44  C   UNL A   1      40.328  24.409  27.551  1.00  0.00     0.031 C 
ATOM     45  C   UNL A   1      43.027  29.983  29.414  1.00  0.00     0.029 A 
ATOM     46  C   UNL A   1      41.875  30.517  30.143  1.00  0.00     0.049 A 
ATOM     47  H   UNL A   1      39.966  30.561  29.242  1.00  0.00     0.167 HD
ATOM     48  C   UNL A   1      42.898  24.079  27.788  1.00  0.00     0.034 A 
ATOM     49  C   UNL A   1      41.682  30.462  31.498  1.00  0.00     0.034 A 
ATOM     50  C   UNL A   1      43.902  24.893  28.471  1.00  0.00     0.049 A 
ATOM     51  C   UNL A   1      42.544  29.359  32.068  1.00  0.00     0.074 A 
ATOM     52  C   UNL A   1      44.693  25.939  28.028  1.00  0.00     0.029 A 
ATOM     53  N   UNL A   1      43.862  24.977  29.855  1.00  0.00    -0.354 N 
ATOM     54  N   UNL A   1      42.812  28.229  31.463  1.00  0.00    -0.248 NA
ATOM     55  C   UNL A   1      43.297  29.551  33.298  1.00  0.00     0.031 C 
ATOM     56  C   UNL A   1      45.017  26.733  29.165  1.00  0.00     0.029 A 
ATOM     57  C   UNL A   1      44.433  26.159  30.284  1.00  0.00     0.049 A 
ATOM     58  H   UNL A   1      43.481  24.289  30.448  1.00  0.00     0.167 HD
ATOM     59  C   UNL A   1      43.837  27.607  32.129  1.00  0.00     0.074 A 
ATOM     60  C   UNL A   1      44.088  28.468  33.279  1.00  0.00     0.031 C 
ATOM     61  C   UNL A   1      44.471  26.470  31.700  1.00  0.00     0.034 A 
BRANCH  48  62
ATOM     62  C   UNL A   1      43.279  23.040  26.753  1.00  0.00     0.023 A 
ATOM     63  C   UNL A   1      42.692  21.757  26.868  1.00  0.00     0.031 A 
ATOM     64  C   UNL A   1      44.209  23.176  25.706  1.00  0.00     0.131 A 
ATOM     65  C   UNL A   1      43.063  20.685  26.038  1.00  0.00     0.055 A 
ATOM     66  C   UNL A   1      44.582  22.104  24.874  1.00  0.00     0.041 A 
ATOM     67  F   UNL A   1      44.791  24.344  25.415  1.00  0.00    -0.206 F 
ATOM     68  C   UNL A   1      44.017  20.849  25.042  1.00  0.00     0.022 A 
BRANCH  65  69
ATOM     69  S   UNL A   1      42.290  19.066  26.306  1.00  0.00     0.124 S 
ATOM     70  O   UNL A   1      40.944  19.278  25.783  1.00  0.00    -0.237 OA
ATOM     71  O   UNL A   1      43.152  18.180  25.533  1.00  0.00    -0.237 OA
ATOM     72  O   UNL A   1      42.366  18.890  27.755  1.00  0.00    -0.744 OA
ENDBRANCH  65  69
ENDBRANCH  48  62
BRANCH  49  73
ATOM     73  C   UNL A   1      40.295  30.850  31.960  1.00  0.00     0.023 A 
ATOM     74  C   UNL A   1      39.763  32.080  31.492  1.00  0.00     0.031 A 
ATOM     75  C   UNL A   1      39.399  29.992  32.611  1.00  0.00     0.131 A 
ATOM     76  C   UNL A   1      38.385  32.355  31.544  1.00  0.00     0.055 A 
ATOM     77  C   UNL A   1      38.027  30.302  32.728  1.00  0.00     0.041 A 
ATOM     78  F   UNL A   1      39.802  28.801  33.075  1.00  0.00    -0.206 F 
ATOM     79  C   UNL A   1      37.508  31.470  32.166  1.00  0.00     0.022 A 
BRANCH  76  80
ATOM     80  S   UNL A   1      37.739  33.742  30.556  1.00  0.00     0.124 S 
ATOM     81  O   UNL A   1      38.565  34.854  31.012  1.00  0.00    -0.237 OA
ATOM     82  O   UNL A   1      37.973  33.290  29.185  1.00  0.00    -0.237 OA
ATOM     83  O   UNL A   1      36.331  33.805  30.938  1.00  0.00    -0.744 OA
ENDBRANCH  76  80
ENDBRANCH  49  73
BRANCH  61  84
ATOM     84  C   UNL A   1      45.288  25.581  32.602  1.00  0.00     0.023 A 
ATOM     85  C   UNL A   1      44.714  24.504  33.279  1.00  0.00     0.031 A 
ATOM     86  C   UNL A   1      46.691  25.713  32.733  1.00  0.00     0.131 A 
ATOM     87  C   UNL A   1      45.462  23.727  34.166  1.00  0.00     0.055 A 
ATOM     88  C   UNL A   1      47.463  24.840  33.503  1.00  0.00     0.041 A 
ATOM     89  F   UNL A   1      47.380  26.682  32.114  1.00  0.00    -0.206 F 
ATOM     90  C   UNL A   1      46.842  23.858  34.258  1.00  0.00     0.022 A 
BRANCH  87  91
ATOM     91  S   UNL A   1      44.540  22.665  35.299  1.00  0.00     0.124 S 
ATOM     92  O   UNL A   1      43.170  23.125  35.081  1.00  0.00    -0.237 OA
ATOM     93  O   UNL A   1      44.842  21.330  34.795  1.00  0.00    -0.237 OA
ATOM     94  O   UNL A   1      45.104  22.987  36.606  1.00  0.00    -0.744 OA
ENDBRANCH  87  91
ENDBRANCH  61  84
ENDBRANCH  35  36
ENDBRANCH  28  30
ENDBRANCH  27  28
ENDBRANCH  26  27
ENDBRANCH   1  26
TORSDOF 17
ENDMDL
MODEL 2
REMARK VINA RESULT:     -12.9      1.654      2.106
REMARK SMILES Cc1c(NC(=O)c2ccc(Br)cc2N)cccc1C(=O)OCCOC(=O)c1ccc(-c2c3nc(c(-c4cc(S(=O)(=O)[O-])ccc4F)c4ccc([nH]4)c(-c4cc(S(=O)(=O)[O-])ccc4F)c4nc(c(-c5cc(S(=O)(=O)[O-])ccc5F)c5ccc2[nH]5)C=C4)C=C3)cc1
REMARK SMILES IDX 22 1 21 2 19 3 20 4 18 5 1 6 2 7 3 8 15 9 17 10 16 11 4 12
REMARK SMILES IDX 5 13 6 15 7 16 8 17 13 18 9 19 12 20 10 21 11 22 14 23 23 26
REMARK SMILES IDX 24 27 25 28 26 29 27 30 28 31 89 32 29 33 88 34 30 35 31 36
REMARK SMILES IDX 32 37 82 38 33 39 87 40 81 41 83 42 34 43 86 44 80 45 79 46
REMARK SMILES IDX 35 48 67 49 47 50 66 51 48 52 51 53 65 54 84 55 49 56 50 57
REMARK SMILES IDX 64 59 85 60 52 61 36 62 37 63 45 64 38 65 44 66 46 67 43 68
REMARK SMILES IDX 39 69 40 70 41 71 42 72 68 73 69 74 77 75 70 76 76 77 78 78
REMARK SMILES IDX 75 79 71 80 72 81 73 82 74 83 53 84 54 85 62 86 55 87 61 88
REMARK SMILES IDX 63 89 60 90 56 91 57 92 58 93 59 94
REMARK H PARENT 4 14 14 24 14 25 83 47 51 58
REMARK Flexibility Score: inf
ROOT
ATOM      1  C   UNL A   1      32.772  30.468  27.146  1.00  0.00     0.275 C 
ENDROOT
BRANCH   1   2
ATOM      2  O   UNL A   1      32.352  30.373  25.773  1.00  0.00    -0.458 OA
BRANCH   2   3
ATOM      3  C   UNL A   1      32.840  29.247  25.185  1.00  0.00     0.338 C 
ATOM      4  O   UNL A   1      34.013  29.067  24.907  1.00  0.00    -0.246 OA
BRANCH   3   5
ATOM      5  C   UNL A   1      31.811  28.240  24.818  1.00  0.00     0.065 A 
ATOM      6  C   UNL A   1      32.041  27.179  27.127  1.00  0.00     0.047 C 
ATOM      7  C   UNL A   1      31.339  27.346  25.800  1.00  0.00    -0.013 A 
ATOM      8  C   UNL A   1      30.298  26.460  25.444  1.00  0.00     0.045 A 
ATOM      9  C   UNL A   1      29.607  26.612  24.239  1.00  0.00     0.026 A 
ATOM     10  C   UNL A   1      31.237  28.238  23.539  1.00  0.00     0.016 A 
ATOM     11  C   UNL A   1      30.090  27.489  23.274  1.00  0.00     0.003 A 
BRANCH   8  12
ATOM     12  N   UNL A   1      30.088  25.340  26.264  1.00  0.00    -0.322 N 
ATOM     13  C   UNL A   1      30.788  24.155  26.345  1.00  0.00     0.257 C 
ATOM     14  H   UNL A   1      29.321  25.412  26.877  1.00  0.00     0.170 HD
ATOM     15  O   UNL A   1      30.410  23.308  27.158  1.00  0.00    -0.269 OA
BRANCH  13  16
ATOM     16  C   UNL A   1      31.995  23.851  25.524  1.00  0.00     0.063 A 
ATOM     17  C   UNL A   1      33.215  24.030  26.202  1.00  0.00     0.017 A 
ATOM     18  C   UNL A   1      31.999  23.435  24.174  1.00  0.00     0.045 A 
ATOM     19  C   UNL A   1      34.430  23.758  25.575  1.00  0.00     0.016 A 
ATOM     20  C   UNL A   1      33.233  23.137  23.570  1.00  0.00     0.042 A 
ATOM     21  C   UNL A   1      34.431  23.292  24.267  1.00  0.00     0.020 A 
ATOM     22  Br  UNL A   1      36.072  22.908  23.411  1.00  0.00    -0.051 Br
BRANCH  18  23
ATOM     23  N   UNL A   1      30.879  23.453  23.339  1.00  0.00    -0.398 N 
ATOM     24  H   UNL A   1      30.994  23.486  22.361  1.00  0.00     0.156 HD
ATOM     25  H   UNL A   1      29.975  23.431  23.727  1.00  0.00     0.156 HD
ENDBRANCH  18  23
ENDBRANCH  13  16
ENDBRANCH   8  12
ENDBRANCH   3   5
ENDBRANCH   2   3
ENDBRANCH   1   2
BRANCH   1  26
ATOM     26  C   UNL A   1      34.245  30.850  27.356  1.00  0.00     0.275 C 
BRANCH  26  27
ATOM     27  O   UNL A   1      35.219  29.897  27.849  1.00  0.00    -0.458 OA
BRANCH  27  28
ATOM     28  C   UNL A   1      36.131  30.231  28.792  1.00  0.00     0.338 C 
ATOM     29  O   UNL A   1      35.897  31.017  29.707  1.00  0.00    -0.246 OA
BRANCH  28  30
ATOM     30  C   UNL A   1      37.361  29.410  28.721  1.00  0.00     0.060 A 
ATOM     31  C   UNL A   1      38.303  29.687  27.717  1.00  0.00     0.016 A 
ATOM     32  C   UNL A   1      37.690  28.585  29.791  1.00  0.00     0.016 A 
ATOM     33  C   UNL A   1      39.619  29.273  27.857  1.00  0.00     0.010 A 
ATOM     34  C   UNL A   1      39.011  28.299  30.016  1.00  0.00     0.010 A 
ATOM     35  C   UNL A   1      39.959  28.606  29.029  1.00  0.00    -0.014 A 
BRANCH  35  36
ATOM     36  C   UNL A   1      41.164  27.811  29.150  1.00  0.00     0.031 A 
ATOM     37  C   UNL A   1      41.218  26.412  28.705  1.00  0.00     0.074 A 
ATOM     38  C   UNL A   1      42.176  28.584  29.608  1.00  0.00     0.049 A 
ATOM     39  N   UNL A   1      42.107  25.573  29.091  1.00  0.00    -0.248 NA
ATOM     40  C   UNL A   1      40.237  25.789  27.819  1.00  0.00     0.031 C 
ATOM     41  C   UNL A   1      43.609  28.397  29.687  1.00  0.00     0.029 A 
ATOM     42  N   UNL A   1      41.970  29.774  30.314  1.00  0.00    -0.354 N 
ATOM     43  C   UNL A   1      42.046  24.474  28.254  1.00  0.00     0.074 A 
ATOM     44  C   UNL A   1      40.778  24.585  27.591  1.00  0.00     0.031 C 
ATOM     45  C   UNL A   1      44.091  29.233  30.634  1.00  0.00     0.029 A 
ATOM     46  C   UNL A   1      42.951  29.887  31.279  1.00  0.00     0.049 A 
ATOM     47  H   UNL A   1      41.248  30.422  30.151  1.00  0.00     0.167 HD
ATOM     48  C   UNL A   1      43.178  23.726  28.111  1.00  0.00     0.034 A 
ATOM     49  C   UNL A   1      42.538  29.699  32.571  1.00  0.00     0.034 A 
ATOM     50  C   UNL A   1      44.189  24.232  29.039  1.00  0.00     0.049 A 
ATOM     51  C   UNL A   1      43.089  28.384  33.073  1.00  0.00     0.074 A 
ATOM     52  C   UNL A   1      45.213  25.148  28.871  1.00  0.00     0.029 A 
ATOM     53  N   UNL A   1      43.945  24.145  30.402  1.00  0.00    -0.354 N 
ATOM     54  N   UNL A   1      43.247  27.310  32.341  1.00  0.00    -0.248 NA
ATOM     55  C   UNL A   1      43.660  28.265  34.406  1.00  0.00     0.031 C 
ATOM     56  C   UNL A   1      45.487  25.711  30.150  1.00  0.00     0.029 A 
ATOM     57  C   UNL A   1      44.641  25.126  31.079  1.00  0.00     0.049 A 
ATOM     58  H   UNL A   1      43.359  23.477  30.825  1.00  0.00     0.167 HD
ATOM     59  C   UNL A   1      44.026  26.418  33.032  1.00  0.00     0.074 A 
ATOM     60  C   UNL A   1      44.240  27.059  34.324  1.00  0.00     0.031 C 
ATOM     61  C   UNL A   1      44.508  25.242  32.519  1.00  0.00     0.034 A 
BRANCH  48  62
ATOM     62  C   UNL A   1      43.528  22.772  26.987  1.00  0.00     0.023 A 
ATOM     63  C   UNL A   1      42.912  21.498  26.996  1.00  0.00     0.031 A 
ATOM     64  C   UNL A   1      44.455  22.977  25.948  1.00  0.00     0.131 A 
ATOM     65  C   UNL A   1      43.253  20.494  26.074  1.00  0.00     0.055 A 
ATOM     66  C   UNL A   1      44.798  21.973  25.024  1.00  0.00     0.041 A 
ATOM     67  F   UNL A   1      45.063  24.152  25.755  1.00  0.00    -0.206 F 
ATOM     68  C   UNL A   1      44.205  20.721  25.088  1.00  0.00     0.022 A 
BRANCH  65  69
ATOM     69  S   UNL A   1      42.444  18.876  26.206  1.00  0.00     0.124 S 
ATOM     70  O   UNL A   1      42.610  18.564  27.622  1.00  0.00    -0.237 OA
ATOM     71  O   UNL A   1      41.086  19.171  25.763  1.00  0.00    -0.237 OA
ATOM     72  O   UNL A   1      43.219  18.033  25.296  1.00  0.00    -0.744 OA
ENDBRANCH  65  69
ENDBRANCH  48  62
BRANCH  49  73
ATOM     73  C   UNL A   1      41.187  30.293  32.901  1.00  0.00     0.023 A 
ATOM     74  C   UNL A   1      41.030  31.697  32.762  1.00  0.00     0.031 A 
ATOM     75  C   UNL A   1      40.013  29.552  33.096  1.00  0.00     0.131 A 
ATOM     76  C   UNL A   1      39.759  32.291  32.674  1.00  0.00     0.055 A 
ATOM     77  C   UNL A   1      38.741  30.160  33.081  1.00  0.00     0.041 A 
ATOM     78  F   UNL A   1      40.056  28.218  33.223  1.00  0.00    -0.206 F 
ATOM     79  C   UNL A   1      38.605  31.529  32.837  1.00  0.00     0.022 A 
BRANCH  76  80
ATOM     80  S   UNL A   1      39.645  34.009  32.079  1.00  0.00     0.124 S 
ATOM     81  O   UNL A   1      38.818  34.635  33.104  1.00  0.00    -0.237 OA
ATOM     82  O   UNL A   1      41.046  34.425  32.043  1.00  0.00    -0.237 OA
ATOM     83  O   UNL A   1      39.022  33.873  30.765  1.00  0.00    -0.744 OA
ENDBRANCH  76  80
ENDBRANCH  49  73
BRANCH  61  84
ATOM     84  C   UNL A   1      45.001  24.101  33.373  1.00  0.00     0.023 A 
ATOM     85  C   UNL A   1      46.306  24.067  33.864  1.00  0.00     0.031 A 
ATOM     86  C   UNL A   1      44.150  23.058  33.814  1.00  0.00     0.131 A 
ATOM     87  C   UNL A   1      46.775  22.974  34.595  1.00  0.00     0.055 A 
ATOM     88  C   UNL A   1      44.581  22.044  34.671  1.00  0.00     0.041 A 
ATOM     89  F   UNL A   1      42.864  22.981  33.446  1.00  0.00    -0.206 F 
ATOM     90  C   UNL A   1      45.916  21.976  35.039  1.00  0.00     0.022 A 
BRANCH  87  91
ATOM     91  S   UNL A   1      48.564  22.834  34.797  1.00  0.00     0.124 S 
ATOM     92  O   UNL A   1      49.043  23.895  33.913  1.00  0.00    -0.237 OA
ATOM     93  O   UNL A   1      48.740  23.078  36.225  1.00  0.00    -0.237 OA
ATOM     94  O   UNL A   1      48.853  21.474  34.351  1.00  0.00    -0.744 OA
ENDBRANCH  87  91
ENDBRANCH  61  84
ENDBRANCH  35  36
ENDBRANCH  28  30
ENDBRANCH  27  28
ENDBRANCH  26  27
ENDBRANCH   1  26
TORSDOF 17
ENDMDL
MODEL 3
REMARK VINA RESULT:     -12.8      3.533      4.945
REMARK SMILES Cc1c(NC(=O)c2ccc(Br)cc2N)cccc1C(=O)OCCOC(=O)c1ccc(-c2c3nc(c(-c4cc(S(=O)(=O)[O-])ccc4F)c4ccc([nH]4)c(-c4cc(S(=O)(=O)[O-])ccc4F)c4nc(c(-c5cc(S(=O)(=O)[O-])ccc5F)c5ccc2[nH]5)C=C4)C=C3)cc1
REMARK SMILES IDX 22 1 21 2 19 3 20 4 18 5 1 6 2 7 3 8 15 9 17 10 16 11 4 12
REMARK SMILES IDX 5 13 6 15 7 16 8 17 13 18 9 19 12 20 10 21 11 22 14 23 23 26
REMARK SMILES IDX 24 27 25 28 26 29 27 30 28 31 89 32 29 33 88 34 30 35 31 36
REMARK SMILES IDX 32 37 82 38 33 39 87 40 81 41 83 42 34 43 86 44 80 45 79 46
REMARK SMILES IDX 35 48 67 49 47 50 66 51 48 52 51 53 65 54 84 55 49 56 50 57
REMARK SMILES IDX 64 59 85 60 52 61 36 62 37 63 45 64 38 65 44 66 46 67 43 68
REMARK SMILES IDX 39 69 40 70 41 71 42 72 68 73 69 74 77 75 70 76 76 77 78 78
REMARK SMILES IDX 75 79 71 80 72 81 73 82 74 83 53 84 54 85 62 86 55 87 61 88
REMARK SMILES IDX 63 89 60 90 56 91 57 92 58 93 59 94
REMARK H PARENT 4 14 14 24 14 25 83 47 51 58
REMARK Flexibility Score: inf
ROOT
ATOM      1  C   UNL A   1      31.206  31.389  25.777  1.00  0.00     0.275 C 
ENDROOT
BRANCH   1   2
ATOM      2  O   UNL A   1      31.705  30.139  26.288  1.00  0.00    -0.458 OA
BRANCH   2   3
ATOM      3  C   UNL A   1      32.231  29.375  25.293  1.00  0.00     0.338 C 
ATOM      4  O   UNL A   1      33.245  29.651  24.674  1.00  0.00    -0.246 OA
BRANCH   3   5
ATOM      5  C   UNL A   1      31.428  28.177  24.935  1.00  0.00     0.065 A 
ATOM      6  C   UNL A   1      31.683  27.309  27.322  1.00  0.00     0.047 C 
ATOM      7  C   UNL A   1      31.057  27.269  25.948  1.00  0.00    -0.013 A 
ATOM      8  C   UNL A   1      30.219  26.188  25.593  1.00  0.00     0.045 A 
ATOM      9  C   UNL A   1      29.598  26.143  24.342  1.00  0.00     0.026 A 
ATOM     10  C   UNL A   1      30.955  27.998  23.628  1.00  0.00     0.016 A 
ATOM     11  C   UNL A   1      29.982  27.037  23.349  1.00  0.00     0.003 A 
BRANCH   8  12
ATOM     12  N   UNL A   1      30.157  25.097  26.474  1.00  0.00    -0.322 N 
ATOM     13  C   UNL A   1      30.976  23.993  26.580  1.00  0.00     0.257 C 
ATOM     14  H   UNL A   1      29.412  25.125  27.117  1.00  0.00     0.170 HD
ATOM     15  O   UNL A   1      30.718  23.156  27.449  1.00  0.00    -0.269 OA
BRANCH  13  16
ATOM     16  C   UNL A   1      32.173  23.767  25.720  1.00  0.00     0.063 A 
ATOM     17  C   UNL A   1      33.387  24.181  26.300  1.00  0.00     0.017 A 
ATOM     18  C   UNL A   1      32.172  23.212  24.421  1.00  0.00     0.045 A 
ATOM     19  C   UNL A   1      34.596  24.009  25.630  1.00  0.00     0.016 A 
ATOM     20  C   UNL A   1      33.405  23.020  23.775  1.00  0.00     0.042 A 
ATOM     21  C   UNL A   1      34.601  23.410  24.377  1.00  0.00     0.020 A 
ATOM     22  Br  UNL A   1      36.237  23.160  23.464  1.00  0.00    -0.051 Br
BRANCH  18  23
ATOM     23  N   UNL A   1      31.021  22.989  23.659  1.00  0.00    -0.398 N 
ATOM     24  H   UNL A   1      30.439  22.220  23.861  1.00  0.00     0.156 HD
ATOM     25  H   UNL A   1      30.793  23.599  22.922  1.00  0.00     0.156 HD
ENDBRANCH  18  23
ENDBRANCH  13  16
ENDBRANCH   8  12
ENDBRANCH   3   5
ENDBRANCH   2   3
ENDBRANCH   1   2
BRANCH   1  26
ATOM     26  C   UNL A   1      31.474  32.613  26.665  1.00  0.00     0.275 C 
BRANCH  26  27
ATOM     27  O   UNL A   1      32.399  32.562  27.779  1.00  0.00    -0.458 OA
BRANCH  27  28
ATOM     28  C   UNL A   1      33.019  33.672  28.245  1.00  0.00     0.338 C 
ATOM     29  O   UNL A   1      32.477  34.773  28.299  1.00  0.00    -0.246 OA
BRANCH  28  30
ATOM     30  C   UNL A   1      34.336  33.383  28.857  1.00  0.00     0.060 A 
ATOM     31  C   UNL A   1      34.492  32.202  29.601  1.00  0.00     0.016 A 
ATOM     32  C   UNL A   1      35.446  34.123  28.462  1.00  0.00     0.016 A 
ATOM     33  C   UNL A   1      35.755  31.672  29.817  1.00  0.00     0.010 A 
ATOM     34  C   UNL A   1      36.683  33.538  28.537  1.00  0.00     0.010 A 
ATOM     35  C   UNL A   1      36.836  32.341  29.250  1.00  0.00    -0.014 A 
BRANCH  35  36
ATOM     36  C   UNL A   1      38.200  32.125  29.688  1.00  0.00     0.031 A 
ATOM     37  C   UNL A   1      38.947  30.913  29.327  1.00  0.00     0.074 A 
ATOM     38  C   UNL A   1      38.647  33.221  30.343  1.00  0.00     0.049 A 
ATOM     39  N   UNL A   1      39.992  30.506  29.949  1.00  0.00    -0.248 NA
ATOM     40  C   UNL A   1      38.563  29.993  28.259  1.00  0.00     0.031 C 
ATOM     41  C   UNL A   1      39.960  33.654  30.770  1.00  0.00     0.029 A 
ATOM     42  N   UNL A   1      37.795  34.163  30.930  1.00  0.00    -0.354 N 
ATOM     43  C   UNL A   1      40.604  29.542  29.168  1.00  0.00     0.074 A 
ATOM     44  C   UNL A   1      39.603  29.150  28.217  1.00  0.00     0.031 C 
ATOM     45  C   UNL A   1      39.804  34.551  31.770  1.00  0.00     0.029 A 
ATOM     46  C   UNL A   1      38.378  34.617  32.096  1.00  0.00     0.049 A 
ATOM     47  H   UNL A   1      36.925  34.453  30.572  1.00  0.00     0.167 HD
ATOM     48  C   UNL A   1      41.945  29.355  29.331  1.00  0.00     0.034 A 
ATOM     49  C   UNL A   1      37.795  34.187  33.258  1.00  0.00     0.034 A 
ATOM     50  C   UNL A   1      42.395  30.179  30.451  1.00  0.00     0.049 A 
ATOM     51  C   UNL A   1      38.721  33.200  33.931  1.00  0.00     0.074 A 
ATOM     52  C   UNL A   1      42.939  31.452  30.496  1.00  0.00     0.029 A 
ATOM     53  N   UNL A   1      41.901  29.908  31.719  1.00  0.00    -0.354 N 
ATOM     54  N   UNL A   1      39.488  32.344  33.302  1.00  0.00    -0.248 NA
ATOM     55  C   UNL A   1      38.959  33.246  35.365  1.00  0.00     0.031 C 
ATOM     56  C   UNL A   1      42.639  31.993  31.779  1.00  0.00     0.029 A 
ATOM     57  C   UNL A   1      41.932  31.045  32.502  1.00  0.00     0.049 A 
ATOM     58  H   UNL A   1      41.575  29.028  32.017  1.00  0.00     0.167 HD
ATOM     59  C   UNL A   1      40.388  31.822  34.196  1.00  0.00     0.074 A 
ATOM     60  C   UNL A   1      39.999  32.407  35.474  1.00  0.00     0.031 C 
ATOM     61  C   UNL A   1      41.431  30.998  33.863  1.00  0.00     0.034 A 
BRANCH  48  62
ATOM     62  C   UNL A   1      42.920  28.716  28.364  1.00  0.00     0.023 A 
ATOM     63  C   UNL A   1      43.213  27.343  28.543  1.00  0.00     0.031 A 
ATOM     64  C   UNL A   1      43.632  29.345  27.326  1.00  0.00     0.131 A 
ATOM     65  C   UNL A   1      44.191  26.679  27.783  1.00  0.00     0.055 A 
ATOM     66  C   UNL A   1      44.612  28.683  26.563  1.00  0.00     0.041 A 
ATOM     67  F   UNL A   1      43.413  30.617  26.977  1.00  0.00    -0.206 F 
ATOM     68  C   UNL A   1      44.903  27.346  26.794  1.00  0.00     0.022 A 
BRANCH  65  69
ATOM     69  S   UNL A   1      44.529  24.932  28.130  1.00  0.00     0.124 S 
ATOM     70  O   UNL A   1      45.301  24.528  26.959  1.00  0.00    -0.237 OA
ATOM     71  O   UNL A   1      45.258  25.002  29.392  1.00  0.00    -0.237 OA
ATOM     72  O   UNL A   1      43.196  24.340  28.222  1.00  0.00    -0.744 OA
ENDBRANCH  65  69
ENDBRANCH  48  62
BRANCH  49  73
ATOM     73  C   UNL A   1      36.285  34.129  33.230  1.00  0.00     0.023 A 
ATOM     74  C   UNL A   1      35.578  35.355  33.110  1.00  0.00     0.031 A 
ATOM     75  C   UNL A   1      35.531  32.959  33.069  1.00  0.00     0.131 A 
ATOM     76  C   UNL A   1      34.233  35.393  32.702  1.00  0.00     0.055 A 
ATOM     77  C   UNL A   1      34.162  32.998  32.731  1.00  0.00     0.041 A 
ATOM     78  F   UNL A   1      36.110  31.752  33.150  1.00  0.00    -0.206 F 
ATOM     79  C   UNL A   1      33.514  34.216  32.514  1.00  0.00     0.022 A 
BRANCH  76  80
ATOM     80  S   UNL A   1      33.535  36.988  32.167  1.00  0.00     0.124 S 
ATOM     81  O   UNL A   1      33.618  36.888  30.715  1.00  0.00    -0.237 OA
ATOM     82  O   UNL A   1      32.189  36.952  32.736  1.00  0.00    -0.237 OA
ATOM     83  O   UNL A   1      34.423  37.971  32.782  1.00  0.00    -0.744 OA
ENDBRANCH  76  80
ENDBRANCH  49  73
BRANCH  61  84
ATOM     84  C   UNL A   1      42.149  30.119  34.855  1.00  0.00     0.023 A 
ATOM     85  C   UNL A   1      41.811  28.775  35.018  1.00  0.00     0.031 A 
ATOM     86  C   UNL A   1      43.267  30.567  35.599  1.00  0.00     0.131 A 
ATOM     87  C   UNL A   1      42.434  27.986  35.987  1.00  0.00     0.055 A 
ATOM     88  C   UNL A   1      43.986  29.734  36.457  1.00  0.00     0.041 A 
ATOM     89  F   UNL A   1      43.722  31.826  35.518  1.00  0.00    -0.206 F 
ATOM     90  C   UNL A   1      43.546  28.439  36.685  1.00  0.00     0.022 A 
BRANCH  87  91
ATOM     91  S   UNL A   1      41.632  26.423  36.405  1.00  0.00     0.124 S 
ATOM     92  O   UNL A   1      42.779  25.597  36.778  1.00  0.00    -0.237 OA
ATOM     93  O   UNL A   1      40.749  26.805  37.502  1.00  0.00    -0.237 OA
ATOM     94  O   UNL A   1      40.965  26.038  35.166  1.00  0.00    -0.744 OA
ENDBRANCH  87  91
ENDBRANCH  61  84
ENDBRANCH  35  36
ENDBRANCH  28  30
ENDBRANCH  27  28
ENDBRANCH  26  27
ENDBRANCH   1  26
TORSDOF 17
ENDMDL
