MODEL 1
REMARK VINA RESULT:     -12.7      0.000      0.000
REMARK SMILES NS(=O)(=O)c1ccc(-n2nc(C(F)(F)F)cc2-c2ccc(C(=O)OCCOC(=O)c3ccc(-c4c5nc(c(-c6cc(S(=O)(=O)[O-])ccc6F)c6ccc([nH]6)c(-c6cc(S(=O)(=O)[O-])ccc6F)c6nc(c(-c7cc(S(=O)(=O)[O-])ccc7F)c7ccc4[nH]7)C=C6)C=C5)cc3)cc2)cc1
REMARK SMILES IDX 25 1 24 2 22 3 23 4 21 5 18 6 19 7 94 8 20 9 93 10 17 11
REMARK SMILES IDX 9 12 10 13 11 14 16 15 8 16 5 17 6 18 96 19 7 20 95 21 2 22
REMARK SMILES IDX 3 23 4 24 1 25 12 28 13 29 14 30 15 31 26 32 27 33 28 34
REMARK SMILES IDX 29 35 30 36 31 37 92 38 32 39 91 40 33 41 34 42 35 43 85 44
REMARK SMILES IDX 36 45 90 46 84 47 86 48 37 49 89 50 83 51 82 52 38 54 70 55
REMARK SMILES IDX 50 56 69 57 51 58 54 59 68 60 87 61 52 62 53 63 67 65 88 66
REMARK SMILES IDX 55 67 39 68 40 69 48 70 41 71 47 72 49 73 46 74 42 75 43 76
REMARK SMILES IDX 44 77 45 78 71 79 72 80 80 81 73 82 79 83 81 84 78 85 74 86
REMARK SMILES IDX 75 87 76 88 77 89 56 90 57 91 65 92 58 93 64 94 66 95 63 96
REMARK SMILES IDX 59 97 60 98 61 99 62 100
REMARK H PARENT 1 26 1 27 86 53 54 64
REMARK Flexibility Score: inf
ROOT
ATOM      1  C   UNL A   1      35.449  32.458  28.568  1.00  0.00     0.275 C 
ENDROOT
BRANCH   1   2
ATOM      2  O   UNL A   1      35.021  31.389  27.711  1.00  0.00    -0.458 OA
BRANCH   2   3
ATOM      3  C   UNL A   1      33.679  31.286  27.541  1.00  0.00     0.338 C 
ATOM      4  O   UNL A   1      32.859  32.177  27.694  1.00  0.00    -0.246 OA
BRANCH   3   5
ATOM      5  C   UNL A   1      33.322  29.925  27.073  1.00  0.00     0.060 A 
ATOM      6  C   UNL A   1      32.700  27.403  26.023  1.00  0.00     0.000 A 
ATOM      7  C   UNL A   1      33.993  27.928  25.886  1.00  0.00     0.011 A 
ATOM      8  C   UNL A   1      31.733  28.132  26.724  1.00  0.00     0.011 A 
ATOM      9  C   UNL A   1      34.304  29.182  26.409  1.00  0.00     0.016 A 
ATOM     10  C   UNL A   1      32.044  29.386  27.257  1.00  0.00     0.016 A 
BRANCH   6  11
ATOM     11  C   UNL A   1      32.342  26.148  25.362  1.00  0.00     0.075 A 
ATOM     12  N   UNL A   1      31.300  25.965  24.461  1.00  0.00    -0.233 N 
ATOM     13  N   UNL A   1      30.998  24.647  24.305  1.00  0.00    -0.163 NA
ATOM     14  C   UNL A   1      31.990  23.986  24.934  1.00  0.00     0.167 A 
ATOM     15  C   UNL A   1      32.837  24.887  25.620  1.00  0.00     0.064 A 
BRANCH  12  16
ATOM     16  C   UNL A   1      30.575  26.962  23.759  1.00  0.00     0.065 A 
ATOM     17  C   UNL A   1      29.173  29.059  22.585  1.00  0.00     0.082 A 
ATOM     18  C   UNL A   1      30.559  28.995  22.439  1.00  0.00     0.024 A 
ATOM     19  C   UNL A   1      28.475  28.049  23.262  1.00  0.00     0.024 A 
ATOM     20  C   UNL A   1      31.262  27.950  23.037  1.00  0.00     0.030 A 
ATOM     21  C   UNL A   1      29.176  26.983  23.833  1.00  0.00     0.030 A 
BRANCH  17  22
ATOM     22  S   UNL A   1      28.274  30.453  21.961  1.00  0.00     0.238 S 
ATOM     23  O   UNL A   1      27.283  30.792  22.958  1.00  0.00    -0.207 OA
ATOM     24  O   UNL A   1      27.953  30.190  20.581  1.00  0.00    -0.207 OA
BRANCH  22  25
ATOM     25  N   UNL A   1      29.400  31.698  21.947  1.00  0.00    -0.225 NA
ATOM     26  H   UNL A   1      29.114  32.423  22.604  1.00  0.00     0.137 HD
ATOM     27  H   UNL A   1      29.458  32.093  21.008  1.00  0.00     0.137 HD
ENDBRANCH  22  25
ENDBRANCH  17  22
ENDBRANCH  12  16
BRANCH  14  28
ATOM     28  C   UNL A   1      32.129  22.488  24.922  1.00  0.00     0.435 C 
ATOM     29  F   UNL A   1      31.701  21.916  23.766  1.00  0.00    -0.164 F 
ATOM     30  F   UNL A   1      33.415  22.090  25.115  1.00  0.00    -0.164 F 
ATOM     31  F   UNL A   1      31.404  21.911  25.923  1.00  0.00    -0.164 F 
ENDBRANCH  14  28
ENDBRANCH   6  11
ENDBRANCH   3   5
ENDBRANCH   2   3
ENDBRANCH   1   2
BRANCH   1  32
ATOM     32  C   UNL A   1      35.789  31.936  29.956  1.00  0.00     0.275 C 
BRANCH  32  33
ATOM     33  O   UNL A   1      37.004  31.186  29.958  1.00  0.00    -0.458 OA
BRANCH  33  34
ATOM     34  C   UNL A   1      36.854  29.848  30.102  1.00  0.00     0.338 C 
ATOM     35  O   UNL A   1      35.971  29.270  30.714  1.00  0.00    -0.246 OA
BRANCH  34  36
ATOM     36  C   UNL A   1      38.068  29.183  29.609  1.00  0.00     0.060 A 
ATOM     37  C   UNL A   1      38.673  28.228  30.429  1.00  0.00     0.016 A 
ATOM     38  C   UNL A   1      38.718  29.683  28.469  1.00  0.00     0.016 A 
ATOM     39  C   UNL A   1      39.987  27.879  30.178  1.00  0.00     0.010 A 
ATOM     40  C   UNL A   1      40.030  29.340  28.225  1.00  0.00     0.010 A 
ATOM     41  C   UNL A   1      40.676  28.490  29.117  1.00  0.00    -0.014 A 
BRANCH  41  42
ATOM     42  C   UNL A   1      42.040  28.068  28.845  1.00  0.00     0.031 A 
ATOM     43  C   UNL A   1      42.092  26.780  28.110  1.00  0.00     0.074 A 
ATOM     44  C   UNL A   1      43.139  28.806  29.105  1.00  0.00     0.049 A 
ATOM     45  N   UNL A   1      42.553  25.657  28.540  1.00  0.00    -0.248 NA
ATOM     46  C   UNL A   1      41.378  26.685  26.824  1.00  0.00     0.031 C 
ATOM     47  C   UNL A   1      43.222  30.187  29.583  1.00  0.00     0.029 A 
ATOM     48  N   UNL A   1      44.447  28.483  28.901  1.00  0.00    -0.354 N 
ATOM     49  C   UNL A   1      42.396  24.759  27.492  1.00  0.00     0.074 A 
ATOM     50  C   UNL A   1      41.507  25.386  26.551  1.00  0.00     0.031 C 
ATOM     51  C   UNL A   1      44.484  30.647  29.407  1.00  0.00     0.029 A 
ATOM     52  C   UNL A   1      45.328  29.562  28.928  1.00  0.00     0.049 A 
ATOM     53  H   UNL A   1      44.746  27.558  28.747  1.00  0.00     0.167 HD
ATOM     54  C   UNL A   1      43.214  23.680  27.373  1.00  0.00     0.034 A 
ATOM     55  C   UNL A   1      46.632  29.568  28.528  1.00  0.00     0.034 A 
ATOM     56  C   UNL A   1      43.826  23.348  28.641  1.00  0.00     0.049 A 
ATOM     57  C   UNL A   1      47.097  28.155  28.589  1.00  0.00     0.074 A 
ATOM     58  C   UNL A   1      43.318  23.052  29.893  1.00  0.00     0.029 A 
ATOM     59  N   UNL A   1      45.135  23.714  28.857  1.00  0.00    -0.354 N 
ATOM     60  N   UNL A   1      47.195  27.485  29.705  1.00  0.00    -0.248 NA
ATOM     61  C   UNL A   1      46.944  27.344  27.390  1.00  0.00     0.031 C 
ATOM     62  C   UNL A   1      44.152  23.766  30.803  1.00  0.00     0.029 A 
ATOM     63  C   UNL A   1      45.177  24.368  30.069  1.00  0.00     0.049 A 
ATOM     64  H   UNL A   1      45.899  23.541  28.260  1.00  0.00     0.167 HD
ATOM     65  C   UNL A   1      46.679  26.231  29.417  1.00  0.00     0.074 A 
ATOM     66  C   UNL A   1      46.606  26.181  27.955  1.00  0.00     0.031 C 
ATOM     67  C   UNL A   1      46.089  25.456  30.375  1.00  0.00     0.034 A 
BRANCH  54  68
ATOM     68  C   UNL A   1      43.727  23.176  26.047  1.00  0.00     0.023 A 
ATOM     69  C   UNL A   1      43.574  21.809  25.759  1.00  0.00     0.031 A 
ATOM     70  C   UNL A   1      44.598  23.893  25.190  1.00  0.00     0.131 A 
ATOM     71  C   UNL A   1      44.315  21.204  24.728  1.00  0.00     0.055 A 
ATOM     72  C   UNL A   1      45.277  23.302  24.123  1.00  0.00     0.041 A 
ATOM     73  F   UNL A   1      44.925  25.175  25.393  1.00  0.00    -0.206 F 
ATOM     74  C   UNL A   1      45.160  21.943  23.903  1.00  0.00     0.022 A 
BRANCH  71  75
ATOM     75  S   UNL A   1      44.289  19.399  24.593  1.00  0.00     0.124 S 
ATOM     76  O   UNL A   1      44.552  19.207  23.170  1.00  0.00    -0.237 OA
ATOM     77  O   UNL A   1      45.360  19.014  25.505  1.00  0.00    -0.237 OA
ATOM     78  O   UNL A   1      42.940  19.046  25.032  1.00  0.00    -0.744 OA
ENDBRANCH  71  75
ENDBRANCH  54  68
BRANCH  55  79
ATOM     79  C   UNL A   1      47.342  30.630  27.744  1.00  0.00     0.023 A 
ATOM     80  C   UNL A   1      46.679  31.727  27.140  1.00  0.00     0.031 A 
ATOM     81  C   UNL A   1      48.752  30.708  27.798  1.00  0.00     0.131 A 
ATOM     82  C   UNL A   1      47.423  32.825  26.629  1.00  0.00     0.055 A 
ATOM     83  C   UNL A   1      49.478  31.792  27.296  1.00  0.00     0.041 A 
ATOM     84  F   UNL A   1      49.480  29.768  28.421  1.00  0.00    -0.206 F 
ATOM     85  C   UNL A   1      48.815  32.861  26.718  1.00  0.00     0.022 A 
BRANCH  82  86
ATOM     86  S   UNL A   1      46.588  34.279  25.903  1.00  0.00     0.124 S 
ATOM     87  O   UNL A   1      46.230  35.053  27.086  1.00  0.00    -0.237 OA
ATOM     88  O   UNL A   1      47.624  34.845  25.047  1.00  0.00    -0.237 OA
ATOM     89  O   UNL A   1      45.452  33.699  25.185  1.00  0.00    -0.744 OA
ENDBRANCH  82  86
ENDBRANCH  55  79
BRANCH  67  90
ATOM     90  C   UNL A   1      46.227  25.853  31.836  1.00  0.00     0.023 A 
ATOM     91  C   UNL A   1      47.338  25.565  32.667  1.00  0.00     0.031 A 
ATOM     92  C   UNL A   1      45.220  26.679  32.370  1.00  0.00     0.131 A 
ATOM     93  C   UNL A   1      47.397  26.091  33.976  1.00  0.00     0.055 A 
ATOM     94  C   UNL A   1      45.294  27.214  33.654  1.00  0.00     0.041 A 
ATOM     95  F   UNL A   1      44.149  27.011  31.629  1.00  0.00    -0.206 F 
ATOM     96  C   UNL A   1      46.380  26.916  34.466  1.00  0.00     0.022 A 
BRANCH  93  97
ATOM     97  S   UNL A   1      48.794  25.704  35.084  1.00  0.00     0.124 S 
ATOM     98  O   UNL A   1      49.940  26.308  34.417  1.00  0.00    -0.237 OA
ATOM     99  O   UNL A   1      48.380  26.326  36.340  1.00  0.00    -0.237 OA
ATOM    100  O   UNL A   1      48.809  24.239  35.113  1.00  0.00    -0.744 OA
ENDBRANCH  93  97
ENDBRANCH  67  90
ENDBRANCH  41  42
ENDBRANCH  34  36
ENDBRANCH  33  34
ENDBRANCH  32  33
ENDBRANCH   1  32
TORSDOF 19
ENDMDL
MODEL 2
REMARK VINA RESULT:     -12.7      2.135      6.887
REMARK SMILES NS(=O)(=O)c1ccc(-n2nc(C(F)(F)F)cc2-c2ccc(C(=O)OCCOC(=O)c3ccc(-c4c5nc(c(-c6cc(S(=O)(=O)[O-])ccc6F)c6ccc([nH]6)c(-c6cc(S(=O)(=O)[O-])ccc6F)c6nc(c(-c7cc(S(=O)(=O)[O-])ccc7F)c7ccc4[nH]7)C=C6)C=C5)cc3)cc2)cc1
REMARK SMILES IDX 25 1 24 2 22 3 23 4 21 5 18 6 19 7 94 8 20 9 93 10 17 11
REMARK SMILES IDX 9 12 10 13 11 14 16 15 8 16 5 17 6 18 96 19 7 20 95 21 2 22
REMARK SMILES IDX 3 23 4 24 1 25 12 28 13 29 14 30 15 31 26 32 27 33 28 34
REMARK SMILES IDX 29 35 30 36 31 37 92 38 32 39 91 40 33 41 34 42 35 43 85 44
REMARK SMILES IDX 36 45 90 46 84 47 86 48 37 49 89 50 83 51 82 52 38 54 70 55
REMARK SMILES IDX 50 56 69 57 51 58 54 59 68 60 87 61 52 62 53 63 67 65 88 66
REMARK SMILES IDX 55 67 39 68 40 69 48 70 41 71 47 72 49 73 46 74 42 75 43 76
REMARK SMILES IDX 44 77 45 78 71 79 72 80 80 81 73 82 79 83 81 84 78 85 74 86
REMARK SMILES IDX 75 87 76 88 77 89 56 90 57 91 65 92 58 93 64 94 66 95 63 96
REMARK SMILES IDX 59 97 60 98 61 99 62 100
REMARK H PARENT 1 26 1 27 86 53 54 64
REMARK Flexibility Score: inf
ROOT
ATOM      1  C   UNL A   1      35.585  32.439  28.112  1.00  0.00     0.275 C 
ENDROOT
BRANCH   1   2
ATOM      2  O   UNL A   1      34.910  31.172  28.149  1.00  0.00    -0.458 OA
BRANCH   2   3
ATOM      3  C   UNL A   1      33.666  31.164  27.608  1.00  0.00     0.338 C 
ATOM      4  O   UNL A   1      32.938  32.132  27.450  1.00  0.00    -0.246 OA
BRANCH   3   5
ATOM      5  C   UNL A   1      33.306  29.797  27.163  1.00  0.00     0.060 A 
ATOM      6  C   UNL A   1      32.684  27.257  26.154  1.00  0.00     0.000 A 
ATOM      7  C   UNL A   1      33.983  27.770  26.027  1.00  0.00     0.011 A 
ATOM      8  C   UNL A   1      31.711  28.007  26.825  1.00  0.00     0.011 A 
ATOM      9  C   UNL A   1      34.294  29.034  26.530  1.00  0.00     0.016 A 
ATOM     10  C   UNL A   1      32.022  29.269  27.336  1.00  0.00     0.016 A 
BRANCH   6  11
ATOM     11  C   UNL A   1      32.329  25.991  25.514  1.00  0.00     0.075 A 
ATOM     12  N   UNL A   1      31.286  25.791  24.617  1.00  0.00    -0.233 N 
ATOM     13  N   UNL A   1      30.987  24.470  24.482  1.00  0.00    -0.163 NA
ATOM     14  C   UNL A   1      31.981  23.822  25.121  1.00  0.00     0.167 A 
ATOM     15  C   UNL A   1      32.827  24.735  25.791  1.00  0.00     0.064 A 
BRANCH  12  16
ATOM     16  C   UNL A   1      30.557  26.775  23.900  1.00  0.00     0.065 A 
ATOM     17  C   UNL A   1      29.161  28.856  22.690  1.00  0.00     0.082 A 
ATOM     18  C   UNL A   1      30.538  28.749  22.492  1.00  0.00     0.024 A 
ATOM     19  C   UNL A   1      28.467  27.895  23.439  1.00  0.00     0.024 A 
ATOM     20  C   UNL A   1      31.239  27.713  23.109  1.00  0.00     0.030 A 
ATOM     21  C   UNL A   1      29.164  26.837  24.029  1.00  0.00     0.030 A 
BRANCH  17  22
ATOM     22  S   UNL A   1      28.272  30.244  22.041  1.00  0.00     0.238 S 
ATOM     23  O   UNL A   1      27.278  30.603  23.028  1.00  0.00    -0.207 OA
ATOM     24  O   UNL A   1      27.957  29.962  20.663  1.00  0.00    -0.207 OA
BRANCH  22  25
ATOM     25  N   UNL A   1      29.404  31.483  22.013  1.00  0.00    -0.225 NA
ATOM     26  H   UNL A   1      30.087  31.304  21.278  1.00  0.00     0.137 HD
ATOM     27  H   UNL A   1      29.879  31.530  22.914  1.00  0.00     0.137 HD
ENDBRANCH  22  25
ENDBRANCH  17  22
ENDBRANCH  12  16
BRANCH  14  28
ATOM     28  C   UNL A   1      32.124  22.325  25.132  1.00  0.00     0.435 C 
ATOM     29  F   UNL A   1      32.718  21.831  24.013  1.00  0.00    -0.164 F 
ATOM     30  F   UNL A   1      32.845  21.885  26.197  1.00  0.00    -0.164 F 
ATOM     31  F   UNL A   1      30.910  21.708  25.221  1.00  0.00    -0.164 F 
ENDBRANCH  14  28
ENDBRANCH   6  11
ENDBRANCH   3   5
ENDBRANCH   2   3
ENDBRANCH   1   2
BRANCH   1  32
ATOM     32  C   UNL A   1      35.367  33.206  29.407  1.00  0.00     0.275 C 
BRANCH  32  33
ATOM     33  O   UNL A   1      36.408  32.957  30.352  1.00  0.00    -0.458 OA
BRANCH  33  34
ATOM     34  C   UNL A   1      36.351  31.751  30.967  1.00  0.00     0.338 C 
ATOM     35  O   UNL A   1      35.582  31.415  31.853  1.00  0.00    -0.246 OA
BRANCH  34  36
ATOM     36  C   UNL A   1      37.530  30.967  30.576  1.00  0.00     0.060 A 
ATOM     37  C   UNL A   1      37.409  29.576  30.537  1.00  0.00     0.016 A 
ATOM     38  C   UNL A   1      38.784  31.594  30.494  1.00  0.00     0.016 A 
ATOM     39  C   UNL A   1      38.563  28.813  30.554  1.00  0.00     0.010 A 
ATOM     40  C   UNL A   1      39.931  30.832  30.520  1.00  0.00     0.010 A 
ATOM     41  C   UNL A   1      39.814  29.449  30.614  1.00  0.00    -0.014 A 
BRANCH  41  42
ATOM     42  C   UNL A   1      41.010  28.625  30.581  1.00  0.00     0.031 A 
ATOM     43  C   UNL A   1      41.589  28.423  31.932  1.00  0.00     0.074 A 
ATOM     44  C   UNL A   1      41.484  28.000  29.483  1.00  0.00     0.049 A 
ATOM     45  N   UNL A   1      42.723  28.855  32.366  1.00  0.00    -0.248 NA
ATOM     46  C   UNL A   1      40.728  27.840  32.976  1.00  0.00     0.031 C 
ATOM     47  C   UNL A   1      40.877  27.899  28.155  1.00  0.00     0.029 A 
ATOM     48  N   UNL A   1      42.600  27.228  29.359  1.00  0.00    -0.354 N 
ATOM     49  C   UNL A   1      42.822  28.402  33.676  1.00  0.00     0.074 A 
ATOM     50  C   UNL A   1      41.507  27.960  34.053  1.00  0.00     0.031 C 
ATOM     51  C   UNL A   1      41.508  26.932  27.446  1.00  0.00     0.029 A 
ATOM     52  C   UNL A   1      42.640  26.435  28.215  1.00  0.00     0.049 A 
ATOM     53  H   UNL A   1      43.323  27.232  30.027  1.00  0.00     0.167 HD
ATOM     54  C   UNL A   1      44.037  28.198  34.250  1.00  0.00     0.034 A 
ATOM     55  C   UNL A   1      43.503  25.410  27.955  1.00  0.00     0.034 A 
ATOM     56  C   UNL A   1      45.066  28.956  33.573  1.00  0.00     0.049 A 
ATOM     57  C   UNL A   1      44.699  25.643  28.809  1.00  0.00     0.074 A 
ATOM     58  C   UNL A   1      45.225  30.300  33.287  1.00  0.00     0.029 A 
ATOM     59  N   UNL A   1      45.903  28.297  32.700  1.00  0.00    -0.354 N 
ATOM     60  N   UNL A   1      45.496  26.667  28.656  1.00  0.00    -0.248 NA
ATOM     61  C   UNL A   1      44.707  25.043  30.135  1.00  0.00     0.031 C 
ATOM     62  C   UNL A   1      45.704  30.333  31.944  1.00  0.00     0.029 A 
ATOM     63  C   UNL A   1      45.908  29.016  31.526  1.00  0.00     0.049 A 
ATOM     64  H   UNL A   1      46.405  27.469  32.882  1.00  0.00     0.167 HD
ATOM     65  C   UNL A   1      45.756  27.112  29.943  1.00  0.00     0.074 A 
ATOM     66  C   UNL A   1      45.301  26.029  30.816  1.00  0.00     0.031 C 
ATOM     67  C   UNL A   1      46.049  28.420  30.208  1.00  0.00     0.034 A 
BRANCH  54  68
ATOM     68  C   UNL A   1      44.329  27.042  35.174  1.00  0.00     0.023 A 
ATOM     69  C   UNL A   1      44.467  25.765  34.604  1.00  0.00     0.031 A 
ATOM     70  C   UNL A   1      44.196  27.078  36.583  1.00  0.00     0.131 A 
ATOM     71  C   UNL A   1      44.394  24.609  35.404  1.00  0.00     0.055 A 
ATOM     72  C   UNL A   1      44.196  25.932  37.380  1.00  0.00     0.041 A 
ATOM     73  F   UNL A   1      43.957  28.207  37.262  1.00  0.00    -0.206 F 
ATOM     74  C   UNL A   1      44.267  24.685  36.789  1.00  0.00     0.022 A 
BRANCH  71  75
ATOM     75  S   UNL A   1      44.293  22.999  34.585  1.00  0.00     0.124 S 
ATOM     76  O   UNL A   1      44.696  22.096  35.658  1.00  0.00    -0.237 OA
ATOM     77  O   UNL A   1      42.889  22.948  34.192  1.00  0.00    -0.237 OA
ATOM     78  O   UNL A   1      45.245  23.120  33.481  1.00  0.00    -0.744 OA
ENDBRANCH  71  75
ENDBRANCH  54  68
BRANCH  55  79
ATOM     79  C   UNL A   1      43.185  24.084  27.334  1.00  0.00     0.023 A 
ATOM     80  C   UNL A   1      43.978  23.485  26.325  1.00  0.00     0.031 A 
ATOM     81  C   UNL A   1      42.204  23.257  27.927  1.00  0.00     0.131 A 
ATOM     82  C   UNL A   1      43.770  22.128  25.956  1.00  0.00     0.055 A 
ATOM     83  C   UNL A   1      42.006  21.922  27.562  1.00  0.00     0.041 A 
ATOM     84  F   UNL A   1      41.451  23.691  28.950  1.00  0.00    -0.206 F 
ATOM     85  C   UNL A   1      42.797  21.348  26.581  1.00  0.00     0.022 A 
BRANCH  82  86
ATOM     86  S   UNL A   1      44.823  21.315  24.703  1.00  0.00     0.124 S 
ATOM     87  O   UNL A   1      44.586  22.134  23.520  1.00  0.00    -0.237 OA
ATOM     88  O   UNL A   1      46.151  21.404  25.298  1.00  0.00    -0.237 OA
ATOM     89  O   UNL A   1      44.278  19.959  24.626  1.00  0.00    -0.744 OA
ENDBRANCH  82  86
ENDBRANCH  55  79
BRANCH  67  90
ATOM     90  C   UNL A   1      46.350  29.360  29.051  1.00  0.00     0.023 A 
ATOM     91  C   UNL A   1      45.402  30.171  28.380  1.00  0.00     0.031 A 
ATOM     92  C   UNL A   1      47.703  29.523  28.700  1.00  0.00     0.131 A 
ATOM     93  C   UNL A   1      45.829  31.089  27.396  1.00  0.00     0.055 A 
ATOM     94  C   UNL A   1      48.121  30.447  27.744  1.00  0.00     0.041 A 
ATOM     95  F   UNL A   1      48.657  28.802  29.312  1.00  0.00    -0.206 F 
ATOM     96  C   UNL A   1      47.183  31.229  27.082  1.00  0.00     0.022 A 
BRANCH  93  97
ATOM     97  S   UNL A   1      44.628  32.119  26.485  1.00  0.00     0.124 S 
ATOM     98  O   UNL A   1      45.399  32.632  25.360  1.00  0.00    -0.237 OA
ATOM     99  O   UNL A   1      43.575  31.160  26.160  1.00  0.00    -0.237 OA
ATOM    100  O   UNL A   1      44.237  33.133  27.467  1.00  0.00    -0.744 OA
ENDBRANCH  93  97
ENDBRANCH  67  90
ENDBRANCH  41  42
ENDBRANCH  34  36
ENDBRANCH  33  34
ENDBRANCH  32  33
ENDBRANCH   1  32
TORSDOF 19
ENDMDL
MODEL 3
REMARK VINA RESULT:     -12.5      2.117      7.312
REMARK SMILES NS(=O)(=O)c1ccc(-n2nc(C(F)(F)F)cc2-c2ccc(C(=O)OCCOC(=O)c3ccc(-c4c5nc(c(-c6cc(S(=O)(=O)[O-])ccc6F)c6ccc([nH]6)c(-c6cc(S(=O)(=O)[O-])ccc6F)c6nc(c(-c7cc(S(=O)(=O)[O-])ccc7F)c7ccc4[nH]7)C=C6)C=C5)cc3)cc2)cc1
REMARK SMILES IDX 25 1 24 2 22 3 23 4 21 5 18 6 19 7 94 8 20 9 93 10 17 11
REMARK SMILES IDX 9 12 10 13 11 14 16 15 8 16 5 17 6 18 96 19 7 20 95 21 2 22
REMARK SMILES IDX 3 23 4 24 1 25 12 28 13 29 14 30 15 31 26 32 27 33 28 34
REMARK SMILES IDX 29 35 30 36 31 37 92 38 32 39 91 40 33 41 34 42 35 43 85 44
REMARK SMILES IDX 36 45 90 46 84 47 86 48 37 49 89 50 83 51 82 52 38 54 70 55
REMARK SMILES IDX 50 56 69 57 51 58 54 59 68 60 87 61 52 62 53 63 67 65 88 66
REMARK SMILES IDX 55 67 39 68 40 69 48 70 41 71 47 72 49 73 46 74 42 75 43 76
REMARK SMILES IDX 44 77 45 78 71 79 72 80 80 81 73 82 79 83 81 84 78 85 74 86
REMARK SMILES IDX 75 87 76 88 77 89 56 90 57 91 65 92 58 93 64 94 66 95 63 96
REMARK SMILES IDX 59 97 60 98 61 99 62 100
REMARK H PARENT 1 26 1 27 86 53 54 64
REMARK Flexibility Score: inf
ROOT
ATOM      1  C   UNL A   1      34.756  33.088  28.307  1.00  0.00     0.275 C 
ENDROOT
BRANCH   1   2
ATOM      2  O   UNL A   1      34.178  31.789  28.111  1.00  0.00    -0.458 OA
BRANCH   2   3
ATOM      3  C   UNL A   1      35.011  30.859  27.580  1.00  0.00     0.338 C 
ATOM      4  O   UNL A   1      36.230  30.908  27.556  1.00  0.00    -0.246 OA
BRANCH   3   5
ATOM      5  C   UNL A   1      34.234  29.707  27.063  1.00  0.00     0.060 A 
ATOM      6  C   UNL A   1      32.741  27.476  26.259  1.00  0.00     0.000 A 
ATOM      7  C   UNL A   1      32.195  28.409  27.153  1.00  0.00     0.011 A 
ATOM      8  C   UNL A   1      34.023  27.690  25.740  1.00  0.00     0.011 A 
ATOM      9  C   UNL A   1      32.937  29.520  27.553  1.00  0.00     0.016 A 
ATOM     10  C   UNL A   1      34.765  28.807  26.133  1.00  0.00     0.016 A 
BRANCH   6  11
ATOM     11  C   UNL A   1      32.013  26.248  25.943  1.00  0.00     0.075 A 
ATOM     12  N   UNL A   1      30.834  26.158  25.212  1.00  0.00    -0.233 N 
ATOM     13  N   UNL A   1      30.221  24.957  25.394  1.00  0.00    -0.163 NA
ATOM     14  C   UNL A   1      31.119  24.206  26.061  1.00  0.00     0.167 A 
ATOM     15  C   UNL A   1      32.241  24.980  26.437  1.00  0.00     0.064 A 
BRANCH  12  16
ATOM     16  C   UNL A   1      30.258  27.145  24.371  1.00  0.00     0.065 A 
ATOM     17  C   UNL A   1      29.045  29.192  22.928  1.00  0.00     0.082 A 
ATOM     18  C   UNL A   1      30.369  29.338  23.343  1.00  0.00     0.024 A 
ATOM     19  C   UNL A   1      28.342  28.005  23.177  1.00  0.00     0.024 A 
ATOM     20  C   UNL A   1      30.973  28.317  24.076  1.00  0.00     0.030 A 
ATOM     21  C   UNL A   1      28.958  26.967  23.882  1.00  0.00     0.030 A 
BRANCH  17  22
ATOM     22  S   UNL A   1      28.208  30.532  22.125  1.00  0.00     0.238 S 
ATOM     23  O   UNL A   1      27.221  31.028  23.058  1.00  0.00    -0.207 OA
ATOM     24  O   UNL A   1      27.893  30.114  20.782  1.00  0.00    -0.207 OA
BRANCH  22  25
ATOM     25  N   UNL A   1      29.383  31.722  21.976  1.00  0.00    -0.225 NA
ATOM     26  H   UNL A   1      30.262  31.297  21.682  1.00  0.00     0.137 HD
ATOM     27  H   UNL A   1      29.513  32.186  22.875  1.00  0.00     0.137 HD
ENDBRANCH  22  25
ENDBRANCH  17  22
ENDBRANCH  12  16
BRANCH  14  28
ATOM     28  C   UNL A   1      30.911  22.751  26.382  1.00  0.00     0.435 C 
ATOM     29  F   UNL A   1      29.601  22.398  26.458  1.00  0.00    -0.164 F 
ATOM     30  F   UNL A   1      31.494  21.934  25.464  1.00  0.00    -0.164 F 
ATOM     31  F   UNL A   1      31.465  22.420  27.583  1.00  0.00    -0.164 F 
ENDBRANCH  14  28
ENDBRANCH   6  11
ENDBRANCH   3   5
ENDBRANCH   2   3
ENDBRANCH   1   2
BRANCH   1  32
ATOM     32  C   UNL A   1      34.890  33.404  29.789  1.00  0.00     0.275 C 
BRANCH  32  33
ATOM     33  O   UNL A   1      36.168  33.020  30.299  1.00  0.00    -0.458 OA
BRANCH  33  34
ATOM     34  C   UNL A   1      36.170  31.903  31.064  1.00  0.00     0.338 C 
ATOM     35  O   UNL A   1      35.489  31.689  32.053  1.00  0.00    -0.246 OA
BRANCH  34  36
ATOM     36  C   UNL A   1      37.308  31.063  30.666  1.00  0.00     0.060 A 
ATOM     37  C   UNL A   1      37.156  29.676  30.735  1.00  0.00     0.016 A 
ATOM     38  C   UNL A   1      38.569  31.650  30.470  1.00  0.00     0.016 A 
ATOM     39  C   UNL A   1      38.292  28.887  30.744  1.00  0.00     0.010 A 
ATOM     40  C   UNL A   1      39.699  30.863  30.488  1.00  0.00     0.010 A 
ATOM     41  C   UNL A   1      39.558  29.494  30.688  1.00  0.00    -0.014 A 
BRANCH  41  42
ATOM     42  C   UNL A   1      40.733  28.639  30.649  1.00  0.00     0.031 A 
ATOM     43  C   UNL A   1      41.258  28.349  32.006  1.00  0.00     0.074 A 
ATOM     44  C   UNL A   1      41.227  28.062  29.535  1.00  0.00     0.049 A 
ATOM     45  N   UNL A   1      42.388  28.724  32.500  1.00  0.00    -0.248 NA
ATOM     46  C   UNL A   1      40.347  27.734  32.987  1.00  0.00     0.031 C 
ATOM     47  C   UNL A   1      40.664  28.051  28.184  1.00  0.00     0.029 A 
ATOM     48  N   UNL A   1      42.326  27.268  29.405  1.00  0.00    -0.354 N 
ATOM     49  C   UNL A   1      42.429  28.198  33.786  1.00  0.00     0.074 A 
ATOM     50  C   UNL A   1      41.091  27.773  34.093  1.00  0.00     0.031 C 
ATOM     51  C   UNL A   1      41.293  27.106  27.444  1.00  0.00     0.029 A 
ATOM     52  C   UNL A   1      42.385  26.537  28.221  1.00  0.00     0.049 A 
ATOM     53  H   UNL A   1      43.026  27.214  30.096  1.00  0.00     0.167 HD
ATOM     54  C   UNL A   1      43.618  27.928  34.387  1.00  0.00     0.034 A 
ATOM     55  C   UNL A   1      43.229  25.504  27.933  1.00  0.00     0.034 A 
ATOM     56  C   UNL A   1      44.690  28.693  33.788  1.00  0.00     0.049 A 
ATOM     57  C   UNL A   1      44.401  25.656  28.837  1.00  0.00     0.074 A 
ATOM     58  C   UNL A   1      44.894  30.045  33.582  1.00  0.00     0.029 A 
ATOM     59  N   UNL A   1      45.539  28.059  32.908  1.00  0.00    -0.354 N 
ATOM     60  N   UNL A   1      45.229  26.663  28.768  1.00  0.00    -0.248 NA
ATOM     61  C   UNL A   1      44.347  24.985  30.128  1.00  0.00     0.031 C 
ATOM     62  C   UNL A   1      45.420  30.138  32.259  1.00  0.00     0.029 A 
ATOM     63  C   UNL A   1      45.603  28.841  31.776  1.00  0.00     0.049 A 
ATOM     64  H   UNL A   1      46.013  27.209  33.060  1.00  0.00     0.167 HD
ATOM     65  C   UNL A   1      45.456  27.030  30.086  1.00  0.00     0.074 A 
ATOM     66  C   UNL A   1      44.942  25.915  30.882  1.00  0.00     0.031 C 
ATOM     67  C   UNL A   1      45.773  28.314  30.433  1.00  0.00     0.034 A 
BRANCH  54  68
ATOM     68  C   UNL A   1      43.848  26.716  35.254  1.00  0.00     0.023 A 
ATOM     69  C   UNL A   1      44.238  26.926  36.587  1.00  0.00     0.031 A 
ATOM     70  C   UNL A   1      43.981  25.390  34.774  1.00  0.00     0.131 A 
ATOM     71  C   UNL A   1      44.798  25.881  37.346  1.00  0.00     0.055 A 
ATOM     72  C   UNL A   1      44.471  24.341  35.553  1.00  0.00     0.041 A 
ATOM     73  F   UNL A   1      43.746  25.052  33.500  1.00  0.00    -0.206 F 
ATOM     74  C   UNL A   1      44.910  24.588  36.840  1.00  0.00     0.022 A 
BRANCH  71  75
ATOM     75  S   UNL A   1      45.539  26.280  38.948  1.00  0.00     0.124 S 
ATOM     76  O   UNL A   1      46.891  26.667  38.559  1.00  0.00    -0.237 OA
ATOM     77  O   UNL A   1      44.671  27.353  39.422  1.00  0.00    -0.237 OA
ATOM     78  O   UNL A   1      45.438  25.024  39.690  1.00  0.00    -0.744 OA
ENDBRANCH  71  75
ENDBRANCH  54  68
BRANCH  55  79
ATOM     79  C   UNL A   1      42.898  24.223  27.230  1.00  0.00     0.023 A 
ATOM     80  C   UNL A   1      43.773  23.587  26.314  1.00  0.00     0.031 A 
ATOM     81  C   UNL A   1      41.786  23.463  27.657  1.00  0.00     0.131 A 
ATOM     82  C   UNL A   1      43.514  22.261  25.874  1.00  0.00     0.055 A 
ATOM     83  C   UNL A   1      41.538  22.158  27.223  1.00  0.00     0.041 A 
ATOM     84  F   UNL A   1      40.937  23.930  28.586  1.00  0.00    -0.206 F 
ATOM     85  C   UNL A   1      42.408  21.546  26.337  1.00  0.00     0.022 A 
BRANCH  82  86
ATOM     86  S   UNL A   1      44.661  21.397  24.744  1.00  0.00     0.124 S 
ATOM     87  O   UNL A   1      44.093  20.055  24.691  1.00  0.00    -0.237 OA
ATOM     88  O   UNL A   1      44.565  22.191  23.526  1.00  0.00    -0.237 OA
ATOM     89  O   UNL A   1      45.951  21.487  25.430  1.00  0.00    -0.744 OA
ENDBRANCH  82  86
ENDBRANCH  55  79
BRANCH  67  90
ATOM     90  C   UNL A   1      46.139  29.306  29.340  1.00  0.00     0.023 A 
ATOM     91  C   UNL A   1      45.219  30.034  28.547  1.00  0.00     0.031 A 
ATOM     92  C   UNL A   1      47.505  29.612  29.189  1.00  0.00     0.131 A 
ATOM     93  C   UNL A   1      45.686  31.014  27.643  1.00  0.00     0.055 A 
ATOM     94  C   UNL A   1      47.959  30.595  28.313  1.00  0.00     0.041 A 
ATOM     95  F   UNL A   1      48.430  28.975  29.926  1.00  0.00    -0.206 F 
ATOM     96  C   UNL A   1      47.050  31.296  27.530  1.00  0.00     0.022 A 
BRANCH  93  97
ATOM     97  S   UNL A   1      44.529  31.940  26.578  1.00  0.00     0.124 S 
ATOM     98  O   UNL A   1      45.363  32.386  25.469  1.00  0.00    -0.237 OA
ATOM     99  O   UNL A   1      43.521  30.932  26.259  1.00  0.00    -0.237 OA
ATOM    100  O   UNL A   1      44.051  33.016  27.451  1.00  0.00    -0.744 OA
ENDBRANCH  93  97
ENDBRANCH  67  90
ENDBRANCH  41  42
ENDBRANCH  34  36
ENDBRANCH  33  34
ENDBRANCH  32  33
ENDBRANCH   1  32
TORSDOF 19
ENDMDL
