MODEL 1
REMARK VINA RESULT:     -11.1      0.000      0.000
REMARK SMILES O=C(COc1cc(C(F)(F)F)nc(Nc2ccc3c(c2)CCC3)n1)OCCOC(=O)c1ccc(-c2c3nc(c(-c4cc(S(=O)(=O)[O-])ccc4F)c4ccc([nH]4)c(-c4cc(S(=O)(=O)[O-])ccc4F)c4nc(c(-c5cc(S(=O)(=O)[O-])ccc5F)c5ccc2[nH]5)C=C4)C=C3)cc1
REMARK SMILES IDX 26 1 25 2 2 3 1 4 3 5 4 6 5 7 6 8 24 9 7 10 13 11 12 12 8 13
REMARK SMILES IDX 9 14 10 15 11 16 14 17 15 19 16 20 20 21 17 22 19 23 18 24
REMARK SMILES IDX 21 25 23 26 22 27 27 28 28 29 29 30 30 31 31 32 32 33 93 34
REMARK SMILES IDX 33 35 92 36 34 37 35 38 36 39 86 40 37 41 91 42 85 43 87 44
REMARK SMILES IDX 38 45 90 46 84 47 83 48 39 50 71 51 51 52 70 53 52 54 55 55
REMARK SMILES IDX 69 56 88 57 53 58 54 59 68 61 89 62 56 63 40 64 41 65 49 66
REMARK SMILES IDX 42 67 48 68 50 69 47 70 43 71 44 72 45 73 46 74 72 75 73 76
REMARK SMILES IDX 81 77 74 78 80 79 82 80 79 81 75 82 76 83 77 84 78 85 57 86
REMARK SMILES IDX 58 87 66 88 59 89 65 90 67 91 64 92 60 93 61 94 62 95 63 96
REMARK H PARENT 14 18 87 49 55 60
REMARK Flexibility Score: inf
ROOT
ATOM      1  C   UNL A   1      44.710  21.413  24.787  1.00  0.00     0.274 C 
ENDROOT
BRANCH   1   2
ATOM      2  O   UNL A   1      44.110  20.211  24.259  1.00  0.00    -0.460 OA
BRANCH   2   3
ATOM      3  C   UNL A   1      43.967  19.069  24.976  1.00  0.00     0.344 C 
ATOM      4  O   UNL A   1      44.810  18.177  24.901  1.00  0.00    -0.248 OA
BRANCH   3   5
ATOM      5  C   UNL A   1      42.826  18.986  25.973  1.00  0.00     0.353 C 
BRANCH   5   6
ATOM      6  O   UNL A   1      41.709  19.697  25.443  1.00  0.00    -0.466 OA
BRANCH   6   7
ATOM      7  C   UNL A   1      41.419  20.729  26.296  1.00  0.00     0.219 A 
ATOM      8  C   UNL A   1      40.307  21.498  26.086  1.00  0.00     0.102 A 
ATOM      9  N   UNL A   1      42.296  20.919  27.281  1.00  0.00    -0.177 NA
ATOM     10  C   UNL A   1      40.159  22.564  26.942  1.00  0.00     0.153 A 
ATOM     11  C   UNL A   1      42.057  21.933  28.120  1.00  0.00     0.231 A 
ATOM     12  N   UNL A   1      41.009  22.762  27.989  1.00  0.00    -0.208 NA
BRANCH  10  13
ATOM     13  C   UNL A   1      39.011  23.532  26.714  1.00  0.00     0.433 C 
ATOM     14  F   UNL A   1      38.593  24.129  27.868  1.00  0.00    -0.165 F 
ATOM     15  F   UNL A   1      39.308  24.543  25.852  1.00  0.00    -0.165 F 
ATOM     16  F   UNL A   1      37.896  22.930  26.201  1.00  0.00    -0.165 F 
ENDBRANCH  10  13
BRANCH  11  17
ATOM     17  N   UNL A   1      42.881  22.117  29.220  1.00  0.00    -0.324 N 
ATOM     18  H   UNL A   1      42.700  21.545  30.001  1.00  0.00     0.170 HD
BRANCH  17  19
ATOM     19  C   UNL A   1      43.940  23.022  29.347  1.00  0.00     0.041 A 
ATOM     20  C   UNL A   1      44.084  23.806  30.510  1.00  0.00     0.026 A 
ATOM     21  C   UNL A   1      44.850  23.178  28.294  1.00  0.00     0.030 A 
ATOM     22  C   UNL A   1      45.117  24.739  30.637  1.00  0.00     0.006 A 
ATOM     23  C   UNL A   1      45.857  24.122  28.415  1.00  0.00    -0.043 A 
ATOM     24  C   UNL A   1      45.994  24.888  29.578  1.00  0.00    -0.045 A 
ATOM     25  C   UNL A   1      46.857  24.540  27.385  1.00  0.00     0.036 C 
ATOM     26  C   UNL A   1      47.121  25.863  29.448  1.00  0.00     0.036 C 
ATOM     27  C   UNL A   1      47.886  25.279  28.251  1.00  0.00     0.010 C 
ENDBRANCH  17  19
ENDBRANCH  11  17
ENDBRANCH   6   7
ENDBRANCH   5   6
ENDBRANCH   3   5
ENDBRANCH   2   3
ENDBRANCH   1   2
BRANCH   1  28
ATOM     28  C   UNL A   1      44.303  22.632  23.958  1.00  0.00     0.275 C 
BRANCH  28  29
ATOM     29  O   UNL A   1      43.715  23.637  24.805  1.00  0.00    -0.458 OA
BRANCH  29  30
ATOM     30  C   UNL A   1      44.444  24.772  24.969  1.00  0.00     0.338 C 
ATOM     31  O   UNL A   1      45.458  25.074  24.364  1.00  0.00    -0.246 OA
BRANCH  30  32
ATOM     32  C   UNL A   1      43.698  25.692  25.856  1.00  0.00     0.060 A 
ATOM     33  C   UNL A   1      44.170  27.003  26.014  1.00  0.00     0.016 A 
ATOM     34  C   UNL A   1      42.544  25.275  26.524  1.00  0.00     0.016 A 
ATOM     35  C   UNL A   1      43.508  27.888  26.870  1.00  0.00     0.010 A 
ATOM     36  C   UNL A   1      41.888  26.156  27.385  1.00  0.00     0.010 A 
ATOM     37  C   UNL A   1      42.383  27.457  27.586  1.00  0.00    -0.014 A 
BRANCH  37  38
ATOM     38  C   UNL A   1      41.827  28.273  28.694  1.00  0.00     0.031 A 
ATOM     39  C   UNL A   1      42.582  28.312  29.993  1.00  0.00     0.074 A 
ATOM     40  C   UNL A   1      40.656  28.922  28.571  1.00  0.00     0.049 A 
ATOM     41  N   UNL A   1      42.241  28.836  31.142  1.00  0.00    -0.248 NA
ATOM     42  C   UNL A   1      43.896  27.653  29.994  1.00  0.00     0.031 C 
ATOM     43  C   UNL A   1      39.850  28.990  27.354  1.00  0.00     0.029 A 
ATOM     44  N   UNL A   1      39.933  29.633  29.497  1.00  0.00    -0.354 N 
ATOM     45  C   UNL A   1      43.296  28.563  32.007  1.00  0.00     0.074 A 
ATOM     46  C   UNL A   1      44.266  27.793  31.257  1.00  0.00     0.031 C 
ATOM     47  C   UNL A   1      38.727  29.684  27.615  1.00  0.00     0.029 A 
ATOM     48  C   UNL A   1      38.719  30.075  29.026  1.00  0.00     0.049 A 
ATOM     49  H   UNL A   1      40.253  29.809  30.410  1.00  0.00     0.167 HD
ATOM     50  C   UNL A   1      43.445  28.927  33.305  1.00  0.00     0.034 A 
ATOM     51  C   UNL A   1      37.706  30.693  29.669  1.00  0.00     0.034 A 
ATOM     52  C   UNL A   1      42.458  29.671  34.047  1.00  0.00     0.049 A 
ATOM     53  C   UNL A   1      37.850  31.013  31.140  1.00  0.00     0.074 A 
ATOM     54  C   UNL A   1      42.507  30.096  35.364  1.00  0.00     0.029 A 
ATOM     55  N   UNL A   1      41.233  30.087  33.542  1.00  0.00    -0.354 N 
ATOM     56  N   UNL A   1      38.855  30.760  31.949  1.00  0.00    -0.248 NA
ATOM     57  C   UNL A   1      36.726  31.708  31.782  1.00  0.00     0.031 C 
ATOM     58  C   UNL A   1      41.285  30.706  35.673  1.00  0.00     0.029 A 
ATOM     59  C   UNL A   1      40.505  30.735  34.528  1.00  0.00     0.049 A 
ATOM     60  H   UNL A   1      40.926  29.943  32.618  1.00  0.00     0.167 HD
ATOM     61  C   UNL A   1      38.497  31.299  33.183  1.00  0.00     0.074 A 
ATOM     62  C   UNL A   1      37.185  31.888  33.013  1.00  0.00     0.031 C 
ATOM     63  C   UNL A   1      39.195  31.317  34.347  1.00  0.00     0.034 A 
BRANCH  50  64
ATOM     64  C   UNL A   1      44.699  28.462  34.004  1.00  0.00     0.023 A 
ATOM     65  C   UNL A   1      45.886  29.215  33.968  1.00  0.00     0.031 A 
ATOM     66  C   UNL A   1      44.729  27.216  34.656  1.00  0.00     0.131 A 
ATOM     67  C   UNL A   1      47.072  28.678  34.490  1.00  0.00     0.055 A 
ATOM     68  C   UNL A   1      45.893  26.726  35.251  1.00  0.00     0.041 A 
ATOM     69  F   UNL A   1      43.634  26.441  34.700  1.00  0.00    -0.206 F 
ATOM     70  C   UNL A   1      47.078  27.448  35.154  1.00  0.00     0.022 A 
BRANCH  67  71
ATOM     71  S   UNL A   1      48.636  29.526  34.135  1.00  0.00     0.124 S 
ATOM     72  O   UNL A   1      49.446  29.144  35.289  1.00  0.00    -0.237 OA
ATOM     73  O   UNL A   1      49.027  28.943  32.858  1.00  0.00    -0.237 OA
ATOM     74  O   UNL A   1      48.258  30.937  34.090  1.00  0.00    -0.744 OA
ENDBRANCH  67  71
ENDBRANCH  50  64
BRANCH  51  75
ATOM     75  C   UNL A   1      36.445  31.015  28.943  1.00  0.00     0.023 A 
ATOM     76  C   UNL A   1      35.619  29.999  28.437  1.00  0.00     0.031 A 
ATOM     77  C   UNL A   1      36.069  32.350  28.708  1.00  0.00     0.131 A 
ATOM     78  C   UNL A   1      34.480  30.333  27.685  1.00  0.00     0.055 A 
ATOM     79  C   UNL A   1      34.910  32.678  28.003  1.00  0.00     0.041 A 
ATOM     80  F   UNL A   1      36.824  33.360  29.173  1.00  0.00    -0.206 F 
ATOM     81  C   UNL A   1      34.115  31.665  27.475  1.00  0.00     0.022 A 
BRANCH  78  82
ATOM     82  S   UNL A   1      33.519  28.998  26.922  1.00  0.00     0.124 S 
ATOM     83  O   UNL A   1      32.868  29.695  25.819  1.00  0.00    -0.237 OA
ATOM     84  O   UNL A   1      34.561  28.045  26.553  1.00  0.00    -0.237 OA
ATOM     85  O   UNL A   1      32.631  28.561  27.996  1.00  0.00    -0.744 OA
ENDBRANCH  78  82
ENDBRANCH  51  75
BRANCH  63  86
ATOM     86  C   UNL A   1      38.586  32.056  35.515  1.00  0.00     0.023 A 
ATOM     87  C   UNL A   1      38.071  31.387  36.638  1.00  0.00     0.031 A 
ATOM     88  C   UNL A   1      38.545  33.463  35.506  1.00  0.00     0.131 A 
ATOM     89  C   UNL A   1      37.504  32.124  37.691  1.00  0.00     0.055 A 
ATOM     90  C   UNL A   1      38.027  34.191  36.577  1.00  0.00     0.041 A 
ATOM     91  F   UNL A   1      39.023  34.153  34.459  1.00  0.00    -0.206 F 
ATOM     92  C   UNL A   1      37.494  33.521  37.674  1.00  0.00     0.022 A 
BRANCH  89  93
ATOM     93  S   UNL A   1      36.722  31.232  39.065  1.00  0.00     0.124 S 
ATOM     94  O   UNL A   1      36.480  29.918  38.476  1.00  0.00    -0.237 OA
ATOM     95  O   UNL A   1      37.750  31.286  40.099  1.00  0.00    -0.237 OA
ATOM     96  O   UNL A   1      35.521  32.015  39.345  1.00  0.00    -0.744 OA
ENDBRANCH  89  93
ENDBRANCH  63  86
ENDBRANCH  37  38
ENDBRANCH  30  32
ENDBRANCH  29  30
ENDBRANCH  28  29
ENDBRANCH   1  28
TORSDOF 19
ENDMDL
MODEL 2
REMARK VINA RESULT:     -10.8      1.995      2.243
REMARK SMILES O=C(COc1cc(C(F)(F)F)nc(Nc2ccc3c(c2)CCC3)n1)OCCOC(=O)c1ccc(-c2c3nc(c(-c4cc(S(=O)(=O)[O-])ccc4F)c4ccc([nH]4)c(-c4cc(S(=O)(=O)[O-])ccc4F)c4nc(c(-c5cc(S(=O)(=O)[O-])ccc5F)c5ccc2[nH]5)C=C4)C=C3)cc1
REMARK SMILES IDX 26 1 25 2 2 3 1 4 3 5 4 6 5 7 6 8 24 9 7 10 13 11 12 12 8 13
REMARK SMILES IDX 9 14 10 15 11 16 14 17 15 19 16 20 20 21 17 22 19 23 18 24
REMARK SMILES IDX 21 25 23 26 22 27 27 28 28 29 29 30 30 31 31 32 32 33 93 34
REMARK SMILES IDX 33 35 92 36 34 37 35 38 36 39 86 40 37 41 91 42 85 43 87 44
REMARK SMILES IDX 38 45 90 46 84 47 83 48 39 50 71 51 51 52 70 53 52 54 55 55
REMARK SMILES IDX 69 56 88 57 53 58 54 59 68 61 89 62 56 63 40 64 41 65 49 66
REMARK SMILES IDX 42 67 48 68 50 69 47 70 43 71 44 72 45 73 46 74 72 75 73 76
REMARK SMILES IDX 81 77 74 78 80 79 82 80 79 81 75 82 76 83 77 84 78 85 57 86
REMARK SMILES IDX 58 87 66 88 59 89 65 90 67 91 64 92 60 93 61 94 62 95 63 96
REMARK H PARENT 14 18 87 49 55 60
REMARK Flexibility Score: inf
ROOT
ATOM      1  C   UNL A   1      44.740  21.355  24.752  1.00  0.00     0.274 C 
ENDROOT
BRANCH   1   2
ATOM      2  O   UNL A   1      44.131  20.143  24.258  1.00  0.00    -0.460 OA
BRANCH   2   3
ATOM      3  C   UNL A   1      43.918  19.046  25.026  1.00  0.00     0.344 C 
ATOM      4  O   UNL A   1      44.711  18.107  25.003  1.00  0.00    -0.248 OA
BRANCH   3   5
ATOM      5  C   UNL A   1      42.766  19.074  26.012  1.00  0.00     0.353 C 
BRANCH   5   6
ATOM      6  O   UNL A   1      41.709  19.852  25.453  1.00  0.00    -0.466 OA
BRANCH   6   7
ATOM      7  C   UNL A   1      41.442  20.885  26.312  1.00  0.00     0.219 A 
ATOM      8  C   UNL A   1      40.339  21.670  26.115  1.00  0.00     0.102 A 
ATOM      9  N   UNL A   1      42.330  21.059  27.290  1.00  0.00    -0.177 NA
ATOM     10  C   UNL A   1      40.213  22.735  26.977  1.00  0.00     0.153 A 
ATOM     11  C   UNL A   1      42.113  22.072  28.135  1.00  0.00     0.231 A 
ATOM     12  N   UNL A   1      41.075  22.917  28.016  1.00  0.00    -0.208 NA
BRANCH  10  13
ATOM     13  C   UNL A   1      39.078  23.720  26.762  1.00  0.00     0.433 C 
ATOM     14  F   UNL A   1      38.605  24.236  27.934  1.00  0.00    -0.165 F 
ATOM     15  F   UNL A   1      39.415  24.787  25.988  1.00  0.00    -0.165 F 
ATOM     16  F   UNL A   1      37.988  23.159  26.156  1.00  0.00    -0.165 F 
ENDBRANCH  10  13
BRANCH  11  17
ATOM     17  N   UNL A   1      42.949  22.241  29.229  1.00  0.00    -0.324 N 
ATOM     18  H   UNL A   1      42.756  21.682  30.015  1.00  0.00     0.170 HD
BRANCH  17  19
ATOM     19  C   UNL A   1      44.036  23.114  29.341  1.00  0.00     0.041 A 
ATOM     20  C   UNL A   1      44.201  23.916  30.488  1.00  0.00     0.026 A 
ATOM     21  C   UNL A   1      44.954  23.219  28.289  1.00  0.00     0.030 A 
ATOM     22  C   UNL A   1      45.264  24.818  30.600  1.00  0.00     0.006 A 
ATOM     23  C   UNL A   1      45.990  24.133  28.394  1.00  0.00    -0.043 A 
ATOM     24  C   UNL A   1      46.148  24.917  29.542  1.00  0.00    -0.045 A 
ATOM     25  C   UNL A   1      47.007  24.496  27.359  1.00  0.00     0.036 C 
ATOM     26  C   UNL A   1      47.306  25.852  29.397  1.00  0.00     0.036 C 
ATOM     27  C   UNL A   1      48.057  25.220  28.214  1.00  0.00     0.010 C 
ENDBRANCH  17  19
ENDBRANCH  11  17
ENDBRANCH   6   7
ENDBRANCH   5   6
ENDBRANCH   3   5
ENDBRANCH   2   3
ENDBRANCH   1   2
BRANCH   1  28
ATOM     28  C   UNL A   1      44.334  22.555  23.894  1.00  0.00     0.275 C 
BRANCH  28  29
ATOM     29  O   UNL A   1      43.801  23.603  24.724  1.00  0.00    -0.458 OA
BRANCH  29  30
ATOM     30  C   UNL A   1      44.597  24.692  24.884  1.00  0.00     0.338 C 
ATOM     31  O   UNL A   1      45.634  24.924  24.288  1.00  0.00    -0.246 OA
BRANCH  30  32
ATOM     32  C   UNL A   1      43.901  25.666  25.755  1.00  0.00     0.060 A 
ATOM     33  C   UNL A   1      44.381  26.982  25.809  1.00  0.00     0.016 A 
ATOM     34  C   UNL A   1      42.783  25.294  26.506  1.00  0.00     0.016 A 
ATOM     35  C   UNL A   1      43.767  27.918  26.646  1.00  0.00     0.010 A 
ATOM     36  C   UNL A   1      42.175  26.227  27.347  1.00  0.00     0.010 A 
ATOM     37  C   UNL A   1      42.681  27.535  27.445  1.00  0.00    -0.014 A 
BRANCH  37  38
ATOM     38  C   UNL A   1      42.186  28.417  28.530  1.00  0.00     0.031 A 
ATOM     39  C   UNL A   1      43.042  28.581  29.756  1.00  0.00     0.074 A 
ATOM     40  C   UNL A   1      40.985  29.018  28.457  1.00  0.00     0.049 A 
ATOM     41  N   UNL A   1      42.774  29.182  30.887  1.00  0.00    -0.248 NA
ATOM     42  C   UNL A   1      44.375  27.965  29.697  1.00  0.00     0.031 C 
ATOM     43  C   UNL A   1      40.082  28.965  27.310  1.00  0.00     0.029 A 
ATOM     44  N   UNL A   1      40.313  29.776  29.384  1.00  0.00    -0.354 N 
ATOM     45  C   UNL A   1      43.905  29.011  31.678  1.00  0.00     0.074 A 
ATOM     46  C   UNL A   1      44.840  28.215  30.910  1.00  0.00     0.031 C 
ATOM     47  C   UNL A   1      38.959  29.643  27.610  1.00  0.00     0.029 A 
ATOM     48  C   UNL A   1      39.049  30.142  28.983  1.00  0.00     0.049 A 
ATOM     49  H   UNL A   1      40.699  30.033  30.251  1.00  0.00     0.167 HD
ATOM     50  C   UNL A   1      44.145  29.479  32.929  1.00  0.00     0.034 A 
ATOM     51  C   UNL A   1      38.069  30.776  29.660  1.00  0.00     0.034 A 
ATOM     52  C   UNL A   1      43.193  30.247  33.693  1.00  0.00     0.049 A 
ATOM     53  C   UNL A   1      38.319  31.214  31.086  1.00  0.00     0.074 A 
ATOM     54  C   UNL A   1      43.332  30.775  34.965  1.00  0.00     0.029 A 
ATOM     55  N   UNL A   1      41.917  30.584  33.261  1.00  0.00    -0.354 N 
ATOM     56  N   UNL A   1      39.394  31.056  31.825  1.00  0.00    -0.248 NA
ATOM     57  C   UNL A   1      37.225  31.921  31.766  1.00  0.00     0.031 C 
ATOM     58  C   UNL A   1      42.118  31.369  35.328  1.00  0.00     0.029 A 
ATOM     59  C   UNL A   1      41.247  31.284  34.252  1.00  0.00     0.049 A 
ATOM     60  H   UNL A   1      41.542  30.359  32.379  1.00  0.00     0.167 HD
ATOM     61  C   UNL A   1      39.117  31.679  33.041  1.00  0.00     0.074 A 
ATOM     62  C   UNL A   1      37.775  32.211  32.937  1.00  0.00     0.031 C 
ATOM     63  C   UNL A   1      39.906  31.809  34.138  1.00  0.00     0.034 A 
BRANCH  50  64
ATOM     64  C   UNL A   1      45.468  29.109  33.554  1.00  0.00     0.023 A 
ATOM     65  C   UNL A   1      46.605  29.924  33.409  1.00  0.00     0.031 A 
ATOM     66  C   UNL A   1      45.612  27.893  34.245  1.00  0.00     0.131 A 
ATOM     67  C   UNL A   1      47.852  29.471  33.865  1.00  0.00     0.055 A 
ATOM     68  C   UNL A   1      46.839  27.489  34.774  1.00  0.00     0.041 A 
ATOM     69  F   UNL A   1      44.568  27.062  34.393  1.00  0.00    -0.206 F 
ATOM     70  C   UNL A   1      47.972  28.270  34.569  1.00  0.00     0.022 A 
BRANCH  67  71
ATOM     71  S   UNL A   1      49.338  30.388  33.372  1.00  0.00     0.124 S 
ATOM     72  O   UNL A   1      50.072  29.374  32.618  1.00  0.00    -0.237 OA
ATOM     73  O   UNL A   1      48.784  31.489  32.594  1.00  0.00    -0.237 OA
ATOM     74  O   UNL A   1      49.946  30.765  34.647  1.00  0.00    -0.744 OA
ENDBRANCH  67  71
ENDBRANCH  50  64
BRANCH  51  75
ATOM     75  C   UNL A   1      36.742  31.001  29.020  1.00  0.00     0.023 A 
ATOM     76  C   UNL A   1      36.212  32.294  28.884  1.00  0.00     0.031 A 
ATOM     77  C   UNL A   1      35.965  29.918  28.572  1.00  0.00     0.131 A 
ATOM     78  C   UNL A   1      34.924  32.469  28.353  1.00  0.00     0.055 A 
ATOM     79  C   UNL A   1      34.705  30.101  28.000  1.00  0.00     0.041 A 
ATOM     80  F   UNL A   1      36.426  28.661  28.678  1.00  0.00    -0.206 F 
ATOM     81  C   UNL A   1      34.172  31.383  27.900  1.00  0.00     0.022 A 
BRANCH  78  82
ATOM     82  S   UNL A   1      34.212  34.138  28.329  1.00  0.00     0.124 S 
ATOM     83  O   UNL A   1      34.507  34.605  29.678  1.00  0.00    -0.237 OA
ATOM     84  O   UNL A   1      34.963  34.772  27.251  1.00  0.00    -0.237 OA
ATOM     85  O   UNL A   1      32.799  33.900  28.045  1.00  0.00    -0.744 OA
ENDBRANCH  78  82
ENDBRANCH  51  75
BRANCH  63  86
ATOM     86  C   UNL A   1      39.365  32.618  35.294  1.00  0.00     0.023 A 
ATOM     87  C   UNL A   1      39.824  33.915  35.579  1.00  0.00     0.031 A 
ATOM     88  C   UNL A   1      38.352  32.080  36.109  1.00  0.00     0.131 A 
ATOM     89  C   UNL A   1      39.295  34.618  36.674  1.00  0.00     0.055 A 
ATOM     90  C   UNL A   1      37.795  32.802  37.164  1.00  0.00     0.041 A 
ATOM     91  F   UNL A   1      37.877  30.845  35.882  1.00  0.00    -0.206 F 
ATOM     92  C   UNL A   1      38.273  34.075  37.458  1.00  0.00     0.022 A 
BRANCH  89  93
ATOM     93  S   UNL A   1      40.002  36.234  37.104  1.00  0.00     0.124 S 
ATOM     94  O   UNL A   1      41.322  35.864  37.607  1.00  0.00    -0.237 OA
ATOM     95  O   UNL A   1      39.981  36.935  35.825  1.00  0.00    -0.237 OA
ATOM     96  O   UNL A   1      39.080  36.756  38.111  1.00  0.00    -0.744 OA
ENDBRANCH  89  93
ENDBRANCH  63  86
ENDBRANCH  37  38
ENDBRANCH  30  32
ENDBRANCH  29  30
ENDBRANCH  28  29
ENDBRANCH   1  28
TORSDOF 19
ENDMDL
MODEL 3
REMARK VINA RESULT:     -10.7      4.816     11.048
REMARK SMILES O=C(COc1cc(C(F)(F)F)nc(Nc2ccc3c(c2)CCC3)n1)OCCOC(=O)c1ccc(-c2c3nc(c(-c4cc(S(=O)(=O)[O-])ccc4F)c4ccc([nH]4)c(-c4cc(S(=O)(=O)[O-])ccc4F)c4nc(c(-c5cc(S(=O)(=O)[O-])ccc5F)c5ccc2[nH]5)C=C4)C=C3)cc1
REMARK SMILES IDX 26 1 25 2 2 3 1 4 3 5 4 6 5 7 6 8 24 9 7 10 13 11 12 12 8 13
REMARK SMILES IDX 9 14 10 15 11 16 14 17 15 19 16 20 20 21 17 22 19 23 18 24
REMARK SMILES IDX 21 25 23 26 22 27 27 28 28 29 29 30 30 31 31 32 32 33 93 34
REMARK SMILES IDX 33 35 92 36 34 37 35 38 36 39 86 40 37 41 91 42 85 43 87 44
REMARK SMILES IDX 38 45 90 46 84 47 83 48 39 50 71 51 51 52 70 53 52 54 55 55
REMARK SMILES IDX 69 56 88 57 53 58 54 59 68 61 89 62 56 63 40 64 41 65 49 66
REMARK SMILES IDX 42 67 48 68 50 69 47 70 43 71 44 72 45 73 46 74 72 75 73 76
REMARK SMILES IDX 81 77 74 78 80 79 82 80 79 81 75 82 76 83 77 84 78 85 57 86
REMARK SMILES IDX 58 87 66 88 59 89 65 90 67 91 64 92 60 93 61 94 62 95 63 96
REMARK H PARENT 14 18 87 49 55 60
REMARK Flexibility Score: inf
ROOT
ATOM      1  C   UNL A   1      31.412  31.508  26.500  1.00  0.00     0.274 C 
ENDROOT
BRANCH   1   2
ATOM      2  O   UNL A   1      32.450  30.588  26.898  1.00  0.00    -0.460 OA
BRANCH   2   3
ATOM      3  C   UNL A   1      32.309  29.240  26.862  1.00  0.00     0.344 C 
ATOM      4  O   UNL A   1      31.566  28.670  27.659  1.00  0.00    -0.248 OA
BRANCH   3   5
ATOM      5  C   UNL A   1      32.972  28.479  25.729  1.00  0.00     0.353 C 
BRANCH   5   6
ATOM      6  O   UNL A   1      32.504  29.011  24.491  1.00  0.00    -0.466 OA
BRANCH   6   7
ATOM      7  C   UNL A   1      31.312  28.405  24.192  1.00  0.00     0.219 A 
ATOM      8  C   UNL A   1      30.308  29.125  23.606  1.00  0.00     0.102 A 
ATOM      9  N   UNL A   1      31.222  27.121  24.537  1.00  0.00    -0.177 NA
ATOM     10  C   UNL A   1      29.123  28.448  23.433  1.00  0.00     0.153 A 
ATOM     11  C   UNL A   1      30.064  26.503  24.280  1.00  0.00     0.231 A 
ATOM     12  N   UNL A   1      29.008  27.124  23.730  1.00  0.00    -0.208 NA
BRANCH  10  13
ATOM     13  C   UNL A   1      27.922  29.202  22.888  1.00  0.00     0.433 C 
ATOM     14  F   UNL A   1      28.089  29.582  21.588  1.00  0.00    -0.165 F 
ATOM     15  F   UNL A   1      26.762  28.491  22.929  1.00  0.00    -0.165 F 
ATOM     16  F   UNL A   1      27.664  30.361  23.567  1.00  0.00    -0.165 F 
ENDBRANCH  10  13
BRANCH  11  17
ATOM     17  N   UNL A   1      29.947  25.143  24.527  1.00  0.00    -0.324 N 
ATOM     18  H   UNL A   1      29.055  24.825  24.797  1.00  0.00     0.170 HD
BRANCH  17  19
ATOM     19  C   UNL A   1      30.949  24.173  24.434  1.00  0.00     0.041 A 
ATOM     20  C   UNL A   1      31.418  23.737  23.178  1.00  0.00     0.026 A 
ATOM     21  C   UNL A   1      31.472  23.601  25.601  1.00  0.00     0.030 A 
ATOM     22  C   UNL A   1      32.395  22.743  23.070  1.00  0.00     0.006 A 
ATOM     23  C   UNL A   1      32.422  22.599  25.486  1.00  0.00    -0.043 A 
ATOM     24  C   UNL A   1      32.885  22.181  24.234  1.00  0.00    -0.045 A 
ATOM     25  C   UNL A   1      33.025  21.772  26.577  1.00  0.00     0.036 C 
ATOM     26  C   UNL A   1      33.868  21.062  24.372  1.00  0.00     0.036 C 
ATOM     27  C   UNL A   1      34.241  21.172  25.858  1.00  0.00     0.010 C 
ENDBRANCH  17  19
ENDBRANCH  11  17
ENDBRANCH   6   7
ENDBRANCH   5   6
ENDBRANCH   3   5
ENDBRANCH   2   3
ENDBRANCH   1   2
BRANCH   1  28
ATOM     28  C   UNL A   1      31.790  32.944  26.865  1.00  0.00     0.275 C 
BRANCH  28  29
ATOM     29  O   UNL A   1      33.058  32.968  27.546  1.00  0.00    -0.458 OA
BRANCH  29  30
ATOM     30  C   UNL A   1      33.272  34.035  28.359  1.00  0.00     0.338 C 
ATOM     31  O   UNL A   1      32.543  35.002  28.490  1.00  0.00    -0.246 OA
BRANCH  30  32
ATOM     32  C   UNL A   1      34.437  33.747  29.226  1.00  0.00     0.060 A 
ATOM     33  C   UNL A   1      35.701  34.199  28.824  1.00  0.00     0.016 A 
ATOM     34  C   UNL A   1      34.290  33.044  30.424  1.00  0.00     0.016 A 
ATOM     35  C   UNL A   1      36.827  33.916  29.602  1.00  0.00     0.010 A 
ATOM     36  C   UNL A   1      35.415  32.755  31.197  1.00  0.00     0.010 A 
ATOM     37  C   UNL A   1      36.693  33.162  30.777  1.00  0.00    -0.014 A 
BRANCH  37  38
ATOM     38  C   UNL A   1      37.885  32.618  31.473  1.00  0.00     0.031 A 
ATOM     39  C   UNL A   1      38.593  31.444  30.854  1.00  0.00     0.074 A 
ATOM     40  C   UNL A   1      38.301  33.116  32.650  1.00  0.00     0.049 A 
ATOM     41  N   UNL A   1      39.565  30.710  31.330  1.00  0.00    -0.248 NA
ATOM     42  C   UNL A   1      38.122  31.038  29.522  1.00  0.00     0.031 C 
ATOM     43  C   UNL A   1      37.722  34.272  33.332  1.00  0.00     0.029 A 
ATOM     44  N   UNL A   1      39.302  32.693  33.490  1.00  0.00    -0.354 N 
ATOM     45  C   UNL A   1      39.819  29.748  30.357  1.00  0.00     0.074 A 
ATOM     46  C   UNL A   1      38.869  29.972  29.287  1.00  0.00     0.031 C 
ATOM     47  C   UNL A   1      38.363  34.452  34.501  1.00  0.00     0.029 A 
ATOM     48  C   UNL A   1      39.369  33.401  34.667  1.00  0.00     0.049 A 
ATOM     49  H   UNL A   1      39.913  31.954  33.270  1.00  0.00     0.167 HD
ATOM     50  C   UNL A   1      40.761  28.773  30.353  1.00  0.00     0.034 A 
ATOM     51  C   UNL A   1      40.131  33.202  35.763  1.00  0.00     0.034 A 
ATOM     52  C   UNL A   1      41.683  28.545  31.439  1.00  0.00     0.049 A 
ATOM     53  C   UNL A   1      41.116  32.055  35.780  1.00  0.00     0.074 A 
ATOM     54  C   UNL A   1      42.679  27.589  31.539  1.00  0.00     0.029 A 
ATOM     55  N   UNL A   1      41.710  29.272  32.622  1.00  0.00    -0.354 N 
ATOM     56  N   UNL A   1      41.356  31.155  34.853  1.00  0.00    -0.248 NA
ATOM     57  C   UNL A   1      41.936  31.901  36.990  1.00  0.00     0.031 C 
ATOM     58  C   UNL A   1      43.261  27.694  32.808  1.00  0.00     0.029 A 
ATOM     59  C   UNL A   1      42.683  28.767  33.470  1.00  0.00     0.049 A 
ATOM     60  H   UNL A   1      41.124  30.035  32.828  1.00  0.00     0.167 HD
ATOM     61  C   UNL A   1      42.381  30.354  35.353  1.00  0.00     0.074 A 
ATOM     62  C   UNL A   1      42.711  30.875  36.664  1.00  0.00     0.031 C 
ATOM     63  C   UNL A   1      43.002  29.293  34.777  1.00  0.00     0.034 A 
BRANCH  50  64
ATOM     64  C   UNL A   1      40.785  27.851  29.159  1.00  0.00     0.023 A 
ATOM     65  C   UNL A   1      41.720  28.012  28.121  1.00  0.00     0.031 A 
ATOM     66  C   UNL A   1      39.815  26.841  29.021  1.00  0.00     0.131 A 
ATOM     67  C   UNL A   1      41.610  27.241  26.954  1.00  0.00     0.055 A 
ATOM     68  C   UNL A   1      39.767  26.018  27.895  1.00  0.00     0.041 A 
ATOM     69  F   UNL A   1      38.881  26.656  29.967  1.00  0.00    -0.206 F 
ATOM     70  C   UNL A   1      40.654  26.228  26.845  1.00  0.00     0.022 A 
BRANCH  67  71
ATOM     71  S   UNL A   1      42.617  27.699  25.517  1.00  0.00     0.124 S 
ATOM     72  O   UNL A   1      42.517  26.497  24.692  1.00  0.00    -0.237 OA
ATOM     73  O   UNL A   1      41.927  28.880  25.013  1.00  0.00    -0.237 OA
ATOM     74  O   UNL A   1      43.940  27.943  26.089  1.00  0.00    -0.744 OA
ENDBRANCH  67  71
ENDBRANCH  50  64
BRANCH  51  75
ATOM     75  C   UNL A   1      39.969  34.080  36.956  1.00  0.00     0.023 A 
ATOM     76  C   UNL A   1      39.332  33.616  38.118  1.00  0.00     0.031 A 
ATOM     77  C   UNL A   1      40.414  35.414  36.936  1.00  0.00     0.131 A 
ATOM     78  C   UNL A   1      39.119  34.490  39.196  1.00  0.00     0.055 A 
ATOM     79  C   UNL A   1      40.244  36.266  38.028  1.00  0.00     0.041 A 
ATOM     80  F   UNL A   1      41.031  35.908  35.849  1.00  0.00    -0.206 F 
ATOM     81  C   UNL A   1      39.581  35.808  39.163  1.00  0.00     0.022 A 
BRANCH  78  82
ATOM     82  S   UNL A   1      38.162  33.900  40.620  1.00  0.00     0.124 S 
ATOM     83  O   UNL A   1      37.800  35.152  41.272  1.00  0.00    -0.237 OA
ATOM     84  O   UNL A   1      37.074  33.173  39.975  1.00  0.00    -0.237 OA
ATOM     85  O   UNL A   1      39.117  33.069  41.349  1.00  0.00    -0.744 OA
ENDBRANCH  78  82
ENDBRANCH  51  75
BRANCH  63  86
ATOM     86  C   UNL A   1      44.150  28.664  35.529  1.00  0.00     0.023 A 
ATOM     87  C   UNL A   1      43.956  27.641  36.474  1.00  0.00     0.031 A 
ATOM     88  C   UNL A   1      45.468  29.086  35.273  1.00  0.00     0.131 A 
ATOM     89  C   UNL A   1      45.059  27.099  37.153  1.00  0.00     0.055 A 
ATOM     90  C   UNL A   1      46.564  28.509  35.914  1.00  0.00     0.041 A 
ATOM     91  F   UNL A   1      45.712  30.059  34.381  1.00  0.00    -0.206 F 
ATOM     92  C   UNL A   1      46.362  27.516  36.867  1.00  0.00     0.022 A 
BRANCH  89  93
ATOM     93  S   UNL A   1      44.769  25.880  38.466  1.00  0.00     0.124 S 
ATOM     94  O   UNL A   1      43.866  24.938  37.811  1.00  0.00    -0.237 OA
ATOM     95  O   UNL A   1      46.115  25.387  38.739  1.00  0.00    -0.237 OA
ATOM     96  O   UNL A   1      44.169  26.667  39.541  1.00  0.00    -0.744 OA
ENDBRANCH  89  93
ENDBRANCH  63  86
ENDBRANCH  37  38
ENDBRANCH  30  32
ENDBRANCH  29  30
ENDBRANCH  28  29
ENDBRANCH   1  28
TORSDOF 19
ENDMDL
