MODEL 1
REMARK VINA RESULT:     -10.8      0.000      0.000
REMARK SMILES Cc1nn(C)c(OCC(C)(C)[NH+](C)C)c1C(=O)OCCOC(=O)c1ccc(-c2c3nc(c(-c4cc(S(=O)(=O)[O-])ccc4F)c4ccc([nH]4)c(-c4cc(S(=O)(=O)[O-])ccc4F)c4nc(c(-c5cc(S(=O)(=O)[O-])ccc5F)c5ccc2[nH]5)C=C4)C=C3)cc1
REMARK SMILES IDX 19 1 18 2 16 3 17 4 15 5 1 6 2 7 3 8 4 9 6 10 5 11 7 12 8 13
REMARK SMILES IDX 9 14 10 15 11 16 12 17 13 18 14 19 20 21 21 22 22 23 23 24
REMARK SMILES IDX 24 25 25 26 86 27 26 28 85 29 27 30 28 31 29 32 79 33 30 34
REMARK SMILES IDX 84 35 78 36 80 37 31 38 83 39 77 40 76 41 32 43 64 44 44 45
REMARK SMILES IDX 63 46 45 47 48 48 62 49 81 50 46 51 47 52 61 54 82 55 49 56
REMARK SMILES IDX 33 57 34 58 42 59 35 60 41 61 43 62 40 63 36 64 37 65 38 66
REMARK SMILES IDX 39 67 65 68 66 69 74 70 67 71 73 72 75 73 72 74 68 75 69 76
REMARK SMILES IDX 70 77 71 78 50 79 51 80 59 81 52 82 58 83 60 84 57 85 53 86
REMARK SMILES IDX 54 87 55 88 56 89
REMARK H PARENT 12 20 80 42 48 53
REMARK Flexibility Score: inf
ROOT
ATOM      1  C   UNL A   1      37.642  20.731  24.956  1.00  0.00     0.275 C 
ENDROOT
BRANCH   1   2
ATOM      2  O   UNL A   1      36.254  20.359  25.116  1.00  0.00    -0.458 OA
BRANCH   2   3
ATOM      3  C   UNL A   1      35.409  21.326  24.643  1.00  0.00     0.345 C 
ATOM      4  O   UNL A   1      35.840  22.227  23.946  1.00  0.00    -0.246 OA
BRANCH   3   5
ATOM      5  C   UNL A   1      34.007  21.196  24.998  1.00  0.00     0.144 A 
ATOM      6  C   UNL A   1      33.354  18.733  24.277  1.00  0.00     0.070 C 
ATOM      7  C   UNL A   1      33.101  20.113  24.763  1.00  0.00     0.078 A 
ATOM      8  N   UNL A   1      31.846  20.423  25.105  1.00  0.00    -0.174 NA
ATOM      9  N   UNL A   1      31.949  21.672  25.584  1.00  0.00    -0.236 N 
ATOM     10  C   UNL A   1      33.248  22.092  25.759  1.00  0.00     0.227 A 
ATOM     11  C   UNL A   1      30.748  22.419  25.883  1.00  0.00     0.178 C 
BRANCH  10  12
ATOM     12  O   UNL A   1      33.425  23.164  26.539  1.00  0.00    -0.471 OA
BRANCH  12  13
ATOM     13  C   UNL A   1      33.974  24.389  26.071  1.00  0.00     0.299 C 
BRANCH  13  14
ATOM     14  C   UNL A   1      33.000  25.459  25.438  1.00  0.00     0.126 C 
ATOM     15  C   UNL A   1      31.762  25.790  26.306  1.00  0.00     0.082 C 
ATOM     16  C   UNL A   1      33.859  26.751  25.303  1.00  0.00     0.082 C 
BRANCH  14  17
ATOM     17  N   UNL A   1      32.587  25.038  24.059  1.00  0.00    -0.333 N 
ATOM     18  C   UNL A   1      31.226  25.456  23.704  1.00  0.00     0.333 C 
ATOM     19  C   UNL A   1      33.508  25.411  22.987  1.00  0.00     0.333 C 
ATOM     20  H   UNL A   1      32.614  24.021  24.128  1.00  0.00     0.348 HD
ENDBRANCH  14  17
ENDBRANCH  13  14
ENDBRANCH  12  13
ENDBRANCH  10  12
ENDBRANCH   3   5
ENDBRANCH   2   3
ENDBRANCH   1   2
BRANCH   1  21
ATOM     21  C   UNL A   1      38.647  19.595  25.243  1.00  0.00     0.275 C 
BRANCH  21  22
ATOM     22  O   UNL A   1      39.355  19.719  26.499  1.00  0.00    -0.458 OA
BRANCH  22  23
ATOM     23  C   UNL A   1      40.681  20.011  26.400  1.00  0.00     0.338 C 
ATOM     24  O   UNL A   1      41.522  19.284  25.891  1.00  0.00    -0.246 OA
BRANCH  23  25
ATOM     25  C   UNL A   1      40.973  21.415  26.814  1.00  0.00     0.060 A 
ATOM     26  C   UNL A   1      40.537  22.443  25.963  1.00  0.00     0.016 A 
ATOM     27  C   UNL A   1      41.623  21.750  28.007  1.00  0.00     0.016 A 
ATOM     28  C   UNL A   1      40.715  23.788  26.316  1.00  0.00     0.010 A 
ATOM     29  C   UNL A   1      41.839  23.103  28.338  1.00  0.00     0.010 A 
ATOM     30  C   UNL A   1      41.387  24.136  27.498  1.00  0.00    -0.014 A 
BRANCH  30  31
ATOM     31  C   UNL A   1      41.766  25.562  27.742  1.00  0.00     0.031 A 
ATOM     32  C   UNL A   1      43.097  26.041  27.220  1.00  0.00     0.074 A 
ATOM     33  C   UNL A   1      40.962  26.435  28.386  1.00  0.00     0.049 A 
ATOM     34  N   UNL A   1      43.644  27.228  27.293  1.00  0.00    -0.248 NA
ATOM     35  C   UNL A   1      43.917  25.041  26.520  1.00  0.00     0.031 C 
ATOM     36  C   UNL A   1      39.632  26.136  28.907  1.00  0.00     0.029 A 
ATOM     37  N   UNL A   1      41.150  27.762  28.710  1.00  0.00    -0.354 N 
ATOM     38  C   UNL A   1      44.862  27.125  26.631  1.00  0.00     0.074 A 
ATOM     39  C   UNL A   1      44.981  25.753  26.182  1.00  0.00     0.031 C 
ATOM     40  C   UNL A   1      39.120  27.243  29.475  1.00  0.00     0.029 A 
ATOM     41  C   UNL A   1      40.105  28.323  29.413  1.00  0.00     0.049 A 
ATOM     42  H   UNL A   1      41.960  28.264  28.462  1.00  0.00     0.167 HD
ATOM     43  C   UNL A   1      45.806  28.076  26.423  1.00  0.00     0.034 A 
ATOM     44  C   UNL A   1      39.969  29.548  29.970  1.00  0.00     0.034 A 
ATOM     45  C   UNL A   1      45.731  29.419  26.937  1.00  0.00     0.049 A 
ATOM     46  C   UNL A   1      41.104  30.548  29.845  1.00  0.00     0.074 A 
ATOM     47  C   UNL A   1      46.655  30.441  26.805  1.00  0.00     0.029 A 
ATOM     48  N   UNL A   1      44.693  29.920  27.710  1.00  0.00    -0.354 N 
ATOM     49  N   UNL A   1      42.239  30.439  29.194  1.00  0.00    -0.248 NA
ATOM     50  C   UNL A   1      40.938  31.837  30.536  1.00  0.00     0.031 C 
ATOM     51  C   UNL A   1      46.219  31.529  27.567  1.00  0.00     0.029 A 
ATOM     52  C   UNL A   1      44.976  31.222  28.097  1.00  0.00     0.049 A 
ATOM     53  H   UNL A   1      43.877  29.425  27.948  1.00  0.00     0.167 HD
ATOM     54  C   UNL A   1      42.897  31.658  29.365  1.00  0.00     0.074 A 
ATOM     55  C   UNL A   1      42.029  32.490  30.168  1.00  0.00     0.031 C 
ATOM     56  C   UNL A   1      44.107  32.055  28.895  1.00  0.00     0.034 A 
BRANCH  43  57
ATOM     57  C   UNL A   1      47.042  27.655  25.669  1.00  0.00     0.023 A 
ATOM     58  C   UNL A   1      47.220  27.976  24.313  1.00  0.00     0.031 A 
ATOM     59  C   UNL A   1      48.031  26.887  26.305  1.00  0.00     0.131 A 
ATOM     60  C   UNL A   1      48.332  27.476  23.620  1.00  0.00     0.055 A 
ATOM     61  C   UNL A   1      49.174  26.458  25.630  1.00  0.00     0.041 A 
ATOM     62  F   UNL A   1      47.896  26.527  27.591  1.00  0.00    -0.206 F 
ATOM     63  C   UNL A   1      49.323  26.741  24.275  1.00  0.00     0.022 A 
BRANCH  60  64
ATOM     64  S   UNL A   1      48.395  27.681  21.819  1.00  0.00     0.124 S 
ATOM     65  O   UNL A   1      48.637  26.312  21.374  1.00  0.00    -0.237 OA
ATOM     66  O   UNL A   1      47.077  28.228  21.516  1.00  0.00    -0.237 OA
ATOM     67  O   UNL A   1      49.513  28.601  21.618  1.00  0.00    -0.744 OA
ENDBRANCH  60  64
ENDBRANCH  43  57
BRANCH  44  68
ATOM     68  C   UNL A   1      38.756  29.912  30.772  1.00  0.00     0.023 A 
ATOM     69  C   UNL A   1      37.779  30.788  30.266  1.00  0.00     0.031 A 
ATOM     70  C   UNL A   1      38.624  29.493  32.109  1.00  0.00     0.131 A 
ATOM     71  C   UNL A   1      36.759  31.269  31.107  1.00  0.00     0.055 A 
ATOM     72  C   UNL A   1      37.571  29.921  32.921  1.00  0.00     0.041 A 
ATOM     73  F   UNL A   1      39.535  28.674  32.659  1.00  0.00    -0.206 F 
ATOM     74  C   UNL A   1      36.641  30.829  32.426  1.00  0.00     0.022 A 
BRANCH  71  75
ATOM     75  S   UNL A   1      35.668  32.587  30.495  1.00  0.00     0.124 S 
ATOM     76  O   UNL A   1      35.591  32.271  29.074  1.00  0.00    -0.237 OA
ATOM     77  O   UNL A   1      34.453  32.358  31.270  1.00  0.00    -0.237 OA
ATOM     78  O   UNL A   1      36.394  33.811  30.826  1.00  0.00    -0.744 OA
ENDBRANCH  71  75
ENDBRANCH  44  68
BRANCH  56  79
ATOM     79  C   UNL A   1      44.542  33.476  29.175  1.00  0.00     0.023 A 
ATOM     80  C   UNL A   1      44.091  34.566  28.407  1.00  0.00     0.031 A 
ATOM     81  C   UNL A   1      45.418  33.743  30.244  1.00  0.00     0.131 A 
ATOM     82  C   UNL A   1      44.553  35.861  28.691  1.00  0.00     0.055 A 
ATOM     83  C   UNL A   1      45.824  35.040  30.560  1.00  0.00     0.041 A 
ATOM     84  F   UNL A   1      45.886  32.744  31.010  1.00  0.00    -0.206 F 
ATOM     85  C   UNL A   1      45.402  36.108  29.774  1.00  0.00     0.022 A 
BRANCH  82  86
ATOM     86  S   UNL A   1      44.098  37.218  27.575  1.00  0.00     0.124 S 
ATOM     87  O   UNL A   1      45.398  37.639  27.061  1.00  0.00    -0.237 OA
ATOM     88  O   UNL A   1      43.219  36.554  26.617  1.00  0.00    -0.237 OA
ATOM     89  O   UNL A   1      43.439  38.181  28.456  1.00  0.00    -0.744 OA
ENDBRANCH  82  86
ENDBRANCH  56  79
ENDBRANCH  30  31
ENDBRANCH  23  25
ENDBRANCH  22  23
ENDBRANCH  21  22
ENDBRANCH   1  21
TORSDOF 18
ENDMDL
MODEL 2
REMARK VINA RESULT:     -10.3      1.904      7.915
REMARK SMILES Cc1nn(C)c(OCC(C)(C)[NH+](C)C)c1C(=O)OCCOC(=O)c1ccc(-c2c3nc(c(-c4cc(S(=O)(=O)[O-])ccc4F)c4ccc([nH]4)c(-c4cc(S(=O)(=O)[O-])ccc4F)c4nc(c(-c5cc(S(=O)(=O)[O-])ccc5F)c5ccc2[nH]5)C=C4)C=C3)cc1
REMARK SMILES IDX 19 1 18 2 16 3 17 4 15 5 1 6 2 7 3 8 4 9 6 10 5 11 7 12 8 13
REMARK SMILES IDX 9 14 10 15 11 16 12 17 13 18 14 19 20 21 21 22 22 23 23 24
REMARK SMILES IDX 24 25 25 26 86 27 26 28 85 29 27 30 28 31 29 32 79 33 30 34
REMARK SMILES IDX 84 35 78 36 80 37 31 38 83 39 77 40 76 41 32 43 64 44 44 45
REMARK SMILES IDX 63 46 45 47 48 48 62 49 81 50 46 51 47 52 61 54 82 55 49 56
REMARK SMILES IDX 33 57 34 58 42 59 35 60 41 61 43 62 40 63 36 64 37 65 38 66
REMARK SMILES IDX 39 67 65 68 66 69 74 70 67 71 73 72 75 73 72 74 68 75 69 76
REMARK SMILES IDX 70 77 71 78 50 79 51 80 59 81 52 82 58 83 60 84 57 85 53 86
REMARK SMILES IDX 54 87 55 88 56 89
REMARK H PARENT 12 20 80 42 48 53
REMARK Flexibility Score: inf
ROOT
ATOM      1  C   UNL A   1      35.764  22.721  23.777  1.00  0.00     0.275 C 
ENDROOT
BRANCH   1   2
ATOM      2  O   UNL A   1      34.785  23.490  24.512  1.00  0.00    -0.458 OA
BRANCH   2   3
ATOM      3  C   UNL A   1      33.522  22.989  24.358  1.00  0.00     0.345 C 
ATOM      4  O   UNL A   1      33.175  22.522  23.289  1.00  0.00    -0.246 OA
BRANCH   3   5
ATOM      5  C   UNL A   1      32.659  23.028  25.526  1.00  0.00     0.144 A 
ATOM      6  C   UNL A   1      34.258  22.491  27.566  1.00  0.00     0.070 C 
ATOM      7  C   UNL A   1      32.957  22.730  26.894  1.00  0.00     0.078 A 
ATOM      8  N   UNL A   1      31.861  22.735  27.661  1.00  0.00    -0.174 NA
ATOM      9  N   UNL A   1      30.881  23.065  26.807  1.00  0.00    -0.236 N 
ATOM     10  C   UNL A   1      31.334  23.477  25.575  1.00  0.00     0.227 A 
ATOM     11  C   UNL A   1      29.504  22.987  27.242  1.00  0.00     0.178 C 
BRANCH  10  12
ATOM     12  O   UNL A   1      30.458  24.137  24.810  1.00  0.00    -0.471 OA
BRANCH  12  13
ATOM     13  C   UNL A   1      30.339  25.554  24.802  1.00  0.00     0.299 C 
BRANCH  13  14
ATOM     14  C   UNL A   1      31.024  26.361  23.628  1.00  0.00     0.126 C 
ATOM     15  C   UNL A   1      31.476  25.490  22.432  1.00  0.00     0.082 C 
ATOM     16  C   UNL A   1      29.926  27.345  23.127  1.00  0.00     0.082 C 
BRANCH  14  17
ATOM     17  N   UNL A   1      32.166  27.179  24.154  1.00  0.00    -0.333 N 
ATOM     18  C   UNL A   1      32.161  27.318  25.614  1.00  0.00     0.333 C 
ATOM     19  C   UNL A   1      33.494  26.763  23.707  1.00  0.00     0.333 C 
ATOM     20  H   UNL A   1      31.987  28.091  23.733  1.00  0.00     0.348 HD
ENDBRANCH  14  17
ENDBRANCH  13  14
ENDBRANCH  12  13
ENDBRANCH  10  12
ENDBRANCH   3   5
ENDBRANCH   2   3
ENDBRANCH   1   2
BRANCH   1  21
ATOM     21  C   UNL A   1      36.098  21.348  24.399  1.00  0.00     0.275 C 
BRANCH  21  22
ATOM     22  O   UNL A   1      36.722  21.414  25.704  1.00  0.00    -0.458 OA
BRANCH  22  23
ATOM     23  C   UNL A   1      38.049  21.109  25.738  1.00  0.00     0.338 C 
ATOM     24  O   UNL A   1      38.545  20.090  25.281  1.00  0.00    -0.246 OA
BRANCH  23  25
ATOM     25  C   UNL A   1      38.869  22.255  26.228  1.00  0.00     0.060 A 
ATOM     26  C   UNL A   1      38.370  23.548  26.009  1.00  0.00     0.016 A 
ATOM     27  C   UNL A   1      40.080  22.101  26.913  1.00  0.00     0.016 A 
ATOM     28  C   UNL A   1      39.051  24.672  26.500  1.00  0.00     0.010 A 
ATOM     29  C   UNL A   1      40.785  23.235  27.366  1.00  0.00     0.010 A 
ATOM     30  C   UNL A   1      40.277  24.531  27.167  1.00  0.00    -0.014 A 
BRANCH  30  31
ATOM     31  C   UNL A   1      41.095  25.745  27.477  1.00  0.00     0.031 A 
ATOM     32  C   UNL A   1      40.441  26.861  28.252  1.00  0.00     0.074 A 
ATOM     33  C   UNL A   1      42.388  25.871  27.112  1.00  0.00     0.049 A 
ATOM     34  N   UNL A   1      40.940  28.003  28.652  1.00  0.00    -0.248 NA
ATOM     35  C   UNL A   1      39.033  26.654  28.626  1.00  0.00     0.031 C 
ATOM     36  C   UNL A   1      43.171  24.864  26.402  1.00  0.00     0.029 A 
ATOM     37  N   UNL A   1      43.279  26.907  27.296  1.00  0.00    -0.354 N 
ATOM     38  C   UNL A   1      39.916  28.642  29.343  1.00  0.00     0.074 A 
ATOM     39  C   UNL A   1      38.763  27.768  29.287  1.00  0.00     0.031 C 
ATOM     40  C   UNL A   1      44.421  25.324  26.217  1.00  0.00     0.029 A 
ATOM     41  C   UNL A   1      44.523  26.684  26.745  1.00  0.00     0.049 A 
ATOM     42  H   UNL A   1      43.046  27.734  27.777  1.00  0.00     0.167 HD
ATOM     43  C   UNL A   1      39.923  29.850  29.957  1.00  0.00     0.034 A 
ATOM     44  C   UNL A   1      45.605  27.490  26.647  1.00  0.00     0.034 A 
ATOM     45  C   UNL A   1      41.040  30.759  29.946  1.00  0.00     0.049 A 
ATOM     46  C   UNL A   1      45.538  28.894  27.218  1.00  0.00     0.074 A 
ATOM     47  C   UNL A   1      41.127  32.019  30.513  1.00  0.00     0.029 A 
ATOM     48  N   UNL A   1      42.251  30.527  29.309  1.00  0.00    -0.354 N 
ATOM     49  N   UNL A   1      44.567  29.472  27.888  1.00  0.00    -0.248 NA
ATOM     50  C   UNL A   1      46.713  29.756  27.014  1.00  0.00     0.031 C 
ATOM     51  C   UNL A   1      42.354  32.582  30.147  1.00  0.00     0.029 A 
ATOM     52  C   UNL A   1      43.073  31.637  29.434  1.00  0.00     0.049 A 
ATOM     53  H   UNL A   1      42.491  29.697  28.839  1.00  0.00     0.167 HD
ATOM     54  C   UNL A   1      45.036  30.744  28.219  1.00  0.00     0.074 A 
ATOM     55  C   UNL A   1      46.375  30.846  27.687  1.00  0.00     0.031 C 
ATOM     56  C   UNL A   1      44.414  31.737  28.906  1.00  0.00     0.034 A 
BRANCH  43  57
ATOM     57  C   UNL A   1      38.642  30.284  30.622  1.00  0.00     0.023 A 
ATOM     58  C   UNL A   1      37.624  30.935  29.904  1.00  0.00     0.031 A 
ATOM     59  C   UNL A   1      38.456  30.080  31.999  1.00  0.00     0.131 A 
ATOM     60  C   UNL A   1      36.493  31.416  30.580  1.00  0.00     0.055 A 
ATOM     61  C   UNL A   1      37.294  30.493  32.652  1.00  0.00     0.041 A 
ATOM     62  F   UNL A   1      39.409  29.490  32.738  1.00  0.00    -0.206 F 
ATOM     63  C   UNL A   1      36.310  31.177  31.945  1.00  0.00     0.022 A 
BRANCH  60  64
ATOM     64  S   UNL A   1      35.334  32.481  29.680  1.00  0.00     0.124 S 
ATOM     65  O   UNL A   1      34.799  31.558  28.683  1.00  0.00    -0.237 OA
ATOM     66  O   UNL A   1      34.408  32.896  30.728  1.00  0.00    -0.237 OA
ATOM     67  O   UNL A   1      36.186  33.540  29.146  1.00  0.00    -0.744 OA
ENDBRANCH  60  64
ENDBRANCH  43  57
BRANCH  44  68
ATOM     68  C   UNL A   1      46.841  27.053  25.919  1.00  0.00     0.023 A 
ATOM     69  C   UNL A   1      47.898  26.411  26.589  1.00  0.00     0.031 A 
ATOM     70  C   UNL A   1      47.039  27.393  24.568  1.00  0.00     0.131 A 
ATOM     71  C   UNL A   1      49.122  26.194  25.931  1.00  0.00     0.055 A 
ATOM     72  C   UNL A   1      48.233  27.113  23.898  1.00  0.00     0.041 A 
ATOM     73  F   UNL A   1      46.077  28.027  23.877  1.00  0.00    -0.206 F 
ATOM     74  C   UNL A   1      49.290  26.527  24.586  1.00  0.00     0.022 A 
BRANCH  71  75
ATOM     75  S   UNL A   1      50.540  25.595  26.895  1.00  0.00     0.124 S 
ATOM     76  O   UNL A   1      51.495  25.267  25.842  1.00  0.00    -0.237 OA
ATOM     77  O   UNL A   1      50.864  26.758  27.714  1.00  0.00    -0.237 OA
ATOM     78  O   UNL A   1      49.998  24.452  27.626  1.00  0.00    -0.744 OA
ENDBRANCH  71  75
ENDBRANCH  44  68
BRANCH  56  79
ATOM     79  C   UNL A   1      45.198  32.999  29.186  1.00  0.00     0.023 A 
ATOM     80  C   UNL A   1      45.066  34.158  28.399  1.00  0.00     0.031 A 
ATOM     81  C   UNL A   1      46.088  33.044  30.276  1.00  0.00     0.131 A 
ATOM     82  C   UNL A   1      45.844  35.292  28.685  1.00  0.00     0.055 A 
ATOM     83  C   UNL A   1      46.812  34.194  30.593  1.00  0.00     0.041 A 
ATOM     84  F   UNL A   1      46.260  31.969  31.063  1.00  0.00    -0.206 F 
ATOM     85  C   UNL A   1      46.701  35.324  29.788  1.00  0.00     0.022 A 
BRANCH  82  86
ATOM     86  S   UNL A   1      45.786  36.705  27.547  1.00  0.00     0.124 S 
ATOM     87  O   UNL A   1      44.459  36.565  26.955  1.00  0.00    -0.237 OA
ATOM     88  O   UNL A   1      45.966  37.839  28.447  1.00  0.00    -0.237 OA
ATOM     89  O   UNL A   1      46.901  36.456  26.634  1.00  0.00    -0.744 OA
ENDBRANCH  82  86
ENDBRANCH  56  79
ENDBRANCH  30  31
ENDBRANCH  23  25
ENDBRANCH  22  23
ENDBRANCH  21  22
ENDBRANCH   1  21
TORSDOF 18
ENDMDL
MODEL 3
REMARK VINA RESULT:     -10.3      1.786      2.191
REMARK SMILES Cc1nn(C)c(OCC(C)(C)[NH+](C)C)c1C(=O)OCCOC(=O)c1ccc(-c2c3nc(c(-c4cc(S(=O)(=O)[O-])ccc4F)c4ccc([nH]4)c(-c4cc(S(=O)(=O)[O-])ccc4F)c4nc(c(-c5cc(S(=O)(=O)[O-])ccc5F)c5ccc2[nH]5)C=C4)C=C3)cc1
REMARK SMILES IDX 19 1 18 2 16 3 17 4 15 5 1 6 2 7 3 8 4 9 6 10 5 11 7 12 8 13
REMARK SMILES IDX 9 14 10 15 11 16 12 17 13 18 14 19 20 21 21 22 22 23 23 24
REMARK SMILES IDX 24 25 25 26 86 27 26 28 85 29 27 30 28 31 29 32 79 33 30 34
REMARK SMILES IDX 84 35 78 36 80 37 31 38 83 39 77 40 76 41 32 43 64 44 44 45
REMARK SMILES IDX 63 46 45 47 48 48 62 49 81 50 46 51 47 52 61 54 82 55 49 56
REMARK SMILES IDX 33 57 34 58 42 59 35 60 41 61 43 62 40 63 36 64 37 65 38 66
REMARK SMILES IDX 39 67 65 68 66 69 74 70 67 71 73 72 75 73 72 74 68 75 69 76
REMARK SMILES IDX 70 77 71 78 50 79 51 80 59 81 52 82 58 83 60 84 57 85 53 86
REMARK SMILES IDX 54 87 55 88 56 89
REMARK H PARENT 12 20 80 42 48 53
REMARK Flexibility Score: inf
ROOT
ATOM      1  C   UNL A   1      36.580  20.342  25.003  1.00  0.00     0.275 C 
ENDROOT
BRANCH   1   2
ATOM      2  O   UNL A   1      36.384  21.773  24.959  1.00  0.00    -0.458 OA
BRANCH   2   3
ATOM      3  C   UNL A   1      35.180  22.140  25.496  1.00  0.00     0.345 C 
ATOM      4  O   UNL A   1      35.025  22.144  26.703  1.00  0.00    -0.246 OA
BRANCH   3   5
ATOM      5  C   UNL A   1      34.143  22.535  24.559  1.00  0.00     0.144 A 
ATOM      6  C   UNL A   1      32.857  20.292  23.990  1.00  0.00     0.070 C 
ATOM      7  C   UNL A   1      33.199  21.729  23.846  1.00  0.00     0.078 A 
ATOM      8  N   UNL A   1      32.497  22.441  22.958  1.00  0.00    -0.174 NA
ATOM      9  N   UNL A   1      32.958  23.690  23.122  1.00  0.00    -0.236 N 
ATOM     10  C   UNL A   1      33.770  23.841  24.223  1.00  0.00     0.227 A 
ATOM     11  C   UNL A   1      32.560  24.722  22.190  1.00  0.00     0.178 C 
BRANCH  10  12
ATOM     12  O   UNL A   1      33.978  25.095  24.639  1.00  0.00    -0.471 OA
BRANCH  12  13
ATOM     13  C   UNL A   1      33.283  25.680  25.734  1.00  0.00     0.299 C 
BRANCH  13  14
ATOM     14  C   UNL A   1      32.654  27.117  25.545  1.00  0.00     0.126 C 
ATOM     15  C   UNL A   1      31.478  27.174  24.541  1.00  0.00     0.082 C 
ATOM     16  C   UNL A   1      32.111  27.503  26.953  1.00  0.00     0.082 C 
BRANCH  14  17
ATOM     17  N   UNL A   1      33.717  28.109  25.177  1.00  0.00    -0.333 N 
ATOM     18  C   UNL A   1      33.658  28.534  23.775  1.00  0.00     0.333 C 
ATOM     19  C   UNL A   1      33.805  29.284  26.042  1.00  0.00     0.333 C 
ATOM     20  H   UNL A   1      34.571  27.571  25.325  1.00  0.00     0.348 HD
ENDBRANCH  14  17
ENDBRANCH  13  14
ENDBRANCH  12  13
ENDBRANCH  10  12
ENDBRANCH   3   5
ENDBRANCH   2   3
ENDBRANCH   1   2
BRANCH   1  21
ATOM     21  C   UNL A   1      38.054  19.894  24.908  1.00  0.00     0.275 C 
BRANCH  21  22
ATOM     22  O   UNL A   1      38.711  19.707  26.184  1.00  0.00    -0.458 OA
BRANCH  22  23
ATOM     23  C   UNL A   1      40.064  19.856  26.176  1.00  0.00     0.338 C 
ATOM     24  O   UNL A   1      40.855  19.053  25.701  1.00  0.00    -0.246 OA
BRANCH  23  25
ATOM     25  C   UNL A   1      40.476  21.212  26.645  1.00  0.00     0.060 A 
ATOM     26  C   UNL A   1      39.827  22.317  26.075  1.00  0.00     0.016 A 
ATOM     27  C   UNL A   1      41.443  21.426  27.634  1.00  0.00     0.016 A 
ATOM     28  C   UNL A   1      40.111  23.619  26.513  1.00  0.00     0.010 A 
ATOM     29  C   UNL A   1      41.758  22.739  28.041  1.00  0.00     0.010 A 
ATOM     30  C   UNL A   1      41.096  23.848  27.486  1.00  0.00    -0.014 A 
BRANCH  30  31
ATOM     31  C   UNL A   1      41.543  25.247  27.771  1.00  0.00     0.031 A 
ATOM     32  C   UNL A   1      42.928  25.651  27.335  1.00  0.00     0.074 A 
ATOM     33  C   UNL A   1      40.756  26.159  28.380  1.00  0.00     0.049 A 
ATOM     34  N   UNL A   1      43.539  26.802  27.456  1.00  0.00    -0.248 NA
ATOM     35  C   UNL A   1      43.729  24.611  26.669  1.00  0.00     0.031 C 
ATOM     36  C   UNL A   1      39.382  25.935  28.819  1.00  0.00     0.029 A 
ATOM     37  N   UNL A   1      41.002  27.469  28.733  1.00  0.00    -0.354 N 
ATOM     38  C   UNL A   1      44.786  26.633  26.864  1.00  0.00     0.074 A 
ATOM     39  C   UNL A   1      44.850  25.262  26.404  1.00  0.00     0.031 C 
ATOM     40  C   UNL A   1      38.904  27.064  29.372  1.00  0.00     0.029 A 
ATOM     41  C   UNL A   1      39.953  28.084  29.382  1.00  0.00     0.049 A 
ATOM     42  H   UNL A   1      41.854  27.924  28.539  1.00  0.00     0.167 HD
ATOM     43  C   UNL A   1      45.795  27.528  26.725  1.00  0.00     0.034 A 
ATOM     44  C   UNL A   1      39.857  29.309  29.947  1.00  0.00     0.034 A 
ATOM     45  C   UNL A   1      45.769  28.868  27.252  1.00  0.00     0.049 A 
ATOM     46  C   UNL A   1      41.054  30.241  29.902  1.00  0.00     0.074 A 
ATOM     47  C   UNL A   1      46.758  29.835  27.188  1.00  0.00     0.029 A 
ATOM     48  N   UNL A   1      44.719  29.422  27.970  1.00  0.00    -0.354 N 
ATOM     49  N   UNL A   1      42.217  30.071  29.316  1.00  0.00    -0.248 NA
ATOM     50  C   UNL A   1      40.924  31.530  30.600  1.00  0.00     0.031 C 
ATOM     51  C   UNL A   1      46.343  30.938  27.939  1.00  0.00     0.029 A 
ATOM     52  C   UNL A   1      45.056  30.700  28.391  1.00  0.00     0.049 A 
ATOM     53  H   UNL A   1      43.863  28.975  28.154  1.00  0.00     0.167 HD
ATOM     54  C   UNL A   1      42.934  31.247  29.542  1.00  0.00     0.074 A 
ATOM     55  C   UNL A   1      42.072  32.121  30.305  1.00  0.00     0.031 C 
ATOM     56  C   UNL A   1      44.191  31.576  29.149  1.00  0.00     0.034 A 
BRANCH  43  57
ATOM     57  C   UNL A   1      47.046  27.042  26.038  1.00  0.00     0.023 A 
ATOM     58  C   UNL A   1      48.050  26.354  26.740  1.00  0.00     0.031 A 
ATOM     59  C   UNL A   1      47.254  27.309  24.675  1.00  0.00     0.131 A 
ATOM     60  C   UNL A   1      49.245  26.012  26.090  1.00  0.00     0.055 A 
ATOM     61  C   UNL A   1      48.412  26.898  24.015  1.00  0.00     0.041 A 
ATOM     62  F   UNL A   1      46.340  27.990  23.964  1.00  0.00    -0.206 F 
ATOM     63  C   UNL A   1      49.422  26.257  24.726  1.00  0.00     0.022 A 
BRANCH  60  64
ATOM     64  S   UNL A   1      50.619  25.370  27.083  1.00  0.00     0.124 S 
ATOM     65  O   UNL A   1      51.514  24.854  26.051  1.00  0.00    -0.237 OA
ATOM     66  O   UNL A   1      51.080  26.559  27.792  1.00  0.00    -0.237 OA
ATOM     67  O   UNL A   1      49.990  24.351  27.920  1.00  0.00    -0.744 OA
ENDBRANCH  60  64
ENDBRANCH  43  57
BRANCH  44  68
ATOM     68  C   UNL A   1      38.622  29.737  30.682  1.00  0.00     0.023 A 
ATOM     69  C   UNL A   1      37.626  30.508  30.055  1.00  0.00     0.031 A 
ATOM     70  C   UNL A   1      38.484  29.492  32.060  1.00  0.00     0.131 A 
ATOM     71  C   UNL A   1      36.581  31.062  30.816  1.00  0.00     0.055 A 
ATOM     72  C   UNL A   1      37.407  29.989  32.799  1.00  0.00     0.041 A 
ATOM     73  F   UNL A   1      39.411  28.781  32.722  1.00  0.00    -0.206 F 
ATOM     74  C   UNL A   1      36.457  30.795  32.180  1.00  0.00     0.022 A 
BRANCH  71  75
ATOM     75  S   UNL A   1      35.460  32.254  30.026  1.00  0.00     0.124 S 
ATOM     76  O   UNL A   1      35.025  31.513  28.847  1.00  0.00    -0.237 OA
ATOM     77  O   UNL A   1      34.453  32.457  31.063  1.00  0.00    -0.237 OA
ATOM     78  O   UNL A   1      36.318  33.406  29.760  1.00  0.00    -0.744 OA
ENDBRANCH  71  75
ENDBRANCH  44  68
BRANCH  56  79
ATOM     79  C   UNL A   1      44.692  32.965  29.473  1.00  0.00     0.023 A 
ATOM     80  C   UNL A   1      44.453  34.067  28.631  1.00  0.00     0.031 A 
ATOM     81  C   UNL A   1      45.414  33.191  30.661  1.00  0.00     0.131 A 
ATOM     82  C   UNL A   1      44.970  35.329  28.965  1.00  0.00     0.055 A 
ATOM     83  C   UNL A   1      45.870  34.460  31.018  1.00  0.00     0.041 A 
ATOM     84  F   UNL A   1      45.676  32.179  31.504  1.00  0.00    -0.206 F 
ATOM     85  C   UNL A   1      45.660  35.537  30.162  1.00  0.00     0.022 A 
BRANCH  82  86
ATOM     86  S   UNL A   1      44.802  36.689  27.773  1.00  0.00     0.124 S 
ATOM     87  O   UNL A   1      44.046  36.058  26.696  1.00  0.00    -0.237 OA
ATOM     88  O   UNL A   1      44.086  37.697  28.549  1.00  0.00    -0.237 OA
ATOM     89  O   UNL A   1      46.185  37.028  27.443  1.00  0.00    -0.744 OA
ENDBRANCH  82  86
ENDBRANCH  56  79
ENDBRANCH  30  31
ENDBRANCH  23  25
ENDBRANCH  22  23
ENDBRANCH  21  22
ENDBRANCH   1  21
TORSDOF 18
ENDMDL
