MODEL 1
REMARK VINA RESULT:     -11.5      0.000      0.000
REMARK SMILES C[C@@H]1CCC[C@@](Cc2ncccn2)(C(=O)OCCOC(=O)c2ccc(-c3c4nc(c(-c5cc(S(=O)(=O)[O-])ccc5F)c5ccc([nH]5)c(-c5cc(S(=O)(=O)[O-])ccc5F)c5nc(c(-c6cc(S(=O)(=O)[O-])ccc6F)c6ccc3[nH]6)C=C5)C=C4)cc2)C1
REMARK SMILES IDX 18 1 17 2 16 3 14 4 15 5 6 6 1 7 2 8 3 9 85 10 4 11 5 12
REMARK SMILES IDX 7 13 8 14 9 15 13 16 10 17 12 18 11 19 19 20 20 21 21 22
REMARK SMILES IDX 22 23 23 24 84 25 24 26 83 27 25 28 26 29 27 30 77 31 28 32
REMARK SMILES IDX 82 33 76 34 78 35 29 36 81 37 75 38 74 39 30 41 62 42 42 43
REMARK SMILES IDX 61 44 43 45 46 46 60 47 79 48 44 49 45 50 59 52 80 53 47 54
REMARK SMILES IDX 31 55 32 56 40 57 33 58 39 59 41 60 38 61 34 62 35 63 36 64
REMARK SMILES IDX 37 65 63 66 64 67 72 68 65 69 71 70 73 71 70 72 66 73 67 74
REMARK SMILES IDX 68 75 69 76 48 77 49 78 57 79 50 80 56 81 58 82 55 83 51 84
REMARK SMILES IDX 52 85 53 86 54 87
REMARK H PARENT 78 40 46 51
REMARK Flexibility Score: inf
ROOT
ATOM      1  C   UNL A   1      36.447  21.416  24.418  1.00  0.00     0.275 C 
ENDROOT
BRANCH   1   2
ATOM      2  C   UNL A   1      36.579  22.645  23.526  1.00  0.00     0.274 C 
BRANCH   2   3
ATOM      3  O   UNL A   1      35.676  23.682  23.957  1.00  0.00    -0.462 OA
BRANCH   3   4
ATOM      4  C   UNL A   1      34.605  23.904  23.145  1.00  0.00     0.312 C 
ATOM      5  O   UNL A   1      34.426  23.340  22.070  1.00  0.00    -0.252 OA
BRANCH   4   6
ATOM      6  C   UNL A   1      33.652  24.987  23.682  1.00  0.00     0.075 C 
ATOM      7  C   UNL A   1      32.499  26.531  26.490  1.00  0.00     0.007 C 
ATOM      8  C   UNL A   1      33.707  26.815  25.598  1.00  0.00    -0.013 C 
ATOM      9  C   UNL A   1      33.417  27.886  24.544  1.00  0.00     0.003 C 
ATOM     10  C   UNL A   1      34.316  25.553  24.968  1.00  0.00     0.022 C 
ATOM     11  C   UNL A   1      32.707  27.340  23.308  1.00  0.00     0.001 C 
ATOM     12  C   UNL A   1      33.466  26.163  22.695  1.00  0.00     0.019 C 
BRANCH   6  13
ATOM     13  C   UNL A   1      32.334  24.241  24.007  1.00  0.00     0.096 C 
BRANCH  13  14
ATOM     14  C   UNL A   1      32.539  22.894  24.657  1.00  0.00     0.129 A 
ATOM     15  N   UNL A   1      32.278  21.801  23.917  1.00  0.00    -0.241 NA
ATOM     16  N   UNL A   1      33.027  22.863  25.912  1.00  0.00    -0.241 NA
ATOM     17  C   UNL A   1      32.540  20.612  24.488  1.00  0.00     0.115 A 
ATOM     18  C   UNL A   1      33.280  21.649  26.430  1.00  0.00     0.115 A 
ATOM     19  C   UNL A   1      33.054  20.475  25.753  1.00  0.00     0.040 A 
ENDBRANCH  13  14
ENDBRANCH   6  13
ENDBRANCH   4   6
ENDBRANCH   3   4
ENDBRANCH   2   3
ENDBRANCH   1   2
BRANCH   1  20
ATOM     20  O   UNL A   1      37.021  21.701  25.702  1.00  0.00    -0.458 OA
BRANCH  20  21
ATOM     21  C   UNL A   1      38.352  21.485  25.813  1.00  0.00     0.338 C 
ATOM     22  O   UNL A   1      38.966  20.497  25.453  1.00  0.00    -0.246 OA
BRANCH  21  23
ATOM     23  C   UNL A   1      38.993  22.651  26.457  1.00  0.00     0.060 A 
ATOM     24  C   UNL A   1      38.523  23.942  26.224  1.00  0.00     0.016 A 
ATOM     25  C   UNL A   1      40.145  22.463  27.220  1.00  0.00     0.016 A 
ATOM     26  C   UNL A   1      39.260  25.048  26.649  1.00  0.00     0.010 A 
ATOM     27  C   UNL A   1      40.817  23.572  27.745  1.00  0.00     0.010 A 
ATOM     28  C   UNL A   1      40.409  24.882  27.433  1.00  0.00    -0.014 A 
BRANCH  28  29
ATOM     29  C   UNL A   1      41.221  26.052  27.886  1.00  0.00     0.031 A 
ATOM     30  C   UNL A   1      40.577  27.122  28.732  1.00  0.00     0.074 A 
ATOM     31  C   UNL A   1      42.521  26.177  27.546  1.00  0.00     0.049 A 
ATOM     32  N   UNL A   1      40.983  28.340  28.986  1.00  0.00    -0.248 NA
ATOM     33  C   UNL A   1      39.288  26.779  29.353  1.00  0.00     0.031 C 
ATOM     34  C   UNL A   1      43.304  25.197  26.790  1.00  0.00     0.029 A 
ATOM     35  N   UNL A   1      43.418  27.190  27.793  1.00  0.00    -0.354 N 
ATOM     36  C   UNL A   1      39.972  28.931  29.737  1.00  0.00     0.074 A 
ATOM     37  C   UNL A   1      38.931  27.935  29.895  1.00  0.00     0.031 C 
ATOM     38  C   UNL A   1      44.563  25.639  26.662  1.00  0.00     0.029 A 
ATOM     39  C   UNL A   1      44.656  26.980  27.227  1.00  0.00     0.049 A 
ATOM     40  H   UNL A   1      43.197  27.988  28.324  1.00  0.00     0.167 HD
ATOM     41  C   UNL A   1      39.914  30.190  30.240  1.00  0.00     0.034 A 
ATOM     42  C   UNL A   1      45.726  27.793  27.116  1.00  0.00     0.034 A 
ATOM     43  C   UNL A   1      40.982  31.153  30.118  1.00  0.00     0.049 A 
ATOM     44  C   UNL A   1      45.636  29.193  27.665  1.00  0.00     0.074 A 
ATOM     45  C   UNL A   1      41.022  32.466  30.556  1.00  0.00     0.029 A 
ATOM     46  N   UNL A   1      42.217  30.895  29.536  1.00  0.00    -0.354 N 
ATOM     47  N   UNL A   1      44.624  29.783  28.259  1.00  0.00    -0.248 NA
ATOM     48  C   UNL A   1      46.824  30.042  27.512  1.00  0.00     0.031 C 
ATOM     49  C   UNL A   1      42.264  33.010  30.210  1.00  0.00     0.029 A 
ATOM     50  C   UNL A   1      43.022  32.021  29.605  1.00  0.00     0.049 A 
ATOM     51  H   UNL A   1      42.481  30.037  29.132  1.00  0.00     0.167 HD
ATOM     52  C   UNL A   1      45.059  31.071  28.553  1.00  0.00     0.074 A 
ATOM     53  C   UNL A   1      46.431  31.163  28.099  1.00  0.00     0.031 C 
ATOM     54  C   UNL A   1      44.384  32.093  29.138  1.00  0.00     0.034 A 
BRANCH  41  55
ATOM     55  C   UNL A   1      38.631  30.612  30.912  1.00  0.00     0.023 A 
ATOM     56  C   UNL A   1      37.581  31.221  30.204  1.00  0.00     0.031 A 
ATOM     57  C   UNL A   1      38.467  30.419  32.297  1.00  0.00     0.131 A 
ATOM     58  C   UNL A   1      36.442  31.669  30.892  1.00  0.00     0.055 A 
ATOM     59  C   UNL A   1      37.301  30.802  32.962  1.00  0.00     0.041 A 
ATOM     60  F   UNL A   1      39.444  29.860  33.028  1.00  0.00    -0.206 F 
ATOM     61  C   UNL A   1      36.285  31.442  32.262  1.00  0.00     0.022 A 
BRANCH  58  62
ATOM     62  S   UNL A   1      35.215  32.658  29.993  1.00  0.00     0.124 S 
ATOM     63  O   UNL A   1      34.764  31.714  28.975  1.00  0.00    -0.237 OA
ATOM     64  O   UNL A   1      34.248  32.986  31.035  1.00  0.00    -0.237 OA
ATOM     65  O   UNL A   1      35.991  33.789  29.486  1.00  0.00    -0.744 OA
ENDBRANCH  58  62
ENDBRANCH  41  55
BRANCH  42  66
ATOM     66  C   UNL A   1      46.942  27.345  26.377  1.00  0.00     0.023 A 
ATOM     67  C   UNL A   1      47.157  27.712  25.039  1.00  0.00     0.031 A 
ATOM     68  C   UNL A   1      47.887  26.500  26.988  1.00  0.00     0.131 A 
ATOM     69  C   UNL A   1      48.266  27.204  24.345  1.00  0.00     0.055 A 
ATOM     70  C   UNL A   1      49.019  26.045  26.312  1.00  0.00     0.041 A 
ATOM     71  F   UNL A   1      47.728  26.113  28.264  1.00  0.00    -0.206 F 
ATOM     72  C   UNL A   1      49.206  26.387  24.976  1.00  0.00     0.022 A 
BRANCH  69  73
ATOM     73  S   UNL A   1      48.414  27.547  22.570  1.00  0.00     0.124 S 
ATOM     74  O   UNL A   1      48.473  26.202  22.008  1.00  0.00    -0.237 OA
ATOM     75  O   UNL A   1      47.191  28.299  22.305  1.00  0.00    -0.237 OA
ATOM     76  O   UNL A   1      49.650  28.320  22.473  1.00  0.00    -0.744 OA
ENDBRANCH  69  73
ENDBRANCH  42  66
BRANCH  54  77
ATOM     77  C   UNL A   1      45.147  33.373  29.349  1.00  0.00     0.023 A 
ATOM     78  C   UNL A   1      45.161  34.390  28.377  1.00  0.00     0.031 A 
ATOM     79  C   UNL A   1      45.895  33.563  30.523  1.00  0.00     0.131 A 
ATOM     80  C   UNL A   1      45.952  35.530  28.576  1.00  0.00     0.055 A 
ATOM     81  C   UNL A   1      46.643  34.722  30.736  1.00  0.00     0.041 A 
ATOM     82  F   UNL A   1      45.915  32.621  31.479  1.00  0.00    -0.206 F 
ATOM     83  C   UNL A   1      46.684  35.708  29.753  1.00  0.00     0.022 A 
BRANCH  80  84
ATOM     84  S   UNL A   1      46.074  36.749  27.238  1.00  0.00     0.124 S 
ATOM     85  O   UNL A   1      46.347  35.904  26.079  1.00  0.00    -0.237 OA
ATOM     86  O   UNL A   1      44.759  37.381  27.270  1.00  0.00    -0.237 OA
ATOM     87  O   UNL A   1      47.182  37.607  27.654  1.00  0.00    -0.744 OA
ENDBRANCH  80  84
ENDBRANCH  54  77
ENDBRANCH  28  29
ENDBRANCH  21  23
ENDBRANCH  20  21
ENDBRANCH   1  20
TORSDOF 16
ENDMDL
MODEL 2
REMARK VINA RESULT:     -11.3      5.449     10.242
REMARK SMILES C[C@@H]1CCC[C@@](Cc2ncccn2)(C(=O)OCCOC(=O)c2ccc(-c3c4nc(c(-c5cc(S(=O)(=O)[O-])ccc5F)c5ccc([nH]5)c(-c5cc(S(=O)(=O)[O-])ccc5F)c5nc(c(-c6cc(S(=O)(=O)[O-])ccc6F)c6ccc3[nH]6)C=C5)C=C4)cc2)C1
REMARK SMILES IDX 18 1 17 2 16 3 14 4 15 5 6 6 1 7 2 8 3 9 85 10 4 11 5 12
REMARK SMILES IDX 7 13 8 14 9 15 13 16 10 17 12 18 11 19 19 20 20 21 21 22
REMARK SMILES IDX 22 23 23 24 84 25 24 26 83 27 25 28 26 29 27 30 77 31 28 32
REMARK SMILES IDX 82 33 76 34 78 35 29 36 81 37 75 38 74 39 30 41 62 42 42 43
REMARK SMILES IDX 61 44 43 45 46 46 60 47 79 48 44 49 45 50 59 52 80 53 47 54
REMARK SMILES IDX 31 55 32 56 40 57 33 58 39 59 41 60 38 61 34 62 35 63 36 64
REMARK SMILES IDX 37 65 63 66 64 67 72 68 65 69 71 70 73 71 70 72 66 73 67 74
REMARK SMILES IDX 68 75 69 76 48 77 49 78 57 79 50 80 56 81 58 82 55 83 51 84
REMARK SMILES IDX 52 85 53 86 54 87
REMARK H PARENT 78 40 46 51
REMARK Flexibility Score: inf
ROOT
ATOM      1  C   UNL A   1      31.830  30.794  26.791  1.00  0.00     0.275 C 
ENDROOT
BRANCH   1   2
ATOM      2  C   UNL A   1      31.323  30.359  25.421  1.00  0.00     0.274 C 
BRANCH   2   3
ATOM      3  O   UNL A   1      31.414  28.928  25.278  1.00  0.00    -0.462 OA
BRANCH   3   4
ATOM      4  C   UNL A   1      32.214  28.487  24.269  1.00  0.00     0.312 C 
ATOM      5  O   UNL A   1      33.112  29.152  23.760  1.00  0.00    -0.252 OA
BRANCH   4   6
ATOM      6  C   UNL A   1      31.848  27.075  23.777  1.00  0.00     0.075 C 
ATOM      7  C   UNL A   1      32.892  24.427  21.907  1.00  0.00     0.007 C 
ATOM      8  C   UNL A   1      33.130  24.792  23.371  1.00  0.00    -0.013 C 
ATOM      9  C   UNL A   1      32.139  24.103  24.313  1.00  0.00     0.003 C 
ATOM     10  C   UNL A   1      33.191  26.306  23.625  1.00  0.00     0.022 C 
ATOM     11  C   UNL A   1      30.798  24.825  24.412  1.00  0.00     0.001 C 
ATOM     12  C   UNL A   1      30.976  26.296  24.788  1.00  0.00     0.019 C 
BRANCH   6  13
ATOM     13  C   UNL A   1      31.162  27.290  22.405  1.00  0.00     0.096 C 
BRANCH  13  14
ATOM     14  C   UNL A   1      30.003  28.255  22.447  1.00  0.00     0.129 A 
ATOM     15  N   UNL A   1      30.124  29.401  21.752  1.00  0.00    -0.241 NA
ATOM     16  N   UNL A   1      28.896  27.890  23.123  1.00  0.00    -0.241 NA
ATOM     17  C   UNL A   1      29.051  30.212  21.739  1.00  0.00     0.115 A 
ATOM     18  C   UNL A   1      27.852  28.733  23.068  1.00  0.00     0.115 A 
ATOM     19  C   UNL A   1      27.873  29.922  22.381  1.00  0.00     0.040 A 
ENDBRANCH  13  14
ENDBRANCH   6  13
ENDBRANCH   4   6
ENDBRANCH   3   4
ENDBRANCH   2   3
ENDBRANCH   1   2
BRANCH   1  20
ATOM     20  O   UNL A   1      33.264  30.858  26.764  1.00  0.00    -0.458 OA
BRANCH  20  21
ATOM     21  C   UNL A   1      33.824  31.824  27.529  1.00  0.00     0.338 C 
ATOM     22  O   UNL A   1      33.345  32.909  27.804  1.00  0.00    -0.246 OA
BRANCH  21  23
ATOM     23  C   UNL A   1      35.149  31.374  28.007  1.00  0.00     0.060 A 
ATOM     24  C   UNL A   1      35.358  30.050  28.387  1.00  0.00     0.016 A 
ATOM     25  C   UNL A   1      36.168  32.310  28.177  1.00  0.00     0.016 A 
ATOM     26  C   UNL A   1      36.533  29.682  29.043  1.00  0.00     0.010 A 
ATOM     27  C   UNL A   1      37.391  31.911  28.727  1.00  0.00     0.010 A 
ATOM     28  C   UNL A   1      37.577  30.601  29.207  1.00  0.00    -0.014 A 
BRANCH  28  29
ATOM     29  C   UNL A   1      38.838  30.233  29.919  1.00  0.00     0.031 A 
ATOM     30  C   UNL A   1      39.786  29.242  29.290  1.00  0.00     0.074 A 
ATOM     31  C   UNL A   1      39.145  30.762  31.122  1.00  0.00     0.049 A 
ATOM     32  N   UNL A   1      40.762  28.561  29.834  1.00  0.00    -0.248 NA
ATOM     33  C   UNL A   1      39.587  28.963  27.858  1.00  0.00     0.031 C 
ATOM     34  C   UNL A   1      38.366  31.780  31.830  1.00  0.00     0.029 A 
ATOM     35  N   UNL A   1      40.200  30.512  31.968  1.00  0.00    -0.354 N 
ATOM     36  C   UNL A   1      41.249  27.726  28.834  1.00  0.00     0.074 A 
ATOM     37  C   UNL A   1      40.457  27.986  27.648  1.00  0.00     0.031 C 
ATOM     38  C   UNL A   1      38.981  32.088  32.981  1.00  0.00     0.029 A 
ATOM     39  C   UNL A   1      40.138  31.216  33.150  1.00  0.00     0.049 A 
ATOM     40  H   UNL A   1      40.930  29.890  31.749  1.00  0.00     0.167 HD
ATOM     41  C   UNL A   1      42.258  26.820  28.902  1.00  0.00     0.034 A 
ATOM     42  C   UNL A   1      40.883  31.130  34.269  1.00  0.00     0.034 A 
ATOM     43  C   UNL A   1      43.070  26.611  30.076  1.00  0.00     0.049 A 
ATOM     44  C   UNL A   1      41.986  30.106  34.332  1.00  0.00     0.074 A 
ATOM     45  C   UNL A   1      44.095  25.699  30.271  1.00  0.00     0.029 A 
ATOM     46  N   UNL A   1      42.969  27.347  31.249  1.00  0.00    -0.354 N 
ATOM     47  N   UNL A   1      42.352  29.231  33.424  1.00  0.00    -0.248 NA
ATOM     48  C   UNL A   1      42.764  30.045  35.576  1.00  0.00     0.031 C 
ATOM     49  C   UNL A   1      44.588  25.861  31.571  1.00  0.00     0.029 A 
ATOM     50  C   UNL A   1      43.911  26.911  32.169  1.00  0.00     0.049 A 
ATOM     51  H   UNL A   1      42.323  28.072  31.405  1.00  0.00     0.167 HD
ATOM     52  C   UNL A   1      43.406  28.520  33.989  1.00  0.00     0.074 A 
ATOM     53  C   UNL A   1      43.636  29.086  35.302  1.00  0.00     0.031 C 
ATOM     54  C   UNL A   1      44.117  27.484  33.475  1.00  0.00     0.034 A 
BRANCH  41  55
ATOM     55  C   UNL A   1      42.492  25.949  27.693  1.00  0.00     0.023 A 
ATOM     56  C   UNL A   1      41.955  24.654  27.587  1.00  0.00     0.031 A 
ATOM     57  C   UNL A   1      43.290  26.420  26.632  1.00  0.00     0.131 A 
ATOM     58  C   UNL A   1      42.272  23.855  26.477  1.00  0.00     0.055 A 
ATOM     59  C   UNL A   1      43.542  25.646  25.498  1.00  0.00     0.041 A 
ATOM     60  F   UNL A   1      43.845  27.641  26.686  1.00  0.00    -0.206 F 
ATOM     61  C   UNL A   1      43.042  24.351  25.421  1.00  0.00     0.022 A 
BRANCH  58  62
ATOM     62  S   UNL A   1      41.761  22.115  26.484  1.00  0.00     0.124 S 
ATOM     63  O   UNL A   1      40.321  22.229  26.266  1.00  0.00    -0.237 OA
ATOM     64  O   UNL A   1      42.531  21.554  25.380  1.00  0.00    -0.237 OA
ATOM     65  O   UNL A   1      42.149  21.648  27.814  1.00  0.00    -0.744 OA
ENDBRANCH  58  62
ENDBRANCH  41  55
BRANCH  42  66
ATOM     66  C   UNL A   1      40.557  31.967  35.461  1.00  0.00     0.023 A 
ATOM     67  C   UNL A   1      39.427  31.702  36.250  1.00  0.00     0.031 A 
ATOM     68  C   UNL A   1      41.351  33.079  35.799  1.00  0.00     0.131 A 
ATOM     69  C   UNL A   1      39.099  32.560  37.312  1.00  0.00     0.055 A 
ATOM     70  C   UNL A   1      41.054  33.894  36.892  1.00  0.00     0.041 A 
ATOM     71  F   UNL A   1      42.440  33.382  35.075  1.00  0.00    -0.206 F 
ATOM     72  C   UNL A   1      39.914  33.644  37.648  1.00  0.00     0.022 A 
BRANCH  69  73
ATOM     73  S   UNL A   1      37.536  32.296  38.193  1.00  0.00     0.124 S 
ATOM     74  O   UNL A   1      37.390  30.847  38.117  1.00  0.00    -0.237 OA
ATOM     75  O   UNL A   1      37.838  32.842  39.513  1.00  0.00    -0.237 OA
ATOM     76  O   UNL A   1      36.570  33.063  37.410  1.00  0.00    -0.744 OA
ENDBRANCH  69  73
ENDBRANCH  42  66
BRANCH  54  77
ATOM     77  C   UNL A   1      45.230  26.939  34.330  1.00  0.00     0.023 A 
ATOM     78  C   UNL A   1      45.030  25.841  35.185  1.00  0.00     0.031 A 
ATOM     79  C   UNL A   1      46.497  27.547  34.310  1.00  0.00     0.131 A 
ATOM     80  C   UNL A   1      46.069  25.417  36.027  1.00  0.00     0.055 A 
ATOM     81  C   UNL A   1      47.540  27.091  35.116  1.00  0.00     0.041 A 
ATOM     82  F   UNL A   1      46.736  28.600  33.512  1.00  0.00    -0.206 F 
ATOM     83  C   UNL A   1      47.325  26.028  35.989  1.00  0.00     0.022 A 
BRANCH  80  84
ATOM     84  S   UNL A   1      45.733  24.103  37.230  1.00  0.00     0.124 S 
ATOM     85  O   UNL A   1      45.005  24.821  38.272  1.00  0.00    -0.237 OA
ATOM     86  O   UNL A   1      44.950  23.153  36.445  1.00  0.00    -0.237 OA
ATOM     87  O   UNL A   1      47.064  23.639  37.613  1.00  0.00    -0.744 OA
ENDBRANCH  80  84
ENDBRANCH  54  77
ENDBRANCH  28  29
ENDBRANCH  21  23
ENDBRANCH  20  21
ENDBRANCH   1  20
TORSDOF 16
ENDMDL
MODEL 3
REMARK VINA RESULT:     -11.1      4.910      9.720
REMARK SMILES C[C@@H]1CCC[C@@](Cc2ncccn2)(C(=O)OCCOC(=O)c2ccc(-c3c4nc(c(-c5cc(S(=O)(=O)[O-])ccc5F)c5ccc([nH]5)c(-c5cc(S(=O)(=O)[O-])ccc5F)c5nc(c(-c6cc(S(=O)(=O)[O-])ccc6F)c6ccc3[nH]6)C=C5)C=C4)cc2)C1
REMARK SMILES IDX 18 1 17 2 16 3 14 4 15 5 6 6 1 7 2 8 3 9 85 10 4 11 5 12
REMARK SMILES IDX 7 13 8 14 9 15 13 16 10 17 12 18 11 19 19 20 20 21 21 22
REMARK SMILES IDX 22 23 23 24 84 25 24 26 83 27 25 28 26 29 27 30 77 31 28 32
REMARK SMILES IDX 82 33 76 34 78 35 29 36 81 37 75 38 74 39 30 41 62 42 42 43
REMARK SMILES IDX 61 44 43 45 46 46 60 47 79 48 44 49 45 50 59 52 80 53 47 54
REMARK SMILES IDX 31 55 32 56 40 57 33 58 39 59 41 60 38 61 34 62 35 63 36 64
REMARK SMILES IDX 37 65 63 66 64 67 72 68 65 69 71 70 73 71 70 72 66 73 67 74
REMARK SMILES IDX 68 75 69 76 48 77 49 78 57 79 50 80 56 81 58 82 55 83 51 84
REMARK SMILES IDX 52 85 53 86 54 87
REMARK H PARENT 78 40 46 51
REMARK Flexibility Score: inf
ROOT
ATOM      1  C   UNL A   1      31.786  29.922  26.658  1.00  0.00     0.275 C 
ENDROOT
BRANCH   1   2
ATOM      2  C   UNL A   1      31.614  28.605  27.405  1.00  0.00     0.274 C 
BRANCH   2   3
ATOM      3  O   UNL A   1      32.246  27.528  26.686  1.00  0.00    -0.462 OA
BRANCH   3   4
ATOM      4  C   UNL A   1      31.478  26.422  26.487  1.00  0.00     0.312 C 
ATOM      5  O   UNL A   1      30.299  26.332  26.819  1.00  0.00    -0.252 OA
BRANCH   4   6
ATOM      6  C   UNL A   1      32.250  25.254  25.848  1.00  0.00     0.075 C 
ATOM      7  C   UNL A   1      34.940  24.417  23.934  1.00  0.00     0.007 C 
ATOM      8  C   UNL A   1      34.791  24.627  25.440  1.00  0.00    -0.013 C 
ATOM      9  C   UNL A   1      34.558  23.315  26.193  1.00  0.00     0.003 C 
ATOM     10  C   UNL A   1      33.743  25.687  25.812  1.00  0.00     0.022 C 
ATOM     11  C   UNL A   1      33.102  22.859  26.172  1.00  0.00     0.001 C 
ATOM     12  C   UNL A   1      32.160  23.952  26.677  1.00  0.00     0.019 C 
BRANCH   6  13
ATOM     13  C   UNL A   1      31.667  25.117  24.419  1.00  0.00     0.096 C 
BRANCH  13  14
ATOM     14  C   UNL A   1      31.462  26.436  23.715  1.00  0.00     0.129 A 
ATOM     15  N   UNL A   1      30.199  26.884  23.591  1.00  0.00    -0.241 NA
ATOM     16  N   UNL A   1      32.552  27.114  23.306  1.00  0.00    -0.241 NA
ATOM     17  C   UNL A   1      30.045  28.096  23.029  1.00  0.00     0.115 A 
ATOM     18  C   UNL A   1      32.340  28.323  22.760  1.00  0.00     0.115 A 
ATOM     19  C   UNL A   1      31.092  28.872  22.596  1.00  0.00     0.040 A 
ENDBRANCH  13  14
ENDBRANCH   6  13
ENDBRANCH   4   6
ENDBRANCH   3   4
ENDBRANCH   2   3
ENDBRANCH   1   2
BRANCH   1  20
ATOM     20  O   UNL A   1      33.186  30.195  26.500  1.00  0.00    -0.458 OA
BRANCH  20  21
ATOM     21  C   UNL A   1      33.673  31.222  27.236  1.00  0.00     0.338 C 
ATOM     22  O   UNL A   1      33.108  32.270  27.492  1.00  0.00    -0.246 OA
BRANCH  21  23
ATOM     23  C   UNL A   1      35.035  30.895  27.707  1.00  0.00     0.060 A 
ATOM     24  C   UNL A   1      35.409  29.574  27.946  1.00  0.00     0.016 A 
ATOM     25  C   UNL A   1      35.918  31.929  28.014  1.00  0.00     0.016 A 
ATOM     26  C   UNL A   1      36.609  29.288  28.598  1.00  0.00     0.010 A 
ATOM     27  C   UNL A   1      37.172  31.631  28.559  1.00  0.00     0.010 A 
ATOM     28  C   UNL A   1      37.520  30.310  28.898  1.00  0.00    -0.014 A 
BRANCH  28  29
ATOM     29  C   UNL A   1      38.803  30.028  29.608  1.00  0.00     0.031 A 
ATOM     30  C   UNL A   1      39.796  29.069  29.000  1.00  0.00     0.074 A 
ATOM     31  C   UNL A   1      39.092  30.609  30.792  1.00  0.00     0.049 A 
ATOM     32  N   UNL A   1      40.811  28.456  29.555  1.00  0.00    -0.248 NA
ATOM     33  C   UNL A   1      39.601  28.738  27.579  1.00  0.00     0.031 C 
ATOM     34  C   UNL A   1      38.267  31.606  31.477  1.00  0.00     0.029 A 
ATOM     35  N   UNL A   1      40.166  30.439  31.635  1.00  0.00    -0.354 N 
ATOM     36  C   UNL A   1      41.332  27.617  28.575  1.00  0.00     0.074 A 
ATOM     37  C   UNL A   1      40.518  27.800  27.390  1.00  0.00     0.031 C 
ATOM     38  C   UNL A   1      38.875  31.979  32.612  1.00  0.00     0.029 A 
ATOM     39  C   UNL A   1      40.077  31.174  32.796  1.00  0.00     0.049 A 
ATOM     40  H   UNL A   1      40.925  29.849  31.428  1.00  0.00     0.167 HD
ATOM     41  C   UNL A   1      42.387  26.767  28.660  1.00  0.00     0.034 A 
ATOM     42  C   UNL A   1      40.835  31.159  33.911  1.00  0.00     0.034 A 
ATOM     43  C   UNL A   1      43.219  26.635  29.831  1.00  0.00     0.049 A 
ATOM     44  C   UNL A   1      41.990  30.196  33.993  1.00  0.00     0.074 A 
ATOM     45  C   UNL A   1      44.291  25.784  30.044  1.00  0.00     0.029 A 
ATOM     46  N   UNL A   1      43.089  27.400  30.984  1.00  0.00    -0.354 N 
ATOM     47  N   UNL A   1      42.394  29.314  33.108  1.00  0.00    -0.248 NA
ATOM     48  C   UNL A   1      42.779  30.213  35.231  1.00  0.00     0.031 C 
ATOM     49  C   UNL A   1      44.785  26.010  31.334  1.00  0.00     0.029 A 
ATOM     50  C   UNL A   1      44.060  27.041  31.906  1.00  0.00     0.049 A 
ATOM     51  H   UNL A   1      42.407  28.096  31.124  1.00  0.00     0.167 HD
ATOM     52  C   UNL A   1      43.487  28.676  33.683  1.00  0.00     0.074 A 
ATOM     53  C   UNL A   1      43.698  29.292  34.977  1.00  0.00     0.031 C 
ATOM     54  C   UNL A   1      44.247  27.663  33.193  1.00  0.00     0.034 A 
BRANCH  41  55
ATOM     55  C   UNL A   1      42.656  25.873  27.475  1.00  0.00     0.023 A 
ATOM     56  C   UNL A   1      42.131  24.573  27.383  1.00  0.00     0.031 A 
ATOM     57  C   UNL A   1      43.476  26.328  26.424  1.00  0.00     0.131 A 
ATOM     58  C   UNL A   1      42.480  23.753  26.297  1.00  0.00     0.055 A 
ATOM     59  C   UNL A   1      43.760  25.534  25.313  1.00  0.00     0.041 A 
ATOM     60  F   UNL A   1      44.021  27.554  26.467  1.00  0.00    -0.206 F 
ATOM     61  C   UNL A   1      43.272  24.233  25.250  1.00  0.00     0.022 A 
BRANCH  58  62
ATOM     62  S   UNL A   1      41.980  22.010  26.328  1.00  0.00     0.124 S 
ATOM     63  O   UNL A   1      40.547  22.109  26.064  1.00  0.00    -0.237 OA
ATOM     64  O   UNL A   1      42.789  21.431  25.260  1.00  0.00    -0.237 OA
ATOM     65  O   UNL A   1      42.331  21.576  27.679  1.00  0.00    -0.744 OA
ENDBRANCH  58  62
ENDBRANCH  41  55
BRANCH  42  66
ATOM     66  C   UNL A   1      40.475  32.014  35.080  1.00  0.00     0.023 A 
ATOM     67  C   UNL A   1      39.488  31.618  35.996  1.00  0.00     0.031 A 
ATOM     68  C   UNL A   1      41.086  33.268  35.271  1.00  0.00     0.131 A 
ATOM     69  C   UNL A   1      39.112  32.483  37.035  1.00  0.00     0.055 A 
ATOM     70  C   UNL A   1      40.750  34.099  36.340  1.00  0.00     0.041 A 
ATOM     71  F   UNL A   1      42.033  33.699  34.422  1.00  0.00    -0.206 F 
ATOM     72  C   UNL A   1      39.747  33.712  37.223  1.00  0.00     0.022 A 
BRANCH  69  73
ATOM     73  S   UNL A   1      37.708  32.020  38.087  1.00  0.00     0.124 S 
ATOM     74  O   UNL A   1      38.270  32.181  39.424  1.00  0.00    -0.237 OA
ATOM     75  O   UNL A   1      36.701  33.000  37.693  1.00  0.00    -0.237 OA
ATOM     76  O   UNL A   1      37.424  30.643  37.691  1.00  0.00    -0.744 OA
ENDBRANCH  69  73
ENDBRANCH  42  66
BRANCH  54  77
ATOM     77  C   UNL A   1      45.393  27.202  34.053  1.00  0.00     0.023 A 
ATOM     78  C   UNL A   1      46.668  27.785  33.952  1.00  0.00     0.031 A 
ATOM     79  C   UNL A   1      45.212  26.145  34.961  1.00  0.00     0.131 A 
ATOM     80  C   UNL A   1      47.730  27.270  34.711  1.00  0.00     0.055 A 
ATOM     81  C   UNL A   1      46.261  25.668  35.748  1.00  0.00     0.041 A 
ATOM     82  F   UNL A   1      44.014  25.555  35.092  1.00  0.00    -0.206 F 
ATOM     83  C   UNL A   1      47.532  26.223  35.616  1.00  0.00     0.022 A 
BRANCH  80  84
ATOM     84  S   UNL A   1      49.395  27.937  34.444  1.00  0.00     0.124 S 
ATOM     85  O   UNL A   1      49.427  29.060  35.376  1.00  0.00    -0.237 OA
ATOM     86  O   UNL A   1      50.246  26.801  34.786  1.00  0.00    -0.237 OA
ATOM     87  O   UNL A   1      49.395  28.306  33.030  1.00  0.00    -0.744 OA
ENDBRANCH  80  84
ENDBRANCH  54  77
ENDBRANCH  28  29
ENDBRANCH  21  23
ENDBRANCH  20  21
ENDBRANCH   1  20
TORSDOF 16
ENDMDL
