MODEL 1
REMARK VINA RESULT:     -12.6      0.000      0.000
REMARK SMILES Cc1cc2c(c(C)c1Cl)C=C(C(=O)OCCOC(=O)c1ccc(-c3c4nc(c(-c5cc(S(=O)(=O)[O-])ccc5F)c5ccc([nH]5)c(-c5cc(S(=O)(=O)[O-])ccc5F)c5nc(c(-c6cc(S(=O)(=O)[O-])ccc6F)c6ccc3[nH]6)C=C5)C=C4)cc1)[C@@H](C(F)(F)F)O2
REMARK SMILES IDX 16 1 15 2 14 3 12 4 13 5 11 6 1 7 2 8 3 9 8 10 4 11 6 12
REMARK SMILES IDX 9 13 5 14 88 15 7 16 10 17 83 18 84 19 85 20 86 21 87 22
REMARK SMILES IDX 17 23 18 24 19 25 20 26 21 27 82 28 22 29 81 30 23 31 24 32
REMARK SMILES IDX 25 33 75 34 26 35 80 36 74 37 76 38 27 39 79 40 73 41 72 42
REMARK SMILES IDX 28 44 60 45 40 46 59 47 41 48 44 49 58 50 77 51 42 52 43 53
REMARK SMILES IDX 57 55 78 56 45 57 29 58 30 59 38 60 31 61 37 62 39 63 36 64
REMARK SMILES IDX 32 65 33 66 34 67 35 68 61 69 62 70 70 71 63 72 69 73 71 74
REMARK SMILES IDX 68 75 64 76 65 77 66 78 67 79 46 80 47 81 55 82 48 83 54 84
REMARK SMILES IDX 56 85 53 86 49 87 50 88 51 89 52 90
REMARK H PARENT 76 43 44 54
REMARK Flexibility Score: inf
ROOT
ATOM      1  C   UNL A   1      31.941  29.946  25.657  1.00  0.00     0.275 C 
ENDROOT
BRANCH   1   2
ATOM      2  C   UNL A   1      31.608  28.466  25.470  1.00  0.00     0.275 C 
BRANCH   2   3
ATOM      3  O   UNL A   1      32.763  27.631  25.709  1.00  0.00    -0.459 OA
BRANCH   3   4
ATOM      4  C   UNL A   1      33.295  27.046  24.610  1.00  0.00     0.338 C 
ATOM      5  O   UNL A   1      33.713  27.616  23.614  1.00  0.00    -0.246 OA
BRANCH   4   6
ATOM      6  C   UNL A   1      33.307  25.578  24.757  1.00  0.00     0.087 C 
ATOM      7  C   UNL A   1      34.474  19.188  24.726  1.00  0.00     0.046 C 
ATOM      8  C   UNL A   1      34.527  20.690  24.793  1.00  0.00    -0.028 A 
ATOM      9  C   UNL A   1      33.331  21.418  24.774  1.00  0.00     0.052 A 
ATOM     10  C   UNL A   1      35.751  21.384  24.871  1.00  0.00     0.047 A 
ATOM     11  C   UNL A   1      33.339  22.810  24.810  1.00  0.00     0.128 A 
ATOM     12  C   UNL A   1      35.781  22.797  24.917  1.00  0.00    -0.021 A 
ATOM     13  Cl  UNL A   1      37.224  20.462  24.897  1.00  0.00    -0.084 Cl
ATOM     14  C   UNL A   1      34.551  23.507  24.875  1.00  0.00     0.022 A 
ATOM     15  O   UNL A   1      32.105  23.402  24.794  1.00  0.00    -0.475 OA
ATOM     16  C   UNL A   1      37.087  23.549  25.024  1.00  0.00     0.047 C 
ATOM     17  C   UNL A   1      34.492  24.966  24.869  1.00  0.00     0.027 C 
ATOM     18  C   UNL A   1      32.011  24.841  24.633  1.00  0.00     0.316 C 
BRANCH  18  19
ATOM     19  C   UNL A   1      31.317  25.150  23.296  1.00  0.00     0.430 C 
ATOM     20  F   UNL A   1      30.408  24.196  22.979  1.00  0.00    -0.167 F 
ATOM     21  F   UNL A   1      30.634  26.321  23.348  1.00  0.00    -0.167 F 
ATOM     22  F   UNL A   1      32.189  25.236  22.267  1.00  0.00    -0.167 F 
ENDBRANCH  18  19
ENDBRANCH   4   6
ENDBRANCH   3   4
ENDBRANCH   2   3
ENDBRANCH   1   2
BRANCH   1  23
ATOM     23  O   UNL A   1      32.296  30.204  27.027  1.00  0.00    -0.458 OA
BRANCH  23  24
ATOM     24  C   UNL A   1      32.973  31.358  27.237  1.00  0.00     0.338 C 
ATOM     25  O   UNL A   1      32.519  32.488  27.229  1.00  0.00    -0.246 OA
BRANCH  24  26
ATOM     26  C   UNL A   1      34.380  31.072  27.568  1.00  0.00     0.060 A 
ATOM     27  C   UNL A   1      34.757  29.756  27.798  1.00  0.00     0.016 A 
ATOM     28  C   UNL A   1      35.262  32.108  27.859  1.00  0.00     0.016 A 
ATOM     29  C   UNL A   1      35.938  29.488  28.485  1.00  0.00     0.010 A 
ATOM     30  C   UNL A   1      36.516  31.815  28.416  1.00  0.00     0.010 A 
ATOM     31  C   UNL A   1      36.847  30.505  28.806  1.00  0.00    -0.014 A 
BRANCH  31  32
ATOM     32  C   UNL A   1      38.084  30.209  29.601  1.00  0.00     0.031 A 
ATOM     33  C   UNL A   1      39.190  29.361  29.004  1.00  0.00     0.074 A 
ATOM     34  C   UNL A   1      38.268  30.727  30.836  1.00  0.00     0.049 A 
ATOM     35  N   UNL A   1      40.210  28.792  29.598  1.00  0.00    -0.248 NA
ATOM     36  C   UNL A   1      39.134  29.106  27.555  1.00  0.00     0.031 C 
ATOM     37  C   UNL A   1      37.347  31.634  31.527  1.00  0.00     0.029 A 
ATOM     38  N   UNL A   1      39.307  30.588  31.726  1.00  0.00    -0.354 N 
ATOM     39  C   UNL A   1      40.870  28.058  28.614  1.00  0.00     0.074 A 
ATOM     40  C   UNL A   1      40.134  28.253  27.384  1.00  0.00     0.031 C 
ATOM     41  C   UNL A   1      37.896  32.033  32.682  1.00  0.00     0.029 A 
ATOM     42  C   UNL A   1      39.133  31.295  32.897  1.00  0.00     0.049 A 
ATOM     43  H   UNL A   1      40.101  30.035  31.545  1.00  0.00     0.167 HD
ATOM     44  C   UNL A   1      41.984  27.294  28.731  1.00  0.00     0.034 A 
ATOM     45  C   UNL A   1      39.837  31.305  34.046  1.00  0.00     0.034 A 
ATOM     46  C   UNL A   1      42.753  27.170  29.945  1.00  0.00     0.049 A 
ATOM     47  C   UNL A   1      41.022  30.390  34.181  1.00  0.00     0.074 A 
ATOM     48  C   UNL A   1      43.895  26.417  30.166  1.00  0.00     0.029 A 
ATOM     49  N   UNL A   1      42.481  27.834  31.132  1.00  0.00    -0.354 N 
ATOM     50  N   UNL A   1      41.545  29.585  33.287  1.00  0.00    -0.248 NA
ATOM     51  C   UNL A   1      41.686  30.354  35.490  1.00  0.00     0.031 C 
ATOM     52  C   UNL A   1      44.278  26.581  31.501  1.00  0.00     0.029 A 
ATOM     53  C   UNL A   1      43.418  27.490  32.094  1.00  0.00     0.049 A 
ATOM     54  H   UNL A   1      41.733  28.458  31.271  1.00  0.00     0.167 HD
ATOM     55  C   UNL A   1      42.604  28.950  33.925  1.00  0.00     0.074 A 
ATOM     56  C   UNL A   1      42.658  29.478  35.273  1.00  0.00     0.031 C 
ATOM     57  C   UNL A   1      43.452  28.010  33.440  1.00  0.00     0.034 A 
BRANCH  44  58
ATOM     58  C   UNL A   1      42.418  26.480  27.535  1.00  0.00     0.023 A 
ATOM     59  C   UNL A   1      42.075  25.127  27.381  1.00  0.00     0.031 A 
ATOM     60  C   UNL A   1      43.153  27.098  26.504  1.00  0.00     0.131 A 
ATOM     61  C   UNL A   1      42.496  24.427  26.237  1.00  0.00     0.055 A 
ATOM     62  C   UNL A   1      43.513  26.414  25.342  1.00  0.00     0.041 A 
ATOM     63  F   UNL A   1      43.521  28.385  26.607  1.00  0.00    -0.206 F 
ATOM     64  C   UNL A   1      43.189  25.069  25.206  1.00  0.00     0.022 A 
BRANCH  61  65
ATOM     65  S   UNL A   1      42.187  22.643  26.140  1.00  0.00     0.124 S 
ATOM     66  O   UNL A   1      42.894  22.289  24.912  1.00  0.00    -0.237 OA
ATOM     67  O   UNL A   1      42.774  22.150  27.380  1.00  0.00    -0.237 OA
ATOM     68  O   UNL A   1      40.730  22.551  26.060  1.00  0.00    -0.744 OA
ENDBRANCH  61  65
ENDBRANCH  44  58
BRANCH  45  69
ATOM     69  C   UNL A   1      39.378  32.139  35.196  1.00  0.00     0.023 A 
ATOM     70  C   UNL A   1      39.860  33.443  35.383  1.00  0.00     0.031 A 
ATOM     71  C   UNL A   1      38.444  31.640  36.124  1.00  0.00     0.131 A 
ATOM     72  C   UNL A   1      39.412  34.201  36.477  1.00  0.00     0.055 A 
ATOM     73  C   UNL A   1      37.962  32.415  37.177  1.00  0.00     0.041 A 
ATOM     74  F   UNL A   1      37.957  30.395  35.994  1.00  0.00    -0.206 F 
ATOM     75  C   UNL A   1      38.451  33.704  37.362  1.00  0.00     0.022 A 
BRANCH  72  76
ATOM     76  S   UNL A   1      40.132  35.841  36.756  1.00  0.00     0.124 S 
ATOM     77  O   UNL A   1      41.559  35.538  36.779  1.00  0.00    -0.237 OA
ATOM     78  O   UNL A   1      39.653  36.587  35.598  1.00  0.00    -0.237 OA
ATOM     79  O   UNL A   1      39.561  36.251  38.038  1.00  0.00    -0.744 OA
ENDBRANCH  72  76
ENDBRANCH  45  69
BRANCH  57  80
ATOM     80  C   UNL A   1      44.528  27.508  34.365  1.00  0.00     0.023 A 
ATOM     81  C   UNL A   1      44.368  26.321  35.097  1.00  0.00     0.031 A 
ATOM     82  C   UNL A   1      45.734  28.217  34.501  1.00  0.00     0.131 A 
ATOM     83  C   UNL A   1      45.385  25.894  35.964  1.00  0.00     0.055 A 
ATOM     84  C   UNL A   1      46.763  27.762  35.325  1.00  0.00     0.041 A 
ATOM     85  F   UNL A   1      45.935  29.358  33.822  1.00  0.00    -0.206 F 
ATOM     86  C   UNL A   1      46.588  26.597  36.069  1.00  0.00     0.022 A 
BRANCH  83  87
ATOM     87  S   UNL A   1      45.093  24.432  36.996  1.00  0.00     0.124 S 
ATOM     88  O   UNL A   1      44.548  23.484  36.030  1.00  0.00    -0.237 OA
ATOM     89  O   UNL A   1      46.429  24.131  37.500  1.00  0.00    -0.237 OA
ATOM     90  O   UNL A   1      44.145  24.906  38.002  1.00  0.00    -0.744 OA
ENDBRANCH  83  87
ENDBRANCH  57  80
ENDBRANCH  31  32
ENDBRANCH  24  26
ENDBRANCH  23  24
ENDBRANCH   1  23
TORSDOF 15
ENDMDL
MODEL 2
REMARK VINA RESULT:     -12.6      5.021     10.009
REMARK SMILES Cc1cc2c(c(C)c1Cl)C=C(C(=O)OCCOC(=O)c1ccc(-c3c4nc(c(-c5cc(S(=O)(=O)[O-])ccc5F)c5ccc([nH]5)c(-c5cc(S(=O)(=O)[O-])ccc5F)c5nc(c(-c6cc(S(=O)(=O)[O-])ccc6F)c6ccc3[nH]6)C=C5)C=C4)cc1)[C@@H](C(F)(F)F)O2
REMARK SMILES IDX 16 1 15 2 14 3 12 4 13 5 11 6 1 7 2 8 3 9 8 10 4 11 6 12
REMARK SMILES IDX 9 13 5 14 88 15 7 16 10 17 83 18 84 19 85 20 86 21 87 22
REMARK SMILES IDX 17 23 18 24 19 25 20 26 21 27 82 28 22 29 81 30 23 31 24 32
REMARK SMILES IDX 25 33 75 34 26 35 80 36 74 37 76 38 27 39 79 40 73 41 72 42
REMARK SMILES IDX 28 44 60 45 40 46 59 47 41 48 44 49 58 50 77 51 42 52 43 53
REMARK SMILES IDX 57 55 78 56 45 57 29 58 30 59 38 60 31 61 37 62 39 63 36 64
REMARK SMILES IDX 32 65 33 66 34 67 35 68 61 69 62 70 70 71 63 72 69 73 71 74
REMARK SMILES IDX 68 75 64 76 65 77 66 78 67 79 46 80 47 81 55 82 48 83 54 84
REMARK SMILES IDX 56 85 53 86 49 87 50 88 51 89 52 90
REMARK H PARENT 76 43 44 54
REMARK Flexibility Score: inf
ROOT
ATOM      1  C   UNL A   1      36.424  20.722  24.916  1.00  0.00     0.275 C 
ENDROOT
BRANCH   1   2
ATOM      2  C   UNL A   1      35.036  21.358  24.981  1.00  0.00     0.275 C 
BRANCH   2   3
ATOM      3  O   UNL A   1      35.110  22.797  24.876  1.00  0.00    -0.459 OA
BRANCH   3   4
ATOM      4  C   UNL A   1      34.430  23.485  25.824  1.00  0.00     0.338 C 
ATOM      5  O   UNL A   1      34.433  23.262  27.025  1.00  0.00    -0.246 OA
BRANCH   4   6
ATOM      6  C   UNL A   1      33.647  24.575  25.213  1.00  0.00     0.087 C 
ATOM      7  C   UNL A   1      30.059  29.790  23.754  1.00  0.00     0.046 C 
ATOM      8  C   UNL A   1      31.040  28.789  24.301  1.00  0.00    -0.028 A 
ATOM      9  C   UNL A   1      31.128  27.524  23.707  1.00  0.00     0.052 A 
ATOM     10  C   UNL A   1      31.873  29.091  25.396  1.00  0.00     0.047 A 
ATOM     11  C   UNL A   1      32.006  26.561  24.198  1.00  0.00     0.128 A 
ATOM     12  C   UNL A   1      32.777  28.131  25.905  1.00  0.00    -0.021 A 
ATOM     13  Cl  UNL A   1      31.751  30.668  26.117  1.00  0.00    -0.084 Cl
ATOM     14  C   UNL A   1      32.826  26.849  25.295  1.00  0.00     0.022 A 
ATOM     15  O   UNL A   1      32.002  25.369  23.526  1.00  0.00    -0.475 OA
ATOM     16  C   UNL A   1      33.689  28.454  27.066  1.00  0.00     0.047 C 
ATOM     17  C   UNL A   1      33.696  25.784  25.786  1.00  0.00     0.027 C 
ATOM     18  C   UNL A   1      32.734  24.243  24.075  1.00  0.00     0.316 C 
BRANCH  18  19
ATOM     19  C   UNL A   1      31.736  23.139  24.462  1.00  0.00     0.430 C 
ATOM     20  F   UNL A   1      30.497  23.401  23.978  1.00  0.00    -0.167 F 
ATOM     21  F   UNL A   1      32.098  21.937  23.946  1.00  0.00    -0.167 F 
ATOM     22  F   UNL A   1      31.624  22.986  25.800  1.00  0.00    -0.167 F 
ENDBRANCH  18  19
ENDBRANCH   4   6
ENDBRANCH   3   4
ENDBRANCH   2   3
ENDBRANCH   1   2
BRANCH   1  23
ATOM     23  O   UNL A   1      37.440  21.739  24.987  1.00  0.00    -0.458 OA
BRANCH  23  24
ATOM     24  C   UNL A   1      38.563  21.383  25.653  1.00  0.00     0.338 C 
ATOM     25  O   UNL A   1      39.145  20.314  25.595  1.00  0.00    -0.246 OA
BRANCH  24  26
ATOM     26  C   UNL A   1      39.071  22.519  26.441  1.00  0.00     0.060 A 
ATOM     27  C   UNL A   1      38.577  23.789  26.177  1.00  0.00     0.016 A 
ATOM     28  C   UNL A   1      40.175  22.364  27.275  1.00  0.00     0.016 A 
ATOM     29  C   UNL A   1      39.291  24.908  26.596  1.00  0.00     0.010 A 
ATOM     30  C   UNL A   1      40.801  23.497  27.816  1.00  0.00     0.010 A 
ATOM     31  C   UNL A   1      40.414  24.792  27.427  1.00  0.00    -0.014 A 
BRANCH  31  32
ATOM     32  C   UNL A   1      41.209  26.002  27.819  1.00  0.00     0.031 A 
ATOM     33  C   UNL A   1      40.597  27.061  28.715  1.00  0.00     0.074 A 
ATOM     34  C   UNL A   1      42.495  26.154  27.432  1.00  0.00     0.049 A 
ATOM     35  N   UNL A   1      41.015  28.277  28.965  1.00  0.00    -0.248 NA
ATOM     36  C   UNL A   1      39.344  26.713  29.405  1.00  0.00     0.031 C 
ATOM     37  C   UNL A   1      43.269  25.192  26.642  1.00  0.00     0.029 A 
ATOM     38  N   UNL A   1      43.395  27.167  27.671  1.00  0.00    -0.354 N 
ATOM     39  C   UNL A   1      40.045  28.859  29.779  1.00  0.00     0.074 A 
ATOM     40  C   UNL A   1      39.015  27.863  29.979  1.00  0.00     0.031 C 
ATOM     41  C   UNL A   1      44.535  25.616  26.538  1.00  0.00     0.029 A 
ATOM     42  C   UNL A   1      44.636  26.951  27.112  1.00  0.00     0.049 A 
ATOM     43  H   UNL A   1      43.173  27.972  28.193  1.00  0.00     0.167 HD
ATOM     44  C   UNL A   1      40.019  30.108  30.306  1.00  0.00     0.034 A 
ATOM     45  C   UNL A   1      45.716  27.749  27.000  1.00  0.00     0.034 A 
ATOM     46  C   UNL A   1      41.088  31.066  30.164  1.00  0.00     0.049 A 
ATOM     47  C   UNL A   1      45.636  29.157  27.521  1.00  0.00     0.074 A 
ATOM     48  C   UNL A   1      41.156  32.359  30.656  1.00  0.00     0.029 A 
ATOM     49  N   UNL A   1      42.287  30.830  29.506  1.00  0.00    -0.354 N 
ATOM     50  N   UNL A   1      44.650  29.744  28.157  1.00  0.00    -0.248 NA
ATOM     51  C   UNL A   1      46.797  30.022  27.274  1.00  0.00     0.031 C 
ATOM     52  C   UNL A   1      42.369  32.923  30.247  1.00  0.00     0.029 A 
ATOM     53  C   UNL A   1      43.089  31.960  29.560  1.00  0.00     0.049 A 
ATOM     54  H   UNL A   1      42.533  29.985  29.066  1.00  0.00     0.167 HD
ATOM     55  C   UNL A   1      45.074  31.047  28.391  1.00  0.00     0.074 A 
ATOM     56  C   UNL A   1      46.412  31.155  27.845  1.00  0.00     0.031 C 
ATOM     57  C   UNL A   1      44.413  32.063  28.998  1.00  0.00     0.034 A 
BRANCH  44  58
ATOM     58  C   UNL A   1      38.775  30.545  31.041  1.00  0.00     0.023 A 
ATOM     59  C   UNL A   1      37.704  31.183  30.396  1.00  0.00     0.031 A 
ATOM     60  C   UNL A   1      38.647  30.267  32.417  1.00  0.00     0.131 A 
ATOM     61  C   UNL A   1      36.565  31.552  31.133  1.00  0.00     0.055 A 
ATOM     62  C   UNL A   1      37.488  30.578  33.129  1.00  0.00     0.041 A 
ATOM     63  F   UNL A   1      39.646  29.672  33.087  1.00  0.00    -0.206 F 
ATOM     64  C   UNL A   1      36.441  31.230  32.488  1.00  0.00     0.022 A 
BRANCH  61  65
ATOM     65  S   UNL A   1      35.270  32.523  30.316  1.00  0.00     0.124 S 
ATOM     66  O   UNL A   1      35.997  33.739  29.957  1.00  0.00    -0.237 OA
ATOM     67  O   UNL A   1      34.879  31.662  29.206  1.00  0.00    -0.237 OA
ATOM     68  O   UNL A   1      34.259  32.694  31.358  1.00  0.00    -0.744 OA
ENDBRANCH  61  65
ENDBRANCH  44  58
BRANCH  45  69
ATOM     69  C   UNL A   1      46.930  27.267  26.278  1.00  0.00     0.023 A 
ATOM     70  C   UNL A   1      47.160  27.612  24.937  1.00  0.00     0.031 A 
ATOM     71  C   UNL A   1      47.882  26.458  26.924  1.00  0.00     0.131 A 
ATOM     72  C   UNL A   1      48.310  27.139  24.284  1.00  0.00     0.055 A 
ATOM     73  C   UNL A   1      49.049  26.036  26.288  1.00  0.00     0.041 A 
ATOM     74  F   UNL A   1      47.707  26.094  28.206  1.00  0.00    -0.206 F 
ATOM     75  C   UNL A   1      49.266  26.372  24.957  1.00  0.00     0.022 A 
BRANCH  72  76
ATOM     76  S   UNL A   1      48.526  27.508  22.522  1.00  0.00     0.124 S 
ATOM     77  O   UNL A   1      49.769  28.271  22.530  1.00  0.00    -0.237 OA
ATOM     78  O   UNL A   1      48.595  26.174  21.936  1.00  0.00    -0.237 OA
ATOM     79  O   UNL A   1      47.327  28.272  22.185  1.00  0.00    -0.744 OA
ENDBRANCH  72  76
ENDBRANCH  45  69
BRANCH  57  80
ATOM     80  C   UNL A   1      45.137  33.376  29.126  1.00  0.00     0.023 A 
ATOM     81  C   UNL A   1      45.048  34.361  28.129  1.00  0.00     0.031 A 
ATOM     82  C   UNL A   1      45.908  33.653  30.269  1.00  0.00     0.131 A 
ATOM     83  C   UNL A   1      45.751  35.565  28.275  1.00  0.00     0.055 A 
ATOM     84  C   UNL A   1      46.563  34.873  30.433  1.00  0.00     0.041 A 
ATOM     85  F   UNL A   1      46.023  32.744  31.251  1.00  0.00    -0.206 F 
ATOM     86  C   UNL A   1      46.493  35.835  29.428  1.00  0.00     0.022 A 
BRANCH  83  87
ATOM     87  S   UNL A   1      45.727  36.759  26.910  1.00  0.00     0.124 S 
ATOM     88  O   UNL A   1      46.165  35.940  25.784  1.00  0.00    -0.237 OA
ATOM     89  O   UNL A   1      44.331  37.181  26.885  1.00  0.00    -0.237 OA
ATOM     90  O   UNL A   1      46.676  37.786  27.335  1.00  0.00    -0.744 OA
ENDBRANCH  83  87
ENDBRANCH  57  80
ENDBRANCH  31  32
ENDBRANCH  24  26
ENDBRANCH  23  24
ENDBRANCH   1  23
TORSDOF 15
ENDMDL
MODEL 3
REMARK VINA RESULT:     -12.5      1.302      1.668
REMARK SMILES Cc1cc2c(c(C)c1Cl)C=C(C(=O)OCCOC(=O)c1ccc(-c3c4nc(c(-c5cc(S(=O)(=O)[O-])ccc5F)c5ccc([nH]5)c(-c5cc(S(=O)(=O)[O-])ccc5F)c5nc(c(-c6cc(S(=O)(=O)[O-])ccc6F)c6ccc3[nH]6)C=C5)C=C4)cc1)[C@@H](C(F)(F)F)O2
REMARK SMILES IDX 16 1 15 2 14 3 12 4 13 5 11 6 1 7 2 8 3 9 8 10 4 11 6 12
REMARK SMILES IDX 9 13 5 14 88 15 7 16 10 17 83 18 84 19 85 20 86 21 87 22
REMARK SMILES IDX 17 23 18 24 19 25 20 26 21 27 82 28 22 29 81 30 23 31 24 32
REMARK SMILES IDX 25 33 75 34 26 35 80 36 74 37 76 38 27 39 79 40 73 41 72 42
REMARK SMILES IDX 28 44 60 45 40 46 59 47 41 48 44 49 58 50 77 51 42 52 43 53
REMARK SMILES IDX 57 55 78 56 45 57 29 58 30 59 38 60 31 61 37 62 39 63 36 64
REMARK SMILES IDX 32 65 33 66 34 67 35 68 61 69 62 70 70 71 63 72 69 73 71 74
REMARK SMILES IDX 68 75 64 76 65 77 66 78 67 79 46 80 47 81 55 82 48 83 54 84
REMARK SMILES IDX 56 85 53 86 49 87 50 88 51 89 52 90
REMARK H PARENT 76 43 44 54
REMARK Flexibility Score: inf
ROOT
ATOM      1  C   UNL A   1      31.893  29.868  25.489  1.00  0.00     0.275 C 
ENDROOT
BRANCH   1   2
ATOM      2  C   UNL A   1      31.347  28.470  25.201  1.00  0.00     0.275 C 
BRANCH   2   3
ATOM      3  O   UNL A   1      32.281  27.446  25.604  1.00  0.00    -0.459 OA
BRANCH   3   4
ATOM      4  C   UNL A   1      33.013  26.898  24.604  1.00  0.00     0.338 C 
ATOM      5  O   UNL A   1      33.538  27.497  23.678  1.00  0.00    -0.246 OA
BRANCH   4   6
ATOM      6  C   UNL A   1      33.098  25.435  24.763  1.00  0.00     0.087 C 
ATOM      7  C   UNL A   1      34.562  19.106  24.750  1.00  0.00     0.046 C 
ATOM      8  C   UNL A   1      34.547  20.609  24.802  1.00  0.00    -0.028 A 
ATOM      9  C   UNL A   1      33.318  21.280  24.817  1.00  0.00     0.052 A 
ATOM     10  C   UNL A   1      35.738  21.360  24.834  1.00  0.00     0.047 A 
ATOM     11  C   UNL A   1      33.262  22.671  24.840  1.00  0.00     0.128 A 
ATOM     12  C   UNL A   1      35.704  22.773  24.866  1.00  0.00    -0.021 A 
ATOM     13  Cl  UNL A   1      37.253  20.508  24.819  1.00  0.00    -0.084 Cl
ATOM     14  C   UNL A   1      34.441  23.425  24.858  1.00  0.00     0.022 A 
ATOM     15  O   UNL A   1      32.002  23.205  24.859  1.00  0.00    -0.475 OA
ATOM     16  C   UNL A   1      36.976  23.586  24.923  1.00  0.00     0.047 C 
ATOM     17  C   UNL A   1      34.313  24.879  24.842  1.00  0.00     0.027 C 
ATOM     18  C   UNL A   1      31.835  24.636  24.689  1.00  0.00     0.316 C 
BRANCH  18  19
ATOM     19  C   UNL A   1      31.083  24.898  23.373  1.00  0.00     0.430 C 
ATOM     20  F   UNL A   1      30.340  26.029  23.445  1.00  0.00    -0.167 F 
ATOM     21  F   UNL A   1      31.940  25.073  22.336  1.00  0.00    -0.167 F 
ATOM     22  F   UNL A   1      30.250  23.887  23.041  1.00  0.00    -0.167 F 
ENDBRANCH  18  19
ENDBRANCH   4   6
ENDBRANCH   3   4
ENDBRANCH   2   3
ENDBRANCH   1   2
BRANCH   1  23
ATOM     23  O   UNL A   1      32.474  29.912  26.805  1.00  0.00    -0.458 OA
BRANCH  23  24
ATOM     24  C   UNL A   1      33.048  31.091  27.140  1.00  0.00     0.338 C 
ATOM     25  O   UNL A   1      32.503  32.178  27.223  1.00  0.00    -0.246 OA
BRANCH  24  26
ATOM     26  C   UNL A   1      34.466  30.889  27.483  1.00  0.00     0.060 A 
ATOM     27  C   UNL A   1      34.940  29.593  27.628  1.00  0.00     0.016 A 
ATOM     28  C   UNL A   1      35.260  31.965  27.869  1.00  0.00     0.016 A 
ATOM     29  C   UNL A   1      36.124  29.364  28.322  1.00  0.00     0.010 A 
ATOM     30  C   UNL A   1      36.523  31.728  28.435  1.00  0.00     0.010 A 
ATOM     31  C   UNL A   1      36.946  30.422  28.738  1.00  0.00    -0.014 A 
BRANCH  31  32
ATOM     32  C   UNL A   1      38.187  30.162  29.539  1.00  0.00     0.031 A 
ATOM     33  C   UNL A   1      39.304  29.312  28.964  1.00  0.00     0.074 A 
ATOM     34  C   UNL A   1      38.364  30.715  30.760  1.00  0.00     0.049 A 
ATOM     35  N   UNL A   1      40.331  28.773  29.572  1.00  0.00    -0.248 NA
ATOM     36  C   UNL A   1      39.250  29.019  27.523  1.00  0.00     0.031 C 
ATOM     37  C   UNL A   1      37.432  31.628  31.428  1.00  0.00     0.029 A 
ATOM     38  N   UNL A   1      39.406  30.612  31.653  1.00  0.00    -0.354 N 
ATOM     39  C   UNL A   1      40.999  28.022  28.608  1.00  0.00     0.074 A 
ATOM     40  C   UNL A   1      40.261  28.175  27.373  1.00  0.00     0.031 C 
ATOM     41  C   UNL A   1      37.977  32.064  32.571  1.00  0.00     0.029 A 
ATOM     42  C   UNL A   1      39.223  31.348  32.804  1.00  0.00     0.049 A 
ATOM     43  H   UNL A   1      40.206  30.065  31.486  1.00  0.00     0.167 HD
ATOM     44  C   UNL A   1      42.123  27.275  28.744  1.00  0.00     0.034 A 
ATOM     45  C   UNL A   1      39.927  31.397  33.953  1.00  0.00     0.034 A 
ATOM     46  C   UNL A   1      42.895  27.193  29.960  1.00  0.00     0.049 A 
ATOM     47  C   UNL A   1      41.124  30.501  34.111  1.00  0.00     0.074 A 
ATOM     48  C   UNL A   1      44.046  26.461  30.201  1.00  0.00     0.029 A 
ATOM     49  N   UNL A   1      42.615  27.885  31.130  1.00  0.00    -0.354 N 
ATOM     50  N   UNL A   1      41.657  29.680  33.238  1.00  0.00    -0.248 NA
ATOM     51  C   UNL A   1      41.788  30.508  35.420  1.00  0.00     0.031 C 
ATOM     52  C   UNL A   1      44.427  26.665  31.531  1.00  0.00     0.029 A 
ATOM     53  C   UNL A   1      43.555  27.578  32.100  1.00  0.00     0.049 A 
ATOM     54  H   UNL A   1      41.858  28.503  31.253  1.00  0.00     0.167 HD
ATOM     55  C   UNL A   1      42.724  29.075  33.892  1.00  0.00     0.074 A 
ATOM     56  C   UNL A   1      42.771  29.640  35.226  1.00  0.00     0.031 C 
ATOM     57  C   UNL A   1      43.583  28.133  33.431  1.00  0.00     0.034 A 
BRANCH  44  58
ATOM     58  C   UNL A   1      42.567  26.435  27.570  1.00  0.00     0.023 A 
ATOM     59  C   UNL A   1      42.174  25.097  27.410  1.00  0.00     0.031 A 
ATOM     60  C   UNL A   1      43.366  27.015  26.564  1.00  0.00     0.131 A 
ATOM     61  C   UNL A   1      42.608  24.372  26.287  1.00  0.00     0.055 A 
ATOM     62  C   UNL A   1      43.740  26.309  25.420  1.00  0.00     0.041 A 
ATOM     63  F   UNL A   1      43.783  28.286  26.673  1.00  0.00    -0.206 F 
ATOM     64  C   UNL A   1      43.366  24.977  25.279  1.00  0.00     0.022 A 
BRANCH  61  65
ATOM     65  S   UNL A   1      42.228  22.602  26.188  1.00  0.00     0.124 S 
ATOM     66  O   UNL A   1      42.894  22.091  27.384  1.00  0.00    -0.237 OA
ATOM     67  O   UNL A   1      40.771  22.587  26.213  1.00  0.00    -0.237 OA
ATOM     68  O   UNL A   1      42.834  22.190  24.922  1.00  0.00    -0.744 OA
ENDBRANCH  61  65
ENDBRANCH  44  58
BRANCH  45  69
ATOM     69  C   UNL A   1      39.458  32.255  35.081  1.00  0.00     0.023 A 
ATOM     70  C   UNL A   1      38.751  31.708  36.161  1.00  0.00     0.031 A 
ATOM     71  C   UNL A   1      39.718  33.638  35.093  1.00  0.00     0.131 A 
ATOM     72  C   UNL A   1      38.320  32.542  37.206  1.00  0.00     0.055 A 
ATOM     73  C   UNL A   1      39.335  34.453  36.158  1.00  0.00     0.041 A 
ATOM     74  F   UNL A   1      40.385  34.214  34.079  1.00  0.00    -0.206 F 
ATOM     75  C   UNL A   1      38.625  33.906  37.221  1.00  0.00     0.022 A 
BRANCH  72  76
ATOM     76  S   UNL A   1      37.314  31.828  38.535  1.00  0.00     0.124 S 
ATOM     77  O   UNL A   1      36.129  32.677  38.498  1.00  0.00    -0.237 OA
ATOM     78  O   UNL A   1      37.134  30.454  38.078  1.00  0.00    -0.237 OA
ATOM     79  O   UNL A   1      38.156  31.982  39.720  1.00  0.00    -0.744 OA
ENDBRANCH  72  76
ENDBRANCH  45  69
BRANCH  57  80
ATOM     80  C   UNL A   1      44.666  27.670  34.369  1.00  0.00     0.023 A 
ATOM     81  C   UNL A   1      44.474  26.571  35.222  1.00  0.00     0.031 A 
ATOM     82  C   UNL A   1      45.910  28.325  34.395  1.00  0.00     0.131 A 
ATOM     83  C   UNL A   1      45.499  26.180  36.095  1.00  0.00     0.055 A 
ATOM     84  C   UNL A   1      46.944  27.899  35.228  1.00  0.00     0.041 A 
ATOM     85  F   UNL A   1      46.143  29.380  33.598  1.00  0.00    -0.206 F 
ATOM     86  C   UNL A   1      46.739  26.826  36.091  1.00  0.00     0.022 A 
BRANCH  83  87
ATOM     87  S   UNL A   1      45.174  24.846  37.279  1.00  0.00     0.124 S 
ATOM     88  O   UNL A   1      46.408  24.824  38.057  1.00  0.00    -0.237 OA
ATOM     89  O   UNL A   1      43.988  25.327  37.978  1.00  0.00    -0.237 OA
ATOM     90  O   UNL A   1      44.958  23.678  36.427  1.00  0.00    -0.744 OA
ENDBRANCH  83  87
ENDBRANCH  57  80
ENDBRANCH  31  32
ENDBRANCH  24  26
ENDBRANCH  23  24
ENDBRANCH   1  23
TORSDOF 15
ENDMDL
