MODEL 1
REMARK VINA RESULT:     -12.2      0.000      0.000
REMARK SMILES O=C(OCCOC(=O)c1cc(-c2cc(Cl)ccc2Cl)cc([N+](=O)[O-])c1)c1ccc(-c2c3nc(c(-c4cc(S(=O)(=O)[O-])ccc4F)c4ccc([nH]4)c(-c4cc(S(=O)(=O)[O-])ccc4F)c4nc(c(-c5cc(S(=O)(=O)[O-])ccc5F)c5ccc2[nH]5)C=C4)C=C3)cc1
REMARK SMILES IDX 4 1 3 2 2 3 1 4 26 5 27 6 88 7 28 8 87 9 29 10 30 11 31 12
REMARK SMILES IDX 81 13 32 14 86 15 80 16 82 17 33 18 85 19 79 20 78 21 34 23
REMARK SMILES IDX 66 24 46 25 65 26 47 27 50 28 64 29 83 30 48 31 49 32 63 34
REMARK SMILES IDX 84 35 51 36 35 37 36 38 44 39 37 40 43 41 45 42 42 43 38 44
REMARK SMILES IDX 39 45 40 46 41 47 67 48 68 49 76 50 69 51 75 52 77 53 74 54
REMARK SMILES IDX 70 55 71 56 72 57 73 58 52 59 53 60 61 61 54 62 60 63 62 64
REMARK SMILES IDX 59 65 55 66 56 67 57 68 58 69 5 70 6 71 7 72 8 73 9 74 10 75
REMARK SMILES IDX 25 76 11 77 21 78 20 79 12 80 13 81 18 82 14 83 17 84 19 85
REMARK SMILES IDX 15 86 16 87 22 88 23 89 24 90
REMARK H PARENT 82 22 50 33
REMARK Flexibility Score: inf
ROOT
ATOM      1  C   UNL A   1      32.330  29.205  27.265  1.00  0.00     0.275 C 
ENDROOT
BRANCH   1   2
ATOM      2  O   UNL A   1      33.339  30.109  26.776  1.00  0.00    -0.458 OA
BRANCH   2   3
ATOM      3  C   UNL A   1      34.251  30.859  27.439  1.00  0.00     0.338 C 
ATOM      4  O   UNL A   1      34.101  32.082  27.454  1.00  0.00    -0.246 OA
BRANCH   3   5
ATOM      5  C   UNL A   1      35.509  30.312  28.041  1.00  0.00     0.060 A 
ATOM      6  C   UNL A   1      35.615  29.689  29.284  1.00  0.00     0.016 A 
ATOM      7  C   UNL A   1      36.685  30.442  27.273  1.00  0.00     0.016 A 
ATOM      8  C   UNL A   1      36.822  29.137  29.712  1.00  0.00     0.010 A 
ATOM      9  C   UNL A   1      37.899  29.890  27.694  1.00  0.00     0.010 A 
ATOM     10  C   UNL A   1      37.967  29.222  28.919  1.00  0.00    -0.014 A 
BRANCH  10  11
ATOM     11  C   UNL A   1      39.236  28.692  29.460  1.00  0.00     0.031 A 
ATOM     12  C   UNL A   1      39.800  29.299  30.708  1.00  0.00     0.074 A 
ATOM     13  C   UNL A   1      39.795  27.598  28.912  1.00  0.00     0.049 A 
ATOM     14  N   UNL A   1      40.820  28.908  31.422  1.00  0.00    -0.248 NA
ATOM     15  C   UNL A   1      39.093  30.471  31.247  1.00  0.00     0.031 C 
ATOM     16  C   UNL A   1      39.251  26.865  27.769  1.00  0.00     0.029 A 
ATOM     17  N   UNL A   1      40.926  26.899  29.241  1.00  0.00    -0.354 N 
ATOM     18  C   UNL A   1      40.836  29.737  32.534  1.00  0.00     0.074 A 
ATOM     19  C   UNL A   1      39.778  30.709  32.353  1.00  0.00     0.031 C 
ATOM     20  C   UNL A   1      40.078  25.853  27.458  1.00  0.00     0.029 A 
ATOM     21  C   UNL A   1      41.206  25.864  28.378  1.00  0.00     0.049 A 
ATOM     22  H   UNL A   1      41.485  27.117  30.021  1.00  0.00     0.167 HD
ATOM     23  C   UNL A   1      41.634  29.662  33.626  1.00  0.00     0.034 A 
ATOM     24  C   UNL A   1      42.259  25.025  28.333  1.00  0.00     0.034 A 
ATOM     25  C   UNL A   1      42.720  28.724  33.750  1.00  0.00     0.049 A 
ATOM     26  C   UNL A   1      43.258  25.095  29.455  1.00  0.00     0.074 A 
ATOM     27  C   UNL A   1      43.641  28.596  34.774  1.00  0.00     0.029 A 
ATOM     28  N   UNL A   1      43.046  27.760  32.801  1.00  0.00    -0.354 N 
ATOM     29  N   UNL A   1      43.254  25.879  30.510  1.00  0.00    -0.248 NA
ATOM     30  C   UNL A   1      44.369  24.141  29.412  1.00  0.00     0.031 C 
ATOM     31  C   UNL A   1      44.559  27.602  34.415  1.00  0.00     0.029 A 
ATOM     32  C   UNL A   1      44.171  27.056  33.201  1.00  0.00     0.049 A 
ATOM     33  H   UNL A   1      42.549  27.601  31.967  1.00  0.00     0.167 HD
ATOM     34  C   UNL A   1      44.340  25.480  31.280  1.00  0.00     0.074 A 
ATOM     35  C   UNL A   1      44.962  24.377  30.573  1.00  0.00     0.031 C 
ATOM     36  C   UNL A   1      44.781  25.970  32.468  1.00  0.00     0.034 A 
BRANCH  23  37
ATOM     37  C   UNL A   1      41.363  30.652  34.728  1.00  0.00     0.023 A 
ATOM     38  C   UNL A   1      40.171  30.601  35.477  1.00  0.00     0.031 A 
ATOM     39  C   UNL A   1      42.265  31.694  34.994  1.00  0.00     0.131 A 
ATOM     40  C   UNL A   1      39.882  31.613  36.404  1.00  0.00     0.055 A 
ATOM     41  C   UNL A   1      42.004  32.659  35.970  1.00  0.00     0.041 A 
ATOM     42  F   UNL A   1      43.402  31.809  34.290  1.00  0.00    -0.206 F 
ATOM     43  C   UNL A   1      40.802  32.629  36.672  1.00  0.00     0.022 A 
BRANCH  40  44
ATOM     44  S   UNL A   1      38.232  31.658  37.155  1.00  0.00     0.124 S 
ATOM     45  O   UNL A   1      37.847  30.249  37.108  1.00  0.00    -0.237 OA
ATOM     46  O   UNL A   1      38.502  32.200  38.482  1.00  0.00    -0.237 OA
ATOM     47  O   UNL A   1      37.474  32.534  36.265  1.00  0.00    -0.744 OA
ENDBRANCH  40  44
ENDBRANCH  23  37
BRANCH  24  48
ATOM     48  C   UNL A   1      42.447  24.091  27.184  1.00  0.00     0.023 A 
ATOM     49  C   UNL A   1      41.958  22.775  27.201  1.00  0.00     0.031 A 
ATOM     50  C   UNL A   1      43.206  24.494  26.070  1.00  0.00     0.131 A 
ATOM     51  C   UNL A   1      42.280  21.895  26.153  1.00  0.00     0.055 A 
ATOM     52  C   UNL A   1      43.474  23.635  25.003  1.00  0.00     0.041 A 
ATOM     53  F   UNL A   1      43.715  25.735  26.014  1.00  0.00    -0.206 F 
ATOM     54  C   UNL A   1      43.025  22.319  25.050  1.00  0.00     0.022 A 
BRANCH  51  55
ATOM     55  S   UNL A   1      41.809  20.149  26.306  1.00  0.00     0.124 S 
ATOM     56  O   UNL A   1      40.363  20.211  26.127  1.00  0.00    -0.237 OA
ATOM     57  O   UNL A   1      42.562  19.537  25.216  1.00  0.00    -0.237 OA
ATOM     58  O   UNL A   1      42.257  19.791  27.649  1.00  0.00    -0.744 OA
ENDBRANCH  51  55
ENDBRANCH  24  48
BRANCH  36  59
ATOM     59  C   UNL A   1      45.969  25.273  33.079  1.00  0.00     0.023 A 
ATOM     60  C   UNL A   1      45.814  24.166  33.929  1.00  0.00     0.031 A 
ATOM     61  C   UNL A   1      47.269  25.755  32.846  1.00  0.00     0.131 A 
ATOM     62  C   UNL A   1      46.930  23.628  34.582  1.00  0.00     0.055 A 
ATOM     63  C   UNL A   1      48.386  25.166  33.440  1.00  0.00     0.041 A 
ATOM     64  F   UNL A   1      47.474  26.813  32.044  1.00  0.00    -0.206 F 
ATOM     65  C   UNL A   1      48.218  24.108  34.329  1.00  0.00     0.022 A 
BRANCH  62  66
ATOM     66  S   UNL A   1      46.660  22.376  35.865  1.00  0.00     0.124 S 
ATOM     67  O   UNL A   1      47.420  22.921  36.984  1.00  0.00    -0.237 OA
ATOM     68  O   UNL A   1      45.208  22.390  36.012  1.00  0.00    -0.237 OA
ATOM     69  O   UNL A   1      47.210  21.157  35.274  1.00  0.00    -0.744 OA
ENDBRANCH  62  66
ENDBRANCH  36  59
ENDBRANCH  10  11
ENDBRANCH   3   5
ENDBRANCH   2   3
ENDBRANCH   1   2
BRANCH   1  70
ATOM     70  C   UNL A   1      32.429  27.768  26.740  1.00  0.00     0.275 C 
BRANCH  70  71
ATOM     71  O   UNL A   1      31.255  27.320  26.046  1.00  0.00    -0.458 OA
BRANCH  71  72
ATOM     72  C   UNL A   1      31.140  25.977  25.941  1.00  0.00     0.338 C 
ATOM     73  O   UNL A   1      30.340  25.260  26.533  1.00  0.00    -0.246 OA
BRANCH  72  74
ATOM     74  C   UNL A   1      32.045  25.465  24.898  1.00  0.00     0.067 A 
ATOM     75  C   UNL A   1      32.889  24.395  25.233  1.00  0.00     0.025 A 
ATOM     76  C   UNL A   1      32.144  26.082  23.649  1.00  0.00     0.101 A 
ATOM     77  C   UNL A   1      33.824  23.902  24.313  1.00  0.00    -0.009 A 
ATOM     78  C   UNL A   1      33.083  25.590  22.732  1.00  0.00     0.270 A 
ATOM     79  C   UNL A   1      33.880  24.479  23.036  1.00  0.00     0.094 A 
BRANCH  77  80
ATOM     80  C   UNL A   1      34.833  22.921  24.730  1.00  0.00     0.002 A 
ATOM     81  C   UNL A   1      36.080  23.339  25.226  1.00  0.00     0.030 A 
ATOM     82  C   UNL A   1      34.592  21.533  24.617  1.00  0.00     0.048 A 
ATOM     83  C   UNL A   1      37.047  22.399  25.592  1.00  0.00     0.041 A 
ATOM     84  C   UNL A   1      35.562  20.600  24.990  1.00  0.00     0.023 A 
ATOM     85  Cl  UNL A   1      33.105  20.907  23.978  1.00  0.00    -0.084 Cl
ATOM     86  Cl  UNL A   1      38.575  22.924  26.182  1.00  0.00    -0.084 Cl
ATOM     87  C   UNL A   1      36.792  21.034  25.477  1.00  0.00     0.022 A 
ENDBRANCH  77  80
BRANCH  78  88
ATOM     88  N   UNL A   1      33.353  26.330  21.492  1.00  0.00     0.062 N 
ATOM     89  O   UNL A   1      33.778  27.487  21.598  1.00  0.00    -0.258 OA
ATOM     90  O   UNL A   1      33.066  25.768  20.426  1.00  0.00    -0.258 OA
ENDBRANCH  78  88
ENDBRANCH  72  74
ENDBRANCH  71  72
ENDBRANCH  70  71
ENDBRANCH   1  70
TORSDOF 16
ENDMDL
MODEL 2
REMARK VINA RESULT:     -12.1      5.071     10.066
REMARK SMILES O=C(OCCOC(=O)c1cc(-c2cc(Cl)ccc2Cl)cc([N+](=O)[O-])c1)c1ccc(-c2c3nc(c(-c4cc(S(=O)(=O)[O-])ccc4F)c4ccc([nH]4)c(-c4cc(S(=O)(=O)[O-])ccc4F)c4nc(c(-c5cc(S(=O)(=O)[O-])ccc5F)c5ccc2[nH]5)C=C4)C=C3)cc1
REMARK SMILES IDX 4 1 3 2 2 3 1 4 26 5 27 6 88 7 28 8 87 9 29 10 30 11 31 12
REMARK SMILES IDX 81 13 32 14 86 15 80 16 82 17 33 18 85 19 79 20 78 21 34 23
REMARK SMILES IDX 66 24 46 25 65 26 47 27 50 28 64 29 83 30 48 31 49 32 63 34
REMARK SMILES IDX 84 35 51 36 35 37 36 38 44 39 37 40 43 41 45 42 42 43 38 44
REMARK SMILES IDX 39 45 40 46 41 47 67 48 68 49 76 50 69 51 75 52 77 53 74 54
REMARK SMILES IDX 70 55 71 56 72 57 73 58 52 59 53 60 61 61 54 62 60 63 62 64
REMARK SMILES IDX 59 65 55 66 56 67 57 68 58 69 5 70 6 71 7 72 8 73 9 74 10 75
REMARK SMILES IDX 25 76 11 77 21 78 20 79 12 80 13 81 18 82 14 83 17 84 19 85
REMARK SMILES IDX 15 86 16 87 22 88 23 89 24 90
REMARK H PARENT 82 22 50 33
REMARK Flexibility Score: inf
ROOT
ATOM      1  C   UNL A   1      37.596  20.964  24.903  1.00  0.00     0.275 C 
ENDROOT
BRANCH   1   2
ATOM      2  O   UNL A   1      38.178  21.535  26.090  1.00  0.00    -0.458 OA
BRANCH   2   3
ATOM      3  C   UNL A   1      39.462  21.852  26.382  1.00  0.00     0.338 C 
ATOM      4  O   UNL A   1      40.292  20.943  26.426  1.00  0.00    -0.246 OA
BRANCH   3   5
ATOM      5  C   UNL A   1      39.916  23.220  26.790  1.00  0.00     0.060 A 
ATOM      6  C   UNL A   1      39.579  24.415  26.156  1.00  0.00     0.016 A 
ATOM      7  C   UNL A   1      40.758  23.293  27.920  1.00  0.00     0.016 A 
ATOM      8  C   UNL A   1      39.988  25.644  26.673  1.00  0.00     0.010 A 
ATOM      9  C   UNL A   1      41.171  24.523  28.445  1.00  0.00     0.010 A 
ATOM     10  C   UNL A   1      40.774  25.709  27.823  1.00  0.00    -0.014 A 
BRANCH  10  11
ATOM     11  C   UNL A   1      41.246  27.034  28.277  1.00  0.00     0.031 A 
ATOM     12  C   UNL A   1      42.691  27.385  28.106  1.00  0.00     0.074 A 
ATOM     13  C   UNL A   1      40.360  27.951  28.709  1.00  0.00     0.049 A 
ATOM     14  N   UNL A   1      43.289  28.528  28.311  1.00  0.00    -0.248 NA
ATOM     15  C   UNL A   1      43.570  26.323  27.593  1.00  0.00     0.031 C 
ATOM     16  C   UNL A   1      38.915  27.742  28.793  1.00  0.00     0.029 A 
ATOM     17  N   UNL A   1      40.530  29.239  29.141  1.00  0.00    -0.354 N 
ATOM     18  C   UNL A   1      44.596  28.346  27.883  1.00  0.00     0.074 A 
ATOM     19  C   UNL A   1      44.726  26.959  27.493  1.00  0.00     0.031 C 
ATOM     20  C   UNL A   1      38.337  28.842  29.302  1.00  0.00     0.029 A 
ATOM     21  C   UNL A   1      39.367  29.833  29.576  1.00  0.00     0.049 A 
ATOM     22  H   UNL A   1      41.402  29.696  29.140  1.00  0.00     0.167 HD
ATOM     23  C   UNL A   1      45.582  29.270  27.784  1.00  0.00     0.034 A 
ATOM     24  C   UNL A   1      39.161  31.040  30.138  1.00  0.00     0.034 A 
ATOM     25  C   UNL A   1      45.443  30.629  28.239  1.00  0.00     0.049 A 
ATOM     26  C   UNL A   1      40.327  31.987  30.211  1.00  0.00     0.074 A 
ATOM     27  C   UNL A   1      46.389  31.638  28.257  1.00  0.00     0.029 A 
ATOM     28  N   UNL A   1      44.279  31.168  28.781  1.00  0.00    -0.354 N 
ATOM     29  N   UNL A   1      41.559  31.806  29.791  1.00  0.00    -0.248 NA
ATOM     30  C   UNL A   1      40.069  33.312  30.782  1.00  0.00     0.031 C 
ATOM     31  C   UNL A   1      45.819  32.761  28.867  1.00  0.00     0.029 A 
ATOM     32  C   UNL A   1      44.495  32.483  29.164  1.00  0.00     0.049 A 
ATOM     33  H   UNL A   1      43.428  30.685  28.878  1.00  0.00     0.167 HD
ATOM     34  C   UNL A   1      42.213  33.014  30.007  1.00  0.00     0.074 A 
ATOM     35  C   UNL A   1      41.230  33.915  30.580  1.00  0.00     0.031 C 
ATOM     36  C   UNL A   1      43.502  33.355  29.748  1.00  0.00     0.034 A 
BRANCH  23  37
ATOM     37  C   UNL A   1      46.887  28.802  27.196  1.00  0.00     0.023 A 
ATOM     38  C   UNL A   1      47.015  28.545  25.817  1.00  0.00     0.031 A 
ATOM     39  C   UNL A   1      47.993  28.544  28.021  1.00  0.00     0.131 A 
ATOM     40  C   UNL A   1      48.199  27.982  25.317  1.00  0.00     0.055 A 
ATOM     41  C   UNL A   1      49.194  28.051  27.505  1.00  0.00     0.041 A 
ATOM     42  F   UNL A   1      47.917  28.742  29.347  1.00  0.00    -0.206 F 
ATOM     43  C   UNL A   1      49.297  27.755  26.148  1.00  0.00     0.022 A 
BRANCH  40  44
ATOM     44  S   UNL A   1      48.233  27.426  23.591  1.00  0.00     0.124 S 
ATOM     45  O   UNL A   1      49.577  27.826  23.178  1.00  0.00    -0.237 OA
ATOM     46  O   UNL A   1      48.007  25.991  23.715  1.00  0.00    -0.237 OA
ATOM     47  O   UNL A   1      47.148  28.178  22.966  1.00  0.00    -0.744 OA
ENDBRANCH  40  44
ENDBRANCH  23  37
BRANCH  24  48
ATOM     48  C   UNL A   1      37.830  31.402  30.709  1.00  0.00     0.023 A 
ATOM     49  C   UNL A   1      36.856  32.082  29.963  1.00  0.00     0.031 A 
ATOM     50  C   UNL A   1      37.551  31.135  32.062  1.00  0.00     0.131 A 
ATOM     51  C   UNL A   1      35.674  32.520  30.587  1.00  0.00     0.055 A 
ATOM     52  C   UNL A   1      36.352  31.521  32.664  1.00  0.00     0.041 A 
ATOM     53  F   UNL A   1      38.458  30.507  32.826  1.00  0.00    -0.206 F 
ATOM     54  C   UNL A   1      35.412  32.234  31.929  1.00  0.00     0.022 A 
BRANCH  51  55
ATOM     55  S   UNL A   1      34.532  33.574  29.649  1.00  0.00     0.124 S 
ATOM     56  O   UNL A   1      35.449  34.490  28.980  1.00  0.00    -0.237 OA
ATOM     57  O   UNL A   1      33.860  32.603  28.792  1.00  0.00    -0.237 OA
ATOM     58  O   UNL A   1      33.694  34.175  30.684  1.00  0.00    -0.744 OA
ENDBRANCH  51  55
ENDBRANCH  24  48
BRANCH  36  59
ATOM     59  C   UNL A   1      43.890  34.779  30.052  1.00  0.00     0.023 A 
ATOM     60  C   UNL A   1      43.709  35.805  29.111  1.00  0.00     0.031 A 
ATOM     61  C   UNL A   1      44.494  35.102  31.280  1.00  0.00     0.131 A 
ATOM     62  C   UNL A   1      44.203  37.089  29.377  1.00  0.00     0.055 A 
ATOM     63  C   UNL A   1      44.914  36.400  31.570  1.00  0.00     0.041 A 
ATOM     64  F   UNL A   1      44.693  34.158  32.214  1.00  0.00    -0.206 F 
ATOM     65  C   UNL A   1      44.788  37.399  30.608  1.00  0.00     0.022 A 
BRANCH  62  66
ATOM     66  S   UNL A   1      44.186  38.316  28.042  1.00  0.00     0.124 S 
ATOM     67  O   UNL A   1      43.477  37.601  26.986  1.00  0.00    -0.237 OA
ATOM     68  O   UNL A   1      43.466  39.429  28.652  1.00  0.00    -0.237 OA
ATOM     69  O   UNL A   1      45.603  38.561  27.785  1.00  0.00    -0.744 OA
ENDBRANCH  62  66
ENDBRANCH  36  59
ENDBRANCH  10  11
ENDBRANCH   3   5
ENDBRANCH   2   3
ENDBRANCH   1   2
BRANCH   1  70
ATOM     70  C   UNL A   1      36.768  21.931  24.049  1.00  0.00     0.275 C 
BRANCH  70  71
ATOM     71  O   UNL A   1      35.722  22.596  24.772  1.00  0.00    -0.458 OA
BRANCH  71  72
ATOM     72  C   UNL A   1      34.502  22.521  24.195  1.00  0.00     0.338 C 
ATOM     73  O   UNL A   1      33.796  21.523  24.095  1.00  0.00    -0.246 OA
BRANCH  72  74
ATOM     74  C   UNL A   1      34.045  23.861  23.787  1.00  0.00     0.067 A 
ATOM     75  C   UNL A   1      33.949  24.848  24.780  1.00  0.00     0.025 A 
ATOM     76  C   UNL A   1      33.621  24.123  22.483  1.00  0.00     0.101 A 
ATOM     77  C   UNL A   1      33.457  26.125  24.477  1.00  0.00    -0.009 A 
ATOM     78  C   UNL A   1      33.125  25.400  22.183  1.00  0.00     0.270 A 
ATOM     79  C   UNL A   1      33.091  26.410  23.154  1.00  0.00     0.094 A 
BRANCH  77  80
ATOM     80  C   UNL A   1      33.173  27.088  25.550  1.00  0.00     0.002 A 
ATOM     81  C   UNL A   1      34.186  27.924  26.051  1.00  0.00     0.030 A 
ATOM     82  C   UNL A   1      31.886  27.179  26.126  1.00  0.00     0.048 A 
ATOM     83  C   UNL A   1      33.915  28.815  27.094  1.00  0.00     0.041 A 
ATOM     84  C   UNL A   1      31.623  28.076  27.163  1.00  0.00     0.023 A 
ATOM     85  Cl  UNL A   1      30.575  26.166  25.613  1.00  0.00    -0.084 Cl
ATOM     86  Cl  UNL A   1      35.167  29.821  27.709  1.00  0.00    -0.084 Cl
ATOM     87  C   UNL A   1      32.641  28.894  27.649  1.00  0.00     0.022 A 
ENDBRANCH  77  80
BRANCH  78  88
ATOM     88  N   UNL A   1      32.490  25.652  20.884  1.00  0.00     0.062 N 
ATOM     89  O   UNL A   1      33.106  25.305  19.868  1.00  0.00    -0.258 OA
ATOM     90  O   UNL A   1      31.412  26.263  20.892  1.00  0.00    -0.258 OA
ENDBRANCH  78  88
ENDBRANCH  72  74
ENDBRANCH  71  72
ENDBRANCH  70  71
ENDBRANCH   1  70
TORSDOF 16
ENDMDL
MODEL 3
REMARK VINA RESULT:     -12.1      1.412      1.999
REMARK SMILES O=C(OCCOC(=O)c1cc(-c2cc(Cl)ccc2Cl)cc([N+](=O)[O-])c1)c1ccc(-c2c3nc(c(-c4cc(S(=O)(=O)[O-])ccc4F)c4ccc([nH]4)c(-c4cc(S(=O)(=O)[O-])ccc4F)c4nc(c(-c5cc(S(=O)(=O)[O-])ccc5F)c5ccc2[nH]5)C=C4)C=C3)cc1
REMARK SMILES IDX 4 1 3 2 2 3 1 4 26 5 27 6 88 7 28 8 87 9 29 10 30 11 31 12
REMARK SMILES IDX 81 13 32 14 86 15 80 16 82 17 33 18 85 19 79 20 78 21 34 23
REMARK SMILES IDX 66 24 46 25 65 26 47 27 50 28 64 29 83 30 48 31 49 32 63 34
REMARK SMILES IDX 84 35 51 36 35 37 36 38 44 39 37 40 43 41 45 42 42 43 38 44
REMARK SMILES IDX 39 45 40 46 41 47 67 48 68 49 76 50 69 51 75 52 77 53 74 54
REMARK SMILES IDX 70 55 71 56 72 57 73 58 52 59 53 60 61 61 54 62 60 63 62 64
REMARK SMILES IDX 59 65 55 66 56 67 57 68 58 69 5 70 6 71 7 72 8 73 9 74 10 75
REMARK SMILES IDX 25 76 11 77 21 78 20 79 12 80 13 81 18 82 14 83 17 84 19 85
REMARK SMILES IDX 15 86 16 87 22 88 23 89 24 90
REMARK H PARENT 82 22 50 33
REMARK Flexibility Score: inf
ROOT
ATOM      1  C   UNL A   1      33.251  29.840  25.958  1.00  0.00     0.275 C 
ENDROOT
BRANCH   1   2
ATOM      2  O   UNL A   1      33.089  30.824  26.998  1.00  0.00    -0.458 OA
BRANCH   2   3
ATOM      3  C   UNL A   1      34.008  31.550  27.679  1.00  0.00     0.338 C 
ATOM      4  O   UNL A   1      33.869  32.774  27.722  1.00  0.00    -0.246 OA
BRANCH   3   5
ATOM      5  C   UNL A   1      35.260  30.978  28.270  1.00  0.00     0.060 A 
ATOM      6  C   UNL A   1      35.341  29.827  29.052  1.00  0.00     0.016 A 
ATOM      7  C   UNL A   1      36.457  31.673  28.002  1.00  0.00     0.016 A 
ATOM      8  C   UNL A   1      36.573  29.333  29.480  1.00  0.00     0.010 A 
ATOM      9  C   UNL A   1      37.698  31.183  28.426  1.00  0.00     0.010 A 
ATOM     10  C   UNL A   1      37.757  29.998  29.162  1.00  0.00    -0.014 A 
BRANCH  10  11
ATOM     11  C   UNL A   1      39.025  29.474  29.713  1.00  0.00     0.031 A 
ATOM     12  C   UNL A   1      39.548  30.044  30.994  1.00  0.00     0.074 A 
ATOM     13  C   UNL A   1      39.619  28.411  29.137  1.00  0.00     0.049 A 
ATOM     14  N   UNL A   1      40.561  29.647  31.717  1.00  0.00    -0.248 NA
ATOM     15  C   UNL A   1      38.805  31.180  31.560  1.00  0.00     0.031 C 
ATOM     16  C   UNL A   1      39.116  27.711  27.956  1.00  0.00     0.029 A 
ATOM     17  N   UNL A   1      40.757  27.723  29.466  1.00  0.00    -0.354 N 
ATOM     18  C   UNL A   1      40.534  30.434  32.859  1.00  0.00     0.074 A 
ATOM     19  C   UNL A   1      39.461  31.391  32.690  1.00  0.00     0.031 C 
ATOM     20  C   UNL A   1      39.971  26.728  27.626  1.00  0.00     0.029 A 
ATOM     21  C   UNL A   1      41.077  26.727  28.572  1.00  0.00     0.049 A 
ATOM     22  H   UNL A   1      41.294  27.923  30.267  1.00  0.00     0.167 HD
ATOM     23  C   UNL A   1      41.309  30.334  33.966  1.00  0.00     0.034 A 
ATOM     24  C   UNL A   1      42.148  25.912  28.520  1.00  0.00     0.034 A 
ATOM     25  C   UNL A   1      42.412  29.414  34.080  1.00  0.00     0.049 A 
ATOM     26  C   UNL A   1      43.120  25.960  29.667  1.00  0.00     0.074 A 
ATOM     27  C   UNL A   1      43.312  29.266  35.119  1.00  0.00     0.029 A 
ATOM     28  N   UNL A   1      42.778  28.492  33.104  1.00  0.00    -0.354 N 
ATOM     29  N   UNL A   1      43.077  26.704  30.750  1.00  0.00    -0.248 NA
ATOM     30  C   UNL A   1      44.252  25.030  29.614  1.00  0.00     0.031 C 
ATOM     31  C   UNL A   1      44.258  28.304  34.745  1.00  0.00     0.029 A 
ATOM     32  C   UNL A   1      43.909  27.797  33.503  1.00  0.00     0.049 A 
ATOM     33  H   UNL A   1      42.303  28.355  32.253  1.00  0.00     0.167 HD
ATOM     34  C   UNL A   1      44.153  26.298  31.530  1.00  0.00     0.074 A 
ATOM     35  C   UNL A   1      44.814  25.234  30.797  1.00  0.00     0.031 C 
ATOM     36  C   UNL A   1      44.557  26.751  32.745  1.00  0.00     0.034 A 
BRANCH  23  37
ATOM     37  C   UNL A   1      40.993  31.276  35.098  1.00  0.00     0.023 A 
ATOM     38  C   UNL A   1      39.839  31.106  35.886  1.00  0.00     0.031 A 
ATOM     39  C   UNL A   1      41.809  32.388  35.353  1.00  0.00     0.131 A 
ATOM     40  C   UNL A   1      39.497  32.072  36.844  1.00  0.00     0.055 A 
ATOM     41  C   UNL A   1      41.501  33.309  36.357  1.00  0.00     0.041 A 
ATOM     42  F   UNL A   1      42.905  32.616  34.612  1.00  0.00    -0.206 F 
ATOM     43  C   UNL A   1      40.332  33.161  37.101  1.00  0.00     0.022 A 
BRANCH  40  44
ATOM     44  S   UNL A   1      37.878  31.957  37.654  1.00  0.00     0.124 S 
ATOM     45  O   UNL A   1      37.506  30.571  37.377  1.00  0.00    -0.237 OA
ATOM     46  O   UNL A   1      38.194  32.267  39.043  1.00  0.00    -0.237 OA
ATOM     47  O   UNL A   1      37.075  32.960  36.958  1.00  0.00    -0.744 OA
ENDBRANCH  40  44
ENDBRANCH  23  37
BRANCH  24  48
ATOM     48  C   UNL A   1      42.381  25.026  27.342  1.00  0.00     0.023 A 
ATOM     49  C   UNL A   1      41.946  23.692  27.311  1.00  0.00     0.031 A 
ATOM     50  C   UNL A   1      43.130  25.496  26.248  1.00  0.00     0.131 A 
ATOM     51  C   UNL A   1      42.309  22.861  26.236  1.00  0.00     0.055 A 
ATOM     52  C   UNL A   1      43.440  24.685  25.155  1.00  0.00     0.041 A 
ATOM     53  F   UNL A   1      43.589  26.758  26.237  1.00  0.00    -0.206 F 
ATOM     54  C   UNL A   1      43.044  23.352  25.154  1.00  0.00     0.022 A 
BRANCH  51  55
ATOM     55  S   UNL A   1      41.908  21.094  26.327  1.00  0.00     0.124 S 
ATOM     56  O   UNL A   1      42.855  20.522  25.376  1.00  0.00    -0.237 OA
ATOM     57  O   UNL A   1      42.159  20.799  27.735  1.00  0.00    -0.237 OA
ATOM     58  O   UNL A   1      40.506  21.040  25.921  1.00  0.00    -0.744 OA
ENDBRANCH  51  55
ENDBRANCH  24  48
BRANCH  36  59
ATOM     59  C   UNL A   1      45.746  26.056  33.356  1.00  0.00     0.023 A 
ATOM     60  C   UNL A   1      45.595  24.910  34.154  1.00  0.00     0.031 A 
ATOM     61  C   UNL A   1      47.040  26.577  33.179  1.00  0.00     0.131 A 
ATOM     62  C   UNL A   1      46.707  24.369  34.813  1.00  0.00     0.055 A 
ATOM     63  C   UNL A   1      48.154  25.989  33.777  1.00  0.00     0.041 A 
ATOM     64  F   UNL A   1      47.239  27.673  32.429  1.00  0.00    -0.206 F 
ATOM     65  C   UNL A   1      47.989  24.889  34.615  1.00  0.00     0.022 A 
BRANCH  62  66
ATOM     66  S   UNL A   1      46.434  23.057  36.033  1.00  0.00     0.124 S 
ATOM     67  O   UNL A   1      47.197  23.544  37.177  1.00  0.00    -0.237 OA
ATOM     68  O   UNL A   1      44.983  23.068  36.183  1.00  0.00    -0.237 OA
ATOM     69  O   UNL A   1      46.980  21.867  35.383  1.00  0.00    -0.744 OA
ENDBRANCH  62  66
ENDBRANCH  36  59
ENDBRANCH  10  11
ENDBRANCH   3   5
ENDBRANCH   2   3
ENDBRANCH   1   2
BRANCH   1  70
ATOM     70  C   UNL A   1      32.035  29.647  25.045  1.00  0.00     0.275 C 
BRANCH  70  71
ATOM     71  O   UNL A   1      32.326  28.938  23.832  1.00  0.00    -0.458 OA
BRANCH  71  72
ATOM     72  C   UNL A   1      31.491  27.908  23.566  1.00  0.00     0.338 C 
ATOM     73  O   UNL A   1      30.647  27.856  22.678  1.00  0.00    -0.246 OA
BRANCH  72  74
ATOM     74  C   UNL A   1      31.808  26.757  24.428  1.00  0.00     0.067 A 
ATOM     75  C   UNL A   1      33.066  26.155  24.278  1.00  0.00     0.025 A 
ATOM     76  C   UNL A   1      30.860  26.210  25.296  1.00  0.00     0.101 A 
ATOM     77  C   UNL A   1      33.410  25.014  25.016  1.00  0.00    -0.009 A 
ATOM     78  C   UNL A   1      31.204  25.067  26.030  1.00  0.00     0.270 A 
ATOM     79  C   UNL A   1      32.483  24.502  25.934  1.00  0.00     0.094 A 
BRANCH  77  80
ATOM     80  C   UNL A   1      34.643  24.275  24.715  1.00  0.00     0.002 A 
ATOM     81  C   UNL A   1      35.759  24.361  25.565  1.00  0.00     0.030 A 
ATOM     82  C   UNL A   1      34.752  23.482  23.550  1.00  0.00     0.048 A 
ATOM     83  C   UNL A   1      36.939  23.679  25.254  1.00  0.00     0.041 A 
ATOM     84  C   UNL A   1      35.932  22.800  23.251  1.00  0.00     0.023 A 
ATOM     85  Cl  UNL A   1      33.451  23.339  22.411  1.00  0.00    -0.084 Cl
ATOM     86  Cl  UNL A   1      38.303  23.807  26.295  1.00  0.00    -0.084 Cl
ATOM     87  C   UNL A   1      37.029  22.900  24.104  1.00  0.00     0.022 A 
ENDBRANCH  77  80
BRANCH  78  88
ATOM     88  N   UNL A   1      30.176  24.353  26.798  1.00  0.00     0.062 N 
ATOM     89  O   UNL A   1      30.470  23.239  27.250  1.00  0.00    -0.258 OA
ATOM     90  O   UNL A   1      29.060  24.885  26.876  1.00  0.00    -0.258 OA
ENDBRANCH  78  88
ENDBRANCH  72  74
ENDBRANCH  71  72
ENDBRANCH  70  71
ENDBRANCH   1  70
TORSDOF 16
ENDMDL
