MODEL 1
REMARK VINA RESULT:     -11.7      0.000      0.000
REMARK SMILES C[C@@H](C(=O)OCCOC(=O)c1ccc(-c2c3nc(c(-c4cc(S(=O)(=O)[O-])ccc4F)c4ccc([nH]4)c(-c4cc(S(=O)(=O)[O-])ccc4F)c4nc(c(-c5cc(S(=O)(=O)[O-])ccc5F)c5ccc2[nH]5)C=C4)C=C3)cc1)c1ccn(C(F)F)c(=O)c1
REMARK SMILES IDX 7 1 6 2 5 3 3 4 4 5 2 6 1 7 74 8 75 9 83 10 76 11 81 12
REMARK SMILES IDX 77 13 82 14 78 15 79 16 80 17 8 18 9 19 10 20 11 21 12 22
REMARK SMILES IDX 73 23 13 24 72 25 14 26 15 27 16 28 66 29 17 30 71 31 65 32
REMARK SMILES IDX 67 33 18 34 70 35 64 36 63 37 19 39 51 40 31 41 50 42 32 43
REMARK SMILES IDX 35 44 49 45 68 46 33 47 34 48 48 50 69 51 36 52 20 53 21 54
REMARK SMILES IDX 29 55 22 56 28 57 30 58 27 59 23 60 24 61 25 62 26 63 52 64
REMARK SMILES IDX 53 65 61 66 54 67 60 68 62 69 59 70 55 71 56 72 57 73 58 74
REMARK SMILES IDX 37 75 38 76 46 77 39 78 45 79 47 80 44 81 40 82 41 83 42 84
REMARK SMILES IDX 43 85
REMARK H PARENT 67 38 35 49
REMARK Flexibility Score: inf
ROOT
ATOM      1  C   UNL A   1      36.129  21.380  25.464  1.00  0.00     0.275 C 
ENDROOT
BRANCH   1   2
ATOM      2  C   UNL A   1      35.185  22.523  25.104  1.00  0.00     0.274 C 
BRANCH   2   3
ATOM      3  O   UNL A   1      34.373  22.154  23.970  1.00  0.00    -0.462 OA
BRANCH   3   4
ATOM      4  C   UNL A   1      33.167  22.774  23.842  1.00  0.00     0.313 C 
ATOM      5  O   UNL A   1      33.018  23.905  23.392  1.00  0.00    -0.252 OA
BRANCH   4   6
ATOM      6  C   UNL A   1      32.008  21.920  24.378  1.00  0.00     0.126 C 
ATOM      7  C   UNL A   1      31.599  22.273  25.812  1.00  0.00     0.025 C 
BRANCH   6   8
ATOM      8  C   UNL A   1      32.316  20.440  24.186  1.00  0.00    -0.027 A 
ATOM      9  C   UNL A   1      32.795  19.696  25.340  1.00  0.00     0.023 A 
ATOM     10  C   UNL A   1      32.200  19.790  23.014  1.00  0.00     0.076 A 
ATOM     11  C   UNL A   1      33.137  18.406  25.230  1.00  0.00     0.095 A 
ATOM     12  C   UNL A   1      32.525  18.339  22.887  1.00  0.00     0.255 A 
ATOM     13  N   UNL A   1      33.038  17.738  24.024  1.00  0.00    -0.258 N 
ATOM     14  O   UNL A   1      32.309  17.797  21.810  1.00  0.00    -0.269 OA
BRANCH  13  15
ATOM     15  C   UNL A   1      33.341  16.327  23.946  1.00  0.00     0.451 C 
ATOM     16  F   UNL A   1      34.446  16.135  23.193  1.00  0.00    -0.185 F 
ATOM     17  F   UNL A   1      33.561  15.797  25.172  1.00  0.00    -0.185 F 
ENDBRANCH  13  15
ENDBRANCH   6   8
ENDBRANCH   4   6
ENDBRANCH   3   4
ENDBRANCH   2   3
ENDBRANCH   1   2
BRANCH   1  18
ATOM     18  O   UNL A   1      37.422  21.651  24.899  1.00  0.00    -0.458 OA
BRANCH  18  19
ATOM     19  C   UNL A   1      38.487  21.254  25.628  1.00  0.00     0.338 C 
ATOM     20  O   UNL A   1      38.913  20.111  25.746  1.00  0.00    -0.246 OA
BRANCH  19  21
ATOM     21  C   UNL A   1      39.094  22.423  26.285  1.00  0.00     0.060 A 
ATOM     22  C   UNL A   1      38.565  23.694  26.066  1.00  0.00     0.016 A 
ATOM     23  C   UNL A   1      40.260  22.267  27.035  1.00  0.00     0.016 A 
ATOM     24  C   UNL A   1      39.261  24.816  26.515  1.00  0.00     0.010 A 
ATOM     25  C   UNL A   1      40.901  23.395  27.563  1.00  0.00     0.010 A 
ATOM     26  C   UNL A   1      40.437  24.689  27.272  1.00  0.00    -0.014 A 
BRANCH  26  27
ATOM     27  C   UNL A   1      41.212  25.900  27.688  1.00  0.00     0.031 A 
ATOM     28  C   UNL A   1      40.586  26.924  28.605  1.00  0.00     0.074 A 
ATOM     29  C   UNL A   1      42.493  26.070  27.298  1.00  0.00     0.049 A 
ATOM     30  N   UNL A   1      40.997  28.133  28.904  1.00  0.00    -0.248 NA
ATOM     31  C   UNL A   1      39.317  26.552  29.245  1.00  0.00     0.031 C 
ATOM     32  C   UNL A   1      43.261  25.138  26.469  1.00  0.00     0.029 A 
ATOM     33  N   UNL A   1      43.387  27.078  27.568  1.00  0.00    -0.354 N 
ATOM     34  C   UNL A   1      40.000  28.687  29.705  1.00  0.00     0.074 A 
ATOM     35  C   UNL A   1      38.968  27.682  29.842  1.00  0.00     0.031 C 
ATOM     36  C   UNL A   1      44.522  25.580  26.359  1.00  0.00     0.029 A 
ATOM     37  C   UNL A   1      44.630  26.880  27.013  1.00  0.00     0.049 A 
ATOM     38  H   UNL A   1      43.159  27.869  28.108  1.00  0.00     0.167 HD
ATOM     39  C   UNL A   1      39.951  29.922  30.267  1.00  0.00     0.034 A 
ATOM     40  C   UNL A   1      45.723  27.668  26.987  1.00  0.00     0.034 A 
ATOM     41  C   UNL A   1      41.028  30.882  30.194  1.00  0.00     0.049 A 
ATOM     42  C   UNL A   1      45.652  29.032  27.619  1.00  0.00     0.074 A 
ATOM     43  C   UNL A   1      41.084  32.162  30.722  1.00  0.00     0.029 A 
ATOM     44  N   UNL A   1      42.255  30.655  29.583  1.00  0.00    -0.354 N 
ATOM     45  N   UNL A   1      44.650  29.599  28.249  1.00  0.00    -0.248 NA
ATOM     46  C   UNL A   1      46.851  29.874  27.508  1.00  0.00     0.031 C 
ATOM     47  C   UNL A   1      42.325  32.722  30.391  1.00  0.00     0.029 A 
ATOM     48  C   UNL A   1      43.068  31.772  29.710  1.00  0.00     0.049 A 
ATOM     49  H   UNL A   1      42.510  29.822  29.125  1.00  0.00     0.167 HD
ATOM     50  C   UNL A   1      45.093  30.871  28.597  1.00  0.00     0.074 A 
ATOM     51  C   UNL A   1      46.466  30.972  28.143  1.00  0.00     0.031 C 
ATOM     52  C   UNL A   1      44.422  31.870  29.223  1.00  0.00     0.034 A 
BRANCH  39  53
ATOM     53  C   UNL A   1      38.661  30.336  30.937  1.00  0.00     0.023 A 
ATOM     54  C   UNL A   1      37.637  31.023  30.263  1.00  0.00     0.031 A 
ATOM     55  C   UNL A   1      38.467  30.038  32.300  1.00  0.00     0.131 A 
ATOM     56  C   UNL A   1      36.491  31.433  30.965  1.00  0.00     0.055 A 
ATOM     57  C   UNL A   1      37.298  30.389  32.975  1.00  0.00     0.041 A 
ATOM     58  F   UNL A   1      39.417  29.398  33.002  1.00  0.00    -0.206 F 
ATOM     59  C   UNL A   1      36.306  31.102  32.310  1.00  0.00     0.022 A 
BRANCH  56  60
ATOM     60  S   UNL A   1      35.276  32.494  30.130  1.00  0.00     0.124 S 
ATOM     61  O   UNL A   1      36.096  33.636  29.739  1.00  0.00    -0.237 OA
ATOM     62  O   UNL A   1      34.803  31.641  29.046  1.00  0.00    -0.237 OA
ATOM     63  O   UNL A   1      34.290  32.774  31.173  1.00  0.00    -0.744 OA
ENDBRANCH  56  60
ENDBRANCH  39  53
BRANCH  40  64
ATOM     64  C   UNL A   1      46.952  27.225  26.269  1.00  0.00     0.023 A 
ATOM     65  C   UNL A   1      47.185  27.591  24.935  1.00  0.00     0.031 A 
ATOM     66  C   UNL A   1      47.905  26.411  26.908  1.00  0.00     0.131 A 
ATOM     67  C   UNL A   1      48.332  27.124  24.273  1.00  0.00     0.055 A 
ATOM     68  C   UNL A   1      49.068  25.992  26.263  1.00  0.00     0.041 A 
ATOM     69  F   UNL A   1      47.729  26.032  28.184  1.00  0.00    -0.206 F 
ATOM     70  C   UNL A   1      49.282  26.341  24.934  1.00  0.00     0.022 A 
BRANCH  67  71
ATOM     71  S   UNL A   1      48.542  27.511  22.514  1.00  0.00     0.124 S 
ATOM     72  O   UNL A   1      49.793  28.261  22.520  1.00  0.00    -0.237 OA
ATOM     73  O   UNL A   1      48.594  26.181  21.914  1.00  0.00    -0.237 OA
ATOM     74  O   UNL A   1      47.348  28.290  22.192  1.00  0.00    -0.744 OA
ENDBRANCH  67  71
ENDBRANCH  40  64
BRANCH  52  75
ATOM     75  C   UNL A   1      45.182  33.151  29.454  1.00  0.00     0.023 A 
ATOM     76  C   UNL A   1      45.115  34.215  28.538  1.00  0.00     0.031 A 
ATOM     77  C   UNL A   1      46.005  33.295  30.583  1.00  0.00     0.131 A 
ATOM     78  C   UNL A   1      45.900  35.360  28.741  1.00  0.00     0.055 A 
ATOM     79  C   UNL A   1      46.748  34.455  30.804  1.00  0.00     0.041 A 
ATOM     80  F   UNL A   1      46.107  32.306  31.486  1.00  0.00    -0.206 F 
ATOM     81  C   UNL A   1      46.707  35.491  29.874  1.00  0.00     0.022 A 
BRANCH  78  82
ATOM     82  S   UNL A   1      45.919  36.643  27.458  1.00  0.00     0.124 S 
ATOM     83  O   UNL A   1      47.221  36.430  26.832  1.00  0.00    -0.237 OA
ATOM     84  O   UNL A   1      44.758  36.294  26.648  1.00  0.00    -0.237 OA
ATOM     85  O   UNL A   1      45.795  37.887  28.215  1.00  0.00    -0.744 OA
ENDBRANCH  78  82
ENDBRANCH  52  75
ENDBRANCH  26  27
ENDBRANCH  19  21
ENDBRANCH  18  19
ENDBRANCH   1  18
TORSDOF 16
ENDMDL
MODEL 2
REMARK VINA RESULT:     -11.4      6.309     10.840
REMARK SMILES C[C@@H](C(=O)OCCOC(=O)c1ccc(-c2c3nc(c(-c4cc(S(=O)(=O)[O-])ccc4F)c4ccc([nH]4)c(-c4cc(S(=O)(=O)[O-])ccc4F)c4nc(c(-c5cc(S(=O)(=O)[O-])ccc5F)c5ccc2[nH]5)C=C4)C=C3)cc1)c1ccn(C(F)F)c(=O)c1
REMARK SMILES IDX 7 1 6 2 5 3 3 4 4 5 2 6 1 7 74 8 75 9 83 10 76 11 81 12
REMARK SMILES IDX 77 13 82 14 78 15 79 16 80 17 8 18 9 19 10 20 11 21 12 22
REMARK SMILES IDX 73 23 13 24 72 25 14 26 15 27 16 28 66 29 17 30 71 31 65 32
REMARK SMILES IDX 67 33 18 34 70 35 64 36 63 37 19 39 51 40 31 41 50 42 32 43
REMARK SMILES IDX 35 44 49 45 68 46 33 47 34 48 48 50 69 51 36 52 20 53 21 54
REMARK SMILES IDX 29 55 22 56 28 57 30 58 27 59 23 60 24 61 25 62 26 63 52 64
REMARK SMILES IDX 53 65 61 66 54 67 60 68 62 69 59 70 55 71 56 72 57 73 58 74
REMARK SMILES IDX 37 75 38 76 46 77 39 78 45 79 47 80 44 81 40 82 41 83 42 84
REMARK SMILES IDX 43 85
REMARK H PARENT 67 38 35 49
REMARK Flexibility Score: inf
ROOT
ATOM      1  C   UNL A   1      31.554  29.255  26.205  1.00  0.00     0.275 C 
ENDROOT
BRANCH   1   2
ATOM      2  C   UNL A   1      31.788  27.870  26.799  1.00  0.00     0.274 C 
BRANCH   2   3
ATOM      3  O   UNL A   1      30.871  26.921  26.215  1.00  0.00    -0.462 OA
BRANCH   3   4
ATOM      4  C   UNL A   1      31.336  26.159  25.187  1.00  0.00     0.313 C 
ATOM      5  O   UNL A   1      32.511  25.836  25.045  1.00  0.00    -0.252 OA
BRANCH   4   6
ATOM      6  C   UNL A   1      30.233  25.791  24.183  1.00  0.00     0.126 C 
ATOM      7  C   UNL A   1      30.682  24.779  23.123  1.00  0.00     0.025 C 
BRANCH   6   8
ATOM      8  C   UNL A   1      29.623  27.054  23.590  1.00  0.00    -0.027 A 
ATOM      9  C   UNL A   1      30.507  27.955  22.868  1.00  0.00     0.023 A 
ATOM     10  C   UNL A   1      28.328  27.401  23.717  1.00  0.00     0.076 A 
ATOM     11  C   UNL A   1      30.049  29.110  22.368  1.00  0.00     0.095 A 
ATOM     12  C   UNL A   1      27.791  28.658  23.119  1.00  0.00     0.255 A 
ATOM     13  N   UNL A   1      28.725  29.479  22.512  1.00  0.00    -0.258 N 
ATOM     14  O   UNL A   1      26.585  28.859  23.200  1.00  0.00    -0.269 OA
BRANCH  13  15
ATOM     15  C   UNL A   1      28.237  30.694  21.899  1.00  0.00     0.451 C 
ATOM     16  F   UNL A   1      29.259  31.556  21.709  1.00  0.00    -0.185 F 
ATOM     17  F   UNL A   1      27.655  30.449  20.702  1.00  0.00    -0.185 F 
ENDBRANCH  13  15
ENDBRANCH   6   8
ENDBRANCH   4   6
ENDBRANCH   3   4
ENDBRANCH   2   3
ENDBRANCH   1   2
BRANCH   1  18
ATOM     18  O   UNL A   1      32.826  29.896  26.008  1.00  0.00    -0.458 OA
BRANCH  18  19
ATOM     19  C   UNL A   1      33.132  30.891  26.870  1.00  0.00     0.338 C 
ATOM     20  O   UNL A   1      32.428  31.847  27.169  1.00  0.00    -0.246 OA
BRANCH  19  21
ATOM     21  C   UNL A   1      34.475  30.660  27.425  1.00  0.00     0.060 A 
ATOM     22  C   UNL A   1      34.930  29.358  27.624  1.00  0.00     0.016 A 
ATOM     23  C   UNL A   1      35.243  31.744  27.852  1.00  0.00     0.016 A 
ATOM     24  C   UNL A   1      36.107  29.141  28.340  1.00  0.00     0.010 A 
ATOM     25  C   UNL A   1      36.471  31.518  28.486  1.00  0.00     0.010 A 
ATOM     26  C   UNL A   1      36.899  30.212  28.781  1.00  0.00    -0.014 A 
BRANCH  26  27
ATOM     27  C   UNL A   1      38.122  29.969  29.608  1.00  0.00     0.031 A 
ATOM     28  C   UNL A   1      39.260  29.142  29.055  1.00  0.00     0.074 A 
ATOM     29  C   UNL A   1      38.253  30.524  30.831  1.00  0.00     0.049 A 
ATOM     30  N   UNL A   1      40.296  28.634  29.677  1.00  0.00    -0.248 NA
ATOM     31  C   UNL A   1      39.209  28.818  27.623  1.00  0.00     0.031 C 
ATOM     32  C   UNL A   1      37.276  31.402  31.476  1.00  0.00     0.029 A 
ATOM     33  N   UNL A   1      39.279  30.452  31.744  1.00  0.00    -0.354 N 
ATOM     34  C   UNL A   1      40.976  27.873  28.728  1.00  0.00     0.074 A 
ATOM     35  C   UNL A   1      40.232  27.986  27.492  1.00  0.00     0.031 C 
ATOM     36  C   UNL A   1      37.775  31.841  32.640  1.00  0.00     0.029 A 
ATOM     37  C   UNL A   1      39.059  31.193  32.883  1.00  0.00     0.049 A 
ATOM     38  H   UNL A   1      40.094  29.920  31.597  1.00  0.00     0.167 HD
ATOM     39  C   UNL A   1      42.110  27.142  28.879  1.00  0.00     0.034 A 
ATOM     40  C   UNL A   1      39.781  31.307  34.015  1.00  0.00     0.034 A 
ATOM     41  C   UNL A   1      42.890  27.110  30.095  1.00  0.00     0.049 A 
ATOM     42  C   UNL A   1      41.038  30.494  34.163  1.00  0.00     0.074 A 
ATOM     43  C   UNL A   1      44.052  26.403  30.360  1.00  0.00     0.029 A 
ATOM     44  N   UNL A   1      42.606  27.843  31.240  1.00  0.00    -0.354 N 
ATOM     45  N   UNL A   1      41.591  29.666  33.309  1.00  0.00    -0.248 NA
ATOM     46  C   UNL A   1      41.752  30.609  35.442  1.00  0.00     0.031 C 
ATOM     47  C   UNL A   1      44.444  26.674  31.677  1.00  0.00     0.029 A 
ATOM     48  C   UNL A   1      43.562  27.597  32.216  1.00  0.00     0.049 A 
ATOM     49  H   UNL A   1      41.838  28.449  31.345  1.00  0.00     0.167 HD
ATOM     50  C   UNL A   1      42.710  29.149  33.953  1.00  0.00     0.074 A 
ATOM     51  C   UNL A   1      42.776  29.790  35.251  1.00  0.00     0.031 C 
ATOM     52  C   UNL A   1      43.596  28.219  33.517  1.00  0.00     0.034 A 
BRANCH  39  53
ATOM     53  C   UNL A   1      42.531  26.256  27.730  1.00  0.00     0.023 A 
ATOM     54  C   UNL A   1      42.182  24.897  27.647  1.00  0.00     0.031 A 
ATOM     55  C   UNL A   1      43.317  26.798  26.694  1.00  0.00     0.131 A 
ATOM     56  C   UNL A   1      42.661  24.116  26.581  1.00  0.00     0.055 A 
ATOM     57  C   UNL A   1      43.734  26.033  25.604  1.00  0.00     0.041 A 
ATOM     58  F   UNL A   1      43.697  28.085  26.726  1.00  0.00    -0.206 F 
ATOM     59  C   UNL A   1      43.416  24.680  25.549  1.00  0.00     0.022 A 
BRANCH  56  60
ATOM     60  S   UNL A   1      42.371  22.324  26.600  1.00  0.00     0.124 S 
ATOM     61  O   UNL A   1      40.928  22.253  26.386  1.00  0.00    -0.237 OA
ATOM     62  O   UNL A   1      43.206  21.856  25.500  1.00  0.00    -0.237 OA
ATOM     63  O   UNL A   1      42.815  21.917  27.932  1.00  0.00    -0.744 OA
ENDBRANCH  56  60
ENDBRANCH  39  53
BRANCH  40  64
ATOM     64  C   UNL A   1      39.291  32.162  35.135  1.00  0.00     0.023 A 
ATOM     65  C   UNL A   1      38.639  31.601  36.244  1.00  0.00     0.031 A 
ATOM     66  C   UNL A   1      39.453  33.558  35.099  1.00  0.00     0.131 A 
ATOM     67  C   UNL A   1      38.153  32.436  37.262  1.00  0.00     0.055 A 
ATOM     68  C   UNL A   1      39.014  34.379  36.137  1.00  0.00     0.041 A 
ATOM     69  F   UNL A   1      40.068  34.144  34.059  1.00  0.00    -0.206 F 
ATOM     70  C   UNL A   1      38.351  33.819  37.224  1.00  0.00     0.022 A 
BRANCH  67  71
ATOM     71  S   UNL A   1      37.207  31.694  38.621  1.00  0.00     0.124 S 
ATOM     72  O   UNL A   1      37.028  30.326  38.148  1.00  0.00    -0.237 OA
ATOM     73  O   UNL A   1      38.112  31.869  39.753  1.00  0.00    -0.237 OA
ATOM     74  O   UNL A   1      35.990  32.503  38.670  1.00  0.00    -0.744 OA
ENDBRANCH  67  71
ENDBRANCH  40  64
BRANCH  52  75
ATOM     75  C   UNL A   1      44.713  27.856  34.462  1.00  0.00     0.023 A 
ATOM     76  C   UNL A   1      44.565  26.824  35.405  1.00  0.00     0.031 A 
ATOM     77  C   UNL A   1      45.922  28.570  34.439  1.00  0.00     0.131 A 
ATOM     78  C   UNL A   1      45.593  26.569  36.326  1.00  0.00     0.055 A 
ATOM     79  C   UNL A   1      46.959  28.280  35.326  1.00  0.00     0.041 A 
ATOM     80  F   UNL A   1      46.111  29.567  33.560  1.00  0.00    -0.206 F 
ATOM     81  C   UNL A   1      46.793  27.283  36.284  1.00  0.00     0.022 A 
BRANCH  78  82
ATOM     82  S   UNL A   1      45.307  25.347  37.636  1.00  0.00     0.124 S 
ATOM     83  O   UNL A   1      45.211  24.103  36.877  1.00  0.00    -0.237 OA
ATOM     84  O   UNL A   1      46.496  25.495  38.468  1.00  0.00    -0.237 OA
ATOM     85  O   UNL A   1      44.059  25.791  38.254  1.00  0.00    -0.744 OA
ENDBRANCH  78  82
ENDBRANCH  52  75
ENDBRANCH  26  27
ENDBRANCH  19  21
ENDBRANCH  18  19
ENDBRANCH   1  18
TORSDOF 16
ENDMDL
MODEL 3
REMARK VINA RESULT:     -11.4      2.476      3.365
REMARK SMILES C[C@@H](C(=O)OCCOC(=O)c1ccc(-c2c3nc(c(-c4cc(S(=O)(=O)[O-])ccc4F)c4ccc([nH]4)c(-c4cc(S(=O)(=O)[O-])ccc4F)c4nc(c(-c5cc(S(=O)(=O)[O-])ccc5F)c5ccc2[nH]5)C=C4)C=C3)cc1)c1ccn(C(F)F)c(=O)c1
REMARK SMILES IDX 7 1 6 2 5 3 3 4 4 5 2 6 1 7 74 8 75 9 83 10 76 11 81 12
REMARK SMILES IDX 77 13 82 14 78 15 79 16 80 17 8 18 9 19 10 20 11 21 12 22
REMARK SMILES IDX 73 23 13 24 72 25 14 26 15 27 16 28 66 29 17 30 71 31 65 32
REMARK SMILES IDX 67 33 18 34 70 35 64 36 63 37 19 39 51 40 31 41 50 42 32 43
REMARK SMILES IDX 35 44 49 45 68 46 33 47 34 48 48 50 69 51 36 52 20 53 21 54
REMARK SMILES IDX 29 55 22 56 28 57 30 58 27 59 23 60 24 61 25 62 26 63 52 64
REMARK SMILES IDX 53 65 61 66 54 67 60 68 62 69 59 70 55 71 56 72 57 73 58 74
REMARK SMILES IDX 37 75 38 76 46 77 39 78 45 79 47 80 44 81 40 82 41 83 42 84
REMARK SMILES IDX 43 85
REMARK H PARENT 67 38 35 49
REMARK Flexibility Score: inf
ROOT
ATOM      1  C   UNL A   1      36.351  20.339  24.976  1.00  0.00     0.275 C 
ENDROOT
BRANCH   1   2
ATOM      2  C   UNL A   1      34.868  20.578  25.239  1.00  0.00     0.274 C 
BRANCH   2   3
ATOM      3  O   UNL A   1      34.385  21.652  24.406  1.00  0.00    -0.462 OA
BRANCH   3   4
ATOM      4  C   UNL A   1      33.044  21.891  24.416  1.00  0.00     0.313 C 
ATOM      5  O   UNL A   1      32.223  21.187  24.993  1.00  0.00    -0.252 OA
BRANCH   4   6
ATOM      6  C   UNL A   1      32.660  23.115  23.571  1.00  0.00     0.126 C 
ATOM      7  C   UNL A   1      33.674  23.444  22.471  1.00  0.00     0.025 C 
BRANCH   6   8
ATOM      8  C   UNL A   1      32.351  24.300  24.478  1.00  0.00    -0.027 A 
ATOM      9  C   UNL A   1      33.400  25.287  24.680  1.00  0.00     0.023 A 
ATOM     10  C   UNL A   1      31.183  24.473  25.124  1.00  0.00     0.076 A 
ATOM     11  C   UNL A   1      33.216  26.323  25.507  1.00  0.00     0.095 A 
ATOM     12  C   UNL A   1      30.943  25.652  26.007  1.00  0.00     0.255 A 
ATOM     13  N   UNL A   1      32.025  26.496  26.187  1.00  0.00    -0.258 N 
ATOM     14  O   UNL A   1      29.825  25.788  26.488  1.00  0.00    -0.269 OA
BRANCH  13  15
ATOM     15  C   UNL A   1      31.823  27.662  27.016  1.00  0.00     0.451 C 
ATOM     16  F   UNL A   1      32.990  28.027  27.590  1.00  0.00    -0.185 F 
ATOM     17  F   UNL A   1      31.354  28.709  26.298  1.00  0.00    -0.185 F 
ENDBRANCH  13  15
ENDBRANCH   6   8
ENDBRANCH   4   6
ENDBRANCH   3   4
ENDBRANCH   2   3
ENDBRANCH   1   2
BRANCH   1  18
ATOM     18  O   UNL A   1      37.103  21.422  25.547  1.00  0.00    -0.458 OA
BRANCH  18  19
ATOM     19  C   UNL A   1      38.412  21.182  25.780  1.00  0.00     0.338 C 
ATOM     20  O   UNL A   1      39.026  20.152  25.531  1.00  0.00    -0.246 OA
BRANCH  19  21
ATOM     21  C   UNL A   1      39.026  22.372  26.391  1.00  0.00     0.060 A 
ATOM     22  C   UNL A   1      38.497  23.636  26.135  1.00  0.00     0.016 A 
ATOM     23  C   UNL A   1      40.200  22.240  27.135  1.00  0.00     0.016 A 
ATOM     24  C   UNL A   1      39.198  24.771  26.539  1.00  0.00     0.010 A 
ATOM     25  C   UNL A   1      40.847  23.383  27.619  1.00  0.00     0.010 A 
ATOM     26  C   UNL A   1      40.381  24.668  27.289  1.00  0.00    -0.014 A 
BRANCH  26  27
ATOM     27  C   UNL A   1      41.162  25.890  27.657  1.00  0.00     0.031 A 
ATOM     28  C   UNL A   1      40.555  26.933  28.568  1.00  0.00     0.074 A 
ATOM     29  C   UNL A   1      42.430  26.057  27.228  1.00  0.00     0.049 A 
ATOM     30  N   UNL A   1      40.968  28.149  28.829  1.00  0.00    -0.248 NA
ATOM     31  C   UNL A   1      39.306  26.570  29.250  1.00  0.00     0.031 C 
ATOM     32  C   UNL A   1      43.180  25.110  26.401  1.00  0.00     0.029 A 
ATOM     33  N   UNL A   1      43.327  27.075  27.452  1.00  0.00    -0.354 N 
ATOM     34  C   UNL A   1      39.991  28.718  29.643  1.00  0.00     0.074 A 
ATOM     35  C   UNL A   1      38.968  27.712  29.831  1.00  0.00     0.031 C 
ATOM     36  C   UNL A   1      44.436  25.555  26.247  1.00  0.00     0.029 A 
ATOM     37  C   UNL A   1      44.556  26.869  26.868  1.00  0.00     0.049 A 
ATOM     38  H   UNL A   1      43.110  27.877  27.981  1.00  0.00     0.167 HD
ATOM     39  C   UNL A   1      39.951  29.965  30.178  1.00  0.00     0.034 A 
ATOM     40  C   UNL A   1      45.644  27.661  26.796  1.00  0.00     0.034 A 
ATOM     41  C   UNL A   1      41.022  30.927  30.056  1.00  0.00     0.049 A 
ATOM     42  C   UNL A   1      45.583  29.039  27.399  1.00  0.00     0.074 A 
ATOM     43  C   UNL A   1      41.086  32.219  30.552  1.00  0.00     0.029 A 
ATOM     44  N   UNL A   1      42.232  30.692  29.416  1.00  0.00    -0.354 N 
ATOM     45  N   UNL A   1      44.596  29.615  28.042  1.00  0.00    -0.248 NA
ATOM     46  C   UNL A   1      46.775  29.883  27.237  1.00  0.00     0.031 C 
ATOM     47  C   UNL A   1      42.315  32.777  30.176  1.00  0.00     0.029 A 
ATOM     48  C   UNL A   1      43.043  31.814  29.496  1.00  0.00     0.049 A 
ATOM     49  H   UNL A   1      42.479  29.849  28.971  1.00  0.00     0.167 HD
ATOM     50  C   UNL A   1      45.042  30.897  28.350  1.00  0.00     0.074 A 
ATOM     51  C   UNL A   1      46.402  30.993  27.857  1.00  0.00     0.031 C 
ATOM     52  C   UNL A   1      44.384  31.907  28.972  1.00  0.00     0.034 A 
BRANCH  39  53
ATOM     53  C   UNL A   1      38.678  30.389  30.874  1.00  0.00     0.023 A 
ATOM     54  C   UNL A   1      37.626  31.040  30.208  1.00  0.00     0.031 A 
ATOM     55  C   UNL A   1      38.529  30.136  32.252  1.00  0.00     0.131 A 
ATOM     56  C   UNL A   1      36.497  31.463  30.931  1.00  0.00     0.055 A 
ATOM     57  C   UNL A   1      37.378  30.499  32.950  1.00  0.00     0.041 A 
ATOM     58  F   UNL A   1      39.508  29.532  32.945  1.00  0.00    -0.206 F 
ATOM     59  C   UNL A   1      36.357  31.177  32.292  1.00  0.00     0.022 A 
BRANCH  56  60
ATOM     60  S   UNL A   1      35.244  32.480  30.098  1.00  0.00     0.124 S 
ATOM     61  O   UNL A   1      34.261  32.671  31.160  1.00  0.00    -0.237 OA
ATOM     62  O   UNL A   1      36.004  33.661  29.706  1.00  0.00    -0.237 OA
ATOM     63  O   UNL A   1      34.797  31.636  28.991  1.00  0.00    -0.744 OA
ENDBRANCH  56  60
ENDBRANCH  39  53
BRANCH  40  64
ATOM     64  C   UNL A   1      46.855  27.207  26.055  1.00  0.00     0.023 A 
ATOM     65  C   UNL A   1      47.094  27.617  24.734  1.00  0.00     0.031 A 
ATOM     66  C   UNL A   1      47.784  26.339  26.657  1.00  0.00     0.131 A 
ATOM     67  C   UNL A   1      48.223  27.140  24.050  1.00  0.00     0.055 A 
ATOM     68  C   UNL A   1      48.930  25.908  25.990  1.00  0.00     0.041 A 
ATOM     69  F   UNL A   1      47.601  25.917  27.918  1.00  0.00    -0.206 F 
ATOM     70  C   UNL A   1      49.150  26.302  24.674  1.00  0.00     0.022 A 
BRANCH  67  71
ATOM     71  S   UNL A   1      48.439  27.587  22.305  1.00  0.00     0.124 S 
ATOM     72  O   UNL A   1      48.565  26.279  21.674  1.00  0.00    -0.237 OA
ATOM     73  O   UNL A   1      47.208  28.319  22.024  1.00  0.00    -0.237 OA
ATOM     74  O   UNL A   1      49.655  28.398  22.310  1.00  0.00    -0.744 OA
ENDBRANCH  67  71
ENDBRANCH  40  64
BRANCH  52  75
ATOM     75  C   UNL A   1      45.144  33.195  29.153  1.00  0.00     0.023 A 
ATOM     76  C   UNL A   1      45.059  34.233  28.208  1.00  0.00     0.031 A 
ATOM     77  C   UNL A   1      45.983  33.374  30.264  1.00  0.00     0.131 A 
ATOM     78  C   UNL A   1      45.845  35.385  28.365  1.00  0.00     0.055 A 
ATOM     79  C   UNL A   1      46.726  34.542  30.440  1.00  0.00     0.041 A 
ATOM     80  F   UNL A   1      46.102  32.413  31.194  1.00  0.00    -0.206 F 
ATOM     81  C   UNL A   1      46.668  35.550  29.481  1.00  0.00     0.022 A 
BRANCH  78  82
ATOM     82  S   UNL A   1      45.840  36.630  27.046  1.00  0.00     0.124 S 
ATOM     83  O   UNL A   1      46.695  37.672  27.607  1.00  0.00    -0.237 OA
ATOM     84  O   UNL A   1      46.393  35.892  25.916  1.00  0.00    -0.237 OA
ATOM     85  O   UNL A   1      44.429  36.991  26.919  1.00  0.00    -0.744 OA
ENDBRANCH  78  82
ENDBRANCH  52  75
ENDBRANCH  26  27
ENDBRANCH  19  21
ENDBRANCH  18  19
ENDBRANCH   1  18
TORSDOF 16
ENDMDL
