MODEL 1
REMARK VINA RESULT:     -11.2      0.000      0.000
REMARK SMILES CC[C@@H](C(=O)OCCOC(=O)c1ccc(-c2c3nc(c(-c4cc(S(=O)(=O)[O-])ccc4F)c4ccc([nH]4)c(-c4cc(S(=O)(=O)[O-])ccc4F)c4nc(c(-c5cc(S(=O)(=O)[O-])ccc5F)c5ccc2[nH]5)C=C4)C=C3)cc1)N(C)C(=O)N(C)C[C@@H]1CCC[N@H+]1C
REMARK SMILES IDX 7 1 6 2 4 3 5 4 3 5 2 6 1 7 75 8 76 9 77 10 78 11 79 12
REMARK SMILES IDX 80 13 81 14 82 15 83 16 86 17 84 18 85 19 87 20 8 22 9 23
REMARK SMILES IDX 10 24 11 25 12 26 13 27 74 28 14 29 73 30 15 31 16 32 17 33
REMARK SMILES IDX 67 34 18 35 72 36 66 37 68 38 19 39 71 40 65 41 64 42 20 44
REMARK SMILES IDX 52 45 32 46 51 47 33 48 36 49 50 50 69 51 34 52 35 53 49 55
REMARK SMILES IDX 70 56 37 57 21 58 22 59 30 60 23 61 29 62 31 63 28 64 24 65
REMARK SMILES IDX 25 66 26 67 27 68 53 69 54 70 62 71 55 72 61 73 63 74 60 75
REMARK SMILES IDX 56 76 57 77 58 78 59 79 38 80 39 81 47 82 40 83 46 84 48 85
REMARK SMILES IDX 45 86 41 87 42 88 43 89 44 90
REMARK H PARENT 86 21 68 43 36 54
REMARK Flexibility Score: inf
ROOT
ATOM      1  C   UNL A   1      35.035  19.140  24.940  1.00  0.00     0.274 C 
ENDROOT
BRANCH   1   2
ATOM      2  O   UNL A   1      34.147  20.059  24.263  1.00  0.00    -0.461 OA
BRANCH   2   3
ATOM      3  C   UNL A   1      32.888  20.229  24.746  1.00  0.00     0.329 C 
ATOM      4  O   UNL A   1      32.252  19.325  25.280  1.00  0.00    -0.250 OA
BRANCH   3   5
ATOM      5  C   UNL A   1      32.302  21.658  24.498  1.00  0.00     0.196 C 
BRANCH   5   6
ATOM      6  C   UNL A   1      32.323  22.144  23.037  1.00  0.00     0.034 C 
ATOM      7  C   UNL A   1      31.894  21.107  22.005  1.00  0.00     0.007 C 
ENDBRANCH   5   6
BRANCH   5   8
ATOM      8  N   UNL A   1      32.815  22.659  25.517  1.00  0.00    -0.314 N 
ATOM      9  C   UNL A   1      33.970  23.434  25.056  1.00  0.00     0.149 C 
BRANCH   8  10
ATOM     10  C   UNL A   1      32.032  22.971  26.646  1.00  0.00     0.320 C 
ATOM     11  O   UNL A   1      32.278  22.500  27.754  1.00  0.00    -0.248 OA
BRANCH  10  12
ATOM     12  N   UNL A   1      30.832  23.653  26.484  1.00  0.00    -0.322 N 
ATOM     13  C   UNL A   1      29.562  23.200  27.090  1.00  0.00     0.149 C 
BRANCH  12  14
ATOM     14  C   UNL A   1      30.654  24.529  25.247  1.00  0.00     0.185 C 
BRANCH  14  15
ATOM     15  C   UNL A   1      31.510  26.097  24.748  1.00  0.00     0.203 C 
ATOM     16  C   UNL A   1      31.645  28.025  25.854  1.00  0.00     0.073 C 
ATOM     17  N   UNL A   1      30.850  26.661  22.972  1.00  0.00    -0.333 N 
ATOM     18  C   UNL A   1      30.941  29.392  24.615  1.00  0.00     0.068 C 
ATOM     19  C   UNL A   1      30.491  28.518  22.967  1.00  0.00     0.262 C 
ATOM     20  C   UNL A   1      31.626  26.389  21.745  1.00  0.00     0.333 C 
ATOM     21  H   UNL A   1      30.043  26.043  22.893  1.00  0.00     0.348 HD
ENDBRANCH  14  15
ENDBRANCH  12  14
ENDBRANCH  10  12
ENDBRANCH   8  10
ENDBRANCH   5   8
ENDBRANCH   3   5
ENDBRANCH   2   3
ENDBRANCH   1   2
BRANCH   1  22
ATOM     22  C   UNL A   1      36.467  19.666  24.859  1.00  0.00     0.275 C 
BRANCH  22  23
ATOM     23  O   UNL A   1      36.483  20.993  25.385  1.00  0.00    -0.458 OA
BRANCH  23  24
ATOM     24  C   UNL A   1      37.236  21.862  24.681  1.00  0.00     0.338 C 
ATOM     25  O   UNL A   1      37.210  22.100  23.492  1.00  0.00    -0.246 OA
BRANCH  24  26
ATOM     26  C   UNL A   1      38.083  22.489  25.683  1.00  0.00     0.060 A 
ATOM     27  C   UNL A   1      37.578  23.936  26.372  1.00  0.00     0.016 A 
ATOM     28  C   UNL A   1      39.420  21.682  26.110  1.00  0.00     0.016 A 
ATOM     29  C   UNL A   1      38.452  24.896  27.486  1.00  0.00     0.010 A 
ATOM     30  C   UNL A   1      40.411  22.435  27.287  1.00  0.00     0.010 A 
ATOM     31  C   UNL A   1      39.988  24.274  28.013  1.00  0.00    -0.014 A 
BRANCH  31  32
ATOM     32  C   UNL A   1      40.854  25.685  28.462  1.00  0.00     0.031 A 
ATOM     33  C   UNL A   1      40.347  26.940  29.364  1.00  0.00     0.074 A 
ATOM     34  C   UNL A   1      42.163  25.720  28.146  1.00  0.00     0.049 A 
ATOM     35  N   UNL A   1      40.786  28.195  29.381  1.00  0.00    -0.248 NA
ATOM     36  C   UNL A   1      39.255  26.799  30.355  1.00  0.00     0.031 C 
ATOM     37  C   UNL A   1      42.916  24.632  27.525  1.00  0.00     0.029 A 
ATOM     38  N   UNL A   1      43.094  26.713  28.324  1.00  0.00    -0.354 N 
ATOM     39  C   UNL A   1      39.895  28.933  30.202  1.00  0.00     0.074 A 
ATOM     40  C   UNL A   1      38.952  28.018  30.735  1.00  0.00     0.031 C 
ATOM     41  C   UNL A   1      44.200  24.996  27.418  1.00  0.00     0.029 A 
ATOM     42  C   UNL A   1      44.315  26.404  27.779  1.00  0.00     0.049 A 
ATOM     43  H   UNL A   1      42.905  27.559  28.793  1.00  0.00     0.167 HD
ATOM     44  C   UNL A   1      39.813  30.259  30.481  1.00  0.00     0.034 A 
ATOM     45  C   UNL A   1      45.372  27.181  27.482  1.00  0.00     0.034 A 
ATOM     46  C   UNL A   1      40.859  31.168  30.119  1.00  0.00     0.049 A 
ATOM     47  C   UNL A   1      45.308  28.655  27.775  1.00  0.00     0.074 A 
ATOM     48  C   UNL A   1      40.948  32.527  30.340  1.00  0.00     0.029 A 
ATOM     49  N   UNL A   1      42.033  30.772  29.503  1.00  0.00    -0.354 N 
ATOM     50  N   UNL A   1      44.338  29.359  28.313  1.00  0.00    -0.248 NA
ATOM     51  C   UNL A   1      46.490  29.437  27.401  1.00  0.00     0.031 C 
ATOM     52  C   UNL A   1      42.154  32.968  29.789  1.00  0.00     0.029 A 
ATOM     53  C   UNL A   1      42.853  31.865  29.324  1.00  0.00     0.049 A 
ATOM     54  H   UNL A   1      42.249  29.851  29.232  1.00  0.00     0.167 HD
ATOM     55  C   UNL A   1      44.803  30.671  28.352  1.00  0.00     0.074 A 
ATOM     56  C   UNL A   1      46.148  30.647  27.814  1.00  0.00     0.031 C 
ATOM     57  C   UNL A   1      44.182  31.801  28.781  1.00  0.00     0.034 A 
BRANCH  44  58
ATOM     58  C   UNL A   1      38.523  30.824  31.088  1.00  0.00     0.023 A 
ATOM     59  C   UNL A   1      37.425  31.312  30.348  1.00  0.00     0.031 A 
ATOM     60  C   UNL A   1      38.432  30.920  32.493  1.00  0.00     0.131 A 
ATOM     61  C   UNL A   1      36.347  31.940  31.007  1.00  0.00     0.055 A 
ATOM     62  C   UNL A   1      37.311  31.444  33.144  1.00  0.00     0.041 A 
ATOM     63  F   UNL A   1      39.447  30.514  33.273  1.00  0.00    -0.206 F 
ATOM     64  C   UNL A   1      36.266  31.976  32.400  1.00  0.00     0.022 A 
BRANCH  61  65
ATOM     65  S   UNL A   1      35.122  32.862  30.028  1.00  0.00     0.124 S 
ATOM     66  O   UNL A   1      34.689  31.849  29.069  1.00  0.00    -0.237 OA
ATOM     67  O   UNL A   1      34.140  33.253  31.033  1.00  0.00    -0.237 OA
ATOM     68  O   UNL A   1      35.895  33.961  29.453  1.00  0.00    -0.744 OA
ENDBRANCH  61  65
ENDBRANCH  44  58
BRANCH  45  69
ATOM     69  C   UNL A   1      46.527  26.580  26.755  1.00  0.00     0.023 A 
ATOM     70  C   UNL A   1      47.671  26.155  27.441  1.00  0.00     0.031 A 
ATOM     71  C   UNL A   1      46.484  26.395  25.359  1.00  0.00     0.131 A 
ATOM     72  C   UNL A   1      48.730  25.573  26.729  1.00  0.00     0.055 A 
ATOM     73  C   UNL A   1      47.506  25.750  24.667  1.00  0.00     0.041 A 
ATOM     74  F   UNL A   1      45.413  26.794  24.653  1.00  0.00    -0.206 F 
ATOM     75  C   UNL A   1      48.644  25.342  25.353  1.00  0.00     0.022 A 
BRANCH  72  76
ATOM     76  S   UNL A   1      50.259  25.183  27.620  1.00  0.00     0.124 S 
ATOM     77  O   UNL A   1      50.514  26.430  28.332  1.00  0.00    -0.237 OA
ATOM     78  O   UNL A   1      49.849  24.048  28.439  1.00  0.00    -0.237 OA
ATOM     79  O   UNL A   1      51.204  24.869  26.550  1.00  0.00    -0.744 OA
ENDBRANCH  72  76
ENDBRANCH  45  69
BRANCH  57  80
ATOM     80  C   UNL A   1      44.977  33.074  28.740  1.00  0.00     0.023 A 
ATOM     81  C   UNL A   1      45.257  33.717  27.525  1.00  0.00     0.031 A 
ATOM     82  C   UNL A   1      45.492  33.628  29.925  1.00  0.00     0.131 A 
ATOM     83  C   UNL A   1      46.123  34.814  27.510  1.00  0.00     0.055 A 
ATOM     84  C   UNL A   1      46.279  34.776  29.911  1.00  0.00     0.041 A 
ATOM     85  F   UNL A   1      45.244  33.053  31.114  1.00  0.00    -0.206 F 
ATOM     86  C   UNL A   1      46.620  35.361  28.696  1.00  0.00     0.022 A 
BRANCH  83  87
ATOM     87  S   UNL A   1      46.724  35.403  25.906  1.00  0.00     0.124 S 
ATOM     88  O   UNL A   1      46.505  36.842  26.014  1.00  0.00    -0.237 OA
ATOM     89  O   UNL A   1      48.117  34.967  25.916  1.00  0.00    -0.237 OA
ATOM     90  O   UNL A   1      45.863  34.714  24.946  1.00  0.00    -0.744 OA
ENDBRANCH  83  87
ENDBRANCH  57  80
ENDBRANCH  31  32
ENDBRANCH  24  26
ENDBRANCH  23  24
ENDBRANCH  22  23
ENDBRANCH   1  22
TORSDOF 20
ENDMDL
MODEL 2
REMARK VINA RESULT:     -11.1      6.590     16.091
REMARK SMILES CC[C@@H](C(=O)OCCOC(=O)c1ccc(-c2c3nc(c(-c4cc(S(=O)(=O)[O-])ccc4F)c4ccc([nH]4)c(-c4cc(S(=O)(=O)[O-])ccc4F)c4nc(c(-c5cc(S(=O)(=O)[O-])ccc5F)c5ccc2[nH]5)C=C4)C=C3)cc1)N(C)C(=O)N(C)C[C@@H]1CCC[N@H+]1C
REMARK SMILES IDX 7 1 6 2 4 3 5 4 3 5 2 6 1 7 75 8 76 9 77 10 78 11 79 12
REMARK SMILES IDX 80 13 81 14 82 15 83 16 86 17 84 18 85 19 87 20 8 22 9 23
REMARK SMILES IDX 10 24 11 25 12 26 13 27 74 28 14 29 73 30 15 31 16 32 17 33
REMARK SMILES IDX 67 34 18 35 72 36 66 37 68 38 19 39 71 40 65 41 64 42 20 44
REMARK SMILES IDX 52 45 32 46 51 47 33 48 36 49 50 50 69 51 34 52 35 53 49 55
REMARK SMILES IDX 70 56 37 57 21 58 22 59 30 60 23 61 29 62 31 63 28 64 24 65
REMARK SMILES IDX 25 66 26 67 27 68 53 69 54 70 62 71 55 72 61 73 63 74 60 75
REMARK SMILES IDX 56 76 57 77 58 78 59 79 38 80 39 81 47 82 40 83 46 84 48 85
REMARK SMILES IDX 45 86 41 87 42 88 43 89 44 90
REMARK H PARENT 86 21 68 43 36 54
REMARK Flexibility Score: inf
ROOT
ATOM      1  C   UNL A   1      43.682  40.992  26.076  1.00  0.00     0.274 C 
ENDROOT
BRANCH   1   2
ATOM      2  O   UNL A   1      44.414  41.478  24.927  1.00  0.00    -0.461 OA
BRANCH   2   3
ATOM      3  C   UNL A   1      43.764  42.246  24.014  1.00  0.00     0.329 C 
ATOM      4  O   UNL A   1      42.549  42.193  23.843  1.00  0.00    -0.250 OA
BRANCH   3   5
ATOM      5  C   UNL A   1      44.711  43.150  23.158  1.00  0.00     0.196 C 
BRANCH   5   6
ATOM      6  C   UNL A   1      44.576  44.667  23.390  1.00  0.00     0.034 C 
ATOM      7  C   UNL A   1      45.757  45.502  22.909  1.00  0.00     0.007 C 
ENDBRANCH   5   6
BRANCH   5   8
ATOM      8  N   UNL A   1      44.733  42.721  21.703  1.00  0.00    -0.314 N 
ATOM      9  C   UNL A   1      46.041  42.244  21.247  1.00  0.00     0.149 C 
BRANCH   8  10
ATOM     10  C   UNL A   1      43.520  42.542  21.008  1.00  0.00     0.320 C 
ATOM     11  O   UNL A   1      43.006  41.434  20.879  1.00  0.00    -0.248 OA
BRANCH  10  12
ATOM     12  N   UNL A   1      42.990  43.593  20.269  1.00  0.00    -0.322 N 
ATOM     13  C   UNL A   1      41.540  43.763  20.041  1.00  0.00     0.149 C 
BRANCH  12  14
ATOM     14  C   UNL A   1      43.869  44.255  19.212  1.00  0.00     0.185 C 
BRANCH  14  15
ATOM     15  C   UNL A   1      44.448  46.011  19.053  1.00  0.00     0.203 C 
ATOM     16  C   UNL A   1      43.460  47.716  18.015  1.00  0.00     0.073 C 
ATOM     17  N   UNL A   1      46.268  46.028  18.282  1.00  0.00    -0.333 N 
ATOM     18  C   UNL A   1      44.795  48.389  16.725  1.00  0.00     0.068 C 
ATOM     19  C   UNL A   1      46.395  47.349  16.935  1.00  0.00     0.262 C 
ATOM     20  C   UNL A   1      47.460  46.196  19.137  1.00  0.00     0.333 C 
ATOM     21  H   UNL A   1      46.324  45.058  17.973  1.00  0.00     0.348 HD
ENDBRANCH  14  15
ENDBRANCH  12  14
ENDBRANCH  10  12
ENDBRANCH   8  10
ENDBRANCH   5   8
ENDBRANCH   3   5
ENDBRANCH   2   3
ENDBRANCH   1   2
BRANCH   1  22
ATOM     22  C   UNL A   1      44.424  39.803  26.684  1.00  0.00     0.275 C 
BRANCH  22  23
ATOM     23  O   UNL A   1      43.582  38.655  26.581  1.00  0.00    -0.458 OA
BRANCH  23  24
ATOM     24  C   UNL A   1      42.974  38.304  27.732  1.00  0.00     0.338 C 
ATOM     25  O   UNL A   1      42.196  38.945  28.407  1.00  0.00    -0.246 OA
BRANCH  24  26
ATOM     26  C   UNL A   1      43.440  36.948  27.979  1.00  0.00     0.060 A 
ATOM     27  C   UNL A   1      43.358  35.829  26.728  1.00  0.00     0.016 A 
ATOM     28  C   UNL A   1      44.079  36.655  29.437  1.00  0.00     0.016 A 
ATOM     29  C   UNL A   1      43.750  34.167  26.818  1.00  0.00     0.010 A 
ATOM     30  C   UNL A   1      44.618  35.053  29.715  1.00  0.00     0.010 A 
ATOM     31  C   UNL A   1      44.363  33.593  28.340  1.00  0.00    -0.014 A 
BRANCH  31  32
ATOM     32  C   UNL A   1      43.958  31.925  28.328  1.00  0.00     0.031 A 
ATOM     33  C   UNL A   1      44.820  30.679  27.735  1.00  0.00     0.074 A 
ATOM     34  C   UNL A   1      42.850  31.565  29.003  1.00  0.00     0.049 A 
ATOM     35  N   UNL A   1      44.398  29.490  27.315  1.00  0.00    -0.248 NA
ATOM     36  C   UNL A   1      46.293  30.743  27.599  1.00  0.00     0.031 C 
ATOM     37  C   UNL A   1      42.014  32.458  29.801  1.00  0.00     0.029 A 
ATOM     38  N   UNL A   1      42.249  30.337  29.134  1.00  0.00    -0.354 N 
ATOM     39  C   UNL A   1      45.513  28.841  26.726  1.00  0.00     0.074 A 
ATOM     40  C   UNL A   1      46.637  29.687  26.899  1.00  0.00     0.031 C 
ATOM     41  C   UNL A   1      41.039  31.744  30.378  1.00  0.00     0.029 A 
ATOM     42  C   UNL A   1      41.070  30.392  29.833  1.00  0.00     0.049 A 
ATOM     43  H   UNL A   1      42.625  29.505  28.765  1.00  0.00     0.167 HD
ATOM     44  C   UNL A   1      45.624  27.664  26.058  1.00  0.00     0.034 A 
ATOM     45  C   UNL A   1      40.059  29.510  29.931  1.00  0.00     0.034 A 
ATOM     46  C   UNL A   1      44.557  26.708  26.042  1.00  0.00     0.049 A 
ATOM     47  C   UNL A   1      40.151  28.200  29.198  1.00  0.00     0.074 A 
ATOM     48  C   UNL A   1      44.507  25.469  25.437  1.00  0.00     0.029 A 
ATOM     49  N   UNL A   1      43.366  26.883  26.723  1.00  0.00    -0.354 N 
ATOM     50  N   UNL A   1      41.114  27.736  28.434  1.00  0.00    -0.248 NA
ATOM     51  C   UNL A   1      39.000  27.303  29.336  1.00  0.00     0.031 C 
ATOM     52  C   UNL A   1      43.249  24.921  25.696  1.00  0.00     0.029 A 
ATOM     53  C   UNL A   1      42.565  25.776  26.547  1.00  0.00     0.049 A 
ATOM     54  H   UNL A   1      43.127  27.678  27.252  1.00  0.00     0.167 HD
ATOM     55  C   UNL A   1      40.685  26.480  28.010  1.00  0.00     0.074 A 
ATOM     56  C   UNL A   1      39.396  26.254  28.632  1.00  0.00     0.031 C 
ATOM     57  C   UNL A   1      41.287  25.591  27.178  1.00  0.00     0.034 A 
BRANCH  44  58
ATOM     58  C   UNL A   1      46.866  27.398  25.199  1.00  0.00     0.023 A 
ATOM     59  C   UNL A   1      47.078  27.907  23.901  1.00  0.00     0.031 A 
ATOM     60  C   UNL A   1      47.859  26.535  25.711  1.00  0.00     0.131 A 
ATOM     61  C   UNL A   1      48.193  27.485  23.145  1.00  0.00     0.055 A 
ATOM     62  C   UNL A   1      49.016  26.208  24.997  1.00  0.00     0.041 A 
ATOM     63  F   UNL A   1      47.720  25.976  26.923  1.00  0.00    -0.206 F 
ATOM     64  C   UNL A   1      49.180  26.668  23.698  1.00  0.00     0.022 A 
BRANCH  61  65
ATOM     65  S   UNL A   1      48.263  27.876  21.369  1.00  0.00     0.124 S 
ATOM     66  O   UNL A   1      46.882  28.273  21.101  1.00  0.00    -0.237 OA
ATOM     67  O   UNL A   1      49.257  28.941  21.318  1.00  0.00    -0.237 OA
ATOM     68  O   UNL A   1      48.669  26.615  20.754  1.00  0.00    -0.744 OA
ENDBRANCH  61  65
ENDBRANCH  44  58
BRANCH  45  69
ATOM     69  C   UNL A   1      38.822  29.909  30.662  1.00  0.00     0.023 A 
ATOM     70  C   UNL A   1      37.874  30.753  30.073  1.00  0.00     0.031 A 
ATOM     71  C   UNL A   1      38.561  29.420  31.957  1.00  0.00     0.131 A 
ATOM     72  C   UNL A   1      36.711  31.091  30.782  1.00  0.00     0.055 A 
ATOM     73  C   UNL A   1      37.372  29.698  32.627  1.00  0.00     0.041 A 
ATOM     74  F   UNL A   1      39.444  28.614  32.572  1.00  0.00    -0.206 F 
ATOM     75  C   UNL A   1      36.440  30.547  32.040  1.00  0.00     0.022 A 
BRANCH  72  76
ATOM     76  S   UNL A   1      35.584  32.311  30.059  1.00  0.00     0.124 S 
ATOM     77  O   UNL A   1      34.520  32.358  31.055  1.00  0.00    -0.237 OA
ATOM     78  O   UNL A   1      36.434  33.493  29.971  1.00  0.00    -0.237 OA
ATOM     79  O   UNL A   1      35.215  31.714  28.777  1.00  0.00    -0.744 OA
ENDBRANCH  72  76
ENDBRANCH  45  69
BRANCH  57  80
ATOM     80  C   UNL A   1      40.584  24.284  26.951  1.00  0.00     0.023 A 
ATOM     81  C   UNL A   1      39.409  24.214  26.187  1.00  0.00     0.031 A 
ATOM     82  C   UNL A   1      41.073  23.104  27.538  1.00  0.00     0.131 A 
ATOM     83  C   UNL A   1      38.702  23.010  26.121  1.00  0.00     0.055 A 
ATOM     84  C   UNL A   1      40.411  21.888  27.391  1.00  0.00     0.041 A 
ATOM     85  F   UNL A   1      42.198  23.119  28.272  1.00  0.00    -0.206 F 
ATOM     86  C   UNL A   1      39.203  21.842  26.700  1.00  0.00     0.022 A 
BRANCH  83  87
ATOM     87  S   UNL A   1      37.035  23.041  25.415  1.00  0.00     0.124 S 
ATOM     88  O   UNL A   1      37.307  22.848  23.994  1.00  0.00    -0.237 OA
ATOM     89  O   UNL A   1      36.386  21.926  26.097  1.00  0.00    -0.237 OA
ATOM     90  O   UNL A   1      36.536  24.367  25.777  1.00  0.00    -0.744 OA
ENDBRANCH  83  87
ENDBRANCH  57  80
ENDBRANCH  31  32
ENDBRANCH  24  26
ENDBRANCH  23  24
ENDBRANCH  22  23
ENDBRANCH   1  22
TORSDOF 20
ENDMDL
MODEL 3
REMARK VINA RESULT:     -11.0      2.738      4.066
REMARK SMILES CC[C@@H](C(=O)OCCOC(=O)c1ccc(-c2c3nc(c(-c4cc(S(=O)(=O)[O-])ccc4F)c4ccc([nH]4)c(-c4cc(S(=O)(=O)[O-])ccc4F)c4nc(c(-c5cc(S(=O)(=O)[O-])ccc5F)c5ccc2[nH]5)C=C4)C=C3)cc1)N(C)C(=O)N(C)C[C@@H]1CCC[N@H+]1C
REMARK SMILES IDX 7 1 6 2 4 3 5 4 3 5 2 6 1 7 75 8 76 9 77 10 78 11 79 12
REMARK SMILES IDX 80 13 81 14 82 15 83 16 86 17 84 18 85 19 87 20 8 22 9 23
REMARK SMILES IDX 10 24 11 25 12 26 13 27 74 28 14 29 73 30 15 31 16 32 17 33
REMARK SMILES IDX 67 34 18 35 72 36 66 37 68 38 19 39 71 40 65 41 64 42 20 44
REMARK SMILES IDX 52 45 32 46 51 47 33 48 36 49 50 50 69 51 34 52 35 53 49 55
REMARK SMILES IDX 70 56 37 57 21 58 22 59 30 60 23 61 29 62 31 63 28 64 24 65
REMARK SMILES IDX 25 66 26 67 27 68 53 69 54 70 62 71 55 72 61 73 63 74 60 75
REMARK SMILES IDX 56 76 57 77 58 78 59 79 38 80 39 81 47 82 40 83 46 84 48 85
REMARK SMILES IDX 45 86 41 87 42 88 43 89 44 90
REMARK H PARENT 86 21 68 43 36 54
REMARK Flexibility Score: inf
ROOT
ATOM      1  C   UNL A   1      35.961  23.477  23.382  1.00  0.00     0.274 C 
ENDROOT
BRANCH   1   2
ATOM      2  O   UNL A   1      34.527  23.362  23.523  1.00  0.00    -0.461 OA
BRANCH   2   3
ATOM      3  C   UNL A   1      33.746  24.412  23.158  1.00  0.00     0.329 C 
ATOM      4  O   UNL A   1      34.016  25.146  22.210  1.00  0.00    -0.250 OA
BRANCH   3   5
ATOM      5  C   UNL A   1      32.514  24.641  24.094  1.00  0.00     0.196 C 
BRANCH   5   6
ATOM      6  C   UNL A   1      31.511  25.713  23.627  1.00  0.00     0.034 C 
ATOM      7  C   UNL A   1      30.046  25.390  23.899  1.00  0.00     0.007 C 
ENDBRANCH   5   6
BRANCH   5   8
ATOM      8  N   UNL A   1      32.925  24.735  25.551  1.00  0.00    -0.314 N 
ATOM      9  C   UNL A   1      33.560  26.007  25.906  1.00  0.00     0.149 C 
BRANCH   8  10
ATOM     10  C   UNL A   1      32.447  23.786  26.476  1.00  0.00     0.320 C 
ATOM     11  O   UNL A   1      31.481  24.017  27.199  1.00  0.00    -0.248 OA
BRANCH  10  12
ATOM     12  N   UNL A   1      33.194  22.644  26.737  1.00  0.00    -0.322 N 
ATOM     13  C   UNL A   1      34.611  22.688  27.151  1.00  0.00     0.149 C 
BRANCH  12  14
ATOM     14  C   UNL A   1      32.782  21.335  26.067  1.00  0.00     0.185 C 
BRANCH  14  15
ATOM     15  C   UNL A   1      33.319  20.583  24.459  1.00  0.00     0.203 C 
ATOM     16  C   UNL A   1      32.088  20.094  22.668  1.00  0.00     0.073 C 
ATOM     17  N   UNL A   1      34.257  18.881  24.819  1.00  0.00    -0.333 N 
ATOM     18  C   UNL A   1      32.398  18.174  22.328  1.00  0.00     0.068 C 
ATOM     19  C   UNL A   1      33.661  17.540  23.626  1.00  0.00     0.262 C 
ATOM     20  C   UNL A   1      35.732  18.805  24.819  1.00  0.00     0.333 C 
ATOM     21  H   UNL A   1      34.006  18.760  25.799  1.00  0.00     0.348 HD
ENDBRANCH  14  15
ENDBRANCH  12  14
ENDBRANCH  10  12
ENDBRANCH   8  10
ENDBRANCH   5   8
ENDBRANCH   3   5
ENDBRANCH   2   3
ENDBRANCH   1   2
BRANCH   1  22
ATOM     22  C   UNL A   1      36.640  22.350  24.158  1.00  0.00     0.275 C 
BRANCH  22  23
ATOM     23  O   UNL A   1      37.562  22.936  25.076  1.00  0.00    -0.458 OA
BRANCH  23  24
ATOM     24  C   UNL A   1      38.444  22.068  25.612  1.00  0.00     0.338 C 
ATOM     25  O   UNL A   1      38.579  20.884  25.383  1.00  0.00    -0.246 OA
BRANCH  24  26
ATOM     26  C   UNL A   1      39.237  22.883  26.519  1.00  0.00     0.060 A 
ATOM     27  C   UNL A   1      38.674  24.413  26.926  1.00  0.00     0.016 A 
ATOM     28  C   UNL A   1      40.572  22.199  27.128  1.00  0.00     0.016 A 
ATOM     29  C   UNL A   1      39.481  25.575  27.886  1.00  0.00     0.010 A 
ATOM     30  C   UNL A   1      41.498  23.172  28.191  1.00  0.00     0.010 A 
ATOM     31  C   UNL A   1      41.008  25.097  28.568  1.00  0.00    -0.014 A 
BRANCH  31  32
ATOM     32  C   UNL A   1      41.826  26.588  28.796  1.00  0.00     0.031 A 
ATOM     33  C   UNL A   1      41.340  27.890  29.642  1.00  0.00     0.074 A 
ATOM     34  C   UNL A   1      43.087  26.665  28.330  1.00  0.00     0.049 A 
ATOM     35  N   UNL A   1      41.697  29.163  29.503  1.00  0.00    -0.248 NA
ATOM     36  C   UNL A   1      40.375  27.780  30.759  1.00  0.00     0.031 C 
ATOM     37  C   UNL A   1      43.836  25.568  27.720  1.00  0.00     0.029 A 
ATOM     38  N   UNL A   1      43.966  27.720  28.316  1.00  0.00    -0.354 N 
ATOM     39  C   UNL A   1      40.856  29.923  30.355  1.00  0.00     0.074 A 
ATOM     40  C   UNL A   1      40.038  29.010  31.068  1.00  0.00     0.031 C 
ATOM     41  C   UNL A   1      45.075  25.990  27.436  1.00  0.00     0.029 A 
ATOM     42  C   UNL A   1      45.137  27.430  27.662  1.00  0.00     0.049 A 
ATOM     43  H   UNL A   1      43.776  28.592  28.731  1.00  0.00     0.167 HD
ATOM     44  C   UNL A   1      40.720  31.262  30.530  1.00  0.00     0.034 A 
ATOM     45  C   UNL A   1      46.104  28.233  27.182  1.00  0.00     0.034 A 
ATOM     46  C   UNL A   1      41.660  32.190  29.975  1.00  0.00     0.049 A 
ATOM     47  C   UNL A   1      45.978  29.721  27.356  1.00  0.00     0.074 A 
ATOM     48  C   UNL A   1      41.685  33.567  30.070  1.00  0.00     0.029 A 
ATOM     49  N   UNL A   1      42.782  31.805  29.264  1.00  0.00    -0.354 N 
ATOM     50  N   UNL A   1      45.029  30.417  27.940  1.00  0.00    -0.248 NA
ATOM     51  C   UNL A   1      47.059  30.530  26.784  1.00  0.00     0.031 C 
ATOM     52  C   UNL A   1      42.792  34.021  29.349  1.00  0.00     0.029 A 
ATOM     53  C   UNL A   1      43.506  32.920  28.901  1.00  0.00     0.049 A 
ATOM     54  H   UNL A   1      43.026  30.876  29.048  1.00  0.00     0.167 HD
ATOM     55  C   UNL A   1      45.410  31.751  27.816  1.00  0.00     0.074 A 
ATOM     56  C   UNL A   1      46.687  31.752  27.131  1.00  0.00     0.031 C 
ATOM     57  C   UNL A   1      44.769  32.880  28.217  1.00  0.00     0.034 A 
BRANCH  44  58
ATOM     58  C   UNL A   1      39.471  31.809  31.231  1.00  0.00     0.023 A 
ATOM     59  C   UNL A   1      39.361  32.059  32.615  1.00  0.00     0.031 A 
ATOM     60  C   UNL A   1      38.314  32.036  30.454  1.00  0.00     0.131 A 
ATOM     61  C   UNL A   1      38.120  32.429  33.175  1.00  0.00     0.055 A 
ATOM     62  C   UNL A   1      37.117  32.508  31.000  1.00  0.00     0.041 A 
ATOM     63  F   UNL A   1      38.318  31.789  29.134  1.00  0.00    -0.206 F 
ATOM     64  C   UNL A   1      37.008  32.690  32.372  1.00  0.00     0.022 A 
BRANCH  61  65
ATOM     65  S   UNL A   1      37.918  32.407  34.983  1.00  0.00     0.124 S 
ATOM     66  O   UNL A   1      38.112  30.990  35.284  1.00  0.00    -0.237 OA
ATOM     67  O   UNL A   1      38.973  33.307  35.432  1.00  0.00    -0.237 OA
ATOM     68  O   UNL A   1      36.555  32.896  35.184  1.00  0.00    -0.744 OA
ENDBRANCH  61  65
ENDBRANCH  44  58
BRANCH  45  69
ATOM     69  C   UNL A   1      47.208  27.632  26.381  1.00  0.00     0.023 A 
ATOM     70  C   UNL A   1      47.313  27.863  25.004  1.00  0.00     0.031 A 
ATOM     71  C   UNL A   1      48.196  26.838  26.996  1.00  0.00     0.131 A 
ATOM     72  C   UNL A   1      48.377  27.300  24.285  1.00  0.00     0.055 A 
ATOM     73  C   UNL A   1      49.291  26.343  26.292  1.00  0.00     0.041 A 
ATOM     74  F   UNL A   1      48.137  26.578  28.313  1.00  0.00    -0.206 F 
ATOM     75  C   UNL A   1      49.382  26.567  24.923  1.00  0.00     0.022 A 
BRANCH  72  76
ATOM     76  S   UNL A   1      48.395  27.484  22.483  1.00  0.00     0.124 S 
ATOM     77  O   UNL A   1      47.100  28.107  22.235  1.00  0.00    -0.237 OA
ATOM     78  O   UNL A   1      49.565  28.331  22.277  1.00  0.00    -0.237 OA
ATOM     79  O   UNL A   1      48.530  26.110  22.004  1.00  0.00    -0.744 OA
ENDBRANCH  72  76
ENDBRANCH  45  69
BRANCH  57  80
ATOM     80  C   UNL A   1      45.471  34.185  27.978  1.00  0.00     0.023 A 
ATOM     81  C   UNL A   1      46.340  34.728  28.937  1.00  0.00     0.031 A 
ATOM     82  C   UNL A   1      45.238  34.911  26.797  1.00  0.00     0.131 A 
ATOM     83  C   UNL A   1      46.858  36.013  28.746  1.00  0.00     0.055 A 
ATOM     84  C   UNL A   1      45.832  36.150  26.574  1.00  0.00     0.041 A 
ATOM     85  F   UNL A   1      44.421  34.428  25.846  1.00  0.00    -0.206 F 
ATOM     86  C   UNL A   1      46.627  36.720  27.564  1.00  0.00     0.022 A 
BRANCH  83  87
ATOM     87  S   UNL A   1      47.693  36.809  30.142  1.00  0.00     0.124 S 
ATOM     88  O   UNL A   1      46.939  36.289  31.279  1.00  0.00    -0.237 OA
ATOM     89  O   UNL A   1      49.061  36.320  30.008  1.00  0.00    -0.237 OA
ATOM     90  O   UNL A   1      47.513  38.236  29.878  1.00  0.00    -0.744 OA
ENDBRANCH  83  87
ENDBRANCH  57  80
ENDBRANCH  31  32
ENDBRANCH  24  26
ENDBRANCH  23  24
ENDBRANCH  22  23
ENDBRANCH   1  22
TORSDOF 20
ENDMDL
