MODEL 1
REMARK VINA RESULT:     -12.6      0.000      0.000
REMARK SMILES O=C(OCCOC(=O)[C@@H]1C[NH2+]CCN1C(=O)N[C@@H]1CCOC1)c1ccc(-c2c3nc(c(-c4cc(S(=O)(=O)[O-])ccc4F)c4ccc([nH]4)c(-c4cc(S(=O)(=O)[O-])ccc4F)c4nc(c(-c5cc(S(=O)(=O)[O-])ccc5F)c5ccc2[nH]5)C=C4)C=C3)cc1
REMARK SMILES IDX 4 1 3 2 2 3 1 4 23 5 24 6 85 7 25 8 84 9 26 10 27 11 28 12
REMARK SMILES IDX 78 13 29 14 83 15 77 16 79 17 30 18 82 19 76 20 75 21 31 23
REMARK SMILES IDX 63 24 43 25 62 26 44 27 47 28 61 29 80 30 45 31 46 32 60 34
REMARK SMILES IDX 81 35 48 36 32 37 33 38 41 39 34 40 40 41 42 42 39 43 35 44
REMARK SMILES IDX 36 45 37 46 38 47 64 48 65 49 73 50 66 51 72 52 74 53 71 54
REMARK SMILES IDX 67 55 68 56 69 57 70 58 49 59 50 60 58 61 51 62 57 63 59 64
REMARK SMILES IDX 56 65 52 66 53 67 54 68 55 69 5 70 6 71 7 72 8 73 9 74 10 75
REMARK SMILES IDX 14 76 11 77 13 78 12 79 15 82 16 83 17 84 18 86 19 87 22 88
REMARK SMILES IDX 20 89 21 90
REMARK H PARENT 79 22 47 33 11 80 11 81 17 85
REMARK Flexibility Score: inf
ROOT
ATOM      1  C   UNL A   1      32.423  32.696  26.864  1.00  0.00     0.275 C 
ENDROOT
BRANCH   1   2
ATOM      2  O   UNL A   1      32.338  33.833  27.737  1.00  0.00    -0.458 OA
BRANCH   2   3
ATOM      3  C   UNL A   1      33.222  34.284  28.670  1.00  0.00     0.338 C 
ATOM      4  O   UNL A   1      33.116  35.427  29.106  1.00  0.00    -0.246 OA
BRANCH   3   5
ATOM      5  C   UNL A   1      34.436  33.499  29.001  1.00  0.00     0.060 A 
ATOM      6  C   UNL A   1      34.427  32.388  29.845  1.00  0.00     0.016 A 
ATOM      7  C   UNL A   1      35.638  33.879  28.370  1.00  0.00     0.016 A 
ATOM      8  C   UNL A   1      35.567  31.594  29.972  1.00  0.00     0.010 A 
ATOM      9  C   UNL A   1      36.782  33.080  28.486  1.00  0.00     0.010 A 
ATOM     10  C   UNL A   1      36.754  31.940  29.307  1.00  0.00    -0.014 A 
BRANCH  10  11
ATOM     11  C   UNL A   1      38.013  31.357  29.829  1.00  0.00     0.031 A 
ATOM     12  C   UNL A   1      38.359  31.758  31.234  1.00  0.00     0.074 A 
ATOM     13  C   UNL A   1      38.739  30.431  29.175  1.00  0.00     0.049 A 
ATOM     14  N   UNL A   1      39.258  31.266  32.038  1.00  0.00    -0.248 NA
ATOM     15  C   UNL A   1      37.556  32.849  31.815  1.00  0.00     0.031 C 
ATOM     16  C   UNL A   1      38.472  29.948  27.828  1.00  0.00     0.029 A 
ATOM     17  N   UNL A   1      39.840  29.708  29.561  1.00  0.00    -0.354 N 
ATOM     18  C   UNL A   1      39.092  31.956  33.231  1.00  0.00     0.074 A 
ATOM     19  C   UNL A   1      38.080  32.962  33.018  1.00  0.00     0.031 C 
ATOM     20  C   UNL A   1      39.366  29.001  27.495  1.00  0.00     0.029 A 
ATOM     21  C   UNL A   1      40.285  28.812  28.610  1.00  0.00     0.049 A 
ATOM     22  H   UNL A   1      40.274  29.819  30.437  1.00  0.00     0.167 HD
ATOM     23  C   UNL A   1      39.698  31.740  34.419  1.00  0.00     0.034 A 
ATOM     24  C   UNL A   1      41.310  27.936  28.649  1.00  0.00     0.034 A 
ATOM     25  C   UNL A   1      40.757  30.788  34.586  1.00  0.00     0.049 A 
ATOM     26  C   UNL A   1      42.093  27.833  29.938  1.00  0.00     0.074 A 
ATOM     27  C   UNL A   1      41.504  30.521  35.715  1.00  0.00     0.029 A 
ATOM     28  N   UNL A   1      41.245  29.973  33.571  1.00  0.00    -0.354 N 
ATOM     29  N   UNL A   1      41.890  28.456  31.078  1.00  0.00    -0.248 NA
ATOM     30  C   UNL A   1      43.221  26.895  29.956  1.00  0.00     0.031 C 
ATOM     31  C   UNL A   1      42.501  29.606  35.359  1.00  0.00     0.029 A 
ATOM     32  C   UNL A   1      42.313  29.227  34.037  1.00  0.00     0.049 A 
ATOM     33  H   UNL A   1      40.885  29.932  32.656  1.00  0.00     0.167 HD
ATOM     34  C   UNL A   1      42.835  27.945  31.964  1.00  0.00     0.074 A 
ATOM     35  C   UNL A   1      43.598  26.959  31.225  1.00  0.00     0.031 C 
ATOM     36  C   UNL A   1      43.050  28.251  33.270  1.00  0.00     0.034 A 
BRANCH  23  37
ATOM     37  C   UNL A   1      39.255  32.620  35.557  1.00  0.00     0.023 A 
ATOM     38  C   UNL A   1      39.671  33.964  35.646  1.00  0.00     0.031 A 
ATOM     39  C   UNL A   1      38.542  32.076  36.635  1.00  0.00     0.131 A 
ATOM     40  C   UNL A   1      39.466  34.679  36.832  1.00  0.00     0.055 A 
ATOM     41  C   UNL A   1      38.255  32.826  37.775  1.00  0.00     0.041 A 
ATOM     42  F   UNL A   1      38.159  30.789  36.621  1.00  0.00    -0.206 F 
ATOM     43  C   UNL A   1      38.737  34.128  37.889  1.00  0.00     0.022 A 
BRANCH  40  44
ATOM     44  S   UNL A   1      40.342  36.253  37.056  1.00  0.00     0.124 S 
ATOM     45  O   UNL A   1      40.148  36.886  35.752  1.00  0.00    -0.237 OA
ATOM     46  O   UNL A   1      39.623  36.860  38.171  1.00  0.00    -0.237 OA
ATOM     47  O   UNL A   1      41.714  35.844  37.345  1.00  0.00    -0.744 OA
ENDBRANCH  40  44
ENDBRANCH  23  37
BRANCH  24  48
ATOM     48  C   UNL A   1      41.673  27.095  27.465  1.00  0.00     0.023 A 
ATOM     49  C   UNL A   1      41.404  25.715  27.435  1.00  0.00     0.031 A 
ATOM     50  C   UNL A   1      42.385  27.643  26.381  1.00  0.00     0.131 A 
ATOM     51  C   UNL A   1      41.897  24.923  26.384  1.00  0.00     0.055 A 
ATOM     52  C   UNL A   1      42.827  26.859  25.311  1.00  0.00     0.041 A 
ATOM     53  F   UNL A   1      42.672  28.954  26.350  1.00  0.00    -0.206 F 
ATOM     54  C   UNL A   1      42.599  25.487  25.316  1.00  0.00     0.022 A 
BRANCH  51  55
ATOM     55  S   UNL A   1      41.705  23.120  26.486  1.00  0.00     0.124 S 
ATOM     56  O   UNL A   1      42.414  22.816  27.722  1.00  0.00    -0.237 OA
ATOM     57  O   UNL A   1      40.253  22.973  26.525  1.00  0.00    -0.237 OA
ATOM     58  O   UNL A   1      42.344  22.638  25.263  1.00  0.00    -0.744 OA
ENDBRANCH  51  55
ENDBRANCH  24  48
BRANCH  36  59
ATOM     59  C   UNL A   1      44.114  27.465  33.992  1.00  0.00     0.023 A 
ATOM     60  C   UNL A   1      43.858  26.196  34.537  1.00  0.00     0.031 A 
ATOM     61  C   UNL A   1      45.411  27.993  34.119  1.00  0.00     0.131 A 
ATOM     62  C   UNL A   1      44.868  25.524  35.238  1.00  0.00     0.055 A 
ATOM     63  C   UNL A   1      46.434  27.284  34.748  1.00  0.00     0.041 A 
ATOM     64  F   UNL A   1      45.709  29.204  33.619  1.00  0.00    -0.206 F 
ATOM     65  C   UNL A   1      46.161  26.049  35.324  1.00  0.00     0.022 A 
BRANCH  62  66
ATOM     66  S   UNL A   1      44.440  24.006  36.128  1.00  0.00     0.124 S 
ATOM     67  O   UNL A   1      45.614  23.172  35.884  1.00  0.00    -0.237 OA
ATOM     68  O   UNL A   1      44.272  24.484  37.496  1.00  0.00    -0.237 OA
ATOM     69  O   UNL A   1      43.214  23.558  35.472  1.00  0.00    -0.744 OA
ENDBRANCH  62  66
ENDBRANCH  36  59
ENDBRANCH  10  11
ENDBRANCH   3   5
ENDBRANCH   2   3
ENDBRANCH   1   2
BRANCH   1  70
ATOM     70  C   UNL A   1      31.196  31.793  26.557  1.00  0.00     0.274 C 
BRANCH  70  71
ATOM     71  O   UNL A   1      31.390  30.237  26.055  1.00  0.00    -0.460 OA
BRANCH  71  72
ATOM     72  C   UNL A   1      31.752  28.394  25.834  1.00  0.00     0.334 C 
ATOM     73  O   UNL A   1      32.763  27.774  26.263  1.00  0.00    -0.250 OA
BRANCH  72  74
ATOM     74  C   UNL A   1      30.737  27.422  25.102  1.00  0.00     0.252 C 
ATOM     75  C   UNL A   1      31.143  25.962  25.504  1.00  0.00     0.298 C 
ATOM     76  N   UNL A   1      30.912  27.654  23.655  1.00  0.00    -0.300 N 
ATOM     77  N   UNL A   1      30.454  24.923  24.712  1.00  0.00    -0.343 N 
ATOM     78  C   UNL A   1      30.353  26.586  22.810  1.00  0.00     0.183 C 
ATOM     79  C   UNL A   1      30.735  25.168  23.285  1.00  0.00     0.282 C 
ATOM     80  H   UNL A   1      29.449  24.970  24.878  1.00  0.00     0.346 HD
ATOM     81  H   UNL A   1      30.786  23.997  24.982  1.00  0.00     0.346 HD
BRANCH  76  82
ATOM     82  C   UNL A   1      31.438  28.780  23.064  1.00  0.00     0.318 C 
ATOM     83  O   UNL A   1      32.608  28.824  22.678  1.00  0.00    -0.249 OA
ATOM     84  N   UNL A   1      30.712  29.918  22.873  1.00  0.00    -0.333 N 
ATOM     85  H   UNL A   1      31.278  30.692  22.650  1.00  0.00     0.165 HD
BRANCH  84  86
ATOM     86  C   UNL A   1      29.272  30.265  22.923  1.00  0.00     0.112 C 
ATOM     87  C   UNL A   1      28.311  30.341  21.157  1.00  0.00     0.056 C 
ATOM     88  C   UNL A   1      29.093  32.036  23.808  1.00  0.00     0.185 C 
ATOM     89  C   UNL A   1      27.861  32.298  20.854  1.00  0.00     0.162 C 
ATOM     90  O   UNL A   1      28.477  33.239  22.431  1.00  0.00    -0.379 OA
ENDBRANCH  84  86
ENDBRANCH  76  82
ENDBRANCH  72  74
ENDBRANCH  71  72
ENDBRANCH  70  71
ENDBRANCH   1  70
TORSDOF 16
ENDMDL
MODEL 2
REMARK VINA RESULT:     -12.3      1.200      2.793
REMARK SMILES O=C(OCCOC(=O)[C@@H]1C[NH2+]CCN1C(=O)N[C@@H]1CCOC1)c1ccc(-c2c3nc(c(-c4cc(S(=O)(=O)[O-])ccc4F)c4ccc([nH]4)c(-c4cc(S(=O)(=O)[O-])ccc4F)c4nc(c(-c5cc(S(=O)(=O)[O-])ccc5F)c5ccc2[nH]5)C=C4)C=C3)cc1
REMARK SMILES IDX 4 1 3 2 2 3 1 4 23 5 24 6 85 7 25 8 84 9 26 10 27 11 28 12
REMARK SMILES IDX 78 13 29 14 83 15 77 16 79 17 30 18 82 19 76 20 75 21 31 23
REMARK SMILES IDX 63 24 43 25 62 26 44 27 47 28 61 29 80 30 45 31 46 32 60 34
REMARK SMILES IDX 81 35 48 36 32 37 33 38 41 39 34 40 40 41 42 42 39 43 35 44
REMARK SMILES IDX 36 45 37 46 38 47 64 48 65 49 73 50 66 51 72 52 74 53 71 54
REMARK SMILES IDX 67 55 68 56 69 57 70 58 49 59 50 60 58 61 51 62 57 63 59 64
REMARK SMILES IDX 56 65 52 66 53 67 54 68 55 69 5 70 6 71 7 72 8 73 9 74 10 75
REMARK SMILES IDX 14 76 11 77 13 78 12 79 15 82 16 83 17 84 18 86 19 87 22 88
REMARK SMILES IDX 20 89 21 90
REMARK H PARENT 79 22 47 33 11 80 11 81 17 85
REMARK Flexibility Score: inf
ROOT
ATOM      1  C   UNL A   1      31.474  32.371  26.893  1.00  0.00     0.275 C 
ENDROOT
BRANCH   1   2
ATOM      2  O   UNL A   1      32.447  33.407  27.102  1.00  0.00    -0.458 OA
BRANCH   2   3
ATOM      3  C   UNL A   1      33.140  33.738  28.226  1.00  0.00     0.338 C 
ATOM      4  O   UNL A   1      32.827  34.742  28.860  1.00  0.00    -0.246 OA
BRANCH   3   5
ATOM      5  C   UNL A   1      34.399  33.033  28.572  1.00  0.00     0.060 A 
ATOM      6  C   UNL A   1      34.439  31.738  29.087  1.00  0.00     0.016 A 
ATOM      7  C   UNL A   1      35.607  33.707  28.300  1.00  0.00     0.016 A 
ATOM      8  C   UNL A   1      35.658  31.074  29.223  1.00  0.00     0.010 A 
ATOM      9  C   UNL A   1      36.833  33.043  28.425  1.00  0.00     0.010 A 
ATOM     10  C   UNL A   1      36.862  31.723  28.907  1.00  0.00    -0.014 A 
BRANCH  10  11
ATOM     11  C   UNL A   1      38.103  31.164  29.495  1.00  0.00     0.031 A 
ATOM     12  C   UNL A   1      38.378  31.586  30.909  1.00  0.00     0.074 A 
ATOM     13  C   UNL A   1      38.871  30.240  28.886  1.00  0.00     0.049 A 
ATOM     14  N   UNL A   1      39.245  31.117  31.760  1.00  0.00    -0.248 NA
ATOM     15  C   UNL A   1      37.535  32.674  31.438  1.00  0.00     0.031 C 
ATOM     16  C   UNL A   1      38.673  29.737  27.535  1.00  0.00     0.029 A 
ATOM     17  N   UNL A   1      39.962  29.537  29.332  1.00  0.00    -0.354 N 
ATOM     18  C   UNL A   1      39.015  31.819  32.935  1.00  0.00     0.074 A 
ATOM     19  C   UNL A   1      38.002  32.808  32.663  1.00  0.00     0.031 C 
ATOM     20  C   UNL A   1      39.594  28.799  27.255  1.00  0.00     0.029 A 
ATOM     21  C   UNL A   1      40.462  28.636  28.414  1.00  0.00     0.049 A 
ATOM     22  H   UNL A   1      40.353  29.664  30.226  1.00  0.00     0.167 HD
ATOM     23  C   UNL A   1      39.569  31.626  34.152  1.00  0.00     0.034 A 
ATOM     24  C   UNL A   1      41.495  27.774  28.511  1.00  0.00     0.034 A 
ATOM     25  C   UNL A   1      40.631  30.690  34.380  1.00  0.00     0.049 A 
ATOM     26  C   UNL A   1      42.219  27.697  29.837  1.00  0.00     0.074 A 
ATOM     27  C   UNL A   1      41.329  30.446  35.545  1.00  0.00     0.029 A 
ATOM     28  N   UNL A   1      41.176  29.869  33.399  1.00  0.00    -0.354 N 
ATOM     29  N   UNL A   1      41.955  28.331  30.958  1.00  0.00    -0.248 NA
ATOM     30  C   UNL A   1      43.357  26.775  29.919  1.00  0.00     0.031 C 
ATOM     31  C   UNL A   1      42.353  29.541  35.247  1.00  0.00     0.029 A 
ATOM     32  C   UNL A   1      42.231  29.144  33.923  1.00  0.00     0.049 A 
ATOM     33  H   UNL A   1      40.859  29.812  32.469  1.00  0.00     0.167 HD
ATOM     34  C   UNL A   1      42.865  27.844  31.893  1.00  0.00     0.074 A 
ATOM     35  C   UNL A   1      43.675  26.859  31.202  1.00  0.00     0.031 C 
ATOM     36  C   UNL A   1      43.016  28.168  33.203  1.00  0.00     0.034 A 
BRANCH  23  37
ATOM     37  C   UNL A   1      39.062  32.513  35.257  1.00  0.00     0.023 A 
ATOM     38  C   UNL A   1      39.513  33.841  35.391  1.00  0.00     0.031 A 
ATOM     39  C   UNL A   1      38.245  31.986  36.268  1.00  0.00     0.131 A 
ATOM     40  C   UNL A   1      39.234  34.556  36.563  1.00  0.00     0.055 A 
ATOM     41  C   UNL A   1      37.889  32.739  37.387  1.00  0.00     0.041 A 
ATOM     42  F   UNL A   1      37.823  30.713  36.212  1.00  0.00    -0.206 F 
ATOM     43  C   UNL A   1      38.402  34.023  37.551  1.00  0.00     0.022 A 
BRANCH  40  44
ATOM     44  S   UNL A   1      40.139  36.099  36.871  1.00  0.00     0.124 S 
ATOM     45  O   UNL A   1      41.492  35.603  37.113  1.00  0.00    -0.237 OA
ATOM     46  O   UNL A   1      39.943  36.835  35.626  1.00  0.00    -0.237 OA
ATOM     47  O   UNL A   1      39.469  36.662  38.041  1.00  0.00    -0.744 OA
ENDBRANCH  40  44
ENDBRANCH  23  37
BRANCH  24  48
ATOM     48  C   UNL A   1      41.924  26.924  27.356  1.00  0.00     0.023 A 
ATOM     49  C   UNL A   1      41.616  25.553  27.301  1.00  0.00     0.031 A 
ATOM     50  C   UNL A   1      42.733  27.451  26.333  1.00  0.00     0.131 A 
ATOM     51  C   UNL A   1      42.166  24.747  26.288  1.00  0.00     0.055 A 
ATOM     52  C   UNL A   1      43.233  26.656  25.297  1.00  0.00     0.041 A 
ATOM     53  F   UNL A   1      43.061  28.753  26.329  1.00  0.00    -0.206 F 
ATOM     54  C   UNL A   1      42.965  25.291  25.280  1.00  0.00     0.022 A 
BRANCH  51  55
ATOM     55  S   UNL A   1      41.912  22.950  26.369  1.00  0.00     0.124 S 
ATOM     56  O   UNL A   1      40.458  22.857  26.405  1.00  0.00    -0.237 OA
ATOM     57  O   UNL A   1      42.554  22.499  25.139  1.00  0.00    -0.237 OA
ATOM     58  O   UNL A   1      42.594  22.565  27.603  1.00  0.00    -0.744 OA
ENDBRANCH  51  55
ENDBRANCH  24  48
BRANCH  36  59
ATOM     59  C   UNL A   1      44.055  27.405  33.984  1.00  0.00     0.023 A 
ATOM     60  C   UNL A   1      43.816  26.109  34.468  1.00  0.00     0.031 A 
ATOM     61  C   UNL A   1      45.313  27.985  34.229  1.00  0.00     0.131 A 
ATOM     62  C   UNL A   1      44.798  25.459  35.226  1.00  0.00     0.055 A 
ATOM     63  C   UNL A   1      46.314  27.301  34.916  1.00  0.00     0.041 A 
ATOM     64  F   UNL A   1      45.592  29.223  33.791  1.00  0.00    -0.206 F 
ATOM     65  C   UNL A   1      46.055  26.036  35.432  1.00  0.00     0.022 A 
BRANCH  62  66
ATOM     66  S   UNL A   1      44.372  23.894  36.035  1.00  0.00     0.124 S 
ATOM     67  O   UNL A   1      45.356  22.980  35.461  1.00  0.00    -0.237 OA
ATOM     68  O   UNL A   1      44.548  24.214  37.447  1.00  0.00    -0.237 OA
ATOM     69  O   UNL A   1      42.991  23.658  35.618  1.00  0.00    -0.744 OA
ENDBRANCH  62  66
ENDBRANCH  36  59
ENDBRANCH  10  11
ENDBRANCH   3   5
ENDBRANCH   2   3
ENDBRANCH   1   2
BRANCH   1  70
ATOM     70  C   UNL A   1      31.868  30.871  26.800  1.00  0.00     0.274 C 
BRANCH  70  71
ATOM     71  O   UNL A   1      32.073  30.134  25.341  1.00  0.00    -0.460 OA
BRANCH  71  72
ATOM     72  C   UNL A   1      32.410  28.983  23.879  1.00  0.00     0.334 C 
ATOM     73  O   UNL A   1      33.533  28.753  23.352  1.00  0.00    -0.250 OA
BRANCH  72  74
ATOM     74  C   UNL A   1      31.260  28.132  23.200  1.00  0.00     0.252 C 
ATOM     75  C   UNL A   1      30.079  29.120  22.910  1.00  0.00     0.298 C 
ATOM     76  N   UNL A   1      30.874  27.099  24.182  1.00  0.00    -0.300 N 
ATOM     77  N   UNL A   1      28.831  28.441  22.504  1.00  0.00    -0.343 N 
ATOM     78  C   UNL A   1      29.575  26.468  23.900  1.00  0.00     0.183 C 
ATOM     79  C   UNL A   1      28.462  27.483  23.564  1.00  0.00     0.282 C 
ATOM     80  H   UNL A   1      28.978  27.944  21.626  1.00  0.00     0.346 HD
ATOM     81  H   UNL A   1      28.086  29.124  22.371  1.00  0.00     0.346 HD
BRANCH  76  82
ATOM     82  C   UNL A   1      31.641  26.635  25.225  1.00  0.00     0.318 C 
ATOM     83  O   UNL A   1      31.323  26.828  26.401  1.00  0.00    -0.249 OA
ATOM     84  N   UNL A   1      32.800  25.941  25.035  1.00  0.00    -0.333 N 
ATOM     85  H   UNL A   1      33.338  25.876  25.857  1.00  0.00     0.165 HD
BRANCH  84  86
ATOM     86  C   UNL A   1      33.442  25.265  23.884  1.00  0.00     0.112 C 
ATOM     87  C   UNL A   1      32.268  24.040  22.802  1.00  0.00     0.056 C 
ATOM     88  C   UNL A   1      34.984  24.212  24.566  1.00  0.00     0.185 C 
ATOM     89  C   UNL A   1      32.957  22.161  23.151  1.00  0.00     0.162 C 
ATOM     90  O   UNL A   1      34.497  22.363  24.308  1.00  0.00    -0.379 OA
ENDBRANCH  84  86
ENDBRANCH  76  82
ENDBRANCH  72  74
ENDBRANCH  71  72
ENDBRANCH  70  71
ENDBRANCH   1  70
TORSDOF 16
ENDMDL
MODEL 3
REMARK VINA RESULT:     -12.3      5.025     10.632
REMARK SMILES O=C(OCCOC(=O)[C@@H]1C[NH2+]CCN1C(=O)N[C@@H]1CCOC1)c1ccc(-c2c3nc(c(-c4cc(S(=O)(=O)[O-])ccc4F)c4ccc([nH]4)c(-c4cc(S(=O)(=O)[O-])ccc4F)c4nc(c(-c5cc(S(=O)(=O)[O-])ccc5F)c5ccc2[nH]5)C=C4)C=C3)cc1
REMARK SMILES IDX 4 1 3 2 2 3 1 4 23 5 24 6 85 7 25 8 84 9 26 10 27 11 28 12
REMARK SMILES IDX 78 13 29 14 83 15 77 16 79 17 30 18 82 19 76 20 75 21 31 23
REMARK SMILES IDX 63 24 43 25 62 26 44 27 47 28 61 29 80 30 45 31 46 32 60 34
REMARK SMILES IDX 81 35 48 36 32 37 33 38 41 39 34 40 40 41 42 42 39 43 35 44
REMARK SMILES IDX 36 45 37 46 38 47 64 48 65 49 73 50 66 51 72 52 74 53 71 54
REMARK SMILES IDX 67 55 68 56 69 57 70 58 49 59 50 60 58 61 51 62 57 63 59 64
REMARK SMILES IDX 56 65 52 66 53 67 54 68 55 69 5 70 6 71 7 72 8 73 9 74 10 75
REMARK SMILES IDX 14 76 11 77 13 78 12 79 15 82 16 83 17 84 18 86 19 87 22 88
REMARK SMILES IDX 20 89 21 90
REMARK H PARENT 79 22 47 33 11 80 11 81 17 85
REMARK Flexibility Score: inf
ROOT
ATOM      1  C   UNL A   1      37.487  22.614  25.907  1.00  0.00     0.275 C 
ENDROOT
BRANCH   1   2
ATOM      2  O   UNL A   1      38.829  22.101  25.882  1.00  0.00    -0.458 OA
BRANCH   2   3
ATOM      3  C   UNL A   1      39.933  22.516  26.563  1.00  0.00     0.338 C 
ATOM      4  O   UNL A   1      40.742  21.688  26.973  1.00  0.00    -0.246 OA
BRANCH   3   5
ATOM      5  C   UNL A   1      40.061  23.926  27.007  1.00  0.00     0.060 A 
ATOM      6  C   UNL A   1      40.392  24.975  26.150  1.00  0.00     0.016 A 
ATOM      7  C   UNL A   1      39.767  24.202  28.358  1.00  0.00     0.016 A 
ATOM      8  C   UNL A   1      40.322  26.295  26.597  1.00  0.00     0.010 A 
ATOM      9  C   UNL A   1      39.685  25.525  28.809  1.00  0.00     0.010 A 
ATOM     10  C   UNL A   1      39.982  26.579  27.929  1.00  0.00    -0.014 A 
BRANCH  10  11
ATOM     11  C   UNL A   1      40.369  27.911  28.453  1.00  0.00     0.031 A 
ATOM     12  C   UNL A   1      41.824  28.250  28.302  1.00  0.00     0.074 A 
ATOM     13  C   UNL A   1      39.489  28.823  28.907  1.00  0.00     0.049 A 
ATOM     14  N   UNL A   1      42.428  29.393  28.459  1.00  0.00    -0.248 NA
ATOM     15  C   UNL A   1      42.710  27.147  27.890  1.00  0.00     0.031 C 
ATOM     16  C   UNL A   1      38.057  28.609  29.060  1.00  0.00     0.029 A 
ATOM     17  N   UNL A   1      39.661  30.125  29.304  1.00  0.00    -0.354 N 
ATOM     18  C   UNL A   1      43.752  29.153  28.117  1.00  0.00     0.074 A 
ATOM     19  C   UNL A   1      43.883  27.743  27.842  1.00  0.00     0.031 C 
ATOM     20  C   UNL A   1      37.470  29.734  29.502  1.00  0.00     0.029 A 
ATOM     21  C   UNL A   1      38.492  30.759  29.674  1.00  0.00     0.049 A 
ATOM     22  H   UNL A   1      40.540  30.568  29.322  1.00  0.00     0.167 HD
ATOM     23  C   UNL A   1      44.764  30.039  27.999  1.00  0.00     0.034 A 
ATOM     24  C   UNL A   1      38.280  32.024  30.091  1.00  0.00     0.034 A 
ATOM     25  C   UNL A   1      44.630  31.421  28.356  1.00  0.00     0.049 A 
ATOM     26  C   UNL A   1      39.467  32.959  30.118  1.00  0.00     0.074 A 
ATOM     27  C   UNL A   1      45.592  32.410  28.351  1.00  0.00     0.029 A 
ATOM     28  N   UNL A   1      43.454  31.999  28.823  1.00  0.00    -0.354 N 
ATOM     29  N   UNL A   1      40.706  32.731  29.740  1.00  0.00    -0.248 NA
ATOM     30  C   UNL A   1      39.226  34.324  30.599  1.00  0.00     0.031 C 
ATOM     31  C   UNL A   1      45.021  33.563  28.898  1.00  0.00     0.029 A 
ATOM     32  C   UNL A   1      43.677  33.324  29.148  1.00  0.00     0.049 A 
ATOM     33  H   UNL A   1      42.591  31.534  28.909  1.00  0.00     0.167 HD
ATOM     34  C   UNL A   1      41.379  33.941  29.892  1.00  0.00     0.074 A 
ATOM     35  C   UNL A   1      40.403  34.893  30.386  1.00  0.00     0.031 C 
ATOM     36  C   UNL A   1      42.678  34.245  29.638  1.00  0.00     0.034 A 
BRANCH  23  37
ATOM     37  C   UNL A   1      46.084  29.477  27.543  1.00  0.00     0.023 A 
ATOM     38  C   UNL A   1      46.308  29.143  26.192  1.00  0.00     0.031 A 
ATOM     39  C   UNL A   1      47.067  29.131  28.482  1.00  0.00     0.131 A 
ATOM     40  C   UNL A   1      47.433  28.387  25.839  1.00  0.00     0.055 A 
ATOM     41  C   UNL A   1      48.234  28.464  28.107  1.00  0.00     0.041 A 
ATOM     42  F   UNL A   1      46.886  29.387  29.787  1.00  0.00    -0.206 F 
ATOM     43  C   UNL A   1      48.412  28.068  26.783  1.00  0.00     0.022 A 
BRANCH  40  44
ATOM     44  S   UNL A   1      47.494  27.650  24.181  1.00  0.00     0.124 S 
ATOM     45  O   UNL A   1      46.724  28.617  23.401  1.00  0.00    -0.237 OA
ATOM     46  O   UNL A   1      48.927  27.608  23.907  1.00  0.00    -0.237 OA
ATOM     47  O   UNL A   1      46.854  26.350  24.360  1.00  0.00    -0.744 OA
ENDBRANCH  40  44
ENDBRANCH  23  37
BRANCH  24  48
ATOM     48  C   UNL A   1      36.926  32.495  30.520  1.00  0.00     0.023 A 
ATOM     49  C   UNL A   1      36.003  33.015  29.595  1.00  0.00     0.031 A 
ATOM     50  C   UNL A   1      36.568  32.523  31.881  1.00  0.00     0.131 A 
ATOM     51  C   UNL A   1      34.804  33.596  30.044  1.00  0.00     0.055 A 
ATOM     52  C   UNL A   1      35.351  33.054  32.319  1.00  0.00     0.041 A 
ATOM     53  F   UNL A   1      37.405  32.041  32.813  1.00  0.00    -0.206 F 
ATOM     54  C   UNL A   1      34.468  33.611  31.400  1.00  0.00     0.022 A 
BRANCH  51  55
ATOM     55  S   UNL A   1      33.737  34.437  28.839  1.00  0.00     0.124 S 
ATOM     56  O   UNL A   1      32.613  34.846  29.673  1.00  0.00    -0.237 OA
ATOM     57  O   UNL A   1      34.606  35.508  28.362  1.00  0.00    -0.237 OA
ATOM     58  O   UNL A   1      33.441  33.394  27.859  1.00  0.00    -0.744 OA
ENDBRANCH  51  55
ENDBRANCH  24  48
BRANCH  36  59
ATOM     59  C   UNL A   1      43.097  35.680  29.833  1.00  0.00     0.023 A 
ATOM     60  C   UNL A   1      42.915  36.649  28.834  1.00  0.00     0.031 A 
ATOM     61  C   UNL A   1      43.672  36.082  31.052  1.00  0.00     0.131 A 
ATOM     62  C   UNL A   1      43.362  37.959  29.047  1.00  0.00     0.055 A 
ATOM     63  C   UNL A   1      44.042  37.405  31.288  1.00  0.00     0.041 A 
ATOM     64  F   UNL A   1      43.871  35.194  32.040  1.00  0.00    -0.206 F 
ATOM     65  C   UNL A   1      43.901  38.349  30.277  1.00  0.00     0.022 A 
BRANCH  62  66
ATOM     66  S   UNL A   1      43.331  39.122  27.658  1.00  0.00     0.124 S 
ATOM     67  O   UNL A   1      44.570  38.791  26.959  1.00  0.00    -0.237 OA
ATOM     68  O   UNL A   1      42.096  38.755  26.972  1.00  0.00    -0.237 OA
ATOM     69  O   UNL A   1      43.316  40.431  28.307  1.00  0.00    -0.744 OA
ENDBRANCH  62  66
ENDBRANCH  36  59
ENDBRANCH  10  11
ENDBRANCH   3   5
ENDBRANCH   2   3
ENDBRANCH   1   2
BRANCH   1  70
ATOM     70  C   UNL A   1      36.977  23.650  24.868  1.00  0.00     0.274 C 
BRANCH  70  71
ATOM     71  O   UNL A   1      35.556  24.452  25.093  1.00  0.00    -0.460 OA
BRANCH  71  72
ATOM     72  C   UNL A   1      34.049  25.593  25.060  1.00  0.00     0.334 C 
ATOM     73  O   UNL A   1      33.865  26.610  25.784  1.00  0.00    -0.250 OA
BRANCH  72  74
ATOM     74  C   UNL A   1      32.861  25.385  24.033  1.00  0.00     0.252 C 
ATOM     75  C   UNL A   1      32.190  26.786  23.830  1.00  0.00     0.298 C 
ATOM     76  N   UNL A   1      31.932  24.426  24.664  1.00  0.00    -0.300 N 
ATOM     77  N   UNL A   1      30.911  26.724  23.094  1.00  0.00    -0.343 N 
ATOM     78  C   UNL A   1      30.594  24.405  24.051  1.00  0.00     0.183 C 
ATOM     79  C   UNL A   1      30.006  25.813  23.820  1.00  0.00     0.282 C 
ATOM     80  H   UNL A   1      31.071  26.371  22.150  1.00  0.00     0.346 HD
ATOM     81  H   UNL A   1      30.497  27.653  23.028  1.00  0.00     0.346 HD
BRANCH  76  82
ATOM     82  C   UNL A   1      32.235  23.527  25.660  1.00  0.00     0.318 C 
ATOM     83  O   UNL A   1      31.807  23.661  26.809  1.00  0.00    -0.249 OA
ATOM     84  N   UNL A   1      33.030  22.438  25.452  1.00  0.00    -0.333 N 
ATOM     85  H   UNL A   1      33.330  22.026  26.293  1.00  0.00     0.165 HD
BRANCH  84  86
ATOM     86  C   UNL A   1      33.549  21.731  24.258  1.00  0.00     0.112 C 
ATOM     87  C   UNL A   1      32.177  20.856  23.074  1.00  0.00     0.056 C 
ATOM     88  C   UNL A   1      34.827  20.337  24.871  1.00  0.00     0.185 C 
ATOM     89  C   UNL A   1      32.460  18.855  23.283  1.00  0.00     0.162 C 
ATOM     90  O   UNL A   1      33.979  18.651  24.467  1.00  0.00    -0.379 OA
ENDBRANCH  84  86
ENDBRANCH  76  82
ENDBRANCH  72  74
ENDBRANCH  71  72
ENDBRANCH  70  71
ENDBRANCH   1  70
TORSDOF 16
ENDMDL
