MODEL 1
REMARK VINA RESULT:     -11.9      0.000      0.000
REMARK SMILES CC(C)[C@@H](NC(=O)/C(=C\c1ccccc1F)NC(=O)c1ccccc1)C(=O)OCCOC(=O)c1ccc(-c2c3nc(c(-c4cc(S(=O)(=O)[O-])ccc4F)c4ccc([nH]4)c(-c4cc(S(=O)(=O)[O-])ccc4F)c4nc(c(-c5cc(S(=O)(=O)[O-])ccc5F)c5ccc2[nH]5)C=C4)C=C3)cc1
REMARK SMILES IDX 29 1 28 2 26 3 27 4 4 5 2 6 1 7 3 8 5 9 6 10 7 12 8 13 9 14
REMARK SMILES IDX 17 15 18 16 19 18 20 19 21 20 25 21 22 22 24 23 23 24 10 25
REMARK SMILES IDX 11 26 15 27 12 28 14 29 16 30 13 31 30 32 31 33 32 34 33 35
REMARK SMILES IDX 34 36 35 37 96 38 36 39 95 40 37 41 38 42 39 43 89 44 40 45
REMARK SMILES IDX 94 46 88 47 90 48 41 49 93 50 87 51 86 52 42 54 74 55 54 56
REMARK SMILES IDX 73 57 55 58 58 59 72 60 91 61 56 62 57 63 71 65 92 66 59 67
REMARK SMILES IDX 43 68 44 69 52 70 45 71 51 72 53 73 50 74 46 75 47 76 48 77
REMARK SMILES IDX 49 78 75 79 76 80 84 81 77 82 83 83 85 84 82 85 78 86 79 87
REMARK SMILES IDX 80 88 81 89 60 90 61 91 69 92 62 93 68 94 70 95 67 96 63 97
REMARK SMILES IDX 64 98 65 99 66 100
REMARK H PARENT 5 11 17 17 90 53 58 64
REMARK Flexibility Score: inf
ROOT
ATOM      1  C   UNL A   1      31.447  28.572  25.075  1.00  0.00     0.274 C 
ENDROOT
BRANCH   1   2
ATOM      2  O   UNL A   1      32.444  27.893  24.285  1.00  0.00    -0.461 OA
BRANCH   2   3
ATOM      3  C   UNL A   1      33.110  26.852  24.883  1.00  0.00     0.329 C 
ATOM      4  O   UNL A   1      33.751  26.941  25.923  1.00  0.00    -0.250 OA
BRANCH   3   5
ATOM      5  C   UNL A   1      32.850  25.544  24.095  1.00  0.00     0.195 C 
BRANCH   5   6
ATOM      6  C   UNL A   1      31.801  25.658  22.969  1.00  0.00     0.017 C 
ATOM      7  C   UNL A   1      32.473  25.529  21.587  1.00  0.00     0.010 C 
ATOM      8  C   UNL A   1      30.759  24.539  23.087  1.00  0.00     0.010 C 
ENDBRANCH   5   6
BRANCH   5   9
ATOM      9  N   UNL A   1      34.083  24.884  23.650  1.00  0.00    -0.337 N 
ATOM     10  C   UNL A   1      34.456  23.586  23.885  1.00  0.00     0.268 C 
ATOM     11  H   UNL A   1      34.712  25.434  23.128  1.00  0.00     0.164 HD
ATOM     12  O   UNL A   1      35.234  23.018  23.127  1.00  0.00    -0.268 OA
BRANCH  10  13
ATOM     13  C   UNL A   1      33.983  22.941  25.145  1.00  0.00     0.107 C 
ATOM     14  C   UNL A   1      34.877  22.503  26.055  1.00  0.00     0.043 C 
BRANCH  13  15
ATOM     15  N   UNL A   1      32.631  22.719  25.366  1.00  0.00    -0.317 N 
ATOM     16  C   UNL A   1      31.817  21.609  25.258  1.00  0.00     0.255 C 
ATOM     17  H   UNL A   1      32.150  23.525  25.660  1.00  0.00     0.170 HD
ATOM     18  O   UNL A   1      30.634  21.693  25.591  1.00  0.00    -0.269 OA
BRANCH  16  19
ATOM     19  C   UNL A   1      32.280  20.343  24.671  1.00  0.00     0.040 A 
ATOM     20  C   UNL A   1      32.824  19.377  25.523  1.00  0.00     0.014 A 
ATOM     21  C   UNL A   1      32.209  20.120  23.294  1.00  0.00     0.014 A 
ATOM     22  C   UNL A   1      33.216  18.143  25.004  1.00  0.00     0.001 A 
ATOM     23  C   UNL A   1      32.579  18.874  22.784  1.00  0.00     0.001 A 
ATOM     24  C   UNL A   1      33.071  17.884  23.639  1.00  0.00     0.000 A 
ENDBRANCH  16  19
ENDBRANCH  13  15
BRANCH  14  25
ATOM     25  C   UNL A   1      36.353  22.543  25.976  1.00  0.00     0.012 A 
ATOM     26  C   UNL A   1      37.026  23.729  26.326  1.00  0.00     0.011 A 
ATOM     27  C   UNL A   1      37.128  21.460  25.569  1.00  0.00     0.130 A 
ATOM     28  C   UNL A   1      38.417  23.825  26.311  1.00  0.00     0.001 A 
ATOM     29  C   UNL A   1      38.523  21.548  25.537  1.00  0.00     0.040 A 
ATOM     30  F   UNL A   1      36.542  20.320  25.184  1.00  0.00    -0.206 F 
ATOM     31  C   UNL A   1      39.167  22.728  25.917  1.00  0.00     0.003 A 
ENDBRANCH  14  25
ENDBRANCH  10  13
ENDBRANCH   5   9
ENDBRANCH   3   5
ENDBRANCH   2   3
ENDBRANCH   1   2
BRANCH   1  32
ATOM     32  C   UNL A   1      31.920  29.998  25.434  1.00  0.00     0.275 C 
BRANCH  32  33
ATOM     33  O   UNL A   1      32.365  30.098  26.809  1.00  0.00    -0.458 OA
BRANCH  33  34
ATOM     34  C   UNL A   1      33.017  31.270  27.110  1.00  0.00     0.338 C 
ATOM     35  O   UNL A   1      32.514  32.374  27.066  1.00  0.00    -0.246 OA
BRANCH  34  36
ATOM     36  C   UNL A   1      34.390  31.012  27.659  1.00  0.00     0.060 A 
ATOM     37  C   UNL A   1      34.826  29.732  27.975  1.00  0.00     0.016 A 
ATOM     38  C   UNL A   1      35.237  32.081  27.968  1.00  0.00     0.016 A 
ATOM     39  C   UNL A   1      35.973  29.535  28.762  1.00  0.00     0.010 A 
ATOM     40  C   UNL A   1      36.460  31.862  28.641  1.00  0.00     0.010 A 
ATOM     41  C   UNL A   1      36.834  30.587  29.102  1.00  0.00    -0.014 A 
BRANCH  41  42
ATOM     42  C   UNL A   1      38.083  30.373  29.927  1.00  0.00     0.031 A 
ATOM     43  C   UNL A   1      39.240  29.550  29.388  1.00  0.00     0.074 A 
ATOM     44  C   UNL A   1      38.237  30.901  31.165  1.00  0.00     0.049 A 
ATOM     45  N   UNL A   1      40.222  28.971  30.036  1.00  0.00    -0.248 NA
ATOM     46  C   UNL A   1      39.293  29.347  27.931  1.00  0.00     0.031 C 
ATOM     47  C   UNL A   1      37.302  31.802  31.840  1.00  0.00     0.029 A 
ATOM     48  N   UNL A   1      39.256  30.754  32.086  1.00  0.00    -0.354 N 
ATOM     49  C   UNL A   1      40.955  28.265  29.084  1.00  0.00     0.074 A 
ATOM     50  C   UNL A   1      40.317  28.511  27.807  1.00  0.00     0.031 C 
ATOM     51  C   UNL A   1      37.812  32.175  33.022  1.00  0.00     0.029 A 
ATOM     52  C   UNL A   1      39.036  31.424  33.271  1.00  0.00     0.049 A 
ATOM     53  H   UNL A   1      40.065  30.220  31.912  1.00  0.00     0.167 HD
ATOM     54  C   UNL A   1      42.046  27.477  29.260  1.00  0.00     0.034 A 
ATOM     55  C   UNL A   1      39.670  31.388  34.461  1.00  0.00     0.034 A 
ATOM     56  C   UNL A   1      42.740  27.302  30.514  1.00  0.00     0.049 A 
ATOM     57  C   UNL A   1      40.821  30.444  34.669  1.00  0.00     0.074 A 
ATOM     58  C   UNL A   1      43.860  26.529  30.779  1.00  0.00     0.029 A 
ATOM     59  N   UNL A   1      42.404  27.924  31.706  1.00  0.00    -0.354 N 
ATOM     60  N   UNL A   1      41.387  29.637  33.805  1.00  0.00    -0.248 NA
ATOM     61  C   UNL A   1      41.386  30.368  36.025  1.00  0.00     0.031 C 
ATOM     62  C   UNL A   1      44.169  26.643  32.139  1.00  0.00     0.029 A 
ATOM     63  C   UNL A   1      43.279  27.535  32.709  1.00  0.00     0.049 A 
ATOM     64  H   UNL A   1      41.653  28.551  31.824  1.00  0.00     0.167 HD
ATOM     65  C   UNL A   1      42.371  28.956  34.515  1.00  0.00     0.074 A 
ATOM     66  C   UNL A   1      42.333  29.451  35.873  1.00  0.00     0.031 C 
ATOM     67  C   UNL A   1      43.228  28.005  34.070  1.00  0.00     0.034 A 
BRANCH  54  68
ATOM     68  C   UNL A   1      42.540  26.670  28.083  1.00  0.00     0.023 A 
ATOM     69  C   UNL A   1      43.731  26.973  27.407  1.00  0.00     0.031 A 
ATOM     70  C   UNL A   1      41.818  25.531  27.676  1.00  0.00     0.131 A 
ATOM     71  C   UNL A   1      44.147  26.165  26.336  1.00  0.00     0.055 A 
ATOM     72  C   UNL A   1      42.269  24.697  26.652  1.00  0.00     0.041 A 
ATOM     73  F   UNL A   1      40.667  25.202  28.283  1.00  0.00    -0.206 F 
ATOM     74  C   UNL A   1      43.439  25.016  25.972  1.00  0.00     0.022 A 
BRANCH  71  75
ATOM     75  S   UNL A   1      45.597  26.673  25.372  1.00  0.00     0.124 S 
ATOM     76  O   UNL A   1      46.547  27.015  26.429  1.00  0.00    -0.237 OA
ATOM     77  O   UNL A   1      45.905  25.474  24.603  1.00  0.00    -0.237 OA
ATOM     78  O   UNL A   1      45.110  27.808  24.590  1.00  0.00    -0.744 OA
ENDBRANCH  71  75
ENDBRANCH  54  68
BRANCH  55  79
ATOM     79  C   UNL A   1      39.140  32.190  35.602  1.00  0.00     0.023 A 
ATOM     80  C   UNL A   1      38.417  31.586  36.641  1.00  0.00     0.031 A 
ATOM     81  C   UNL A   1      39.370  33.577  35.670  1.00  0.00     0.131 A 
ATOM     82  C   UNL A   1      37.949  32.371  37.708  1.00  0.00     0.055 A 
ATOM     83  C   UNL A   1      38.943  34.342  36.754  1.00  0.00     0.041 A 
ATOM     84  F   UNL A   1      40.053  34.200  34.696  1.00  0.00    -0.206 F 
ATOM     85  C   UNL A   1      38.225  33.739  37.782  1.00  0.00     0.022 A 
BRANCH  82  86
ATOM     86  S   UNL A   1      36.951  31.583  39.001  1.00  0.00     0.124 S 
ATOM     87  O   UNL A   1      36.788  30.235  38.469  1.00  0.00    -0.237 OA
ATOM     88  O   UNL A   1      37.810  31.711  40.174  1.00  0.00    -0.237 OA
ATOM     89  O   UNL A   1      35.735  32.394  39.033  1.00  0.00    -0.744 OA
ENDBRANCH  82  86
ENDBRANCH  55  79
BRANCH  67  90
ATOM     90  C   UNL A   1      44.218  27.444  35.054  1.00  0.00     0.023 A 
ATOM     91  C   UNL A   1      45.422  28.106  35.340  1.00  0.00     0.031 A 
ATOM     92  C   UNL A   1      43.930  26.253  35.744  1.00  0.00     0.131 A 
ATOM     93  C   UNL A   1      46.310  27.561  36.280  1.00  0.00     0.055 A 
ATOM     94  C   UNL A   1      44.801  25.733  36.702  1.00  0.00     0.041 A 
ATOM     95  F   UNL A   1      42.790  25.585  35.506  1.00  0.00    -0.206 F 
ATOM     96  C   UNL A   1      46.000  26.387  36.974  1.00  0.00     0.022 A 
BRANCH  93  97
ATOM     97  S   UNL A   1      47.890  28.399  36.588  1.00  0.00     0.124 S 
ATOM     98  O   UNL A   1      48.792  27.676  35.697  1.00  0.00    -0.237 OA
ATOM     99  O   UNL A   1      47.596  29.779  36.216  1.00  0.00    -0.237 OA
ATOM    100  O   UNL A   1      48.121  28.182  38.015  1.00  0.00    -0.744 OA
ENDBRANCH  93  97
ENDBRANCH  67  90
ENDBRANCH  41  42
ENDBRANCH  34  36
ENDBRANCH  33  34
ENDBRANCH  32  33
ENDBRANCH   1  32
TORSDOF 20
ENDMDL
MODEL 2
REMARK VINA RESULT:     -11.9      2.155      2.460
REMARK SMILES CC(C)[C@@H](NC(=O)/C(=C\c1ccccc1F)NC(=O)c1ccccc1)C(=O)OCCOC(=O)c1ccc(-c2c3nc(c(-c4cc(S(=O)(=O)[O-])ccc4F)c4ccc([nH]4)c(-c4cc(S(=O)(=O)[O-])ccc4F)c4nc(c(-c5cc(S(=O)(=O)[O-])ccc5F)c5ccc2[nH]5)C=C4)C=C3)cc1
REMARK SMILES IDX 29 1 28 2 26 3 27 4 4 5 2 6 1 7 3 8 5 9 6 10 7 12 8 13 9 14
REMARK SMILES IDX 17 15 18 16 19 18 20 19 21 20 25 21 22 22 24 23 23 24 10 25
REMARK SMILES IDX 11 26 15 27 12 28 14 29 16 30 13 31 30 32 31 33 32 34 33 35
REMARK SMILES IDX 34 36 35 37 96 38 36 39 95 40 37 41 38 42 39 43 89 44 40 45
REMARK SMILES IDX 94 46 88 47 90 48 41 49 93 50 87 51 86 52 42 54 74 55 54 56
REMARK SMILES IDX 73 57 55 58 58 59 72 60 91 61 56 62 57 63 71 65 92 66 59 67
REMARK SMILES IDX 43 68 44 69 52 70 45 71 51 72 53 73 50 74 46 75 47 76 48 77
REMARK SMILES IDX 49 78 75 79 76 80 84 81 77 82 83 83 85 84 82 85 78 86 79 87
REMARK SMILES IDX 80 88 81 89 60 90 61 91 69 92 62 93 68 94 70 95 67 96 63 97
REMARK SMILES IDX 64 98 65 99 66 100
REMARK H PARENT 5 11 17 17 90 53 58 64
REMARK Flexibility Score: inf
ROOT
ATOM      1  C   UNL A   1      31.358  28.685  24.420  1.00  0.00     0.274 C 
ENDROOT
BRANCH   1   2
ATOM      2  O   UNL A   1      32.226  27.622  24.865  1.00  0.00    -0.461 OA
BRANCH   2   3
ATOM      3  C   UNL A   1      33.126  27.131  23.951  1.00  0.00     0.329 C 
ATOM      4  O   UNL A   1      34.008  27.791  23.418  1.00  0.00    -0.250 OA
BRANCH   3   5
ATOM      5  C   UNL A   1      32.908  25.607  23.772  1.00  0.00     0.195 C 
BRANCH   5   6
ATOM      6  C   UNL A   1      31.722  25.219  22.865  1.00  0.00     0.017 C 
ATOM      7  C   UNL A   1      30.418  25.136  23.684  1.00  0.00     0.010 C 
ATOM      8  C   UNL A   1      31.517  26.270  21.766  1.00  0.00     0.010 C 
ENDBRANCH   5   6
BRANCH   5   9
ATOM      9  N   UNL A   1      34.139  24.886  23.428  1.00  0.00    -0.337 N 
ATOM     10  C   UNL A   1      34.486  23.617  23.813  1.00  0.00     0.268 C 
ATOM     11  H   UNL A   1      34.785  25.365  22.861  1.00  0.00     0.164 HD
ATOM     12  O   UNL A   1      35.269  22.957  23.138  1.00  0.00    -0.268 OA
BRANCH  10  13
ATOM     13  C   UNL A   1      33.980  23.122  25.127  1.00  0.00     0.107 C 
ATOM     14  C   UNL A   1      34.850  22.801  26.107  1.00  0.00     0.043 C 
BRANCH  13  15
ATOM     15  N   UNL A   1      32.624  22.919  25.335  1.00  0.00    -0.317 N 
ATOM     16  C   UNL A   1      31.799  21.816  25.236  1.00  0.00     0.255 C 
ATOM     17  H   UNL A   1      32.147  23.735  25.610  1.00  0.00     0.170 HD
ATOM     18  O   UNL A   1      30.613  21.918  25.553  1.00  0.00    -0.269 OA
BRANCH  16  19
ATOM     19  C   UNL A   1      32.254  20.535  24.676  1.00  0.00     0.040 A 
ATOM     20  C   UNL A   1      32.874  19.620  25.533  1.00  0.00     0.014 A 
ATOM     21  C   UNL A   1      32.103  20.249  23.317  1.00  0.00     0.014 A 
ATOM     22  C   UNL A   1      33.263  18.373  25.043  1.00  0.00     0.001 A 
ATOM     23  C   UNL A   1      32.471  18.990  22.839  1.00  0.00     0.001 A 
ATOM     24  C   UNL A   1      33.039  18.050  23.703  1.00  0.00     0.000 A 
ENDBRANCH  16  19
ENDBRANCH  13  15
BRANCH  14  25
ATOM     25  C   UNL A   1      36.327  22.842  26.065  1.00  0.00     0.012 A 
ATOM     26  C   UNL A   1      36.989  24.040  26.391  1.00  0.00     0.011 A 
ATOM     27  C   UNL A   1      37.114  21.747  25.715  1.00  0.00     0.130 A 
ATOM     28  C   UNL A   1      38.380  24.139  26.409  1.00  0.00     0.001 A 
ATOM     29  C   UNL A   1      38.509  21.837  25.717  1.00  0.00     0.040 A 
ATOM     30  F   UNL A   1      36.539  20.593  25.354  1.00  0.00    -0.206 F 
ATOM     31  C   UNL A   1      39.142  23.030  26.072  1.00  0.00     0.003 A 
ENDBRANCH  14  25
ENDBRANCH  10  13
ENDBRANCH   5   9
ENDBRANCH   3   5
ENDBRANCH   2   3
ENDBRANCH   1   2
BRANCH   1  32
ATOM     32  C   UNL A   1      31.479  29.909  25.355  1.00  0.00     0.275 C 
BRANCH  32  33
ATOM     33  O   UNL A   1      32.483  29.717  26.382  1.00  0.00    -0.458 OA
BRANCH  33  34
ATOM     34  C   UNL A   1      32.971  30.883  26.921  1.00  0.00     0.338 C 
ATOM     35  O   UNL A   1      32.318  31.890  27.104  1.00  0.00    -0.246 OA
BRANCH  34  36
ATOM     36  C   UNL A   1      34.380  30.716  27.412  1.00  0.00     0.060 A 
ATOM     37  C   UNL A   1      34.942  29.463  27.618  1.00  0.00     0.016 A 
ATOM     38  C   UNL A   1      35.136  31.835  27.776  1.00  0.00     0.016 A 
ATOM     39  C   UNL A   1      36.129  29.318  28.356  1.00  0.00     0.010 A 
ATOM     40  C   UNL A   1      36.396  31.684  28.397  1.00  0.00     0.010 A 
ATOM     41  C   UNL A   1      36.901  30.419  28.751  1.00  0.00    -0.014 A 
BRANCH  41  42
ATOM     42  C   UNL A   1      38.191  30.265  29.523  1.00  0.00     0.031 A 
ATOM     43  C   UNL A   1      39.349  29.464  28.951  1.00  0.00     0.074 A 
ATOM     44  C   UNL A   1      38.384  30.828  30.740  1.00  0.00     0.049 A 
ATOM     45  N   UNL A   1      40.377  28.932  29.567  1.00  0.00    -0.248 NA
ATOM     46  C   UNL A   1      39.343  29.227  27.499  1.00  0.00     0.031 C 
ATOM     47  C   UNL A   1      37.453  31.716  31.435  1.00  0.00     0.029 A 
ATOM     48  N   UNL A   1      39.448  30.736  31.616  1.00  0.00    -0.354 N 
ATOM     49  C   UNL A   1      41.089  28.225  28.600  1.00  0.00     0.074 A 
ATOM     50  C   UNL A   1      40.387  28.419  27.347  1.00  0.00     0.031 C 
ATOM     51  C   UNL A   1      38.003  32.135  32.583  1.00  0.00     0.029 A 
ATOM     52  C   UNL A   1      39.260  31.428  32.794  1.00  0.00     0.049 A 
ATOM     53  H   UNL A   1      40.264  30.222  31.418  1.00  0.00     0.167 HD
ATOM     54  C   UNL A   1      42.211  27.476  28.744  1.00  0.00     0.034 A 
ATOM     55  C   UNL A   1      39.948  31.441  33.954  1.00  0.00     0.034 A 
ATOM     56  C   UNL A   1      42.965  27.354  29.969  1.00  0.00     0.049 A 
ATOM     57  C   UNL A   1      41.137  30.539  34.132  1.00  0.00     0.074 A 
ATOM     58  C   UNL A   1      44.120  26.622  30.201  1.00  0.00     0.029 A 
ATOM     59  N   UNL A   1      42.664  27.995  31.160  1.00  0.00    -0.354 N 
ATOM     60  N   UNL A   1      41.688  29.728  33.262  1.00  0.00    -0.248 NA
ATOM     61  C   UNL A   1      41.763  30.514  35.462  1.00  0.00     0.031 C 
ATOM     62  C   UNL A   1      44.487  26.780  31.542  1.00  0.00     0.029 A 
ATOM     63  C   UNL A   1      43.595  27.658  32.131  1.00  0.00     0.049 A 
ATOM     64  H   UNL A   1      41.900  28.601  31.298  1.00  0.00     0.167 HD
ATOM     65  C   UNL A   1      42.725  29.096  33.942  1.00  0.00     0.074 A 
ATOM     66  C   UNL A   1      42.732  29.624  35.289  1.00  0.00     0.031 C 
ATOM     67  C   UNL A   1      43.590  28.160  33.481  1.00  0.00     0.034 A 
BRANCH  54  68
ATOM     68  C   UNL A   1      42.677  26.656  27.565  1.00  0.00     0.023 A 
ATOM     69  C   UNL A   1      42.567  25.257  27.527  1.00  0.00     0.031 A 
ATOM     70  C   UNL A   1      43.188  27.312  26.428  1.00  0.00     0.131 A 
ATOM     71  C   UNL A   1      42.995  24.557  26.387  1.00  0.00     0.055 A 
ATOM     72  C   UNL A   1      43.553  26.615  25.276  1.00  0.00     0.041 A 
ATOM     73  F   UNL A   1      43.324  28.647  26.416  1.00  0.00    -0.206 F 
ATOM     74  C   UNL A   1      43.462  25.228  25.252  1.00  0.00     0.022 A 
BRANCH  71  75
ATOM     75  S   UNL A   1      42.999  22.744  26.428  1.00  0.00     0.124 S 
ATOM     76  O   UNL A   1      44.431  22.453  26.413  1.00  0.00    -0.237 OA
ATOM     77  O   UNL A   1      42.303  22.452  27.675  1.00  0.00    -0.237 OA
ATOM     78  O   UNL A   1      42.281  22.371  25.211  1.00  0.00    -0.744 OA
ENDBRANCH  71  75
ENDBRANCH  54  68
BRANCH  55  79
ATOM     79  C   UNL A   1      39.444  32.256  35.099  1.00  0.00     0.023 A 
ATOM     80  C   UNL A   1      39.912  33.558  35.325  1.00  0.00     0.031 A 
ATOM     81  C   UNL A   1      38.470  31.738  35.972  1.00  0.00     0.131 A 
ATOM     82  C   UNL A   1      39.402  34.302  36.401  1.00  0.00     0.055 A 
ATOM     83  C   UNL A   1      37.933  32.497  37.010  1.00  0.00     0.041 A 
ATOM     84  F   UNL A   1      37.995  30.494  35.798  1.00  0.00    -0.206 F 
ATOM     85  C   UNL A   1      38.401  33.789  37.231  1.00  0.00     0.022 A 
BRANCH  82  86
ATOM     86  S   UNL A   1      40.076  35.955  36.721  1.00  0.00     0.124 S 
ATOM     87  O   UNL A   1      39.349  36.343  37.924  1.00  0.00    -0.237 OA
ATOM     88  O   UNL A   1      41.499  35.680  36.889  1.00  0.00    -0.237 OA
ATOM     89  O   UNL A   1      39.729  36.702  35.513  1.00  0.00    -0.744 OA
ENDBRANCH  82  86
ENDBRANCH  55  79
BRANCH  67  90
ATOM     90  C   UNL A   1      44.640  27.655  34.432  1.00  0.00     0.023 A 
ATOM     91  C   UNL A   1      44.464  26.462  35.153  1.00  0.00     0.031 A 
ATOM     92  C   UNL A   1      45.850  28.355  34.586  1.00  0.00     0.131 A 
ATOM     93  C   UNL A   1      45.476  26.014  36.015  1.00  0.00     0.055 A 
ATOM     94  C   UNL A   1      46.867  27.887  35.419  1.00  0.00     0.041 A 
ATOM     95  F   UNL A   1      46.064  29.499  33.917  1.00  0.00    -0.206 F 
ATOM     96  C   UNL A   1      46.683  26.711  36.140  1.00  0.00     0.022 A 
BRANCH  93  97
ATOM     97  S   UNL A   1      45.202  24.505  36.984  1.00  0.00     0.124 S 
ATOM     98  O   UNL A   1      46.478  23.812  36.829  1.00  0.00    -0.237 OA
ATOM     99  O   UNL A   1      44.919  25.028  38.316  1.00  0.00    -0.237 OA
ATOM    100  O   UNL A   1      44.066  23.870  36.317  1.00  0.00    -0.744 OA
ENDBRANCH  93  97
ENDBRANCH  67  90
ENDBRANCH  41  42
ENDBRANCH  34  36
ENDBRANCH  33  34
ENDBRANCH  32  33
ENDBRANCH   1  32
TORSDOF 20
ENDMDL
MODEL 3
REMARK VINA RESULT:     -11.8      4.609      9.946
REMARK SMILES CC(C)[C@@H](NC(=O)/C(=C\c1ccccc1F)NC(=O)c1ccccc1)C(=O)OCCOC(=O)c1ccc(-c2c3nc(c(-c4cc(S(=O)(=O)[O-])ccc4F)c4ccc([nH]4)c(-c4cc(S(=O)(=O)[O-])ccc4F)c4nc(c(-c5cc(S(=O)(=O)[O-])ccc5F)c5ccc2[nH]5)C=C4)C=C3)cc1
REMARK SMILES IDX 29 1 28 2 26 3 27 4 4 5 2 6 1 7 3 8 5 9 6 10 7 12 8 13 9 14
REMARK SMILES IDX 17 15 18 16 19 18 20 19 21 20 25 21 22 22 24 23 23 24 10 25
REMARK SMILES IDX 11 26 15 27 12 28 14 29 16 30 13 31 30 32 31 33 32 34 33 35
REMARK SMILES IDX 34 36 35 37 96 38 36 39 95 40 37 41 38 42 39 43 89 44 40 45
REMARK SMILES IDX 94 46 88 47 90 48 41 49 93 50 87 51 86 52 42 54 74 55 54 56
REMARK SMILES IDX 73 57 55 58 58 59 72 60 91 61 56 62 57 63 71 65 92 66 59 67
REMARK SMILES IDX 43 68 44 69 52 70 45 71 51 72 53 73 50 74 46 75 47 76 48 77
REMARK SMILES IDX 49 78 75 79 76 80 84 81 77 82 83 83 85 84 82 85 78 86 79 87
REMARK SMILES IDX 80 88 81 89 60 90 61 91 69 92 62 93 68 94 70 95 67 96 63 97
REMARK SMILES IDX 64 98 65 99 66 100
REMARK H PARENT 5 11 17 17 90 53 58 64
REMARK Flexibility Score: inf
ROOT
ATOM      1  C   UNL A   1      34.870  22.943  24.290  1.00  0.00     0.274 C 
ENDROOT
BRANCH   1   2
ATOM      2  O   UNL A   1      34.754  23.859  25.398  1.00  0.00    -0.461 OA
BRANCH   2   3
ATOM      3  C   UNL A   1      33.663  23.708  26.218  1.00  0.00     0.329 C 
ATOM      4  O   UNL A   1      33.689  23.176  27.320  1.00  0.00    -0.250 OA
BRANCH   3   5
ATOM      5  C   UNL A   1      32.429  24.390  25.576  1.00  0.00     0.195 C 
BRANCH   5   6
ATOM      6  C   UNL A   1      31.277  23.435  25.201  1.00  0.00     0.017 C 
ATOM      7  C   UNL A   1      30.915  23.581  23.709  1.00  0.00     0.010 C 
ATOM      8  C   UNL A   1      31.685  21.976  25.441  1.00  0.00     0.010 C 
ENDBRANCH   5   6
BRANCH   5   9
ATOM      9  N   UNL A   1      31.966  25.564  26.324  1.00  0.00    -0.337 N 
ATOM     10  C   UNL A   1      31.635  26.791  25.810  1.00  0.00     0.268 C 
ATOM     11  H   UNL A   1      31.884  25.460  27.300  1.00  0.00     0.164 HD
ATOM     12  O   UNL A   1      30.858  27.525  26.411  1.00  0.00    -0.268 OA
BRANCH  10  13
ATOM     13  C   UNL A   1      32.340  27.245  24.575  1.00  0.00     0.107 C 
ATOM     14  C   UNL A   1      33.240  28.248  24.642  1.00  0.00     0.043 C 
BRANCH  13  15
ATOM     15  N   UNL A   1      32.031  26.696  23.339  1.00  0.00    -0.317 N 
ATOM     16  C   UNL A   1      31.120  27.019  22.354  1.00  0.00     0.255 C 
ATOM     17  H   UNL A   1      32.577  25.907  23.119  1.00  0.00     0.170 HD
ATOM     18  O   UNL A   1      31.113  26.375  21.303  1.00  0.00    -0.269 OA
BRANCH  16  19
ATOM     19  C   UNL A   1      30.086  28.047  22.538  1.00  0.00     0.040 A 
ATOM     20  C   UNL A   1      30.363  29.350  22.112  1.00  0.00     0.014 A 
ATOM     21  C   UNL A   1      28.869  27.742  23.152  1.00  0.00     0.014 A 
ATOM     22  C   UNL A   1      29.380  30.333  22.219  1.00  0.00     0.001 A 
ATOM     23  C   UNL A   1      27.880  28.725  23.233  1.00  0.00     0.001 A 
ATOM     24  C   UNL A   1      28.132  30.014  22.758  1.00  0.00     0.000 A 
ENDBRANCH  16  19
ENDBRANCH  13  15
BRANCH  14  25
ATOM     25  C   UNL A   1      33.640  29.036  25.827  1.00  0.00     0.012 A 
ATOM     26  C   UNL A   1      34.760  28.628  26.575  1.00  0.00     0.011 A 
ATOM     27  C   UNL A   1      32.963  30.176  26.253  1.00  0.00     0.130 A 
ATOM     28  C   UNL A   1      35.217  29.346  27.679  1.00  0.00     0.001 A 
ATOM     29  C   UNL A   1      33.403  30.897  27.367  1.00  0.00     0.040 A 
ATOM     30  F   UNL A   1      31.866  30.588  25.606  1.00  0.00    -0.206 F 
ATOM     31  C   UNL A   1      34.534  30.487  28.075  1.00  0.00     0.003 A 
ENDBRANCH  14  25
ENDBRANCH  10  13
ENDBRANCH   5   9
ENDBRANCH   3   5
ENDBRANCH   2   3
ENDBRANCH   1   2
BRANCH   1  32
ATOM     32  C   UNL A   1      35.584  21.646  24.731  1.00  0.00     0.275 C 
BRANCH  32  33
ATOM     33  O   UNL A   1      36.431  21.855  25.888  1.00  0.00    -0.458 OA
BRANCH  33  34
ATOM     34  C   UNL A   1      37.728  21.431  25.724  1.00  0.00     0.338 C 
ATOM     35  O   UNL A   1      38.053  20.354  25.267  1.00  0.00    -0.246 OA
BRANCH  34  36
ATOM     36  C   UNL A   1      38.710  22.526  26.027  1.00  0.00     0.060 A 
ATOM     37  C   UNL A   1      39.956  22.261  26.581  1.00  0.00     0.016 A 
ATOM     38  C   UNL A   1      38.348  23.865  25.853  1.00  0.00     0.016 A 
ATOM     39  C   UNL A   1      40.731  23.292  27.138  1.00  0.00     0.010 A 
ATOM     40  C   UNL A   1      39.197  24.905  26.292  1.00  0.00     0.010 A 
ATOM     41  C   UNL A   1      40.387  24.643  26.995  1.00  0.00    -0.014 A 
BRANCH  41  42
ATOM     42  C   UNL A   1      41.233  25.756  27.571  1.00  0.00     0.031 A 
ATOM     43  C   UNL A   1      40.633  26.776  28.524  1.00  0.00     0.074 A 
ATOM     44  C   UNL A   1      42.549  25.896  27.279  1.00  0.00     0.049 A 
ATOM     45  N   UNL A   1      41.071  27.968  28.849  1.00  0.00    -0.248 NA
ATOM     46  C   UNL A   1      39.375  26.406  29.191  1.00  0.00     0.031 C 
ATOM     47  C   UNL A   1      43.354  24.981  26.470  1.00  0.00     0.029 A 
ATOM     48  N   UNL A   1      43.451  26.877  27.641  1.00  0.00    -0.354 N 
ATOM     49  C   UNL A   1      40.104  28.525  29.683  1.00  0.00     0.074 A 
ATOM     50  C   UNL A   1      39.065  27.526  29.835  1.00  0.00     0.031 C 
ATOM     51  C   UNL A   1      44.627  25.400  26.451  1.00  0.00     0.029 A 
ATOM     52  C   UNL A   1      44.711  26.697  27.110  1.00  0.00     0.049 A 
ATOM     53  H   UNL A   1      43.216  27.635  28.224  1.00  0.00     0.167 HD
ATOM     54  C   UNL A   1      40.076  29.755  30.255  1.00  0.00     0.034 A 
ATOM     55  C   UNL A   1      45.795  27.499  27.061  1.00  0.00     0.034 A 
ATOM     56  C   UNL A   1      41.149  30.719  30.183  1.00  0.00     0.049 A 
ATOM     57  C   UNL A   1      45.722  28.892  27.620  1.00  0.00     0.074 A 
ATOM     58  C   UNL A   1      41.208  31.986  30.742  1.00  0.00     0.029 A 
ATOM     59  N   UNL A   1      42.359  30.520  29.538  1.00  0.00    -0.354 N 
ATOM     60  N   UNL A   1      44.727  29.476  28.243  1.00  0.00    -0.248 NA
ATOM     61  C   UNL A   1      46.899  29.753  27.423  1.00  0.00     0.031 C 
ATOM     62  C   UNL A   1      42.430  32.571  30.393  1.00  0.00     0.029 A 
ATOM     63  C   UNL A   1      43.158  31.646  29.667  1.00  0.00     0.049 A 
ATOM     64  H   UNL A   1      42.615  29.699  29.058  1.00  0.00     0.167 HD
ATOM     65  C   UNL A   1      45.158  30.772  28.509  1.00  0.00     0.074 A 
ATOM     66  C   UNL A   1      46.504  30.885  27.992  1.00  0.00     0.031 C 
ATOM     67  C   UNL A   1      44.489  31.774  29.129  1.00  0.00     0.034 A 
BRANCH  54  68
ATOM     68  C   UNL A   1      38.815  30.183  30.967  1.00  0.00     0.023 A 
ATOM     69  C   UNL A   1      37.963  31.176  30.462  1.00  0.00     0.031 A 
ATOM     70  C   UNL A   1      38.435  29.524  32.152  1.00  0.00     0.131 A 
ATOM     71  C   UNL A   1      36.790  31.507  31.160  1.00  0.00     0.055 A 
ATOM     72  C   UNL A   1      37.238  29.814  32.807  1.00  0.00     0.041 A 
ATOM     73  F   UNL A   1      39.219  28.572  32.684  1.00  0.00    -0.206 F 
ATOM     74  C   UNL A   1      36.409  30.815  32.314  1.00  0.00     0.022 A 
BRANCH  71  75
ATOM     75  S   UNL A   1      35.794  32.907  30.579  1.00  0.00     0.124 S 
ATOM     76  O   UNL A   1      36.263  33.983  31.451  1.00  0.00    -0.237 OA
ATOM     77  O   UNL A   1      36.180  33.012  29.177  1.00  0.00    -0.237 OA
ATOM     78  O   UNL A   1      34.419  32.474  30.818  1.00  0.00    -0.744 OA
ENDBRANCH  71  75
ENDBRANCH  54  68
BRANCH  55  79
ATOM     79  C   UNL A   1      47.016  27.042  26.336  1.00  0.00     0.023 A 
ATOM     80  C   UNL A   1      48.083  26.438  27.018  1.00  0.00     0.031 A 
ATOM     81  C   UNL A   1      47.120  27.193  24.941  1.00  0.00     0.131 A 
ATOM     82  C   UNL A   1      49.208  26.003  26.300  1.00  0.00     0.055 A 
ATOM     83  C   UNL A   1      48.219  26.719  24.228  1.00  0.00     0.041 A 
ATOM     84  F   UNL A   1      46.126  27.771  24.246  1.00  0.00    -0.206 F 
ATOM     85  C   UNL A   1      49.274  26.120  24.909  1.00  0.00     0.022 A 
BRANCH  82  86
ATOM     86  S   UNL A   1      50.607  25.294  27.211  1.00  0.00     0.124 S 
ATOM     87  O   UNL A   1      51.051  26.433  28.005  1.00  0.00    -0.237 OA
ATOM     88  O   UNL A   1      49.974  24.204  27.947  1.00  0.00    -0.237 OA
ATOM     89  O   UNL A   1      51.523  24.875  26.152  1.00  0.00    -0.744 OA
ENDBRANCH  82  86
ENDBRANCH  55  79
BRANCH  67  90
ATOM     90  C   UNL A   1      45.206  33.084  29.308  1.00  0.00     0.023 A 
ATOM     91  C   UNL A   1      44.920  34.193  28.496  1.00  0.00     0.031 A 
ATOM     92  C   UNL A   1      46.157  33.234  30.333  1.00  0.00     0.131 A 
ATOM     93  C   UNL A   1      45.596  35.404  28.708  1.00  0.00     0.055 A 
ATOM     94  C   UNL A   1      46.801  34.451  30.561  1.00  0.00     0.041 A 
ATOM     95  F   UNL A   1      46.462  32.203  31.136  1.00  0.00    -0.206 F 
ATOM     96  C   UNL A   1      46.524  35.544  29.745  1.00  0.00     0.022 A 
BRANCH  93  97
ATOM     97  S   UNL A   1      45.258  36.806  27.606  1.00  0.00     0.124 S 
ATOM     98  O   UNL A   1      44.750  37.806  28.540  1.00  0.00    -0.237 OA
ATOM     99  O   UNL A   1      46.569  37.081  27.028  1.00  0.00    -0.237 OA
ATOM    100  O   UNL A   1      44.270  36.274  26.668  1.00  0.00    -0.744 OA
ENDBRANCH  93  97
ENDBRANCH  67  90
ENDBRANCH  41  42
ENDBRANCH  34  36
ENDBRANCH  33  34
ENDBRANCH  32  33
ENDBRANCH   1  32
TORSDOF 20
ENDMDL
