MODEL 1
REMARK VINA RESULT:     -11.1      0.000      0.000
REMARK SMILES Nn1c(Cc2ccc(F)c(F)c2)nnc1SCC(=O)OCCOC(=O)c1ccc(-c2c3nc(c(-c4cc(S(=O)(=O)[O-])ccc4F)c4ccc([nH]4)c(-c4cc(S(=O)(=O)[O-])ccc4F)c4nc(c(-c5cc(S(=O)(=O)[O-])ccc5F)c5ccc2[nH]5)C=C4)C=C3)cc1
REMARK SMILES IDX 21 1 20 2 18 3 19 4 17 5 16 6 15 7 2 8 3 9 13 10 14 11 1 12
REMARK SMILES IDX 4 15 5 16 6 17 12 18 7 19 10 20 8 21 11 22 9 23 22 24 23 25
REMARK SMILES IDX 24 26 25 27 26 28 27 29 88 30 28 31 87 32 29 33 30 34 31 35
REMARK SMILES IDX 81 36 32 37 86 38 80 39 82 40 33 41 85 42 79 43 78 44 34 46
REMARK SMILES IDX 66 47 46 48 65 49 47 50 50 51 64 52 83 53 48 54 49 55 63 57
REMARK SMILES IDX 84 58 51 59 35 60 36 61 44 62 37 63 43 64 45 65 42 66 38 67
REMARK SMILES IDX 39 68 40 69 41 70 67 71 68 72 76 73 69 74 75 75 77 76 74 77
REMARK SMILES IDX 70 78 71 79 72 80 73 81 52 82 53 83 61 84 54 85 60 86 62 87
REMARK SMILES IDX 59 88 55 89 56 90 57 91 58 92
REMARK H PARENT 1 13 1 14 82 45 50 56
REMARK Flexibility Score: inf
ROOT
ATOM      1  C   UNL A   1      36.140  21.099  24.700  1.00  0.00     0.274 C 
ENDROOT
BRANCH   1   2
ATOM      2  O   UNL A   1      34.917  20.368  24.913  1.00  0.00    -0.461 OA
BRANCH   2   3
ATOM      3  C   UNL A   1      33.774  21.097  24.861  1.00  0.00     0.316 C 
ATOM      4  O   UNL A   1      33.447  21.787  23.898  1.00  0.00    -0.251 OA
BRANCH   3   5
ATOM      5  C   UNL A   1      32.877  20.984  26.070  1.00  0.00     0.200 C 
BRANCH   5   6
ATOM      6  S   UNL A   1      33.108  22.183  27.392  1.00  0.00    -0.073 SA
BRANCH   6   7
ATOM      7  C   UNL A   1      32.366  23.635  26.810  1.00  0.00     0.210 A 
ATOM      8  N   UNL A   1      32.933  24.573  25.979  1.00  0.00    -0.221 N 
ATOM      9  C   UNL A   1      31.995  25.576  25.855  1.00  0.00     0.157 A 
ATOM     10  N   UNL A   1      30.962  25.283  26.627  1.00  0.00    -0.132 NA
ATOM     11  N   UNL A   1      31.196  24.068  27.225  1.00  0.00    -0.121 NA
BRANCH   8  12
ATOM     12  N   UNL A   1      34.249  24.562  25.406  1.00  0.00    -0.336 N 
ATOM     13  H   UNL A   1      34.366  24.698  24.438  1.00  0.00     0.178 HD
ATOM     14  H   UNL A   1      35.035  24.418  25.982  1.00  0.00     0.178 HD
ENDBRANCH   8  12
BRANCH   9  15
ATOM     15  C   UNL A   1      32.171  26.785  24.995  1.00  0.00     0.115 C 
BRANCH  15  16
ATOM     16  C   UNL A   1      32.456  28.047  25.783  1.00  0.00    -0.037 A 
ATOM     17  C   UNL A   1      31.659  29.190  25.604  1.00  0.00     0.007 A 
ATOM     18  C   UNL A   1      33.555  28.115  26.653  1.00  0.00     0.046 A 
ATOM     19  C   UNL A   1      31.967  30.379  26.269  1.00  0.00     0.043 A 
ATOM     20  C   UNL A   1      33.859  29.304  27.305  1.00  0.00     0.159 A 
ATOM     21  C   UNL A   1      33.071  30.431  27.113  1.00  0.00     0.158 A 
ATOM     22  F   UNL A   1      34.927  29.355  28.115  1.00  0.00    -0.204 F 
ATOM     23  F   UNL A   1      33.376  31.580  27.733  1.00  0.00    -0.204 F 
ENDBRANCH  15  16
ENDBRANCH   9  15
ENDBRANCH   6   7
ENDBRANCH   5   6
ENDBRANCH   3   5
ENDBRANCH   2   3
ENDBRANCH   1   2
BRANCH   1  24
ATOM     24  C   UNL A   1      37.361  20.269  25.079  1.00  0.00     0.275 C 
BRANCH  24  25
ATOM     25  O   UNL A   1      38.556  21.072  25.046  1.00  0.00    -0.458 OA
BRANCH  25  26
ATOM     26  C   UNL A   1      39.355  20.923  26.120  1.00  0.00     0.338 C 
ATOM     27  O   UNL A   1      39.768  19.873  26.596  1.00  0.00    -0.246 OA
BRANCH  26  28
ATOM     28  C   UNL A   1      39.733  22.207  26.721  1.00  0.00     0.060 A 
ATOM     29  C   UNL A   1      39.195  23.395  26.228  1.00  0.00     0.016 A 
ATOM     30  C   UNL A   1      40.806  22.229  27.615  1.00  0.00     0.016 A 
ATOM     31  C   UNL A   1      39.797  24.610  26.561  1.00  0.00     0.010 A 
ATOM     32  C   UNL A   1      41.365  23.448  27.997  1.00  0.00     0.010 A 
ATOM     33  C   UNL A   1      40.898  24.646  27.434  1.00  0.00    -0.014 A 
BRANCH  33  34
ATOM     34  C   UNL A   1      41.594  25.928  27.721  1.00  0.00     0.031 A 
ATOM     35  C   UNL A   1      40.916  27.002  28.531  1.00  0.00     0.074 A 
ATOM     36  C   UNL A   1      42.839  26.130  27.252  1.00  0.00     0.049 A 
ATOM     37  N   UNL A   1      41.333  28.208  28.825  1.00  0.00    -0.248 NA
ATOM     38  C   UNL A   1      39.588  26.679  29.075  1.00  0.00     0.031 C 
ATOM     39  C   UNL A   1      43.607  25.172  26.455  1.00  0.00     0.029 A 
ATOM     40  N   UNL A   1      43.676  27.208  27.377  1.00  0.00    -0.354 N 
ATOM     41  C   UNL A   1      40.313  28.796  29.566  1.00  0.00     0.074 A 
ATOM     42  C   UNL A   1      39.249  27.819  29.661  1.00  0.00     0.031 C 
ATOM     43  C   UNL A   1      44.808  25.700  26.174  1.00  0.00     0.029 A 
ATOM     44  C   UNL A   1      44.877  27.048  26.730  1.00  0.00     0.049 A 
ATOM     45  H   UNL A   1      43.440  28.020  27.882  1.00  0.00     0.167 HD
ATOM     46  C   UNL A   1      40.267  30.036  30.117  1.00  0.00     0.034 A 
ATOM     47  C   UNL A   1      45.910  27.897  26.577  1.00  0.00     0.034 A 
ATOM     48  C   UNL A   1      41.332  31.006  30.025  1.00  0.00     0.049 A 
ATOM     49  C   UNL A   1      45.835  29.267  27.190  1.00  0.00     0.074 A 
ATOM     50  C   UNL A   1      41.388  32.283  30.560  1.00  0.00     0.029 A 
ATOM     51  N   UNL A   1      42.527  30.809  29.350  1.00  0.00    -0.354 N 
ATOM     52  N   UNL A   1      44.852  29.814  27.869  1.00  0.00    -0.248 NA
ATOM     53  C   UNL A   1      47.007  30.132  27.015  1.00  0.00     0.031 C 
ATOM     54  C   UNL A   1      42.599  32.871  30.172  1.00  0.00     0.029 A 
ATOM     55  C   UNL A   1      43.320  31.943  29.440  1.00  0.00     0.049 A 
ATOM     56  H   UNL A   1      42.778  29.983  28.876  1.00  0.00     0.167 HD
ATOM     57  C   UNL A   1      45.290  31.093  28.196  1.00  0.00     0.074 A 
ATOM     58  C   UNL A   1      46.633  31.224  27.667  1.00  0.00     0.031 C 
ATOM     59  C   UNL A   1      44.639  32.073  28.873  1.00  0.00     0.034 A 
BRANCH  46  60
ATOM     60  C   UNL A   1      38.999  30.422  30.835  1.00  0.00     0.023 A 
ATOM     61  C   UNL A   1      38.006  31.194  30.210  1.00  0.00     0.031 A 
ATOM     62  C   UNL A   1      38.793  30.036  32.172  1.00  0.00     0.131 A 
ATOM     63  C   UNL A   1      36.884  31.612  30.939  1.00  0.00     0.055 A 
ATOM     64  C   UNL A   1      37.641  30.398  32.871  1.00  0.00     0.041 A 
ATOM     65  F   UNL A   1      39.719  29.315  32.824  1.00  0.00    -0.206 F 
ATOM     66  C   UNL A   1      36.683  31.202  32.260  1.00  0.00     0.022 A 
BRANCH  63  67
ATOM     67  S   UNL A   1      35.759  32.813  30.175  1.00  0.00     0.124 S 
ATOM     68  O   UNL A   1      34.461  32.362  30.675  1.00  0.00    -0.237 OA
ATOM     69  O   UNL A   1      36.244  34.080  30.710  1.00  0.00    -0.237 OA
ATOM     70  O   UNL A   1      35.969  32.616  28.743  1.00  0.00    -0.744 OA
ENDBRANCH  63  67
ENDBRANCH  46  60
BRANCH  47  71
ATOM     71  C   UNL A   1      47.088  27.489  25.769  1.00  0.00     0.023 A 
ATOM     72  C   UNL A   1      47.169  27.799  24.405  1.00  0.00     0.031 A 
ATOM     73  C   UNL A   1      48.147  26.780  26.359  1.00  0.00     0.131 A 
ATOM     74  C   UNL A   1      48.284  27.379  23.665  1.00  0.00     0.055 A 
ATOM     75  C   UNL A   1      49.268  26.392  25.627  1.00  0.00     0.041 A 
ATOM     76  F   UNL A   1      48.112  26.475  27.666  1.00  0.00    -0.206 F 
ATOM     77  C   UNL A   1      49.337  26.686  24.268  1.00  0.00     0.022 A 
BRANCH  74  78
ATOM     78  S   UNL A   1      48.324  27.727  21.885  1.00  0.00     0.124 S 
ATOM     79  O   UNL A   1      48.518  26.395  21.325  1.00  0.00    -0.237 OA
ATOM     80  O   UNL A   1      47.014  28.331  21.665  1.00  0.00    -0.237 OA
ATOM     81  O   UNL A   1      49.459  28.637  21.743  1.00  0.00    -0.744 OA
ENDBRANCH  74  78
ENDBRANCH  47  71
BRANCH  59  82
ATOM     82  C   UNL A   1      45.390  33.362  29.071  1.00  0.00     0.023 A 
ATOM     83  C   UNL A   1      45.331  34.393  28.117  1.00  0.00     0.031 A 
ATOM     84  C   UNL A   1      46.210  33.542  30.198  1.00  0.00     0.131 A 
ATOM     85  C   UNL A   1      46.122  35.540  28.281  1.00  0.00     0.055 A 
ATOM     86  C   UNL A   1      46.962  34.703  30.377  1.00  0.00     0.041 A 
ATOM     87  F   UNL A   1      46.301  32.584  31.134  1.00  0.00    -0.206 F 
ATOM     88  C   UNL A   1      46.931  35.704  29.409  1.00  0.00     0.022 A 
BRANCH  85  89
ATOM     89  S   UNL A   1      46.156  36.771  26.950  1.00  0.00     0.124 S 
ATOM     90  O   UNL A   1      47.210  37.678  27.398  1.00  0.00    -0.237 OA
ATOM     91  O   UNL A   1      46.471  35.955  25.782  1.00  0.00    -0.237 OA
ATOM     92  O   UNL A   1      44.808  37.334  26.969  1.00  0.00    -0.744 OA
ENDBRANCH  85  89
ENDBRANCH  59  82
ENDBRANCH  33  34
ENDBRANCH  26  28
ENDBRANCH  25  26
ENDBRANCH  24  25
ENDBRANCH   1  24
TORSDOF 19
ENDMDL
MODEL 2
REMARK VINA RESULT:     -10.9      5.357      9.260
REMARK SMILES Nn1c(Cc2ccc(F)c(F)c2)nnc1SCC(=O)OCCOC(=O)c1ccc(-c2c3nc(c(-c4cc(S(=O)(=O)[O-])ccc4F)c4ccc([nH]4)c(-c4cc(S(=O)(=O)[O-])ccc4F)c4nc(c(-c5cc(S(=O)(=O)[O-])ccc5F)c5ccc2[nH]5)C=C4)C=C3)cc1
REMARK SMILES IDX 21 1 20 2 18 3 19 4 17 5 16 6 15 7 2 8 3 9 13 10 14 11 1 12
REMARK SMILES IDX 4 15 5 16 6 17 12 18 7 19 10 20 8 21 11 22 9 23 22 24 23 25
REMARK SMILES IDX 24 26 25 27 26 28 27 29 88 30 28 31 87 32 29 33 30 34 31 35
REMARK SMILES IDX 81 36 32 37 86 38 80 39 82 40 33 41 85 42 79 43 78 44 34 46
REMARK SMILES IDX 66 47 46 48 65 49 47 50 50 51 64 52 83 53 48 54 49 55 63 57
REMARK SMILES IDX 84 58 51 59 35 60 36 61 44 62 37 63 43 64 45 65 42 66 38 67
REMARK SMILES IDX 39 68 40 69 41 70 67 71 68 72 76 73 69 74 75 75 77 76 74 77
REMARK SMILES IDX 70 78 71 79 72 80 73 81 52 82 53 83 61 84 54 85 60 86 62 87
REMARK SMILES IDX 59 88 55 89 56 90 57 91 58 92
REMARK H PARENT 1 13 1 14 82 45 50 56
REMARK Flexibility Score: inf
ROOT
ATOM      1  C   UNL A   1      34.081  34.600  27.870  1.00  0.00     0.274 C 
ENDROOT
BRANCH   1   2
ATOM      2  O   UNL A   1      34.409  35.924  28.334  1.00  0.00    -0.461 OA
BRANCH   2   3
ATOM      3  C   UNL A   1      33.460  36.542  29.081  1.00  0.00     0.316 C 
ATOM      4  O   UNL A   1      33.292  37.759  29.101  1.00  0.00    -0.251 OA
BRANCH   3   5
ATOM      5  C   UNL A   1      32.567  35.626  29.882  1.00  0.00     0.200 C 
BRANCH   5   6
ATOM      6  S   UNL A   1      32.373  35.981  31.637  1.00  0.00    -0.073 SA
BRANCH   6   7
ATOM      7  C   UNL A   1      33.884  35.525  32.351  1.00  0.00     0.210 A 
ATOM      8  N   UNL A   1      34.536  34.323  32.200  1.00  0.00    -0.221 N 
ATOM      9  C   UNL A   1      35.649  34.400  33.009  1.00  0.00     0.157 A 
ATOM     10  N   UNL A   1      35.620  35.552  33.657  1.00  0.00    -0.132 NA
ATOM     11  N   UNL A   1      34.513  36.255  33.244  1.00  0.00    -0.121 NA
BRANCH   8  12
ATOM     12  N   UNL A   1      34.123  33.188  31.423  1.00  0.00    -0.336 N 
ATOM     13  H   UNL A   1      33.296  33.231  30.889  1.00  0.00     0.178 HD
ATOM     14  H   UNL A   1      34.667  32.367  31.423  1.00  0.00     0.178 HD
ENDBRANCH   8  12
BRANCH   9  15
ATOM     15  C   UNL A   1      36.681  33.324  33.117  1.00  0.00     0.115 C 
BRANCH  15  16
ATOM     16  C   UNL A   1      37.849  33.514  32.171  1.00  0.00    -0.037 A 
ATOM     17  C   UNL A   1      39.088  33.966  32.655  1.00  0.00     0.007 A 
ATOM     18  C   UNL A   1      37.695  33.305  30.792  1.00  0.00     0.046 A 
ATOM     19  C   UNL A   1      40.144  34.218  31.776  1.00  0.00     0.043 A 
ATOM     20  C   UNL A   1      38.747  33.566  29.923  1.00  0.00     0.159 A 
ATOM     21  C   UNL A   1      39.964  34.022  30.411  1.00  0.00     0.158 A 
ATOM     22  F   UNL A   1      38.573  33.381  28.605  1.00  0.00    -0.204 F 
ATOM     23  F   UNL A   1      40.973  34.285  29.568  1.00  0.00    -0.204 F 
ENDBRANCH  15  16
ENDBRANCH   9  15
ENDBRANCH   6   7
ENDBRANCH   5   6
ENDBRANCH   3   5
ENDBRANCH   2   3
ENDBRANCH   1   2
BRANCH   1  24
ATOM     24  C   UNL A   1      35.251  33.639  28.049  1.00  0.00     0.275 C 
BRANCH  24  25
ATOM     25  O   UNL A   1      34.848  32.476  28.797  1.00  0.00    -0.458 OA
BRANCH  25  26
ATOM     26  C   UNL A   1      34.794  31.342  28.073  1.00  0.00     0.338 C 
ATOM     27  O   UNL A   1      33.944  31.030  27.248  1.00  0.00    -0.246 OA
BRANCH  26  28
ATOM     28  C   UNL A   1      35.915  30.440  28.357  1.00  0.00     0.060 A 
ATOM     29  C   UNL A   1      35.891  29.630  29.492  1.00  0.00     0.016 A 
ATOM     30  C   UNL A   1      37.089  30.588  27.614  1.00  0.00     0.016 A 
ATOM     31  C   UNL A   1      37.075  29.039  29.937  1.00  0.00     0.010 A 
ATOM     32  C   UNL A   1      38.255  29.945  28.025  1.00  0.00     0.010 A 
ATOM     33  C   UNL A   1      38.272  29.205  29.218  1.00  0.00    -0.014 A 
BRANCH  33  34
ATOM     34  C   UNL A   1      39.549  28.651  29.737  1.00  0.00     0.031 A 
ATOM     35  C   UNL A   1      40.193  29.235  30.967  1.00  0.00     0.074 A 
ATOM     36  C   UNL A   1      40.134  27.619  29.101  1.00  0.00     0.049 A 
ATOM     37  N   UNL A   1      41.336  28.933  31.529  1.00  0.00    -0.248 NA
ATOM     38  C   UNL A   1      39.455  30.307  31.652  1.00  0.00     0.031 C 
ATOM     39  C   UNL A   1      39.615  26.963  27.900  1.00  0.00     0.029 A 
ATOM     40  N   UNL A   1      41.295  26.944  29.377  1.00  0.00    -0.354 N 
ATOM     41  C   UNL A   1      41.469  29.790  32.616  1.00  0.00     0.074 A 
ATOM     42  C   UNL A   1      40.295  30.638  32.623  1.00  0.00     0.031 C 
ATOM     43  C   UNL A   1      40.447  25.970  27.550  1.00  0.00     0.029 A 
ATOM     44  C   UNL A   1      41.579  25.950  28.472  1.00  0.00     0.049 A 
ATOM     45  H   UNL A   1      41.870  27.151  30.149  1.00  0.00     0.167 HD
ATOM     46  C   UNL A   1      42.475  29.865  33.524  1.00  0.00     0.034 A 
ATOM     47  C   UNL A   1      42.642  25.129  28.377  1.00  0.00     0.034 A 
ATOM     48  C   UNL A   1      43.642  29.016  33.516  1.00  0.00     0.049 A 
ATOM     49  C   UNL A   1      43.747  25.234  29.390  1.00  0.00     0.074 A 
ATOM     50  C   UNL A   1      44.709  29.004  34.399  1.00  0.00     0.029 A 
ATOM     51  N   UNL A   1      43.898  28.030  32.575  1.00  0.00    -0.354 N 
ATOM     52  N   UNL A   1      43.865  26.068  30.398  1.00  0.00    -0.248 NA
ATOM     53  C   UNL A   1      44.860  24.289  29.249  1.00  0.00     0.031 C 
ATOM     54  C   UNL A   1      45.628  28.039  33.967  1.00  0.00     0.029 A 
ATOM     55  C   UNL A   1      45.110  27.414  32.845  1.00  0.00     0.049 A 
ATOM     56  H   UNL A   1      43.304  27.799  31.824  1.00  0.00     0.167 HD
ATOM     57  C   UNL A   1      45.073  25.747  31.008  1.00  0.00     0.074 A 
ATOM     58  C   UNL A   1      45.629  24.629  30.274  1.00  0.00     0.031 C 
ATOM     59  C   UNL A   1      45.671  26.327  32.080  1.00  0.00     0.034 A 
BRANCH  46  60
ATOM     60  C   UNL A   1      42.369  30.937  34.579  1.00  0.00     0.023 A 
ATOM     61  C   UNL A   1      42.742  32.266  34.316  1.00  0.00     0.031 A 
ATOM     62  C   UNL A   1      41.917  30.620  35.872  1.00  0.00     0.131 A 
ATOM     63  C   UNL A   1      42.718  33.215  35.348  1.00  0.00     0.055 A 
ATOM     64  C   UNL A   1      41.832  31.584  36.877  1.00  0.00     0.041 A 
ATOM     65  F   UNL A   1      41.569  29.361  36.183  1.00  0.00    -0.206 F 
ATOM     66  C   UNL A   1      42.246  32.889  36.623  1.00  0.00     0.022 A 
BRANCH  63  67
ATOM     67  S   UNL A   1      43.446  34.846  35.035  1.00  0.00     0.124 S 
ATOM     68  O   UNL A   1      42.362  35.521  34.322  1.00  0.00    -0.237 OA
ATOM     69  O   UNL A   1      43.722  35.331  36.382  1.00  0.00    -0.237 OA
ATOM     70  O   UNL A   1      44.623  34.547  34.223  1.00  0.00    -0.744 OA
ENDBRANCH  63  67
ENDBRANCH  46  60
BRANCH  47  71
ATOM     71  C   UNL A   1      42.731  24.165  27.251  1.00  0.00     0.023 A 
ATOM     72  C   UNL A   1      42.130  22.902  27.332  1.00  0.00     0.031 A 
ATOM     73  C   UNL A   1      43.425  24.502  26.077  1.00  0.00     0.131 A 
ATOM     74  C   UNL A   1      42.253  22.005  26.261  1.00  0.00     0.055 A 
ATOM     75  C   UNL A   1      43.517  23.620  25.001  1.00  0.00     0.041 A 
ATOM     76  F   UNL A   1      44.004  25.707  25.955  1.00  0.00    -0.206 F 
ATOM     77  C   UNL A   1      42.934  22.360  25.092  1.00  0.00     0.022 A 
BRANCH  74  78
ATOM     78  S   UNL A   1      41.531  20.350  26.428  1.00  0.00     0.124 S 
ATOM     79  O   UNL A   1      41.889  20.006  27.798  1.00  0.00    -0.237 OA
ATOM     80  O   UNL A   1      40.117  20.610  26.180  1.00  0.00    -0.237 OA
ATOM     81  O   UNL A   1      42.210  19.577  25.389  1.00  0.00    -0.744 OA
ENDBRANCH  74  78
ENDBRANCH  47  71
BRANCH  59  82
ATOM     82  C   UNL A   1      46.991  25.745  32.507  1.00  0.00     0.023 A 
ATOM     83  C   UNL A   1      48.176  26.037  31.810  1.00  0.00     0.031 A 
ATOM     84  C   UNL A   1      47.057  24.852  33.590  1.00  0.00     0.131 A 
ATOM     85  C   UNL A   1      49.372  25.399  32.170  1.00  0.00     0.055 A 
ATOM     86  C   UNL A   1      48.258  24.253  33.971  1.00  0.00     0.041 A 
ATOM     87  F   UNL A   1      45.952  24.539  34.285  1.00  0.00    -0.206 F 
ATOM     88  C   UNL A   1      49.421  24.515  33.251  1.00  0.00     0.022 A 
BRANCH  85  89
ATOM     89  S   UNL A   1      50.843  25.664  31.143  1.00  0.00     0.124 S 
ATOM     90  O   UNL A   1      51.879  24.978  31.909  1.00  0.00    -0.237 OA
ATOM     91  O   UNL A   1      50.459  25.034  29.884  1.00  0.00    -0.237 OA
ATOM     92  O   UNL A   1      50.971  27.119  31.097  1.00  0.00    -0.744 OA
ENDBRANCH  85  89
ENDBRANCH  59  82
ENDBRANCH  33  34
ENDBRANCH  26  28
ENDBRANCH  25  26
ENDBRANCH  24  25
ENDBRANCH   1  24
TORSDOF 19
ENDMDL
MODEL 3
REMARK VINA RESULT:     -10.9      5.420      8.219
REMARK SMILES Nn1c(Cc2ccc(F)c(F)c2)nnc1SCC(=O)OCCOC(=O)c1ccc(-c2c3nc(c(-c4cc(S(=O)(=O)[O-])ccc4F)c4ccc([nH]4)c(-c4cc(S(=O)(=O)[O-])ccc4F)c4nc(c(-c5cc(S(=O)(=O)[O-])ccc5F)c5ccc2[nH]5)C=C4)C=C3)cc1
REMARK SMILES IDX 21 1 20 2 18 3 19 4 17 5 16 6 15 7 2 8 3 9 13 10 14 11 1 12
REMARK SMILES IDX 4 15 5 16 6 17 12 18 7 19 10 20 8 21 11 22 9 23 22 24 23 25
REMARK SMILES IDX 24 26 25 27 26 28 27 29 88 30 28 31 87 32 29 33 30 34 31 35
REMARK SMILES IDX 81 36 32 37 86 38 80 39 82 40 33 41 85 42 79 43 78 44 34 46
REMARK SMILES IDX 66 47 46 48 65 49 47 50 50 51 64 52 83 53 48 54 49 55 63 57
REMARK SMILES IDX 84 58 51 59 35 60 36 61 44 62 37 63 43 64 45 65 42 66 38 67
REMARK SMILES IDX 39 68 40 69 41 70 67 71 68 72 76 73 69 74 75 75 77 76 74 77
REMARK SMILES IDX 70 78 71 79 72 80 73 81 52 82 53 83 61 84 54 85 60 86 62 87
REMARK SMILES IDX 59 88 55 89 56 90 57 91 58 92
REMARK H PARENT 1 13 1 14 82 45 50 56
REMARK Flexibility Score: inf
ROOT
ATOM      1  C   UNL A   1      31.678  29.778  25.744  1.00  0.00     0.274 C 
ENDROOT
BRANCH   1   2
ATOM      2  O   UNL A   1      30.756  29.797  24.637  1.00  0.00    -0.461 OA
BRANCH   2   3
ATOM      3  C   UNL A   1      30.861  28.767  23.761  1.00  0.00     0.316 C 
ATOM      4  O   UNL A   1      30.171  27.751  23.815  1.00  0.00    -0.251 OA
BRANCH   3   5
ATOM      5  C   UNL A   1      31.874  28.954  22.658  1.00  0.00     0.200 C 
BRANCH   5   6
ATOM      6  S   UNL A   1      33.482  28.170  22.864  1.00  0.00    -0.073 SA
BRANCH   6   7
ATOM      7  C   UNL A   1      33.205  26.494  22.529  1.00  0.00     0.210 A 
ATOM      8  N   UNL A   1      32.718  25.549  23.404  1.00  0.00    -0.221 N 
ATOM      9  C   UNL A   1      32.741  24.356  22.713  1.00  0.00     0.157 A 
ATOM     10  N   UNL A   1      33.278  24.569  21.523  1.00  0.00    -0.132 NA
ATOM     11  N   UNL A   1      33.568  25.908  21.410  1.00  0.00    -0.121 NA
BRANCH   8  12
ATOM     12  N   UNL A   1      32.329  25.734  24.773  1.00  0.00    -0.336 N 
ATOM     13  H   UNL A   1      31.520  25.291  25.119  1.00  0.00     0.178 HD
ATOM     14  H   UNL A   1      32.872  26.302  25.366  1.00  0.00     0.178 HD
ENDBRANCH   8  12
BRANCH   9  15
ATOM     15  C   UNL A   1      32.249  23.059  23.267  1.00  0.00     0.115 C 
BRANCH  15  16
ATOM     16  C   UNL A   1      33.343  22.218  23.892  1.00  0.00    -0.037 A 
ATOM     17  C   UNL A   1      34.625  22.757  24.093  1.00  0.00     0.007 A 
ATOM     18  C   UNL A   1      33.114  20.873  24.219  1.00  0.00     0.046 A 
ATOM     19  C   UNL A   1      35.657  21.962  24.596  1.00  0.00     0.043 A 
ATOM     20  C   UNL A   1      34.149  20.086  24.711  1.00  0.00     0.159 A 
ATOM     21  C   UNL A   1      35.414  20.627  24.896  1.00  0.00     0.158 A 
ATOM     22  F   UNL A   1      33.915  18.796  24.997  1.00  0.00    -0.204 F 
ATOM     23  F   UNL A   1      36.413  19.860  25.358  1.00  0.00    -0.204 F 
ENDBRANCH  15  16
ENDBRANCH   9  15
ENDBRANCH   6   7
ENDBRANCH   5   6
ENDBRANCH   3   5
ENDBRANCH   2   3
ENDBRANCH   1   2
BRANCH   1  24
ATOM     24  C   UNL A   1      31.946  31.184  26.272  1.00  0.00     0.275 C 
BRANCH  24  25
ATOM     25  O   UNL A   1      32.669  31.133  27.516  1.00  0.00    -0.458 OA
BRANCH  25  26
ATOM     26  C   UNL A   1      33.655  32.044  27.624  1.00  0.00     0.338 C 
ATOM     27  O   UNL A   1      33.556  33.259  27.503  1.00  0.00    -0.246 OA
BRANCH  26  28
ATOM     28  C   UNL A   1      34.954  31.435  27.928  1.00  0.00     0.060 A 
ATOM     29  C   UNL A   1      35.042  30.066  28.176  1.00  0.00     0.016 A 
ATOM     30  C   UNL A   1      36.034  32.278  28.200  1.00  0.00     0.016 A 
ATOM     31  C   UNL A   1      36.188  29.553  28.787  1.00  0.00     0.010 A 
ATOM     32  C   UNL A   1      37.202  31.753  28.751  1.00  0.00     0.010 A 
ATOM     33  C   UNL A   1      37.271  30.394  29.097  1.00  0.00    -0.014 A 
BRANCH  33  34
ATOM     34  C   UNL A   1      38.454  29.867  29.826  1.00  0.00     0.031 A 
ATOM     35  C   UNL A   1      38.776  30.353  31.215  1.00  0.00     0.074 A 
ATOM     36  C   UNL A   1      39.243  28.948  29.239  1.00  0.00     0.049 A 
ATOM     37  N   UNL A   1      39.798  30.064  31.979  1.00  0.00    -0.248 NA
ATOM     38  C   UNL A   1      37.824  31.297  31.820  1.00  0.00     0.031 C 
ATOM     39  C   UNL A   1      39.043  28.395  27.898  1.00  0.00     0.029 A 
ATOM     40  N   UNL A   1      40.374  28.321  29.695  1.00  0.00    -0.354 N 
ATOM     41  C   UNL A   1      39.629  30.805  33.144  1.00  0.00     0.074 A 
ATOM     42  C   UNL A   1      38.412  31.572  32.976  1.00  0.00     0.031 C 
ATOM     43  C   UNL A   1      40.010  27.499  27.646  1.00  0.00     0.029 A 
ATOM     44  C   UNL A   1      40.923  27.450  28.784  1.00  0.00     0.049 A 
ATOM     45  H   UNL A   1      40.756  28.478  30.589  1.00  0.00     0.167 HD
ATOM     46  C   UNL A   1      40.414  30.844  34.251  1.00  0.00     0.034 A 
ATOM     47  C   UNL A   1      42.046  26.712  28.846  1.00  0.00     0.034 A 
ATOM     48  C   UNL A   1      41.623  30.075  34.416  1.00  0.00     0.049 A 
ATOM     49  C   UNL A   1      42.904  26.776  30.079  1.00  0.00     0.074 A 
ATOM     50  C   UNL A   1      42.480  30.033  35.504  1.00  0.00     0.029 A 
ATOM     51  N   UNL A   1      42.152  29.214  33.466  1.00  0.00    -0.354 N 
ATOM     52  N   UNL A   1      42.739  27.501  31.161  1.00  0.00    -0.248 NA
ATOM     53  C   UNL A   1      44.097  25.922  30.095  1.00  0.00     0.031 C 
ATOM     54  C   UNL A   1      43.547  29.180  35.194  1.00  0.00     0.029 A 
ATOM     55  C   UNL A   1      43.328  28.649  33.933  1.00  0.00     0.049 A 
ATOM     56  H   UNL A   1      41.749  29.029  32.587  1.00  0.00     0.167 HD
ATOM     57  C   UNL A   1      43.815  27.192  31.986  1.00  0.00     0.074 A 
ATOM     58  C   UNL A   1      44.604  26.196  31.288  1.00  0.00     0.031 C 
ATOM     59  C   UNL A   1      44.125  27.689  33.210  1.00  0.00     0.034 A 
BRANCH  46  60
ATOM     60  C   UNL A   1      40.001  31.787  35.353  1.00  0.00     0.023 A 
ATOM     61  C   UNL A   1      39.141  31.378  36.386  1.00  0.00     0.031 A 
ATOM     62  C   UNL A   1      40.449  33.119  35.353  1.00  0.00     0.131 A 
ATOM     63  C   UNL A   1      38.704  32.308  37.340  1.00  0.00     0.055 A 
ATOM     64  C   UNL A   1      40.064  34.023  36.344  1.00  0.00     0.041 A 
ATOM     65  F   UNL A   1      41.255  33.568  34.377  1.00  0.00    -0.206 F 
ATOM     66  C   UNL A   1      39.176  33.624  37.339  1.00  0.00     0.022 A 
BRANCH  63  67
ATOM     67  S   UNL A   1      37.402  31.806  38.499  1.00  0.00     0.124 S 
ATOM     68  O   UNL A   1      37.137  30.434  38.069  1.00  0.00    -0.237 OA
ATOM     69  O   UNL A   1      38.060  31.954  39.791  1.00  0.00    -0.237 OA
ATOM     70  O   UNL A   1      36.323  32.754  38.233  1.00  0.00    -0.744 OA
ENDBRANCH  63  67
ENDBRANCH  46  60
BRANCH  47  71
ATOM     71  C   UNL A   1      42.449  25.883  27.681  1.00  0.00     0.023 A 
ATOM     72  C   UNL A   1      42.007  24.560  27.549  1.00  0.00     0.031 A 
ATOM     73  C   UNL A   1      43.287  26.412  26.685  1.00  0.00     0.131 A 
ATOM     74  C   UNL A   1      42.425  23.796  26.450  1.00  0.00     0.055 A 
ATOM     75  C   UNL A   1      43.674  25.659  25.577  1.00  0.00     0.041 A 
ATOM     76  F   UNL A   1      43.722  27.679  26.768  1.00  0.00    -0.206 F 
ATOM     77  C   UNL A   1      43.247  24.340  25.458  1.00  0.00     0.022 A 
BRANCH  74  78
ATOM     78  S   UNL A   1      41.900  22.064  26.348  1.00  0.00     0.124 S 
ATOM     79  O   UNL A   1      40.465  22.200  26.130  1.00  0.00    -0.237 OA
ATOM     80  O   UNL A   1      42.678  21.578  25.213  1.00  0.00    -0.237 OA
ATOM     81  O   UNL A   1      42.287  21.514  27.646  1.00  0.00    -0.744 OA
ENDBRANCH  74  78
ENDBRANCH  47  71
BRANCH  59  82
ATOM     82  C   UNL A   1      45.372  27.147  33.857  1.00  0.00     0.023 A 
ATOM     83  C   UNL A   1      45.328  26.008  34.680  1.00  0.00     0.031 A 
ATOM     84  C   UNL A   1      46.603  27.802  33.688  1.00  0.00     0.131 A 
ATOM     85  C   UNL A   1      46.487  25.588  35.349  1.00  0.00     0.055 A 
ATOM     86  C   UNL A   1      47.762  27.354  34.322  1.00  0.00     0.041 A 
ATOM     87  F   UNL A   1      46.693  28.895  32.914  1.00  0.00    -0.206 F 
ATOM     88  C   UNL A   1      47.705  26.250  35.170  1.00  0.00     0.022 A 
BRANCH  85  89
ATOM     89  S   UNL A   1      46.360  24.224  36.538  1.00  0.00     0.124 S 
ATOM     90  O   UNL A   1      46.832  24.847  37.772  1.00  0.00    -0.237 OA
ATOM     91  O   UNL A   1      44.937  23.903  36.489  1.00  0.00    -0.237 OA
ATOM     92  O   UNL A   1      47.247  23.203  35.984  1.00  0.00    -0.744 OA
ENDBRANCH  85  89
ENDBRANCH  59  82
ENDBRANCH  33  34
ENDBRANCH  26  28
ENDBRANCH  25  26
ENDBRANCH  24  25
ENDBRANCH   1  24
TORSDOF 19
ENDMDL
