MODEL 1
REMARK VINA RESULT:     -11.7      0.000      0.000
REMARK SMILES O=C(OCCOC(=O)[C@@H]1CCCN(c2cnnc(O)c2Cl)C1)c1ccc(-c2c3nc(c(-c4cc(S(=O)(=O)[O-])ccc4F)c4ccc([nH]4)c(-c4cc(S(=O)(=O)[O-])ccc4F)c4nc(c(-c5cc(S(=O)(=O)[O-])ccc5F)c5ccc2[nH]5)C=C4)C=C3)cc1
REMARK SMILES IDX 4 1 3 2 2 3 1 4 23 5 24 6 85 7 25 8 84 9 26 10 27 11 28 12
REMARK SMILES IDX 78 13 29 14 83 15 77 16 79 17 30 18 82 19 76 20 75 21 31 23
REMARK SMILES IDX 63 24 43 25 62 26 44 27 47 28 61 29 80 30 45 31 46 32 60 34
REMARK SMILES IDX 81 35 48 36 32 37 33 38 41 39 34 40 40 41 42 42 39 43 35 44
REMARK SMILES IDX 36 45 37 46 38 47 64 48 65 49 73 50 66 51 72 52 74 53 71 54
REMARK SMILES IDX 67 55 68 56 69 57 70 58 49 59 50 60 58 61 51 62 57 63 59 64
REMARK SMILES IDX 56 65 52 66 53 67 54 68 55 69 5 70 6 71 7 72 8 73 9 74 10 75
REMARK SMILES IDX 22 76 11 77 13 78 12 79 14 80 15 81 20 82 16 83 18 84 21 85
REMARK SMILES IDX 17 86 19 87
REMARK H PARENT 79 22 47 33 19 88
REMARK Flexibility Score: inf
ROOT
ATOM      1  C   UNL A   1      31.654  31.483  26.875  1.00  0.00     0.275 C 
ENDROOT
BRANCH   1   2
ATOM      2  O   UNL A   1      32.540  32.619  26.842  1.00  0.00    -0.458 OA
BRANCH   2   3
ATOM      3  C   UNL A   1      33.333  33.136  27.812  1.00  0.00     0.338 C 
ATOM      4  O   UNL A   1      33.095  34.269  28.227  1.00  0.00    -0.246 OA
BRANCH   3   5
ATOM      5  C   UNL A   1      34.591  32.473  28.287  1.00  0.00     0.060 A 
ATOM      6  C   UNL A   1      34.712  31.133  28.661  1.00  0.00     0.016 A 
ATOM      7  C   UNL A   1      35.754  33.273  28.320  1.00  0.00     0.016 A 
ATOM      8  C   UNL A   1      35.958  30.575  28.953  1.00  0.00     0.010 A 
ATOM      9  C   UNL A   1      37.003  32.731  28.660  1.00  0.00     0.010 A 
ATOM     10  C   UNL A   1      37.105  31.373  28.975  1.00  0.00    -0.014 A 
BRANCH  10  11
ATOM     11  C   UNL A   1      38.314  30.813  29.612  1.00  0.00     0.031 A 
ATOM     12  C   UNL A   1      38.573  31.238  31.022  1.00  0.00     0.074 A 
ATOM     13  C   UNL A   1      39.083  29.885  29.016  1.00  0.00     0.049 A 
ATOM     14  N   UNL A   1      39.441  30.773  31.873  1.00  0.00    -0.248 NA
ATOM     15  C   UNL A   1      37.702  32.302  31.558  1.00  0.00     0.031 C 
ATOM     16  C   UNL A   1      38.870  29.368  27.670  1.00  0.00     0.029 A 
ATOM     17  N   UNL A   1      40.185  29.200  29.461  1.00  0.00    -0.354 N 
ATOM     18  C   UNL A   1      39.193  31.454  33.055  1.00  0.00     0.074 A 
ATOM     19  C   UNL A   1      38.120  32.387  32.810  1.00  0.00     0.031 C 
ATOM     20  C   UNL A   1      39.807  28.446  27.393  1.00  0.00     0.029 A 
ATOM     21  C   UNL A   1      40.708  28.323  28.537  1.00  0.00     0.049 A 
ATOM     22  H   UNL A   1      40.568  29.325  30.360  1.00  0.00     0.167 HD
ATOM     23  C   UNL A   1      39.812  31.308  34.243  1.00  0.00     0.034 A 
ATOM     24  C   UNL A   1      41.791  27.520  28.612  1.00  0.00     0.034 A 
ATOM     25  C   UNL A   1      40.942  30.451  34.440  1.00  0.00     0.049 A 
ATOM     26  C   UNL A   1      42.560  27.484  29.912  1.00  0.00     0.074 A 
ATOM     27  C   UNL A   1      41.699  30.288  35.583  1.00  0.00     0.029 A 
ATOM     28  N   UNL A   1      41.497  29.639  33.461  1.00  0.00    -0.354 N 
ATOM     29  N   UNL A   1      42.290  28.100  31.041  1.00  0.00    -0.248 NA
ATOM     30  C   UNL A   1      43.770  26.652  29.962  1.00  0.00     0.031 C 
ATOM     31  C   UNL A   1      42.754  29.430  35.276  1.00  0.00     0.029 A 
ATOM     32  C   UNL A   1      42.611  28.996  33.964  1.00  0.00     0.049 A 
ATOM     33  H   UNL A   1      41.151  29.538  32.545  1.00  0.00     0.167 HD
ATOM     34  C   UNL A   1      43.275  27.706  31.941  1.00  0.00     0.074 A 
ATOM     35  C   UNL A   1      44.143  26.790  31.229  1.00  0.00     0.031 C 
ATOM     36  C   UNL A   1      43.445  28.068  33.236  1.00  0.00     0.034 A 
BRANCH  23  37
ATOM     37  C   UNL A   1      39.312  32.134  35.388  1.00  0.00     0.023 A 
ATOM     38  C   UNL A   1      39.803  33.435  35.575  1.00  0.00     0.031 A 
ATOM     39  C   UNL A   1      38.380  31.623  36.309  1.00  0.00     0.131 A 
ATOM     40  C   UNL A   1      39.381  34.178  36.680  1.00  0.00     0.055 A 
ATOM     41  C   UNL A   1      37.938  32.382  37.392  1.00  0.00     0.041 A 
ATOM     42  F   UNL A   1      37.863  30.395  36.145  1.00  0.00    -0.206 F 
ATOM     43  C   UNL A   1      38.447  33.663  37.586  1.00  0.00     0.022 A 
BRANCH  40  44
ATOM     44  S   UNL A   1      40.037  35.839  36.981  1.00  0.00     0.124 S 
ATOM     45  O   UNL A   1      41.467  35.579  37.130  1.00  0.00    -0.237 OA
ATOM     46  O   UNL A   1      39.651  36.540  35.761  1.00  0.00    -0.237 OA
ATOM     47  O   UNL A   1      39.358  36.265  38.201  1.00  0.00    -0.744 OA
ENDBRANCH  40  44
ENDBRANCH  23  37
BRANCH  24  48
ATOM     48  C   UNL A   1      42.184  26.682  27.441  1.00  0.00     0.023 A 
ATOM     49  C   UNL A   1      41.840  25.318  27.380  1.00  0.00     0.031 A 
ATOM     50  C   UNL A   1      42.958  27.210  26.392  1.00  0.00     0.131 A 
ATOM     51  C   UNL A   1      42.308  24.523  26.324  1.00  0.00     0.055 A 
ATOM     52  C   UNL A   1      43.373  26.427  25.312  1.00  0.00     0.041 A 
ATOM     53  F   UNL A   1      43.317  28.503  26.404  1.00  0.00    -0.206 F 
ATOM     54  C   UNL A   1      43.058  25.072  25.280  1.00  0.00     0.022 A 
BRANCH  51  55
ATOM     55  S   UNL A   1      42.022  22.730  26.312  1.00  0.00     0.124 S 
ATOM     56  O   UNL A   1      40.567  22.649  26.376  1.00  0.00    -0.237 OA
ATOM     57  O   UNL A   1      42.621  22.347  25.035  1.00  0.00    -0.237 OA
ATOM     58  O   UNL A   1      42.733  22.262  27.497  1.00  0.00    -0.744 OA
ENDBRANCH  51  55
ENDBRANCH  24  48
BRANCH  36  59
ATOM     59  C   UNL A   1      44.594  27.478  34.011  1.00  0.00     0.023 A 
ATOM     60  C   UNL A   1      44.364  26.364  34.840  1.00  0.00     0.031 A 
ATOM     61  C   UNL A   1      45.831  28.136  34.097  1.00  0.00     0.131 A 
ATOM     62  C   UNL A   1      45.334  25.981  35.769  1.00  0.00     0.055 A 
ATOM     63  C   UNL A   1      46.817  27.717  34.990  1.00  0.00     0.041 A 
ATOM     64  F   UNL A   1      46.085  29.211  33.334  1.00  0.00    -0.206 F 
ATOM     65  C   UNL A   1      46.562  26.646  35.845  1.00  0.00     0.022 A 
BRANCH  62  66
ATOM     66  S   UNL A   1      44.995  24.674  36.980  1.00  0.00     0.124 S 
ATOM     67  O   UNL A   1      46.226  24.663  37.766  1.00  0.00    -0.237 OA
ATOM     68  O   UNL A   1      43.818  25.195  37.669  1.00  0.00    -0.237 OA
ATOM     69  O   UNL A   1      44.771  23.486  36.162  1.00  0.00    -0.744 OA
ENDBRANCH  62  66
ENDBRANCH  36  59
ENDBRANCH  10  11
ENDBRANCH   3   5
ENDBRANCH   2   3
ENDBRANCH   1   2
BRANCH   1  70
ATOM     70  C   UNL A   1      32.163  30.256  26.110  1.00  0.00     0.274 C 
BRANCH  70  71
ATOM     71  O   UNL A   1      32.215  29.069  26.912  1.00  0.00    -0.462 OA
BRANCH  71  72
ATOM     72  C   UNL A   1      33.037  28.077  26.451  1.00  0.00     0.310 C 
ATOM     73  O   UNL A   1      34.169  28.269  26.024  1.00  0.00    -0.252 OA
BRANCH  72  74
ATOM     74  C   UNL A   1      32.368  26.723  26.599  1.00  0.00     0.118 C 
ATOM     75  C   UNL A   1      33.270  25.565  26.163  1.00  0.00     0.019 C 
ATOM     76  C   UNL A   1      31.042  26.699  25.867  1.00  0.00     0.132 C 
ATOM     77  C   UNL A   1      33.375  25.442  24.638  1.00  0.00     0.022 C 
ATOM     78  N   UNL A   1      31.300  26.709  24.435  1.00  0.00    -0.368 N 
ATOM     79  C   UNL A   1      32.016  25.538  23.929  1.00  0.00     0.116 C 
BRANCH  78  80
ATOM     80  C   UNL A   1      30.507  27.545  23.669  1.00  0.00     0.082 A 
ATOM     81  C   UNL A   1      29.121  27.354  23.671  1.00  0.00     0.163 A 
ATOM     82  C   UNL A   1      30.950  28.566  22.831  1.00  0.00     0.129 A 
ATOM     83  N   UNL A   1      28.227  28.076  22.956  1.00  0.00    -0.153 NA
ATOM     84  C   UNL A   1      30.010  29.287  22.096  1.00  0.00     0.252 A 
ATOM     85  Cl  UNL A   1      32.626  28.927  22.599  1.00  0.00    -0.076 Cl
ATOM     86  N   UNL A   1      28.682  29.061  22.159  1.00  0.00    -0.111 NA
BRANCH  84  87
ATOM     87  O   UNL A   1      30.388  30.282  21.231  1.00  0.00    -0.491 OA
ATOM     88  H   UNL A   1      31.084  30.134  20.623  1.00  0.00     0.295 HD
ENDBRANCH  84  87
ENDBRANCH  78  80
ENDBRANCH  72  74
ENDBRANCH  71  72
ENDBRANCH  70  71
ENDBRANCH   1  70
TORSDOF 16
ENDMDL
MODEL 2
REMARK VINA RESULT:     -11.6      1.350      2.288
REMARK SMILES O=C(OCCOC(=O)[C@@H]1CCCN(c2cnnc(O)c2Cl)C1)c1ccc(-c2c3nc(c(-c4cc(S(=O)(=O)[O-])ccc4F)c4ccc([nH]4)c(-c4cc(S(=O)(=O)[O-])ccc4F)c4nc(c(-c5cc(S(=O)(=O)[O-])ccc5F)c5ccc2[nH]5)C=C4)C=C3)cc1
REMARK SMILES IDX 4 1 3 2 2 3 1 4 23 5 24 6 85 7 25 8 84 9 26 10 27 11 28 12
REMARK SMILES IDX 78 13 29 14 83 15 77 16 79 17 30 18 82 19 76 20 75 21 31 23
REMARK SMILES IDX 63 24 43 25 62 26 44 27 47 28 61 29 80 30 45 31 46 32 60 34
REMARK SMILES IDX 81 35 48 36 32 37 33 38 41 39 34 40 40 41 42 42 39 43 35 44
REMARK SMILES IDX 36 45 37 46 38 47 64 48 65 49 73 50 66 51 72 52 74 53 71 54
REMARK SMILES IDX 67 55 68 56 69 57 70 58 49 59 50 60 58 61 51 62 57 63 59 64
REMARK SMILES IDX 56 65 52 66 53 67 54 68 55 69 5 70 6 71 7 72 8 73 9 74 10 75
REMARK SMILES IDX 22 76 11 77 13 78 12 79 14 80 15 81 20 82 16 83 18 84 21 85
REMARK SMILES IDX 17 86 19 87
REMARK H PARENT 79 22 47 33 19 88
REMARK Flexibility Score: inf
ROOT
ATOM      1  C   UNL A   1      31.795  31.293  26.910  1.00  0.00     0.275 C 
ENDROOT
BRANCH   1   2
ATOM      2  O   UNL A   1      32.574  32.503  26.842  1.00  0.00    -0.458 OA
BRANCH   2   3
ATOM      3  C   UNL A   1      33.400  33.063  27.760  1.00  0.00     0.338 C 
ATOM      4  O   UNL A   1      33.192  34.223  28.110  1.00  0.00    -0.246 OA
BRANCH   3   5
ATOM      5  C   UNL A   1      34.658  32.406  28.244  1.00  0.00     0.060 A 
ATOM      6  C   UNL A   1      34.782  31.067  28.623  1.00  0.00     0.016 A 
ATOM      7  C   UNL A   1      35.817  33.211  28.283  1.00  0.00     0.016 A 
ATOM      8  C   UNL A   1      36.028  30.516  28.925  1.00  0.00     0.010 A 
ATOM      9  C   UNL A   1      37.066  32.676  28.633  1.00  0.00     0.010 A 
ATOM     10  C   UNL A   1      37.171  31.319  28.952  1.00  0.00    -0.014 A 
BRANCH  10  11
ATOM     11  C   UNL A   1      38.379  30.765  29.598  1.00  0.00     0.031 A 
ATOM     12  C   UNL A   1      38.628  31.198  31.008  1.00  0.00     0.074 A 
ATOM     13  C   UNL A   1      39.154  29.837  29.011  1.00  0.00     0.049 A 
ATOM     14  N   UNL A   1      39.494  30.740  31.866  1.00  0.00    -0.248 NA
ATOM     15  C   UNL A   1      37.752  32.263  31.534  1.00  0.00     0.031 C 
ATOM     16  C   UNL A   1      38.950  29.312  27.667  1.00  0.00     0.029 A 
ATOM     17  N   UNL A   1      40.255  29.157  29.466  1.00  0.00    -0.354 N 
ATOM     18  C   UNL A   1      39.237  31.426  33.043  1.00  0.00     0.074 A 
ATOM     19  C   UNL A   1      38.163  32.355  32.787  1.00  0.00     0.031 C 
ATOM     20  C   UNL A   1      39.891  28.391  27.399  1.00  0.00     0.029 A 
ATOM     21  C   UNL A   1      40.786  28.277  28.550  1.00  0.00     0.049 A 
ATOM     22  H   UNL A   1      40.633  29.288  30.366  1.00  0.00     0.167 HD
ATOM     23  C   UNL A   1      39.849  31.288  34.235  1.00  0.00     0.034 A 
ATOM     24  C   UNL A   1      41.870  27.478  28.634  1.00  0.00     0.034 A 
ATOM     25  C   UNL A   1      40.982  30.435  34.443  1.00  0.00     0.049 A 
ATOM     26  C   UNL A   1      42.633  27.450  29.939  1.00  0.00     0.074 A 
ATOM     27  C   UNL A   1      41.732  30.281  35.591  1.00  0.00     0.029 A 
ATOM     28  N   UNL A   1      41.544  29.621  33.471  1.00  0.00    -0.354 N 
ATOM     29  N   UNL A   1      42.355  28.072  31.063  1.00  0.00    -0.248 NA
ATOM     30  C   UNL A   1      43.845  26.622  29.999  1.00  0.00     0.031 C 
ATOM     31  C   UNL A   1      42.791  29.424  35.293  1.00  0.00     0.029 A 
ATOM     32  C   UNL A   1      42.657  28.983  33.983  1.00  0.00     0.049 A 
ATOM     33  H   UNL A   1      41.203  29.514  32.554  1.00  0.00     0.167 HD
ATOM     34  C   UNL A   1      43.336  27.685  31.971  1.00  0.00     0.074 A 
ATOM     35  C   UNL A   1      44.211  26.768  31.268  1.00  0.00     0.031 C 
ATOM     36  C   UNL A   1      43.498  28.054  33.265  1.00  0.00     0.034 A 
BRANCH  23  37
ATOM     37  C   UNL A   1      39.341  32.118  35.373  1.00  0.00     0.023 A 
ATOM     38  C   UNL A   1      39.832  33.419  35.560  1.00  0.00     0.031 A 
ATOM     39  C   UNL A   1      38.400  31.612  36.287  1.00  0.00     0.131 A 
ATOM     40  C   UNL A   1      39.402  34.167  36.660  1.00  0.00     0.055 A 
ATOM     41  C   UNL A   1      37.950  32.374  37.365  1.00  0.00     0.041 A 
ATOM     42  F   UNL A   1      37.882  30.384  36.123  1.00  0.00    -0.206 F 
ATOM     43  C   UNL A   1      38.459  33.655  37.559  1.00  0.00     0.022 A 
BRANCH  40  44
ATOM     44  S   UNL A   1      40.057  35.827  36.961  1.00  0.00     0.124 S 
ATOM     45  O   UNL A   1      39.646  36.541  35.754  1.00  0.00    -0.237 OA
ATOM     46  O   UNL A   1      39.358  36.209  38.184  1.00  0.00    -0.237 OA
ATOM     47  O   UNL A   1      41.496  35.615  37.091  1.00  0.00    -0.744 OA
ENDBRANCH  40  44
ENDBRANCH  23  37
BRANCH  24  48
ATOM     48  C   UNL A   1      42.273  26.634  27.470  1.00  0.00     0.023 A 
ATOM     49  C   UNL A   1      41.903  25.278  27.397  1.00  0.00     0.031 A 
ATOM     50  C   UNL A   1      43.080  27.150  26.440  1.00  0.00     0.131 A 
ATOM     51  C   UNL A   1      42.378  24.476  26.350  1.00  0.00     0.055 A 
ATOM     52  C   UNL A   1      43.503  26.361  25.367  1.00  0.00     0.041 A 
ATOM     53  F   UNL A   1      43.464  28.435  26.463  1.00  0.00    -0.206 F 
ATOM     54  C   UNL A   1      43.162  25.013  25.324  1.00  0.00     0.022 A 
BRANCH  51  55
ATOM     55  S   UNL A   1      42.057  22.690  26.326  1.00  0.00     0.124 S 
ATOM     56  O   UNL A   1      42.798  22.228  27.494  1.00  0.00    -0.237 OA
ATOM     57  O   UNL A   1      40.602  22.652  26.445  1.00  0.00    -0.237 OA
ATOM     58  O   UNL A   1      42.586  22.264  25.034  1.00  0.00    -0.744 OA
ENDBRANCH  51  55
ENDBRANCH  24  48
BRANCH  36  59
ATOM     59  C   UNL A   1      44.644  27.471  34.049  1.00  0.00     0.023 A 
ATOM     60  C   UNL A   1      44.407  26.378  34.903  1.00  0.00     0.031 A 
ATOM     61  C   UNL A   1      45.886  28.121  34.116  1.00  0.00     0.131 A 
ATOM     62  C   UNL A   1      45.377  26.006  35.837  1.00  0.00     0.055 A 
ATOM     63  C   UNL A   1      46.872  27.712  35.016  1.00  0.00     0.041 A 
ATOM     64  F   UNL A   1      46.147  29.176  33.329  1.00  0.00    -0.206 F 
ATOM     65  C   UNL A   1      46.611  26.663  35.894  1.00  0.00     0.022 A 
BRANCH  62  66
ATOM     66  S   UNL A   1      45.030  24.729  37.077  1.00  0.00     0.124 S 
ATOM     67  O   UNL A   1      46.231  24.781  37.908  1.00  0.00    -0.237 OA
ATOM     68  O   UNL A   1      43.814  25.236  37.705  1.00  0.00    -0.237 OA
ATOM     69  O   UNL A   1      44.872  23.510  36.292  1.00  0.00    -0.744 OA
ENDBRANCH  62  66
ENDBRANCH  36  59
ENDBRANCH  10  11
ENDBRANCH   3   5
ENDBRANCH   2   3
ENDBRANCH   1   2
BRANCH   1  70
ATOM     70  C   UNL A   1      31.217  30.830  25.568  1.00  0.00     0.274 C 
BRANCH  70  71
ATOM     71  O   UNL A   1      31.356  29.421  25.344  1.00  0.00    -0.462 OA
BRANCH  71  72
ATOM     72  C   UNL A   1      31.843  29.060  24.118  1.00  0.00     0.310 C 
ATOM     73  O   UNL A   1      31.191  29.100  23.083  1.00  0.00    -0.252 OA
BRANCH  72  74
ATOM     74  C   UNL A   1      33.304  28.663  24.226  1.00  0.00     0.118 C 
ATOM     75  C   UNL A   1      33.935  28.349  22.866  1.00  0.00     0.019 C 
ATOM     76  C   UNL A   1      33.477  27.512  25.196  1.00  0.00     0.132 C 
ATOM     77  C   UNL A   1      33.514  26.979  22.323  1.00  0.00     0.022 C 
ATOM     78  N   UNL A   1      32.921  26.309  24.594  1.00  0.00    -0.368 N 
ATOM     79  C   UNL A   1      33.595  25.862  23.374  1.00  0.00     0.116 C 
BRANCH  78  80
ATOM     80  C   UNL A   1      32.154  25.504  25.415  1.00  0.00     0.082 A 
ATOM     81  C   UNL A   1      30.805  25.822  25.609  1.00  0.00     0.163 A 
ATOM     82  C   UNL A   1      32.597  24.395  26.134  1.00  0.00     0.129 A 
ATOM     83  N   UNL A   1      29.942  25.141  26.400  1.00  0.00    -0.153 NA
ATOM     84  C   UNL A   1      31.691  23.719  26.950  1.00  0.00     0.252 A 
ATOM     85  Cl  UNL A   1      34.243  23.866  26.120  1.00  0.00    -0.076 Cl
ATOM     86  N   UNL A   1      30.395  24.070  27.078  1.00  0.00    -0.111 NA
BRANCH  84  87
ATOM     87  O   UNL A   1      32.076  22.640  27.705  1.00  0.00    -0.491 OA
ATOM     88  H   UNL A   1      31.684  22.491  28.543  1.00  0.00     0.295 HD
ENDBRANCH  84  87
ENDBRANCH  78  80
ENDBRANCH  72  74
ENDBRANCH  71  72
ENDBRANCH  70  71
ENDBRANCH   1  70
TORSDOF 16
ENDMDL
MODEL 3
REMARK VINA RESULT:     -11.5      5.421     10.641
REMARK SMILES O=C(OCCOC(=O)[C@@H]1CCCN(c2cnnc(O)c2Cl)C1)c1ccc(-c2c3nc(c(-c4cc(S(=O)(=O)[O-])ccc4F)c4ccc([nH]4)c(-c4cc(S(=O)(=O)[O-])ccc4F)c4nc(c(-c5cc(S(=O)(=O)[O-])ccc5F)c5ccc2[nH]5)C=C4)C=C3)cc1
REMARK SMILES IDX 4 1 3 2 2 3 1 4 23 5 24 6 85 7 25 8 84 9 26 10 27 11 28 12
REMARK SMILES IDX 78 13 29 14 83 15 77 16 79 17 30 18 82 19 76 20 75 21 31 23
REMARK SMILES IDX 63 24 43 25 62 26 44 27 47 28 61 29 80 30 45 31 46 32 60 34
REMARK SMILES IDX 81 35 48 36 32 37 33 38 41 39 34 40 40 41 42 42 39 43 35 44
REMARK SMILES IDX 36 45 37 46 38 47 64 48 65 49 73 50 66 51 72 52 74 53 71 54
REMARK SMILES IDX 67 55 68 56 69 57 70 58 49 59 50 60 58 61 51 62 57 63 59 64
REMARK SMILES IDX 56 65 52 66 53 67 54 68 55 69 5 70 6 71 7 72 8 73 9 74 10 75
REMARK SMILES IDX 22 76 11 77 13 78 12 79 14 80 15 81 20 82 16 83 18 84 21 85
REMARK SMILES IDX 17 86 19 87
REMARK H PARENT 79 22 47 33 19 88
REMARK Flexibility Score: inf
ROOT
ATOM      1  C   UNL A   1      38.019  20.602  24.852  1.00  0.00     0.275 C 
ENDROOT
BRANCH   1   2
ATOM      2  O   UNL A   1      38.894  20.155  25.906  1.00  0.00    -0.458 OA
BRANCH   2   3
ATOM      3  C   UNL A   1      40.151  20.552  26.226  1.00  0.00     0.338 C 
ATOM      4  O   UNL A   1      41.042  19.706  26.276  1.00  0.00    -0.246 OA
BRANCH   3   5
ATOM      5  C   UNL A   1      40.481  21.937  26.694  1.00  0.00     0.060 A 
ATOM      6  C   UNL A   1      39.999  23.122  26.132  1.00  0.00     0.016 A 
ATOM      7  C   UNL A   1      41.325  22.040  27.822  1.00  0.00     0.016 A 
ATOM      8  C   UNL A   1      40.252  24.358  26.728  1.00  0.00     0.010 A 
ATOM      9  C   UNL A   1      41.625  23.284  28.398  1.00  0.00     0.010 A 
ATOM     10  C   UNL A   1      41.082  24.449  27.849  1.00  0.00    -0.014 A 
BRANCH  10  11
ATOM     11  C   UNL A   1      41.581  25.788  28.222  1.00  0.00     0.031 A 
ATOM     12  C   UNL A   1      42.971  26.119  27.782  1.00  0.00     0.074 A 
ATOM     13  C   UNL A   1      40.805  26.710  28.820  1.00  0.00     0.049 A 
ATOM     14  N   UNL A   1      43.590  27.264  27.811  1.00  0.00    -0.248 NA
ATOM     15  C   UNL A   1      43.752  25.017  27.187  1.00  0.00     0.031 C 
ATOM     16  C   UNL A   1      39.423  26.495  29.228  1.00  0.00     0.029 A 
ATOM     17  N   UNL A   1      41.055  28.011  29.176  1.00  0.00    -0.354 N 
ATOM     18  C   UNL A   1      44.812  27.033  27.200  1.00  0.00     0.074 A 
ATOM     19  C   UNL A   1      44.868  25.636  26.840  1.00  0.00     0.031 C 
ATOM     20  C   UNL A   1      38.939  27.622  29.778  1.00  0.00     0.029 A 
ATOM     21  C   UNL A   1      39.991  28.637  29.785  1.00  0.00     0.049 A 
ATOM     22  H   UNL A   1      41.918  28.456  29.011  1.00  0.00     0.167 HD
ATOM     23  C   UNL A   1      45.802  27.915  26.960  1.00  0.00     0.034 A 
ATOM     24  C   UNL A   1      39.886  29.884  30.292  1.00  0.00     0.034 A 
ATOM     25  C   UNL A   1      45.771  29.273  27.417  1.00  0.00     0.049 A 
ATOM     26  C   UNL A   1      41.068  30.813  30.142  1.00  0.00     0.074 A 
ATOM     27  C   UNL A   1      46.757  30.232  27.301  1.00  0.00     0.029 A 
ATOM     28  N   UNL A   1      44.713  29.850  28.104  1.00  0.00    -0.354 N 
ATOM     29  N   UNL A   1      42.207  30.598  29.522  1.00  0.00    -0.248 NA
ATOM     30  C   UNL A   1      40.964  32.148  30.749  1.00  0.00     0.031 C 
ATOM     31  C   UNL A   1      46.322  31.370  27.980  1.00  0.00     0.029 A 
ATOM     32  C   UNL A   1      45.035  31.148  28.450  1.00  0.00     0.049 A 
ATOM     33  H   UNL A   1      43.862  29.402  28.314  1.00  0.00     0.167 HD
ATOM     34  C   UNL A   1      42.938  31.775  29.636  1.00  0.00     0.074 A 
ATOM     35  C   UNL A   1      42.110  32.706  30.377  1.00  0.00     0.031 C 
ATOM     36  C   UNL A   1      44.178  32.061  29.170  1.00  0.00     0.034 A 
BRANCH  23  37
ATOM     37  C   UNL A   1      47.009  27.417  26.228  1.00  0.00     0.023 A 
ATOM     38  C   UNL A   1      47.181  27.731  24.872  1.00  0.00     0.031 A 
ATOM     39  C   UNL A   1      47.967  26.604  26.861  1.00  0.00     0.131 A 
ATOM     40  C   UNL A   1      48.276  27.211  24.177  1.00  0.00     0.055 A 
ATOM     41  C   UNL A   1      49.075  26.114  26.171  1.00  0.00     0.041 A 
ATOM     42  F   UNL A   1      47.854  26.308  28.166  1.00  0.00    -0.206 F 
ATOM     43  C   UNL A   1      49.228  26.410  24.820  1.00  0.00     0.022 A 
BRANCH  40  44
ATOM     44  S   UNL A   1      48.498  27.553  22.413  1.00  0.00     0.124 S 
ATOM     45  O   UNL A   1      49.751  28.305  22.404  1.00  0.00    -0.237 OA
ATOM     46  O   UNL A   1      48.571  26.208  21.852  1.00  0.00    -0.237 OA
ATOM     47  O   UNL A   1      47.313  28.327  22.057  1.00  0.00    -0.744 OA
ENDBRANCH  40  44
ENDBRANCH  23  37
BRANCH  24  48
ATOM     48  C   UNL A   1      38.620  30.320  30.953  1.00  0.00     0.023 A 
ATOM     49  C   UNL A   1      37.626  31.005  30.230  1.00  0.00     0.031 A 
ATOM     50  C   UNL A   1      38.407  30.113  32.327  1.00  0.00     0.131 A 
ATOM     51  C   UNL A   1      36.492  31.499  30.892  1.00  0.00     0.055 A 
ATOM     52  C   UNL A   1      37.248  30.556  32.971  1.00  0.00     0.041 A 
ATOM     53  F   UNL A   1      39.326  29.469  33.064  1.00  0.00    -0.206 F 
ATOM     54  C   UNL A   1      36.288  31.264  32.254  1.00  0.00     0.022 A 
BRANCH  51  55
ATOM     55  S   UNL A   1      35.281  32.531  30.019  1.00  0.00     0.124 S 
ATOM     56  O   UNL A   1      36.094  33.663  29.588  1.00  0.00    -0.237 OA
ATOM     57  O   UNL A   1      34.839  31.630  28.957  1.00  0.00    -0.237 OA
ATOM     58  O   UNL A   1      34.282  32.825  31.040  1.00  0.00    -0.744 OA
ENDBRANCH  51  55
ENDBRANCH  24  48
BRANCH  36  59
ATOM     59  C   UNL A   1      44.746  33.435  29.411  1.00  0.00     0.023 A 
ATOM     60  C   UNL A   1      44.599  34.423  28.420  1.00  0.00     0.031 A 
ATOM     61  C   UNL A   1      45.600  33.692  30.495  1.00  0.00     0.131 A 
ATOM     62  C   UNL A   1      45.349  35.600  28.498  1.00  0.00     0.055 A 
ATOM     63  C   UNL A   1      46.307  34.890  30.596  1.00  0.00     0.041 A 
ATOM     64  F   UNL A   1      45.779  32.770  31.455  1.00  0.00    -0.206 F 
ATOM     65  C   UNL A   1      46.197  35.842  29.584  1.00  0.00     0.022 A 
BRANCH  62  66
ATOM     66  S   UNL A   1      45.328  36.806  27.144  1.00  0.00     0.124 S 
ATOM     67  O   UNL A   1      46.026  37.943  27.741  1.00  0.00    -0.237 OA
ATOM     68  O   UNL A   1      46.063  36.102  26.098  1.00  0.00    -0.237 OA
ATOM     69  O   UNL A   1      43.908  37.018  26.884  1.00  0.00    -0.744 OA
ENDBRANCH  62  66
ENDBRANCH  36  59
ENDBRANCH  10  11
ENDBRANCH   3   5
ENDBRANCH   2   3
ENDBRANCH   1   2
BRANCH   1  70
ATOM     70  C   UNL A   1      36.834  21.450  25.325  1.00  0.00     0.274 C 
BRANCH  70  71
ATOM     71  O   UNL A   1      36.795  22.754  24.731  1.00  0.00    -0.462 OA
BRANCH  71  72
ATOM     72  C   UNL A   1      35.744  23.546  25.105  1.00  0.00     0.310 C 
ATOM     73  O   UNL A   1      35.493  23.849  26.264  1.00  0.00    -0.252 OA
BRANCH  72  74
ATOM     74  C   UNL A   1      34.982  24.026  23.883  1.00  0.00     0.118 C 
ATOM     75  C   UNL A   1      34.067  25.216  24.184  1.00  0.00     0.019 C 
ATOM     76  C   UNL A   1      34.217  22.885  23.246  1.00  0.00     0.132 C 
ATOM     77  C   UNL A   1      32.789  24.804  24.924  1.00  0.00     0.022 C 
ATOM     78  N   UNL A   1      33.110  22.523  24.119  1.00  0.00    -0.368 N 
ATOM     79  C   UNL A   1      32.108  23.571  24.312  1.00  0.00     0.116 C 
BRANCH  78  80
ATOM     80  C   UNL A   1      32.889  21.170  24.309  1.00  0.00     0.082 A 
ATOM     81  C   UNL A   1      32.406  20.406  23.241  1.00  0.00     0.163 A 
ATOM     82  C   UNL A   1      33.057  20.464  25.499  1.00  0.00     0.129 A 
ATOM     83  N   UNL A   1      32.122  19.083  23.287  1.00  0.00    -0.153 NA
ATOM     84  C   UNL A   1      32.746  19.106  25.522  1.00  0.00     0.252 A 
ATOM     85  Cl  UNL A   1      33.558  21.218  26.973  1.00  0.00    -0.076 Cl
ATOM     86  N   UNL A   1      32.300  18.424  24.447  1.00  0.00    -0.111 NA
BRANCH  84  87
ATOM     87  O   UNL A   1      32.861  18.365  26.671  1.00  0.00    -0.491 OA
ATOM     88  H   UNL A   1      33.684  18.314  27.114  1.00  0.00     0.295 HD
ENDBRANCH  84  87
ENDBRANCH  78  80
ENDBRANCH  72  74
ENDBRANCH  71  72
ENDBRANCH  70  71
ENDBRANCH   1  70
TORSDOF 16
ENDMDL
