MODEL 1
REMARK VINA RESULT:     -12.2      0.000      0.000
REMARK SMILES Cc1cccc(Nc2ccccc2C(=O)OCCOC(=O)c2ccc(-c3c4nc(c(-c5cc(S(=O)(=O)[O-])ccc5F)c5ccc([nH]5)c(-c5cc(S(=O)(=O)[O-])ccc5F)c5nc(c(-c6cc(S(=O)(=O)[O-])ccc6F)c6ccc3[nH]6)C=C5)C=C4)cc2)c1C
REMARK SMILES IDX 18 1 17 2 16 3 14 4 15 5 13 6 8 7 9 8 10 9 12 10 11 11 7 12
REMARK SMILES IDX 6 14 1 15 2 16 3 17 85 18 4 19 86 20 5 21 19 22 20 23 21 24
REMARK SMILES IDX 22 25 23 26 84 27 24 28 83 29 25 30 26 31 27 32 77 33 28 34
REMARK SMILES IDX 82 35 76 36 78 37 29 38 81 39 75 40 74 41 30 43 62 44 42 45
REMARK SMILES IDX 61 46 43 47 46 48 60 49 79 50 44 51 45 52 59 54 80 55 47 56
REMARK SMILES IDX 31 57 32 58 40 59 33 60 39 61 41 62 38 63 34 64 35 65 36 66
REMARK SMILES IDX 37 67 63 68 64 69 72 70 65 71 71 72 73 73 70 74 66 75 67 76
REMARK SMILES IDX 68 77 69 78 48 79 49 80 57 81 50 82 56 83 58 84 55 85 51 86
REMARK SMILES IDX 52 87 53 88 54 89
REMARK H PARENT 7 13 78 42 46 53
REMARK Flexibility Score: inf
ROOT
ATOM      1  C   UNL A   1      36.443  21.443  24.344  1.00  0.00     0.275 C 
ENDROOT
BRANCH   1   2
ATOM      2  C   UNL A   1      36.536  22.709  23.496  1.00  0.00     0.275 C 
BRANCH   2   3
ATOM      3  O   UNL A   1      35.806  23.812  24.070  1.00  0.00    -0.458 OA
BRANCH   3   4
ATOM      4  C   UNL A   1      34.600  24.043  23.495  1.00  0.00     0.340 C 
ATOM      5  O   UNL A   1      34.269  23.729  22.361  1.00  0.00    -0.246 OA
BRANCH   4   6
ATOM      6  C   UNL A   1      33.662  24.702  24.429  1.00  0.00     0.083 A 
ATOM      7  C   UNL A   1      32.400  24.171  24.750  1.00  0.00     0.053 A 
ATOM      8  C   UNL A   1      31.624  24.859  25.706  1.00  0.00     0.027 A 
ATOM      9  C   UNL A   1      32.091  26.013  26.342  1.00  0.00     0.002 A 
ATOM     10  C   UNL A   1      34.117  25.870  25.066  1.00  0.00     0.018 A 
ATOM     11  C   UNL A   1      33.340  26.520  26.021  1.00  0.00     0.001 A 
BRANCH   7  12
ATOM     12  N   UNL A   1      31.881  22.946  24.282  1.00  0.00    -0.355 N 
ATOM     13  H   UNL A   1      31.033  23.028  23.789  1.00  0.00     0.167 HD
BRANCH  12  14
ATOM     14  C   UNL A   1      32.358  21.625  24.396  1.00  0.00     0.042 A 
ATOM     15  C   UNL A   1      32.368  18.226  22.622  1.00  0.00     0.044 C 
ATOM     16  C   UNL A   1      32.586  19.312  23.644  1.00  0.00    -0.046 A 
ATOM     17  C   UNL A   1      33.049  18.952  24.918  1.00  0.00     0.004 A 
ATOM     18  C   UNL A   1      32.293  20.668  23.357  1.00  0.00    -0.025 A 
ATOM     19  C   UNL A   1      33.195  19.910  25.915  1.00  0.00     0.002 A 
ATOM     20  C   UNL A   1      31.930  21.064  21.943  1.00  0.00     0.047 C 
ATOM     21  C   UNL A   1      32.833  21.229  25.659  1.00  0.00     0.026 A 
ENDBRANCH  12  14
ENDBRANCH   7  12
ENDBRANCH   4   6
ENDBRANCH   3   4
ENDBRANCH   2   3
ENDBRANCH   1   2
BRANCH   1  22
ATOM     22  O   UNL A   1      36.977  21.673  25.657  1.00  0.00    -0.458 OA
BRANCH  22  23
ATOM     23  C   UNL A   1      38.309  21.469  25.776  1.00  0.00     0.338 C 
ATOM     24  O   UNL A   1      38.955  20.530  25.343  1.00  0.00    -0.246 OA
BRANCH  23  25
ATOM     25  C   UNL A   1      38.928  22.580  26.516  1.00  0.00     0.060 A 
ATOM     26  C   UNL A   1      38.405  23.862  26.390  1.00  0.00     0.016 A 
ATOM     27  C   UNL A   1      40.132  22.382  27.187  1.00  0.00     0.016 A 
ATOM     28  C   UNL A   1      39.147  24.965  26.795  1.00  0.00     0.010 A 
ATOM     29  C   UNL A   1      40.811  23.484  27.717  1.00  0.00     0.010 A 
ATOM     30  C   UNL A   1      40.355  24.794  27.479  1.00  0.00    -0.014 A 
BRANCH  30  31
ATOM     31  C   UNL A   1      41.163  25.975  27.898  1.00  0.00     0.031 A 
ATOM     32  C   UNL A   1      40.530  27.054  28.738  1.00  0.00     0.074 A 
ATOM     33  C   UNL A   1      42.458  26.083  27.534  1.00  0.00     0.049 A 
ATOM     34  N   UNL A   1      40.959  28.261  29.003  1.00  0.00    -0.248 NA
ATOM     35  C   UNL A   1      39.224  26.737  29.335  1.00  0.00     0.031 C 
ATOM     36  C   UNL A   1      43.213  25.085  26.773  1.00  0.00     0.029 A 
ATOM     37  N   UNL A   1      43.370  27.087  27.752  1.00  0.00    -0.354 N 
ATOM     38  C   UNL A   1      39.943  28.875  29.731  1.00  0.00     0.074 A 
ATOM     39  C   UNL A   1      38.878  27.902  29.861  1.00  0.00     0.031 C 
ATOM     40  C   UNL A   1      44.473  25.509  26.615  1.00  0.00     0.029 A 
ATOM     41  C   UNL A   1      44.589  26.857  27.157  1.00  0.00     0.049 A 
ATOM     42  H   UNL A   1      43.172  27.891  28.283  1.00  0.00     0.167 HD
ATOM     43  C   UNL A   1      39.906  30.136  30.231  1.00  0.00     0.034 A 
ATOM     44  C   UNL A   1      45.659  27.660  26.998  1.00  0.00     0.034 A 
ATOM     45  C   UNL A   1      41.011  31.062  30.133  1.00  0.00     0.049 A 
ATOM     46  C   UNL A   1      45.591  29.062  27.537  1.00  0.00     0.074 A 
ATOM     47  C   UNL A   1      41.104  32.351  30.629  1.00  0.00     0.029 A 
ATOM     48  N   UNL A   1      42.221  30.795  29.501  1.00  0.00    -0.354 N 
ATOM     49  N   UNL A   1      44.600  29.658  28.161  1.00  0.00    -0.248 NA
ATOM     50  C   UNL A   1      46.776  29.902  27.339  1.00  0.00     0.031 C 
ATOM     51  C   UNL A   1      42.341  32.882  30.245  1.00  0.00     0.029 A 
ATOM     52  C   UNL A   1      43.053  31.902  29.572  1.00  0.00     0.049 A 
ATOM     53  H   UNL A   1      42.453  29.942  29.068  1.00  0.00     0.167 HD
ATOM     54  C   UNL A   1      45.048  30.947  28.434  1.00  0.00     0.074 A 
ATOM     55  C   UNL A   1      46.405  31.029  27.931  1.00  0.00     0.031 C 
ATOM     56  C   UNL A   1      44.395  31.970  29.043  1.00  0.00     0.034 A 
BRANCH  43  57
ATOM     57  C   UNL A   1      38.609  30.604  30.852  1.00  0.00     0.023 A 
ATOM     58  C   UNL A   1      37.569  31.171  30.096  1.00  0.00     0.031 A 
ATOM     59  C   UNL A   1      38.434  30.521  32.247  1.00  0.00     0.131 A 
ATOM     60  C   UNL A   1      36.443  31.706  30.743  1.00  0.00     0.055 A 
ATOM     61  C   UNL A   1      37.274  30.979  32.876  1.00  0.00     0.041 A 
ATOM     62  F   UNL A   1      39.399  30.009  33.028  1.00  0.00    -0.206 F 
ATOM     63  C   UNL A   1      36.277  31.592  32.125  1.00  0.00     0.022 A 
BRANCH  60  64
ATOM     64  S   UNL A   1      35.270  32.694  29.771  1.00  0.00     0.124 S 
ATOM     65  O   UNL A   1      34.885  31.750  28.724  1.00  0.00    -0.237 OA
ATOM     66  O   UNL A   1      34.240  33.015  30.752  1.00  0.00    -0.237 OA
ATOM     67  O   UNL A   1      36.072  33.827  29.313  1.00  0.00    -0.744 OA
ENDBRANCH  60  64
ENDBRANCH  43  57
BRANCH  44  68
ATOM     68  C   UNL A   1      46.836  27.186  26.215  1.00  0.00     0.023 A 
ATOM     69  C   UNL A   1      47.057  27.611  24.896  1.00  0.00     0.031 A 
ATOM     70  C   UNL A   1      47.764  26.293  26.786  1.00  0.00     0.131 A 
ATOM     71  C   UNL A   1      48.167  27.127  24.185  1.00  0.00     0.055 A 
ATOM     72  C   UNL A   1      48.894  25.858  26.093  1.00  0.00     0.041 A 
ATOM     73  F   UNL A   1      47.600  25.854  28.044  1.00  0.00    -0.206 F 
ATOM     74  C   UNL A   1      49.096  26.270  24.780  1.00  0.00     0.022 A 
BRANCH  71  75
ATOM     75  S   UNL A   1      48.354  27.592  22.442  1.00  0.00     0.124 S 
ATOM     76  O   UNL A   1      48.436  26.287  21.793  1.00  0.00    -0.237 OA
ATOM     77  O   UNL A   1      47.135  28.355  22.198  1.00  0.00    -0.237 OA
ATOM     78  O   UNL A   1      49.589  28.373  22.427  1.00  0.00    -0.744 OA
ENDBRANCH  71  75
ENDBRANCH  44  68
BRANCH  56  79
ATOM     79  C   UNL A   1      45.170  33.253  29.217  1.00  0.00     0.023 A 
ATOM     80  C   UNL A   1      45.097  34.292  28.273  1.00  0.00     0.031 A 
ATOM     81  C   UNL A   1      46.012  33.423  30.329  1.00  0.00     0.131 A 
ATOM     82  C   UNL A   1      45.899  35.432  28.428  1.00  0.00     0.055 A 
ATOM     83  C   UNL A   1      46.763  34.585  30.509  1.00  0.00     0.041 A 
ATOM     84  F   UNL A   1      46.121  32.460  31.258  1.00  0.00    -0.206 F 
ATOM     85  C   UNL A   1      46.720  35.591  29.548  1.00  0.00     0.022 A 
BRANCH  82  86
ATOM     86  S   UNL A   1      45.932  36.661  27.096  1.00  0.00     0.124 S 
ATOM     87  O   UNL A   1      44.519  37.007  26.968  1.00  0.00    -0.237 OA
ATOM     88  O   UNL A   1      46.796  37.699  27.649  1.00  0.00    -0.237 OA
ATOM     89  O   UNL A   1      46.494  35.926  25.964  1.00  0.00    -0.744 OA
ENDBRANCH  82  86
ENDBRANCH  56  79
ENDBRANCH  30  31
ENDBRANCH  23  25
ENDBRANCH  22  23
ENDBRANCH   1  22
TORSDOF 16
ENDMDL
MODEL 2
REMARK VINA RESULT:     -12.1      5.490     10.385
REMARK SMILES Cc1cccc(Nc2ccccc2C(=O)OCCOC(=O)c2ccc(-c3c4nc(c(-c5cc(S(=O)(=O)[O-])ccc5F)c5ccc([nH]5)c(-c5cc(S(=O)(=O)[O-])ccc5F)c5nc(c(-c6cc(S(=O)(=O)[O-])ccc6F)c6ccc3[nH]6)C=C5)C=C4)cc2)c1C
REMARK SMILES IDX 18 1 17 2 16 3 14 4 15 5 13 6 8 7 9 8 10 9 12 10 11 11 7 12
REMARK SMILES IDX 6 14 1 15 2 16 3 17 85 18 4 19 86 20 5 21 19 22 20 23 21 24
REMARK SMILES IDX 22 25 23 26 84 27 24 28 83 29 25 30 26 31 27 32 77 33 28 34
REMARK SMILES IDX 82 35 76 36 78 37 29 38 81 39 75 40 74 41 30 43 62 44 42 45
REMARK SMILES IDX 61 46 43 47 46 48 60 49 79 50 44 51 45 52 59 54 80 55 47 56
REMARK SMILES IDX 31 57 32 58 40 59 33 60 39 61 41 62 38 63 34 64 35 65 36 66
REMARK SMILES IDX 37 67 63 68 64 69 72 70 65 71 71 72 73 73 70 74 66 75 67 76
REMARK SMILES IDX 68 77 69 78 48 79 49 80 57 81 50 82 56 83 58 84 55 85 51 86
REMARK SMILES IDX 52 87 53 88 54 89
REMARK H PARENT 7 13 78 42 46 53
REMARK Flexibility Score: inf
ROOT
ATOM      1  C   UNL A   1      31.765  30.831  26.126  1.00  0.00     0.275 C 
ENDROOT
BRANCH   1   2
ATOM      2  C   UNL A   1      31.809  29.498  25.383  1.00  0.00     0.275 C 
BRANCH   2   3
ATOM      3  O   UNL A   1      33.156  29.043  25.148  1.00  0.00    -0.458 OA
BRANCH   3   4
ATOM      4  C   UNL A   1      33.387  28.606  23.885  1.00  0.00     0.340 C 
ATOM      5  O   UNL A   1      33.813  29.277  22.955  1.00  0.00    -0.246 OA
BRANCH   4   6
ATOM      6  C   UNL A   1      33.104  27.162  23.741  1.00  0.00     0.083 A 
ATOM      7  C   UNL A   1      32.079  26.659  22.920  1.00  0.00     0.053 A 
ATOM      8  C   UNL A   1      31.953  25.258  22.814  1.00  0.00     0.027 A 
ATOM      9  C   UNL A   1      32.826  24.388  23.472  1.00  0.00     0.002 A 
ATOM     10  C   UNL A   1      33.971  26.277  24.407  1.00  0.00     0.018 A 
ATOM     11  C   UNL A   1      33.838  24.898  24.271  1.00  0.00     0.001 A 
BRANCH   7  12
ATOM     12  N   UNL A   1      31.228  27.431  22.102  1.00  0.00    -0.355 N 
ATOM     13  H   UNL A   1      31.420  27.360  21.139  1.00  0.00     0.167 HD
BRANCH  12  14
ATOM     14  C   UNL A   1      30.153  28.287  22.416  1.00  0.00     0.042 A 
ATOM     15  C   UNL A   1      26.523  28.291  23.646  1.00  0.00     0.044 C 
ATOM     16  C   UNL A   1      27.861  28.746  23.125  1.00  0.00    -0.046 A 
ATOM     17  C   UNL A   1      27.988  30.061  22.655  1.00  0.00     0.004 A 
ATOM     18  C   UNL A   1      28.969  27.864  23.062  1.00  0.00    -0.025 A 
ATOM     19  C   UNL A   1      29.183  30.501  22.098  1.00  0.00     0.002 A 
ATOM     20  C   UNL A   1      28.863  26.496  23.699  1.00  0.00     0.047 C 
ATOM     21  C   UNL A   1      30.247  29.614  21.963  1.00  0.00     0.026 A 
ENDBRANCH  12  14
ENDBRANCH   7  12
ENDBRANCH   4   6
ENDBRANCH   3   4
ENDBRANCH   2   3
ENDBRANCH   1   2
BRANCH   1  22
ATOM     22  O   UNL A   1      32.593  30.785  27.298  1.00  0.00    -0.458 OA
BRANCH  22  23
ATOM     23  C   UNL A   1      33.362  31.879  27.498  1.00  0.00     0.338 C 
ATOM     24  O   UNL A   1      33.024  33.047  27.406  1.00  0.00    -0.246 OA
BRANCH  23  25
ATOM     25  C   UNL A   1      34.726  31.479  27.877  1.00  0.00     0.060 A 
ATOM     26  C   UNL A   1      34.973  30.164  28.255  1.00  0.00     0.016 A 
ATOM     27  C   UNL A   1      35.716  32.446  28.030  1.00  0.00     0.016 A 
ATOM     28  C   UNL A   1      36.146  29.836  28.926  1.00  0.00     0.010 A 
ATOM     29  C   UNL A   1      36.950  32.083  28.580  1.00  0.00     0.010 A 
ATOM     30  C   UNL A   1      37.160  30.786  29.085  1.00  0.00    -0.014 A 
BRANCH  30  31
ATOM     31  C   UNL A   1      38.411  30.444  29.821  1.00  0.00     0.031 A 
ATOM     32  C   UNL A   1      39.402  29.490  29.206  1.00  0.00     0.074 A 
ATOM     33  C   UNL A   1      38.665  30.985  31.031  1.00  0.00     0.049 A 
ATOM     34  N   UNL A   1      40.413  28.870  29.758  1.00  0.00    -0.248 NA
ATOM     35  C   UNL A   1      39.209  29.171  27.783  1.00  0.00     0.031 C 
ATOM     36  C   UNL A   1      37.821  31.967  31.716  1.00  0.00     0.029 A 
ATOM     37  N   UNL A   1      39.705  30.781  31.904  1.00  0.00    -0.354 N 
ATOM     38  C   UNL A   1      40.928  28.030  28.775  1.00  0.00     0.074 A 
ATOM     39  C   UNL A   1      40.113  28.222  27.594  1.00  0.00     0.031 C 
ATOM     40  C   UNL A   1      38.390  32.301  32.882  1.00  0.00     0.029 A 
ATOM     41  C   UNL A   1      39.573  31.475  33.084  1.00  0.00     0.049 A 
ATOM     42  H   UNL A   1      40.472  30.196  31.705  1.00  0.00     0.167 HD
ATOM     43  C   UNL A   1      41.977  27.173  28.861  1.00  0.00     0.034 A 
ATOM     44  C   UNL A   1      40.276  31.409  34.232  1.00  0.00     0.034 A 
ATOM     45  C   UNL A   1      42.806  27.047  30.038  1.00  0.00     0.049 A 
ATOM     46  C   UNL A   1      41.420  30.436  34.318  1.00  0.00     0.074 A 
ATOM     47  C   UNL A   1      43.914  26.240  30.232  1.00  0.00     0.029 A 
ATOM     48  N   UNL A   1      42.622  27.755  31.221  1.00  0.00    -0.354 N 
ATOM     49  N   UNL A   1      41.856  29.594  33.408  1.00  0.00    -0.248 NA
ATOM     50  C   UNL A   1      42.155  30.394  35.585  1.00  0.00     0.031 C 
ATOM     51  C   UNL A   1      44.360  26.415  31.547  1.00  0.00     0.029 A 
ATOM     52  C   UNL A   1      43.578  27.384  32.154  1.00  0.00     0.049 A 
ATOM     53  H   UNL A   1      41.916  28.424  31.372  1.00  0.00     0.167 HD
ATOM     54  C   UNL A   1      42.923  28.923  33.996  1.00  0.00     0.074 A 
ATOM     55  C   UNL A   1      43.080  29.480  35.325  1.00  0.00     0.031 C 
ATOM     56  C   UNL A   1      43.702  27.935  33.484  1.00  0.00     0.034 A 
BRANCH  43  57
ATOM     57  C   UNL A   1      42.230  26.257  27.685  1.00  0.00     0.023 A 
ATOM     58  C   UNL A   1      41.758  24.934  27.640  1.00  0.00     0.031 A 
ATOM     59  C   UNL A   1      43.006  26.711  26.601  1.00  0.00     0.131 A 
ATOM     60  C   UNL A   1      42.133  24.090  26.581  1.00  0.00     0.055 A 
ATOM     61  C   UNL A   1      43.306  25.893  25.510  1.00  0.00     0.041 A 
ATOM     62  F   UNL A   1      43.505  27.958  26.593  1.00  0.00    -0.206 F 
ATOM     63  C   UNL A   1      42.884  24.567  25.505  1.00  0.00     0.022 A 
BRANCH  60  64
ATOM     64  S   UNL A   1      41.760  22.319  26.707  1.00  0.00     0.124 S 
ATOM     65  O   UNL A   1      41.935  21.880  25.324  1.00  0.00    -0.237 OA
ATOM     66  O   UNL A   1      42.763  21.852  27.657  1.00  0.00    -0.237 OA
ATOM     67  O   UNL A   1      40.380  22.292  27.192  1.00  0.00    -0.744 OA
ENDBRANCH  60  64
ENDBRANCH  43  57
BRANCH  44  68
ATOM     68  C   UNL A   1      39.854  32.215  35.412  1.00  0.00     0.023 A 
ATOM     69  C   UNL A   1      38.980  31.696  36.379  1.00  0.00     0.031 A 
ATOM     70  C   UNL A   1      40.327  33.531  35.589  1.00  0.00     0.131 A 
ATOM     71  C   UNL A   1      38.590  32.493  37.466  1.00  0.00     0.055 A 
ATOM     72  C   UNL A   1      39.979  34.299  36.699  1.00  0.00     0.041 A 
ATOM     73  F   UNL A   1      41.166  34.076  34.693  1.00  0.00    -0.206 F 
ATOM     74  C   UNL A   1      39.098  33.783  37.643  1.00  0.00     0.022 A 
BRANCH  71  75
ATOM     75  S   UNL A   1      37.359  31.841  38.628  1.00  0.00     0.124 S 
ATOM     76  O   UNL A   1      36.259  32.785  38.456  1.00  0.00    -0.237 OA
ATOM     77  O   UNL A   1      37.137  30.496  38.112  1.00  0.00    -0.237 OA
ATOM     78  O   UNL A   1      38.040  31.906  39.920  1.00  0.00    -0.744 OA
ENDBRANCH  71  75
ENDBRANCH  44  68
BRANCH  56  79
ATOM     79  C   UNL A   1      44.810  27.425  34.371  1.00  0.00     0.023 A 
ATOM     80  C   UNL A   1      44.653  26.270  35.156  1.00  0.00     0.031 A 
ATOM     81  C   UNL A   1      46.028  28.122  34.451  1.00  0.00     0.131 A 
ATOM     82  C   UNL A   1      45.676  25.878  36.032  1.00  0.00     0.055 A 
ATOM     83  C   UNL A   1      47.065  27.695  35.279  1.00  0.00     0.041 A 
ATOM     84  F   UNL A   1      46.228  29.234  33.724  1.00  0.00    -0.206 F 
ATOM     85  C   UNL A   1      46.887  26.574  36.087  1.00  0.00     0.022 A 
BRANCH  82  86
ATOM     86  S   UNL A   1      45.367  24.503  37.172  1.00  0.00     0.124 S 
ATOM     87  O   UNL A   1      44.935  23.446  36.263  1.00  0.00    -0.237 OA
ATOM     88  O   UNL A   1      46.673  24.314  37.796  1.00  0.00    -0.237 OA
ATOM     89  O   UNL A   1      44.327  25.021  38.060  1.00  0.00    -0.744 OA
ENDBRANCH  82  86
ENDBRANCH  56  79
ENDBRANCH  30  31
ENDBRANCH  23  25
ENDBRANCH  22  23
ENDBRANCH   1  22
TORSDOF 16
ENDMDL
MODEL 3
REMARK VINA RESULT:     -11.9      1.245      1.714
REMARK SMILES Cc1cccc(Nc2ccccc2C(=O)OCCOC(=O)c2ccc(-c3c4nc(c(-c5cc(S(=O)(=O)[O-])ccc5F)c5ccc([nH]5)c(-c5cc(S(=O)(=O)[O-])ccc5F)c5nc(c(-c6cc(S(=O)(=O)[O-])ccc6F)c6ccc3[nH]6)C=C5)C=C4)cc2)c1C
REMARK SMILES IDX 18 1 17 2 16 3 14 4 15 5 13 6 8 7 9 8 10 9 12 10 11 11 7 12
REMARK SMILES IDX 6 14 1 15 2 16 3 17 85 18 4 19 86 20 5 21 19 22 20 23 21 24
REMARK SMILES IDX 22 25 23 26 84 27 24 28 83 29 25 30 26 31 27 32 77 33 28 34
REMARK SMILES IDX 82 35 76 36 78 37 29 38 81 39 75 40 74 41 30 43 62 44 42 45
REMARK SMILES IDX 61 46 43 47 46 48 60 49 79 50 44 51 45 52 59 54 80 55 47 56
REMARK SMILES IDX 31 57 32 58 40 59 33 60 39 61 41 62 38 63 34 64 35 65 36 66
REMARK SMILES IDX 37 67 63 68 64 69 72 70 65 71 71 72 73 73 70 74 66 75 67 76
REMARK SMILES IDX 68 77 69 78 48 79 49 80 57 81 50 82 56 83 58 84 55 85 51 86
REMARK SMILES IDX 52 87 53 88 54 89
REMARK H PARENT 7 13 78 42 46 53
REMARK Flexibility Score: inf
ROOT
ATOM      1  C   UNL A   1      37.425  20.524  24.912  1.00  0.00     0.275 C 
ENDROOT
BRANCH   1   2
ATOM      2  C   UNL A   1      35.941  20.725  25.208  1.00  0.00     0.275 C 
BRANCH   2   3
ATOM      3  O   UNL A   1      35.706  21.800  26.138  1.00  0.00    -0.458 OA
BRANCH   3   4
ATOM      4  C   UNL A   1      34.407  22.178  26.238  1.00  0.00     0.340 C 
ATOM      5  O   UNL A   1      33.682  22.020  27.211  1.00  0.00    -0.246 OA
BRANCH   4   6
ATOM      6  C   UNL A   1      33.940  22.876  25.022  1.00  0.00     0.083 A 
ATOM      7  C   UNL A   1      32.931  22.366  24.185  1.00  0.00     0.053 A 
ATOM      8  C   UNL A   1      32.527  23.158  23.090  1.00  0.00     0.027 A 
ATOM      9  C   UNL A   1      33.078  24.420  22.849  1.00  0.00     0.002 A 
ATOM     10  C   UNL A   1      34.496  24.142  24.764  1.00  0.00     0.018 A 
ATOM     11  C   UNL A   1      34.065  24.913  23.687  1.00  0.00     0.001 A 
BRANCH   7  12
ATOM     12  N   UNL A   1      32.206  21.176  24.402  1.00  0.00    -0.355 N 
ATOM     13  H   UNL A   1      31.459  21.269  25.038  1.00  0.00     0.167 HD
BRANCH  12  14
ATOM     14  C   UNL A   1      32.359  19.879  23.875  1.00  0.00     0.042 A 
ATOM     15  C   UNL A   1      33.754  16.403  24.692  1.00  0.00     0.044 C 
ATOM     16  C   UNL A   1      33.130  17.562  23.960  1.00  0.00    -0.046 A 
ATOM     17  C   UNL A   1      32.926  17.453  22.576  1.00  0.00     0.004 A 
ATOM     18  C   UNL A   1      32.789  18.763  24.630  1.00  0.00    -0.025 A 
ATOM     19  C   UNL A   1      32.422  18.524  21.848  1.00  0.00     0.002 A 
ATOM     20  C   UNL A   1      32.879  18.821  26.139  1.00  0.00     0.047 C 
ATOM     21  C   UNL A   1      32.160  19.730  22.491  1.00  0.00     0.026 A 
ENDBRANCH  12  14
ENDBRANCH   7  12
ENDBRANCH   4   6
ENDBRANCH   3   4
ENDBRANCH   2   3
ENDBRANCH   1   2
BRANCH   1  22
ATOM     22  O   UNL A   1      38.179  21.685  25.292  1.00  0.00    -0.458 OA
BRANCH  22  23
ATOM     23  C   UNL A   1      39.279  21.433  26.037  1.00  0.00     0.338 C 
ATOM     24  O   UNL A   1      39.884  20.379  26.129  1.00  0.00    -0.246 OA
BRANCH  23  25
ATOM     25  C   UNL A   1      39.697  22.649  26.753  1.00  0.00     0.060 A 
ATOM     26  C   UNL A   1      39.163  23.878  26.383  1.00  0.00     0.016 A 
ATOM     27  C   UNL A   1      40.749  22.592  27.664  1.00  0.00     0.016 A 
ATOM     28  C   UNL A   1      39.769  25.059  26.798  1.00  0.00     0.010 A 
ATOM     29  C   UNL A   1      41.268  23.781  28.188  1.00  0.00     0.010 A 
ATOM     30  C   UNL A   1      40.821  25.030  27.719  1.00  0.00    -0.014 A 
BRANCH  30  31
ATOM     31  C   UNL A   1      41.486  26.293  28.151  1.00  0.00     0.031 A 
ATOM     32  C   UNL A   1      40.702  27.326  28.918  1.00  0.00     0.074 A 
ATOM     33  C   UNL A   1      42.785  26.516  27.864  1.00  0.00     0.049 A 
ATOM     34  N   UNL A   1      40.996  28.574  29.173  1.00  0.00    -0.248 NA
ATOM     35  C   UNL A   1      39.396  26.899  29.444  1.00  0.00     0.031 C 
ATOM     36  C   UNL A   1      43.678  25.578  27.180  1.00  0.00     0.029 A 
ATOM     37  N   UNL A   1      43.583  27.608  28.108  1.00  0.00    -0.354 N 
ATOM     38  C   UNL A   1      39.883  29.104  29.820  1.00  0.00     0.074 A 
ATOM     39  C   UNL A   1      38.908  28.037  29.913  1.00  0.00     0.031 C 
ATOM     40  C   UNL A   1      44.900  26.117  27.087  1.00  0.00     0.029 A 
ATOM     41  C   UNL A   1      44.853  27.482  27.595  1.00  0.00     0.049 A 
ATOM     42  H   UNL A   1      43.276  28.402  28.601  1.00  0.00     0.167 HD
ATOM     43  C   UNL A   1      39.696  30.368  30.279  1.00  0.00     0.034 A 
ATOM     44  C   UNL A   1      45.850  28.381  27.477  1.00  0.00     0.034 A 
ATOM     45  C   UNL A   1      40.711  31.393  30.220  1.00  0.00     0.049 A 
ATOM     46  C   UNL A   1      45.616  29.782  27.969  1.00  0.00     0.074 A 
ATOM     47  C   UNL A   1      40.650  32.697  30.682  1.00  0.00     0.029 A 
ATOM     48  N   UNL A   1      41.979  31.229  29.672  1.00  0.00    -0.354 N 
ATOM     49  N   UNL A   1      44.535  30.295  28.514  1.00  0.00    -0.248 NA
ATOM     50  C   UNL A   1      46.726  30.728  27.819  1.00  0.00     0.031 C 
ATOM     51  C   UNL A   1      41.854  33.335  30.359  1.00  0.00     0.029 A 
ATOM     52  C   UNL A   1      42.696  32.412  29.760  1.00  0.00     0.049 A 
ATOM     53  H   UNL A   1      42.317  30.392  29.279  1.00  0.00     0.167 HD
ATOM     54  C   UNL A   1      44.841  31.627  28.775  1.00  0.00     0.074 A 
ATOM     55  C   UNL A   1      46.213  31.827  28.354  1.00  0.00     0.031 C 
ATOM     56  C   UNL A   1      44.057  32.597  29.312  1.00  0.00     0.034 A 
BRANCH  43  57
ATOM     57  C   UNL A   1      38.323  30.724  30.805  1.00  0.00     0.023 A 
ATOM     58  C   UNL A   1      37.330  31.306  29.998  1.00  0.00     0.031 A 
ATOM     59  C   UNL A   1      38.022  30.515  32.164  1.00  0.00     0.131 A 
ATOM     60  C   UNL A   1      36.121  31.734  30.573  1.00  0.00     0.055 A 
ATOM     61  C   UNL A   1      36.786  30.866  32.712  1.00  0.00     0.041 A 
ATOM     62  F   UNL A   1      38.935  29.982  32.993  1.00  0.00    -0.206 F 
ATOM     63  C   UNL A   1      35.833  31.496  31.918  1.00  0.00     0.022 A 
BRANCH  60  64
ATOM     64  S   UNL A   1      34.995  32.747  29.573  1.00  0.00     0.124 S 
ATOM     65  O   UNL A   1      34.397  31.745  28.693  1.00  0.00    -0.237 OA
ATOM     66  O   UNL A   1      34.111  33.322  30.579  1.00  0.00    -0.237 OA
ATOM     67  O   UNL A   1      35.887  33.697  28.908  1.00  0.00    -0.744 OA
ENDBRANCH  60  64
ENDBRANCH  43  57
BRANCH  44  68
ATOM     68  C   UNL A   1      47.114  28.004  26.783  1.00  0.00     0.023 A 
ATOM     69  C   UNL A   1      47.205  27.994  25.382  1.00  0.00     0.031 A 
ATOM     70  C   UNL A   1      48.260  27.646  27.521  1.00  0.00     0.131 A 
ATOM     71  C   UNL A   1      48.407  27.615  24.764  1.00  0.00     0.055 A 
ATOM     72  C   UNL A   1      49.467  27.322  26.902  1.00  0.00     0.041 A 
ATOM     73  F   UNL A   1      48.227  27.638  28.863  1.00  0.00    -0.206 F 
ATOM     74  C   UNL A   1      49.543  27.298  25.514  1.00  0.00     0.022 A 
BRANCH  71  75
ATOM     75  S   UNL A   1      48.454  27.487  22.955  1.00  0.00     0.124 S 
ATOM     76  O   UNL A   1      49.724  28.136  22.644  1.00  0.00    -0.237 OA
ATOM     77  O   UNL A   1      48.405  26.043  22.752  1.00  0.00    -0.237 OA
ATOM     78  O   UNL A   1      47.261  28.215  22.530  1.00  0.00    -0.744 OA
ENDBRANCH  71  75
ENDBRANCH  44  68
BRANCH  56  79
ATOM     79  C   UNL A   1      44.694  33.952  29.495  1.00  0.00     0.023 A 
ATOM     80  C   UNL A   1      44.633  34.936  28.493  1.00  0.00     0.031 A 
ATOM     81  C   UNL A   1      45.395  34.249  30.677  1.00  0.00     0.131 A 
ATOM     82  C   UNL A   1      45.312  36.151  28.667  1.00  0.00     0.055 A 
ATOM     83  C   UNL A   1      46.018  35.481  30.869  1.00  0.00     0.041 A 
ATOM     84  F   UNL A   1      45.487  33.342  31.663  1.00  0.00    -0.206 F 
ATOM     85  C   UNL A   1      45.991  36.436  29.856  1.00  0.00     0.022 A 
BRANCH  82  86
ATOM     86  S   UNL A   1      45.380  37.318  27.281  1.00  0.00     0.124 S 
ATOM     87  O   UNL A   1      43.967  37.472  26.946  1.00  0.00    -0.237 OA
ATOM     88  O   UNL A   1      46.025  38.481  27.882  1.00  0.00    -0.237 OA
ATOM     89  O   UNL A   1      46.180  36.615  26.281  1.00  0.00    -0.744 OA
ENDBRANCH  82  86
ENDBRANCH  56  79
ENDBRANCH  30  31
ENDBRANCH  23  25
ENDBRANCH  22  23
ENDBRANCH   1  22
TORSDOF 16
ENDMDL
