MODEL 1
REMARK VINA RESULT:     -11.5      0.000      0.000
REMARK SMILES O=C(C[C@H](NS(=O)(=O)c1cccs1)c1ccccc1Cl)OCCOC(=O)c1ccc(-c2c3nc(c(-c4cc(S(=O)(=O)[O-])ccc4F)c4ccc([nH]4)c(-c4cc(S(=O)(=O)[O-])ccc4F)c4nc(c(-c5cc(S(=O)(=O)[O-])ccc5F)c5ccc2[nH]5)C=C4)C=C3)cc1
REMARK SMILES IDX 22 1 21 2 2 3 1 4 3 5 4 6 14 7 15 8 19 9 16 10 18 11 20 12
REMARK SMILES IDX 17 13 5 14 6 16 7 17 8 18 9 19 10 20 13 21 11 22 12 23 23 24
REMARK SMILES IDX 24 25 25 26 26 27 27 28 28 29 89 30 29 31 88 32 30 33 31 34
REMARK SMILES IDX 32 35 82 36 33 37 87 38 81 39 83 40 34 41 86 42 80 43 79 44
REMARK SMILES IDX 35 46 67 47 47 48 66 49 48 50 51 51 65 52 84 53 49 54 50 55
REMARK SMILES IDX 64 57 85 58 52 59 36 60 37 61 45 62 38 63 44 64 46 65 43 66
REMARK SMILES IDX 39 67 40 68 41 69 42 70 68 71 69 72 77 73 70 74 76 75 78 76
REMARK SMILES IDX 75 77 71 78 72 79 73 80 74 81 53 82 54 83 62 84 55 85 61 86
REMARK SMILES IDX 63 87 60 88 56 89 57 90 58 91 59 92
REMARK H PARENT 5 15 83 45 51 56
REMARK Flexibility Score: inf
ROOT
ATOM      1  C   UNL A   1      31.213  30.866  25.819  1.00  0.00     0.274 C 
ENDROOT
BRANCH   1   2
ATOM      2  O   UNL A   1      32.419  30.112  25.572  1.00  0.00    -0.462 OA
BRANCH   2   3
ATOM      3  C   UNL A   1      32.521  28.767  25.686  1.00  0.00     0.307 C 
ATOM      4  O   UNL A   1      33.601  28.235  25.933  1.00  0.00    -0.252 OA
BRANCH   3   5
ATOM      5  C   UNL A   1      31.299  27.928  25.453  1.00  0.00     0.147 C 
BRANCH   5   6
ATOM      6  C   UNL A   1      31.150  27.447  24.018  1.00  0.00     0.112 C 
BRANCH   6   7
ATOM      7  C   UNL A   1      30.048  28.287  23.373  1.00  0.00    -0.011 A 
ATOM      8  C   UNL A   1      30.427  29.451  22.668  1.00  0.00     0.007 A 
ATOM      9  C   UNL A   1      28.685  27.936  23.372  1.00  0.00     0.045 A 
ATOM     10  C   UNL A   1      29.482  30.248  22.018  1.00  0.00     0.000 A 
ATOM     11  C   UNL A   1      27.743  28.734  22.710  1.00  0.00     0.021 A 
ATOM     12  Cl  UNL A   1      28.090  26.537  24.188  1.00  0.00    -0.084 Cl
ATOM     13  C   UNL A   1      28.139  29.890  22.041  1.00  0.00     0.002 A 
ENDBRANCH   6   7
BRANCH   6  14
ATOM     14  N   UNL A   1      32.443  27.457  23.315  1.00  0.00    -0.202 NA
ATOM     15  H   UNL A   1      33.167  27.620  24.014  1.00  0.00     0.142 HD
BRANCH  14  16
ATOM     16  S   UNL A   1      32.883  26.082  22.452  1.00  0.00     0.250 S 
ATOM     17  O   UNL A   1      31.678  25.496  21.920  1.00  0.00    -0.206 OA
ATOM     18  O   UNL A   1      33.983  26.459  21.583  1.00  0.00    -0.206 OA
BRANCH  16  19
ATOM     19  C   UNL A   1      33.593  24.927  23.602  1.00  0.00     0.134 A 
ATOM     20  C   UNL A   1      33.730  24.979  24.978  1.00  0.00     0.033 A 
ATOM     21  S   UNL A   1      34.137  23.433  22.978  1.00  0.00    -0.131 S 
ATOM     22  C   UNL A   1      34.171  23.742  25.528  1.00  0.00     0.013 A 
ATOM     23  C   UNL A   1      34.432  22.813  24.547  1.00  0.00     0.066 A 
ENDBRANCH  16  19
ENDBRANCH  14  16
ENDBRANCH   6  14
ENDBRANCH   5   6
ENDBRANCH   3   5
ENDBRANCH   2   3
ENDBRANCH   1   2
BRANCH   1  24
ATOM     24  C   UNL A   1      31.399  31.993  26.839  1.00  0.00     0.275 C 
BRANCH  24  25
ATOM     25  O   UNL A   1      32.618  32.721  26.600  1.00  0.00    -0.458 OA
BRANCH  25  26
ATOM     26  C   UNL A   1      33.109  33.391  27.678  1.00  0.00     0.338 C 
ATOM     27  O   UNL A   1      32.506  34.223  28.333  1.00  0.00    -0.246 OA
BRANCH  26  28
ATOM     28  C   UNL A   1      34.407  32.798  28.093  1.00  0.00     0.060 A 
ATOM     29  C   UNL A   1      34.430  31.426  28.382  1.00  0.00     0.016 A 
ATOM     30  C   UNL A   1      35.588  33.543  28.159  1.00  0.00     0.016 A 
ATOM     31  C   UNL A   1      35.617  30.810  28.787  1.00  0.00     0.010 A 
ATOM     32  C   UNL A   1      36.778  32.923  28.569  1.00  0.00     0.010 A 
ATOM     33  C   UNL A   1      36.792  31.562  28.925  1.00  0.00    -0.014 A 
BRANCH  33  34
ATOM     34  C   UNL A   1      37.968  30.967  29.621  1.00  0.00     0.031 A 
ATOM     35  C   UNL A   1      38.225  31.351  31.051  1.00  0.00     0.074 A 
ATOM     36  C   UNL A   1      38.771  30.065  29.025  1.00  0.00     0.049 A 
ATOM     37  N   UNL A   1      39.157  30.935  31.869  1.00  0.00    -0.248 NA
ATOM     38  C   UNL A   1      37.306  32.339  31.634  1.00  0.00     0.031 C 
ATOM     39  C   UNL A   1      38.600  29.573  27.666  1.00  0.00     0.029 A 
ATOM     40  N   UNL A   1      39.881  29.398  29.481  1.00  0.00    -0.354 N 
ATOM     41  C   UNL A   1      38.932  31.603  33.067  1.00  0.00     0.074 A 
ATOM     42  C   UNL A   1      37.815  32.496  32.845  1.00  0.00     0.031 C 
ATOM     43  C   UNL A   1      39.566  28.680  27.390  1.00  0.00     0.029 A 
ATOM     44  C   UNL A   1      40.442  28.550  28.551  1.00  0.00     0.049 A 
ATOM     45  H   UNL A   1      40.244  29.515  30.389  1.00  0.00     0.167 HD
ATOM     46  C   UNL A   1      39.584  31.470  34.248  1.00  0.00     0.034 A 
ATOM     47  C   UNL A   1      41.535  27.760  28.627  1.00  0.00     0.034 A 
ATOM     48  C   UNL A   1      40.710  30.592  34.452  1.00  0.00     0.049 A 
ATOM     49  C   UNL A   1      42.311  27.712  29.924  1.00  0.00     0.074 A 
ATOM     50  C   UNL A   1      41.430  30.373  35.614  1.00  0.00     0.029 A 
ATOM     51  N   UNL A   1      41.298  29.804  33.470  1.00  0.00    -0.354 N 
ATOM     52  N   UNL A   1      42.068  28.325  31.059  1.00  0.00    -0.248 NA
ATOM     53  C   UNL A   1      43.500  26.850  29.951  1.00  0.00     0.031 C 
ATOM     54  C   UNL A   1      42.504  29.529  35.313  1.00  0.00     0.029 A 
ATOM     55  C   UNL A   1      42.399  29.136  33.988  1.00  0.00     0.049 A 
ATOM     56  H   UNL A   1      40.980  29.730  32.541  1.00  0.00     0.167 HD
ATOM     57  C   UNL A   1      43.046  27.882  31.949  1.00  0.00     0.074 A 
ATOM     58  C   UNL A   1      43.875  26.947  31.218  1.00  0.00     0.031 C 
ATOM     59  C   UNL A   1      43.233  28.211  33.253  1.00  0.00     0.034 A 
BRANCH  46  60
ATOM     60  C   UNL A   1      39.121  32.347  35.387  1.00  0.00     0.023 A 
ATOM     61  C   UNL A   1      39.543  33.683  35.516  1.00  0.00     0.031 A 
ATOM     62  C   UNL A   1      38.288  31.821  36.390  1.00  0.00     0.131 A 
ATOM     63  C   UNL A   1      39.208  34.414  36.664  1.00  0.00     0.055 A 
ATOM     64  C   UNL A   1      37.879  32.587  37.483  1.00  0.00     0.041 A 
ATOM     65  F   UNL A   1      37.876  30.545  36.339  1.00  0.00    -0.206 F 
ATOM     66  C   UNL A   1      38.355  33.885  37.635  1.00  0.00     0.022 A 
BRANCH  63  67
ATOM     67  S   UNL A   1      40.051  35.993  36.959  1.00  0.00     0.124 S 
ATOM     68  O   UNL A   1      41.386  35.546  37.351  1.00  0.00    -0.237 OA
ATOM     69  O   UNL A   1      39.951  36.651  35.662  1.00  0.00    -0.237 OA
ATOM     70  O   UNL A   1      39.268  36.604  38.032  1.00  0.00    -0.744 OA
ENDBRANCH  63  67
ENDBRANCH  46  60
BRANCH  47  71
ATOM     71  C   UNL A   1      41.983  26.955  27.452  1.00  0.00     0.023 A 
ATOM     72  C   UNL A   1      41.689  25.584  27.355  1.00  0.00     0.031 A 
ATOM     73  C   UNL A   1      42.783  27.526  26.446  1.00  0.00     0.131 A 
ATOM     74  C   UNL A   1      42.236  24.820  26.311  1.00  0.00     0.055 A 
ATOM     75  C   UNL A   1      43.275  26.775  25.376  1.00  0.00     0.041 A 
ATOM     76  F   UNL A   1      43.105  28.829  26.491  1.00  0.00    -0.206 F 
ATOM     77  C   UNL A   1      43.014  25.410  25.312  1.00  0.00     0.022 A 
BRANCH  74  78
ATOM     78  S   UNL A   1      42.007  23.019  26.335  1.00  0.00     0.124 S 
ATOM     79  O   UNL A   1      42.643  22.624  25.084  1.00  0.00    -0.237 OA
ATOM     80  O   UNL A   1      42.706  22.641  27.559  1.00  0.00    -0.237 OA
ATOM     81  O   UNL A   1      40.555  22.862  26.375  1.00  0.00    -0.744 OA
ENDBRANCH  74  78
ENDBRANCH  47  71
BRANCH  59  82
ATOM     82  C   UNL A   1      44.349  27.507  33.993  1.00  0.00     0.023 A 
ATOM     83  C   UNL A   1      44.201  26.207  34.509  1.00  0.00     0.031 A 
ATOM     84  C   UNL A   1      45.578  28.160  34.205  1.00  0.00     0.131 A 
ATOM     85  C   UNL A   1      45.233  25.630  35.266  1.00  0.00     0.055 A 
ATOM     86  C   UNL A   1      46.628  27.553  34.894  1.00  0.00     0.041 A 
ATOM     87  F   UNL A   1      45.778  29.405  33.742  1.00  0.00    -0.206 F 
ATOM     88  C   UNL A   1      46.453  26.288  35.444  1.00  0.00     0.022 A 
BRANCH  85  89
ATOM     89  S   UNL A   1      44.918  24.061  36.119  1.00  0.00     0.124 S 
ATOM     90  O   UNL A   1      45.757  23.133  35.367  1.00  0.00    -0.237 OA
ATOM     91  O   UNL A   1      45.351  24.352  37.481  1.00  0.00    -0.237 OA
ATOM     92  O   UNL A   1      43.478  23.865  35.956  1.00  0.00    -0.744 OA
ENDBRANCH  85  89
ENDBRANCH  59  82
ENDBRANCH  33  34
ENDBRANCH  26  28
ENDBRANCH  25  26
ENDBRANCH  24  25
ENDBRANCH   1  24
TORSDOF 19
ENDMDL
MODEL 2
REMARK VINA RESULT:     -11.3      4.919     10.278
REMARK SMILES O=C(C[C@H](NS(=O)(=O)c1cccs1)c1ccccc1Cl)OCCOC(=O)c1ccc(-c2c3nc(c(-c4cc(S(=O)(=O)[O-])ccc4F)c4ccc([nH]4)c(-c4cc(S(=O)(=O)[O-])ccc4F)c4nc(c(-c5cc(S(=O)(=O)[O-])ccc5F)c5ccc2[nH]5)C=C4)C=C3)cc1
REMARK SMILES IDX 22 1 21 2 2 3 1 4 3 5 4 6 14 7 15 8 19 9 16 10 18 11 20 12
REMARK SMILES IDX 17 13 5 14 6 16 7 17 8 18 9 19 10 20 13 21 11 22 12 23 23 24
REMARK SMILES IDX 24 25 25 26 26 27 27 28 28 29 89 30 29 31 88 32 30 33 31 34
REMARK SMILES IDX 32 35 82 36 33 37 87 38 81 39 83 40 34 41 86 42 80 43 79 44
REMARK SMILES IDX 35 46 67 47 47 48 66 49 48 50 51 51 65 52 84 53 49 54 50 55
REMARK SMILES IDX 64 57 85 58 52 59 36 60 37 61 45 62 38 63 44 64 46 65 43 66
REMARK SMILES IDX 39 67 40 68 41 69 42 70 68 71 69 72 77 73 70 74 76 75 78 76
REMARK SMILES IDX 75 77 71 78 72 79 73 80 74 81 53 82 54 83 62 84 55 85 61 86
REMARK SMILES IDX 63 87 60 88 56 89 57 90 58 91 59 92
REMARK H PARENT 5 15 83 45 51 56
REMARK Flexibility Score: inf
ROOT
ATOM      1  C   UNL A   1      36.549  20.351  25.004  1.00  0.00     0.274 C 
ENDROOT
BRANCH   1   2
ATOM      2  O   UNL A   1      36.246  21.659  25.536  1.00  0.00    -0.462 OA
BRANCH   2   3
ATOM      3  C   UNL A   1      36.118  22.781  24.790  1.00  0.00     0.307 C 
ATOM      4  O   UNL A   1      36.277  22.751  23.573  1.00  0.00    -0.252 OA
BRANCH   3   5
ATOM      5  C   UNL A   1      35.830  24.080  25.485  1.00  0.00     0.147 C 
BRANCH   5   6
ATOM      6  C   UNL A   1      34.358  24.294  25.800  1.00  0.00     0.112 C 
BRANCH   6   7
ATOM      7  C   UNL A   1      33.978  25.675  25.264  1.00  0.00    -0.011 A 
ATOM      8  C   UNL A   1      33.853  26.735  26.189  1.00  0.00     0.007 A 
ATOM      9  C   UNL A   1      33.819  25.976  23.899  1.00  0.00     0.045 A 
ATOM     10  C   UNL A   1      33.549  28.033  25.771  1.00  0.00     0.000 A 
ATOM     11  C   UNL A   1      33.523  27.280  23.485  1.00  0.00     0.021 A 
ATOM     12  Cl  UNL A   1      33.953  24.775  22.666  1.00  0.00    -0.084 Cl
ATOM     13  C   UNL A   1      33.382  28.305  24.419  1.00  0.00     0.002 A 
ENDBRANCH   6   7
BRANCH   6  14
ATOM     14  N   UNL A   1      33.538  23.178  25.302  1.00  0.00    -0.202 NA
ATOM     15  H   UNL A   1      34.056  22.318  25.479  1.00  0.00     0.142 HD
BRANCH  14  16
ATOM     16  S   UNL A   1      32.000  22.976  25.953  1.00  0.00     0.250 S 
ATOM     17  O   UNL A   1      31.501  21.699  25.507  1.00  0.00    -0.206 OA
ATOM     18  O   UNL A   1      32.090  23.297  27.365  1.00  0.00    -0.206 OA
BRANCH  16  19
ATOM     19  C   UNL A   1      30.954  24.243  25.270  1.00  0.00     0.134 A 
ATOM     20  C   UNL A   1      30.412  25.381  25.839  1.00  0.00     0.033 A 
ATOM     21  S   UNL A   1      30.593  24.147  23.603  1.00  0.00    -0.131 S 
ATOM     22  C   UNL A   1      29.803  26.233  24.876  1.00  0.00     0.013 A 
ATOM     23  C   UNL A   1      29.829  25.679  23.616  1.00  0.00     0.066 A 
ENDBRANCH  16  19
ENDBRANCH  14  16
ENDBRANCH   6  14
ENDBRANCH   5   6
ENDBRANCH   3   5
ENDBRANCH   2   3
ENDBRANCH   1   2
BRANCH   1  24
ATOM     24  C   UNL A   1      38.032  19.983  25.104  1.00  0.00     0.275 C 
BRANCH  24  25
ATOM     25  O   UNL A   1      38.844  21.143  25.365  1.00  0.00    -0.458 OA
BRANCH  25  26
ATOM     26  C   UNL A   1      39.806  20.971  26.311  1.00  0.00     0.338 C 
ATOM     27  O   UNL A   1      40.413  19.937  26.529  1.00  0.00    -0.246 OA
BRANCH  26  28
ATOM     28  C   UNL A   1      40.184  22.285  26.892  1.00  0.00     0.060 A 
ATOM     29  C   UNL A   1      39.496  23.418  26.434  1.00  0.00     0.016 A 
ATOM     30  C   UNL A   1      41.152  22.417  27.892  1.00  0.00     0.016 A 
ATOM     31  C   UNL A   1      39.810  24.685  26.934  1.00  0.00     0.010 A 
ATOM     32  C   UNL A   1      41.469  23.690  28.389  1.00  0.00     0.010 A 
ATOM     33  C   UNL A   1      40.828  24.836  27.884  1.00  0.00    -0.014 A 
BRANCH  33  34
ATOM     34  C   UNL A   1      41.345  26.199  28.197  1.00  0.00     0.031 A 
ATOM     35  C   UNL A   1      42.743  26.551  27.772  1.00  0.00     0.074 A 
ATOM     36  C   UNL A   1      40.584  27.132  28.801  1.00  0.00     0.049 A 
ATOM     37  N   UNL A   1      43.391  27.680  27.898  1.00  0.00    -0.248 NA
ATOM     38  C   UNL A   1      43.512  25.482  27.118  1.00  0.00     0.031 C 
ATOM     39  C   UNL A   1      39.202  26.934  29.214  1.00  0.00     0.029 A 
ATOM     40  N   UNL A   1      40.856  28.428  29.164  1.00  0.00    -0.354 N 
ATOM     41  C   UNL A   1      44.641  27.461  27.331  1.00  0.00     0.074 A 
ATOM     42  C   UNL A   1      44.678  26.074  26.919  1.00  0.00     0.031 C 
ATOM     43  C   UNL A   1      38.739  28.064  29.776  1.00  0.00     0.029 A 
ATOM     44  C   UNL A   1      39.802  29.066  29.780  1.00  0.00     0.049 A 
ATOM     45  H   UNL A   1      41.725  28.861  29.000  1.00  0.00     0.167 HD
ATOM     46  C   UNL A   1      45.657  28.341  27.152  1.00  0.00     0.034 A 
ATOM     47  C   UNL A   1      39.704  30.313  30.288  1.00  0.00     0.034 A 
ATOM     48  C   UNL A   1      45.617  29.716  27.585  1.00  0.00     0.049 A 
ATOM     49  C   UNL A   1      40.891  31.243  30.173  1.00  0.00     0.074 A 
ATOM     50  C   UNL A   1      46.588  30.693  27.437  1.00  0.00     0.029 A 
ATOM     51  N   UNL A   1      44.564  30.309  28.271  1.00  0.00    -0.354 N 
ATOM     52  N   UNL A   1      42.057  31.033  29.606  1.00  0.00    -0.248 NA
ATOM     53  C   UNL A   1      40.741  32.584  30.755  1.00  0.00     0.031 C 
ATOM     54  C   UNL A   1      46.161  31.842  28.112  1.00  0.00     0.029 A 
ATOM     55  C   UNL A   1      44.881  31.621  28.594  1.00  0.00     0.049 A 
ATOM     56  H   UNL A   1      43.715  29.863  28.495  1.00  0.00     0.167 HD
ATOM     57  C   UNL A   1      42.758  32.233  29.719  1.00  0.00     0.074 A 
ATOM     58  C   UNL A   1      41.880  33.161  30.402  1.00  0.00     0.031 C 
ATOM     59  C   UNL A   1      44.007  32.542  29.287  1.00  0.00     0.034 A 
BRANCH  46  60
ATOM     60  C   UNL A   1      46.917  27.810  26.510  1.00  0.00     0.023 A 
ATOM     61  C   UNL A   1      47.217  28.047  25.157  1.00  0.00     0.031 A 
ATOM     62  C   UNL A   1      47.804  27.008  27.250  1.00  0.00     0.131 A 
ATOM     63  C   UNL A   1      48.320  27.414  24.565  1.00  0.00     0.055 A 
ATOM     64  C   UNL A   1      48.953  26.460  26.677  1.00  0.00     0.041 A 
ATOM     65  F   UNL A   1      47.557  26.722  28.538  1.00  0.00    -0.206 F 
ATOM     66  C   UNL A   1      49.206  26.646  25.322  1.00  0.00     0.022 A 
BRANCH  63  67
ATOM     67  S   UNL A   1      48.473  27.459  22.757  1.00  0.00     0.124 S 
ATOM     68  O   UNL A   1      47.266  28.188  22.376  1.00  0.00    -0.237 OA
ATOM     69  O   UNL A   1      49.735  28.165  22.565  1.00  0.00    -0.237 OA
ATOM     70  O   UNL A   1      48.483  26.047  22.380  1.00  0.00    -0.744 OA
ENDBRANCH  63  67
ENDBRANCH  46  60
BRANCH  47  71
ATOM     71  C   UNL A   1      38.453  30.771  30.963  1.00  0.00     0.023 A 
ATOM     72  C   UNL A   1      37.506  31.558  30.285  1.00  0.00     0.031 A 
ATOM     73  C   UNL A   1      38.224  30.498  32.324  1.00  0.00     0.131 A 
ATOM     74  C   UNL A   1      36.407  32.090  30.980  1.00  0.00     0.055 A 
ATOM     75  C   UNL A   1      37.097  30.978  32.995  1.00  0.00     0.041 A 
ATOM     76  F   UNL A   1      39.098  29.759  33.026  1.00  0.00    -0.206 F 
ATOM     77  C   UNL A   1      36.188  31.791  32.327  1.00  0.00     0.022 A 
BRANCH  74  78
ATOM     78  S   UNL A   1      35.322  33.268  30.126  1.00  0.00     0.124 S 
ATOM     79  O   UNL A   1      34.292  32.387  29.591  1.00  0.00    -0.237 OA
ATOM     80  O   UNL A   1      34.914  34.149  31.214  1.00  0.00    -0.237 OA
ATOM     81  O   UNL A   1      36.202  33.878  29.129  1.00  0.00    -0.744 OA
ENDBRANCH  74  78
ENDBRANCH  47  71
BRANCH  59  82
ATOM     82  C   UNL A   1      44.480  33.965  29.490  1.00  0.00     0.023 A 
ATOM     83  C   UNL A   1      44.116  35.006  28.618  1.00  0.00     0.031 A 
ATOM     84  C   UNL A   1      45.330  34.279  30.568  1.00  0.00     0.131 A 
ATOM     85  C   UNL A   1      44.653  36.291  28.796  1.00  0.00     0.055 A 
ATOM     86  C   UNL A   1      45.800  35.575  30.784  1.00  0.00     0.041 A 
ATOM     87  F   UNL A   1      45.718  33.327  31.432  1.00  0.00    -0.206 F 
ATOM     88  C   UNL A   1      45.477  36.586  29.886  1.00  0.00     0.022 A 
BRANCH  85  89
ATOM     89  S   UNL A   1      44.359  37.544  27.518  1.00  0.00     0.124 S 
ATOM     90  O   UNL A   1      43.266  36.949  26.755  1.00  0.00    -0.237 OA
ATOM     91  O   UNL A   1      44.016  38.722  28.309  1.00  0.00    -0.237 OA
ATOM     92  O   UNL A   1      45.637  37.622  26.813  1.00  0.00    -0.744 OA
ENDBRANCH  85  89
ENDBRANCH  59  82
ENDBRANCH  33  34
ENDBRANCH  26  28
ENDBRANCH  25  26
ENDBRANCH  24  25
ENDBRANCH   1  24
TORSDOF 19
ENDMDL
MODEL 3
REMARK VINA RESULT:     -11.0      2.018      2.273
REMARK SMILES O=C(C[C@H](NS(=O)(=O)c1cccs1)c1ccccc1Cl)OCCOC(=O)c1ccc(-c2c3nc(c(-c4cc(S(=O)(=O)[O-])ccc4F)c4ccc([nH]4)c(-c4cc(S(=O)(=O)[O-])ccc4F)c4nc(c(-c5cc(S(=O)(=O)[O-])ccc5F)c5ccc2[nH]5)C=C4)C=C3)cc1
REMARK SMILES IDX 22 1 21 2 2 3 1 4 3 5 4 6 14 7 15 8 19 9 16 10 18 11 20 12
REMARK SMILES IDX 17 13 5 14 6 16 7 17 8 18 9 19 10 20 13 21 11 22 12 23 23 24
REMARK SMILES IDX 24 25 25 26 26 27 27 28 28 29 89 30 29 31 88 32 30 33 31 34
REMARK SMILES IDX 32 35 82 36 33 37 87 38 81 39 83 40 34 41 86 42 80 43 79 44
REMARK SMILES IDX 35 46 67 47 47 48 66 49 48 50 51 51 65 52 84 53 49 54 50 55
REMARK SMILES IDX 64 57 85 58 52 59 36 60 37 61 45 62 38 63 44 64 46 65 43 66
REMARK SMILES IDX 39 67 40 68 41 69 42 70 68 71 69 72 77 73 70 74 76 75 78 76
REMARK SMILES IDX 75 77 71 78 72 79 73 80 74 81 53 82 54 83 62 84 55 85 61 86
REMARK SMILES IDX 63 87 60 88 56 89 57 90 58 91 59 92
REMARK H PARENT 5 15 83 45 51 56
REMARK Flexibility Score: inf
ROOT
ATOM      1  C   UNL A   1      31.380  30.637  26.062  1.00  0.00     0.274 C 
ENDROOT
BRANCH   1   2
ATOM      2  O   UNL A   1      32.488  30.030  25.362  1.00  0.00    -0.462 OA
BRANCH   2   3
ATOM      3  C   UNL A   1      32.597  28.708  25.095  1.00  0.00     0.307 C 
ATOM      4  O   UNL A   1      33.692  28.197  24.879  1.00  0.00    -0.252 OA
BRANCH   3   5
ATOM      5  C   UNL A   1      31.346  27.883  25.016  1.00  0.00     0.147 C 
BRANCH   5   6
ATOM      6  C   UNL A   1      30.924  27.541  23.596  1.00  0.00     0.112 C 
BRANCH   6   7
ATOM      7  C   UNL A   1      29.738  28.440  23.249  1.00  0.00    -0.011 A 
ATOM      8  C   UNL A   1      30.007  29.707  22.683  1.00  0.00     0.007 A 
ATOM      9  C   UNL A   1      28.390  28.059  23.387  1.00  0.00     0.045 A 
ATOM     10  C   UNL A   1      28.975  30.567  22.303  1.00  0.00     0.000 A 
ATOM     11  C   UNL A   1      27.360  28.922  22.996  1.00  0.00     0.021 A 
ATOM     12  Cl  UNL A   1      27.925  26.537  24.057  1.00  0.00    -0.084 Cl
ATOM     13  C   UNL A   1      27.651  30.176  22.461  1.00  0.00     0.002 A 
ENDBRANCH   6   7
BRANCH   6  14
ATOM     14  N   UNL A   1      32.065  27.618  22.668  1.00  0.00    -0.202 NA
ATOM     15  H   UNL A   1      32.884  27.880  23.216  1.00  0.00     0.142 HD
BRANCH  14  16
ATOM     16  S   UNL A   1      32.468  26.237  21.797  1.00  0.00     0.250 S 
ATOM     17  O   UNL A   1      31.531  26.119  20.708  1.00  0.00    -0.206 OA
ATOM     18  O   UNL A   1      33.898  26.287  21.556  1.00  0.00    -0.206 OA
BRANCH  16  19
ATOM     19  C   UNL A   1      32.242  24.836  22.869  1.00  0.00     0.134 A 
ATOM     20  C   UNL A   1      31.093  24.229  23.344  1.00  0.00     0.033 A 
ATOM     21  S   UNL A   1      33.642  23.992  23.363  1.00  0.00    -0.131 S 
ATOM     22  C   UNL A   1      31.363  23.002  24.012  1.00  0.00     0.013 A 
ATOM     23  C   UNL A   1      32.715  22.753  24.095  1.00  0.00     0.066 A 
ENDBRANCH  16  19
ENDBRANCH  14  16
ENDBRANCH   6  14
ENDBRANCH   5   6
ENDBRANCH   3   5
ENDBRANCH   2   3
ENDBRANCH   1   2
BRANCH   1  24
ATOM     24  C   UNL A   1      31.779  31.868  26.882  1.00  0.00     0.275 C 
BRANCH  24  25
ATOM     25  O   UNL A   1      33.177  32.170  26.726  1.00  0.00    -0.458 OA
BRANCH  25  26
ATOM     26  C   UNL A   1      33.729  32.881  27.746  1.00  0.00     0.338 C 
ATOM     27  O   UNL A   1      33.174  33.759  28.384  1.00  0.00    -0.246 OA
BRANCH  26  28
ATOM     28  C   UNL A   1      35.032  32.280  28.134  1.00  0.00     0.060 A 
ATOM     29  C   UNL A   1      35.062  30.900  28.378  1.00  0.00     0.016 A 
ATOM     30  C   UNL A   1      36.211  33.027  28.217  1.00  0.00     0.016 A 
ATOM     31  C   UNL A   1      36.253  30.275  28.756  1.00  0.00     0.010 A 
ATOM     32  C   UNL A   1      37.405  32.399  28.601  1.00  0.00     0.010 A 
ATOM     33  C   UNL A   1      37.426  31.026  28.912  1.00  0.00    -0.014 A 
BRANCH  33  34
ATOM     34  C   UNL A   1      38.609  30.413  29.580  1.00  0.00     0.031 A 
ATOM     35  C   UNL A   1      38.929  30.827  30.989  1.00  0.00     0.074 A 
ATOM     36  C   UNL A   1      39.361  29.471  28.981  1.00  0.00     0.049 A 
ATOM     37  N   UNL A   1      39.878  30.404  31.784  1.00  0.00    -0.248 NA
ATOM     38  C   UNL A   1      38.063  31.859  31.577  1.00  0.00     0.031 C 
ATOM     39  C   UNL A   1      39.125  28.948  27.643  1.00  0.00     0.029 A 
ATOM     40  N   UNL A   1      40.467  28.782  29.415  1.00  0.00    -0.354 N 
ATOM     41  C   UNL A   1      39.717  31.110  32.971  1.00  0.00     0.074 A 
ATOM     42  C   UNL A   1      38.620  32.032  32.765  1.00  0.00     0.031 C 
ATOM     43  C   UNL A   1      40.053  28.019  27.357  1.00  0.00     0.029 A 
ATOM     44  C   UNL A   1      40.967  27.892  28.489  1.00  0.00     0.049 A 
ATOM     45  H   UNL A   1      40.865  28.912  30.306  1.00  0.00     0.167 HD
ATOM     46  C   UNL A   1      40.408  30.988  34.131  1.00  0.00     0.034 A 
ATOM     47  C   UNL A   1      42.037  27.071  28.548  1.00  0.00     0.034 A 
ATOM     48  C   UNL A   1      41.513  30.080  34.318  1.00  0.00     0.049 A 
ATOM     49  C   UNL A   1      42.858  27.032  29.817  1.00  0.00     0.074 A 
ATOM     50  C   UNL A   1      42.269  29.869  35.459  1.00  0.00     0.029 A 
ATOM     51  N   UNL A   1      42.040  29.248  33.338  1.00  0.00    -0.354 N 
ATOM     52  N   UNL A   1      42.676  27.683  30.943  1.00  0.00    -0.248 NA
ATOM     53  C   UNL A   1      44.021  26.134  29.826  1.00  0.00     0.031 C 
ATOM     54  C   UNL A   1      43.304  28.984  35.143  1.00  0.00     0.029 A 
ATOM     55  C   UNL A   1      43.139  28.560  33.835  1.00  0.00     0.049 A 
ATOM     56  H   UNL A   1      41.686  29.160  32.424  1.00  0.00     0.167 HD
ATOM     57  C   UNL A   1      43.672  27.233  31.809  1.00  0.00     0.074 A 
ATOM     58  C   UNL A   1      44.445  26.253  31.075  1.00  0.00     0.031 C 
ATOM     59  C   UNL A   1      43.917  27.590  33.096  1.00  0.00     0.034 A 
BRANCH  46  60
ATOM     60  C   UNL A   1      40.014  31.909  35.261  1.00  0.00     0.023 A 
ATOM     61  C   UNL A   1      39.209  31.472  36.328  1.00  0.00     0.031 A 
ATOM     62  C   UNL A   1      40.406  33.259  35.243  1.00  0.00     0.131 A 
ATOM     63  C   UNL A   1      38.746  32.394  37.278  1.00  0.00     0.055 A 
ATOM     64  C   UNL A   1      40.020  34.150  36.246  1.00  0.00     0.041 A 
ATOM     65  F   UNL A   1      41.150  33.742  34.236  1.00  0.00    -0.206 F 
ATOM     66  C   UNL A   1      39.170  33.724  37.261  1.00  0.00     0.022 A 
BRANCH  63  67
ATOM     67  S   UNL A   1      37.440  31.873  38.424  1.00  0.00     0.124 S 
ATOM     68  O   UNL A   1      38.114  31.995  39.715  1.00  0.00    -0.237 OA
ATOM     69  O   UNL A   1      36.383  32.843  38.160  1.00  0.00    -0.237 OA
ATOM     70  O   UNL A   1      37.148  30.502  38.010  1.00  0.00    -0.744 OA
ENDBRANCH  63  67
ENDBRANCH  46  60
BRANCH  47  71
ATOM     71  C   UNL A   1      42.416  26.221  27.380  1.00  0.00     0.023 A 
ATOM     72  C   UNL A   1      42.019  24.875  27.300  1.00  0.00     0.031 A 
ATOM     73  C   UNL A   1      43.252  26.718  26.364  1.00  0.00     0.131 A 
ATOM     74  C   UNL A   1      42.502  24.060  26.263  1.00  0.00     0.055 A 
ATOM     75  C   UNL A   1      43.680  25.921  25.301  1.00  0.00     0.041 A 
ATOM     76  F   UNL A   1      43.671  27.994  26.393  1.00  0.00    -0.206 F 
ATOM     77  C   UNL A   1      43.317  24.578  25.254  1.00  0.00     0.022 A 
BRANCH  74  78
ATOM     78  S   UNL A   1      42.138  22.282  26.309  1.00  0.00     0.124 S 
ATOM     79  O   UNL A   1      42.868  21.801  25.142  1.00  0.00    -0.237 OA
ATOM     80  O   UNL A   1      42.677  21.896  27.608  1.00  0.00    -0.237 OA
ATOM     81  O   UNL A   1      40.681  22.231  26.200  1.00  0.00    -0.744 OA
ENDBRANCH  74  78
ENDBRANCH  47  71
BRANCH  59  82
ATOM     82  C   UNL A   1      45.037  26.871  33.815  1.00  0.00     0.023 A 
ATOM     83  C   UNL A   1      46.374  27.299  33.734  1.00  0.00     0.031 A 
ATOM     84  C   UNL A   1      44.762  25.721  34.579  1.00  0.00     0.131 A 
ATOM     85  C   UNL A   1      47.390  26.547  34.345  1.00  0.00     0.055 A 
ATOM     86  C   UNL A   1      45.767  25.020  35.247  1.00  0.00     0.041 A 
ATOM     87  F   UNL A   1      43.506  25.259  34.691  1.00  0.00    -0.206 F 
ATOM     88  C   UNL A   1      47.091  25.421  35.118  1.00  0.00     0.022 A 
BRANCH  85  89
ATOM     89  S   UNL A   1      49.119  26.988  34.018  1.00  0.00     0.124 S 
ATOM     90  O   UNL A   1      49.825  25.784  34.444  1.00  0.00    -0.237 OA
ATOM     91  O   UNL A   1      49.108  27.247  32.582  1.00  0.00    -0.237 OA
ATOM     92  O   UNL A   1      49.338  28.165  34.857  1.00  0.00    -0.744 OA
ENDBRANCH  85  89
ENDBRANCH  59  82
ENDBRANCH  33  34
ENDBRANCH  26  28
ENDBRANCH  25  26
ENDBRANCH  24  25
ENDBRANCH   1  24
TORSDOF 19
ENDMDL
