MODEL 1
REMARK VINA RESULT:     -12.4      0.000      0.000
REMARK SMILES C#Cc1cc(Cl)cc2c1O[C@H](C(F)(F)F)C(C(=O)OCCOC(=O)c1ccc(-c3c4nc(c(-c5cc(S(=O)(=O)[O-])ccc5F)c5ccc([nH]5)c(-c5cc(S(=O)(=O)[O-])ccc5F)c5nc(c(-c6cc(S(=O)(=O)[O-])ccc6F)c6ccc3[nH]6)C=C5)C=C4)cc1)=C2
REMARK SMILES IDX 21 1 20 2 19 3 17 4 18 5 16 6 3 7 4 8 9 9 5 10 8 11 10 12
REMARK SMILES IDX 6 13 7 14 88 15 11 16 2 17 1 18 12 19 13 20 14 21 15 22
REMARK SMILES IDX 22 23 23 24 24 25 25 26 26 27 87 28 27 29 86 30 28 31 29 32
REMARK SMILES IDX 30 33 80 34 31 35 85 36 79 37 81 38 32 39 84 40 78 41 77 42
REMARK SMILES IDX 33 44 65 45 45 46 64 47 46 48 49 49 63 50 82 51 47 52 48 53
REMARK SMILES IDX 62 55 83 56 50 57 34 58 35 59 43 60 36 61 42 62 44 63 41 64
REMARK SMILES IDX 37 65 38 66 39 67 40 68 66 69 67 70 75 71 68 72 74 73 76 74
REMARK SMILES IDX 73 75 69 76 70 77 71 78 72 79 51 80 52 81 60 82 53 83 59 84
REMARK SMILES IDX 61 85 58 86 54 87 55 88 56 89 57 90
REMARK H PARENT 81 43 49 54
REMARK Flexibility Score: inf
ROOT
ATOM      1  C   UNL A   1      36.500  20.661  25.019  1.00  0.00     0.275 C 
ENDROOT
BRANCH   1   2
ATOM      2  C   UNL A   1      35.122  21.326  24.980  1.00  0.00     0.275 C 
BRANCH   2   3
ATOM      3  O   UNL A   1      35.229  22.765  24.931  1.00  0.00    -0.459 OA
BRANCH   3   4
ATOM      4  C   UNL A   1      35.013  23.323  23.717  1.00  0.00     0.338 C 
ATOM      5  O   UNL A   1      35.491  22.953  22.658  1.00  0.00    -0.246 OA
BRANCH   4   6
ATOM      6  C   UNL A   1      34.105  24.483  23.822  1.00  0.00     0.087 C 
ATOM      7  C   UNL A   1      31.282  27.491  24.542  1.00  0.00     0.068 A 
ATOM      8  C   UNL A   1      31.522  28.423  25.560  1.00  0.00     0.041 A 
ATOM      9  C   UNL A   1      32.239  26.512  24.241  1.00  0.00     0.143 A 
ATOM     10  C   UNL A   1      32.722  28.392  26.263  1.00  0.00     0.043 A 
ATOM     11  C   UNL A   1      33.435  26.489  24.959  1.00  0.00     0.020 A 
ATOM     12  O   UNL A   1      31.964  25.618  23.237  1.00  0.00    -0.474 OA
ATOM     13  Cl  UNL A   1      33.008  29.522  27.526  1.00  0.00    -0.084 Cl
ATOM     14  C   UNL A   1      33.685  27.434  25.963  1.00  0.00     0.032 A 
ATOM     15  C   UNL A   1      34.404  25.445  24.700  1.00  0.00     0.027 C 
ATOM     16  C   UNL A   1      32.812  24.448  23.068  1.00  0.00     0.316 C 
BRANCH   7  17
ATOM     17  C   UNL A   1      30.036  27.546  23.839  1.00  0.00    -0.067 C 
ATOM     18  C   UNL A   1      28.991  27.597  23.248  1.00  0.00     0.010 C 
ENDBRANCH   7  17
BRANCH  16  19
ATOM     19  C   UNL A   1      32.003  23.188  23.411  1.00  0.00     0.430 C 
ATOM     20  F   UNL A   1      30.686  23.357  23.145  1.00  0.00    -0.167 F 
ATOM     21  F   UNL A   1      32.405  22.122  22.674  1.00  0.00    -0.167 F 
ATOM     22  F   UNL A   1      32.115  22.842  24.713  1.00  0.00    -0.167 F 
ENDBRANCH  16  19
ENDBRANCH   4   6
ENDBRANCH   3   4
ENDBRANCH   2   3
ENDBRANCH   1   2
BRANCH   1  23
ATOM     23  O   UNL A   1      37.549  21.646  25.027  1.00  0.00    -0.458 OA
BRANCH  23  24
ATOM     24  C   UNL A   1      38.646  21.288  25.731  1.00  0.00     0.338 C 
ATOM     25  O   UNL A   1      39.220  20.212  25.700  1.00  0.00    -0.246 OA
BRANCH  24  26
ATOM     26  C   UNL A   1      39.167  22.428  26.495  1.00  0.00     0.060 A 
ATOM     27  C   UNL A   1      38.675  23.687  26.189  1.00  0.00     0.016 A 
ATOM     28  C   UNL A   1      40.292  22.297  27.302  1.00  0.00     0.016 A 
ATOM     29  C   UNL A   1      39.418  24.816  26.499  1.00  0.00     0.010 A 
ATOM     30  C   UNL A   1      40.930  23.450  27.778  1.00  0.00     0.010 A 
ATOM     31  C   UNL A   1      40.537  24.726  27.334  1.00  0.00    -0.014 A 
BRANCH  31  32
ATOM     32  C   UNL A   1      41.281  25.962  27.721  1.00  0.00     0.031 A 
ATOM     33  C   UNL A   1      40.620  27.012  28.581  1.00  0.00     0.074 A 
ATOM     34  C   UNL A   1      42.562  26.131  27.325  1.00  0.00     0.049 A 
ATOM     35  N   UNL A   1      41.027  28.224  28.858  1.00  0.00    -0.248 NA
ATOM     36  C   UNL A   1      39.330  26.663  29.202  1.00  0.00     0.031 C 
ATOM     37  C   UNL A   1      43.350  25.166  26.551  1.00  0.00     0.029 A 
ATOM     38  N   UNL A   1      43.441  27.166  27.531  1.00  0.00    -0.354 N 
ATOM     39  C   UNL A   1      40.032  28.793  29.646  1.00  0.00     0.074 A 
ATOM     40  C   UNL A   1      38.985  27.804  29.783  1.00  0.00     0.031 C 
ATOM     41  C   UNL A   1      44.602  25.619  26.409  1.00  0.00     0.029 A 
ATOM     42  C   UNL A   1      44.676  26.965  26.955  1.00  0.00     0.049 A 
ATOM     43  H   UNL A   1      43.209  27.976  28.042  1.00  0.00     0.167 HD
ATOM     44  C   UNL A   1      40.003  30.025  30.208  1.00  0.00     0.034 A 
ATOM     45  C   UNL A   1      45.737  27.785  26.823  1.00  0.00     0.034 A 
ATOM     46  C   UNL A   1      41.075  30.981  30.101  1.00  0.00     0.049 A 
ATOM     47  C   UNL A   1      45.634  29.183  27.364  1.00  0.00     0.074 A 
ATOM     48  C   UNL A   1      41.141  32.259  30.628  1.00  0.00     0.029 A 
ATOM     49  N   UNL A   1      42.274  30.761  29.439  1.00  0.00    -0.354 N 
ATOM     50  N   UNL A   1      44.646  29.735  28.028  1.00  0.00    -0.248 NA
ATOM     51  C   UNL A   1      46.774  30.076  27.121  1.00  0.00     0.031 C 
ATOM     52  C   UNL A   1      42.348  32.836  30.228  1.00  0.00     0.029 A 
ATOM     53  C   UNL A   1      43.072  31.891  29.519  1.00  0.00     0.049 A 
ATOM     54  H   UNL A   1      42.522  29.926  28.980  1.00  0.00     0.167 HD
ATOM     55  C   UNL A   1      45.058  31.034  28.305  1.00  0.00     0.074 A 
ATOM     56  C   UNL A   1      46.387  31.177  27.746  1.00  0.00     0.031 C 
ATOM     57  C   UNL A   1      44.394  32.017  28.959  1.00  0.00     0.034 A 
BRANCH  44  58
ATOM     58  C   UNL A   1      38.770  30.435  30.973  1.00  0.00     0.023 A 
ATOM     59  C   UNL A   1      37.731  31.159  30.367  1.00  0.00     0.031 A 
ATOM     60  C   UNL A   1      38.604  30.032  32.310  1.00  0.00     0.131 A 
ATOM     61  C   UNL A   1      36.579  31.475  31.104  1.00  0.00     0.055 A 
ATOM     62  C   UNL A   1      37.431  30.299  33.020  1.00  0.00     0.041 A 
ATOM     63  F   UNL A   1      39.573  29.351  32.943  1.00  0.00    -0.206 F 
ATOM     64  C   UNL A   1      36.412  31.027  32.417  1.00  0.00     0.022 A 
BRANCH  61  65
ATOM     65  S   UNL A   1      35.319  32.532  30.340  1.00  0.00     0.124 S 
ATOM     66  O   UNL A   1      34.324  32.622  31.405  1.00  0.00    -0.237 OA
ATOM     67  O   UNL A   1      36.062  33.755  30.055  1.00  0.00    -0.237 OA
ATOM     68  O   UNL A   1      34.899  31.770  29.165  1.00  0.00    -0.744 OA
ENDBRANCH  61  65
ENDBRANCH  44  58
BRANCH  45  69
ATOM     69  C   UNL A   1      46.958  27.328  26.099  1.00  0.00     0.023 A 
ATOM     70  C   UNL A   1      47.176  27.690  24.762  1.00  0.00     0.031 A 
ATOM     71  C   UNL A   1      47.918  26.512  26.727  1.00  0.00     0.131 A 
ATOM     72  C   UNL A   1      48.310  27.214  24.085  1.00  0.00     0.055 A 
ATOM     73  C   UNL A   1      49.074  26.089  26.067  1.00  0.00     0.041 A 
ATOM     74  F   UNL A   1      47.761  26.136  28.005  1.00  0.00    -0.206 F 
ATOM     75  C   UNL A   1      49.269  26.431  24.734  1.00  0.00     0.022 A 
BRANCH  72  76
ATOM     76  S   UNL A   1      48.482  27.584  22.320  1.00  0.00     0.124 S 
ATOM     77  O   UNL A   1      47.257  28.331  22.054  1.00  0.00    -0.237 OA
ATOM     78  O   UNL A   1      49.723  28.350  22.288  1.00  0.00    -0.237 OA
ATOM     79  O   UNL A   1      48.552  26.261  21.700  1.00  0.00    -0.744 OA
ENDBRANCH  72  76
ENDBRANCH  45  69
BRANCH  57  80
ATOM     80  C   UNL A   1      45.106  33.329  29.142  1.00  0.00     0.023 A 
ATOM     81  C   UNL A   1      44.938  34.385  28.231  1.00  0.00     0.031 A 
ATOM     82  C   UNL A   1      45.920  33.542  30.268  1.00  0.00     0.131 A 
ATOM     83  C   UNL A   1      45.599  35.601  28.447  1.00  0.00     0.055 A 
ATOM     84  C   UNL A   1      46.532  34.772  30.506  1.00  0.00     0.041 A 
ATOM     85  F   UNL A   1      46.110  32.564  31.169  1.00  0.00    -0.206 F 
ATOM     86  C   UNL A   1      46.378  35.809  29.590  1.00  0.00     0.022 A 
BRANCH  83  87
ATOM     87  S   UNL A   1      45.461  36.898  27.190  1.00  0.00     0.124 S 
ATOM     88  O   UNL A   1      46.252  36.345  26.096  1.00  0.00    -0.237 OA
ATOM     89  O   UNL A   1      44.020  36.966  26.964  1.00  0.00    -0.237 OA
ATOM     90  O   UNL A   1      46.040  38.072  27.843  1.00  0.00    -0.744 OA
ENDBRANCH  83  87
ENDBRANCH  57  80
ENDBRANCH  31  32
ENDBRANCH  24  26
ENDBRANCH  23  24
ENDBRANCH   1  23
TORSDOF 16
ENDMDL
MODEL 2
REMARK VINA RESULT:     -12.3      5.064      9.980
REMARK SMILES C#Cc1cc(Cl)cc2c1O[C@H](C(F)(F)F)C(C(=O)OCCOC(=O)c1ccc(-c3c4nc(c(-c5cc(S(=O)(=O)[O-])ccc5F)c5ccc([nH]5)c(-c5cc(S(=O)(=O)[O-])ccc5F)c5nc(c(-c6cc(S(=O)(=O)[O-])ccc6F)c6ccc3[nH]6)C=C5)C=C4)cc1)=C2
REMARK SMILES IDX 21 1 20 2 19 3 17 4 18 5 16 6 3 7 4 8 9 9 5 10 8 11 10 12
REMARK SMILES IDX 6 13 7 14 88 15 11 16 2 17 1 18 12 19 13 20 14 21 15 22
REMARK SMILES IDX 22 23 23 24 24 25 25 26 26 27 87 28 27 29 86 30 28 31 29 32
REMARK SMILES IDX 30 33 80 34 31 35 85 36 79 37 81 38 32 39 84 40 78 41 77 42
REMARK SMILES IDX 33 44 65 45 45 46 64 47 46 48 49 49 63 50 82 51 47 52 48 53
REMARK SMILES IDX 62 55 83 56 50 57 34 58 35 59 43 60 36 61 42 62 44 63 41 64
REMARK SMILES IDX 37 65 38 66 39 67 40 68 66 69 67 70 75 71 68 72 74 73 76 74
REMARK SMILES IDX 73 75 69 76 70 77 71 78 72 79 51 80 52 81 60 82 53 83 59 84
REMARK SMILES IDX 61 85 58 86 54 87 55 88 56 89 57 90
REMARK H PARENT 81 43 49 54
REMARK Flexibility Score: inf
ROOT
ATOM      1  C   UNL A   1      31.734  30.321  25.690  1.00  0.00     0.275 C 
ENDROOT
BRANCH   1   2
ATOM      2  C   UNL A   1      31.603  28.912  25.106  1.00  0.00     0.275 C 
BRANCH   2   3
ATOM      3  O   UNL A   1      32.393  27.956  25.845  1.00  0.00    -0.459 OA
BRANCH   3   4
ATOM      4  C   UNL A   1      31.694  26.965  26.446  1.00  0.00     0.338 C 
ATOM      5  O   UNL A   1      30.766  27.107  27.224  1.00  0.00    -0.246 OA
BRANCH   4   6
ATOM      6  C   UNL A   1      32.207  25.639  26.046  1.00  0.00     0.087 C 
ATOM      7  C   UNL A   1      33.759  22.111  24.407  1.00  0.00     0.068 A 
ATOM      8  C   UNL A   1      35.147  21.926  24.377  1.00  0.00     0.041 A 
ATOM      9  C   UNL A   1      33.212  23.256  25.005  1.00  0.00     0.143 A 
ATOM     10  C   UNL A   1      35.988  22.869  24.960  1.00  0.00     0.043 A 
ATOM     11  C   UNL A   1      34.068  24.196  25.579  1.00  0.00     0.020 A 
ATOM     12  O   UNL A   1      31.847  23.399  25.012  1.00  0.00    -0.474 OA
ATOM     13  Cl  UNL A   1      37.691  22.651  24.905  1.00  0.00    -0.084 Cl
ATOM     14  C   UNL A   1      35.455  23.999  25.569  1.00  0.00     0.032 A 
ATOM     15  C   UNL A   1      33.520  25.410  26.144  1.00  0.00     0.027 C 
ATOM     16  C   UNL A   1      31.264  24.675  25.394  1.00  0.00     0.316 C 
BRANCH   7  17
ATOM     17  C   UNL A   1      32.919  21.126  23.795  1.00  0.00    -0.067 C 
ATOM     18  C   UNL A   1      32.218  20.295  23.283  1.00  0.00     0.010 C 
ENDBRANCH   7  17
BRANCH  16  19
ATOM     19  C   UNL A   1      30.587  25.306  24.167  1.00  0.00     0.430 C 
ATOM     20  F   UNL A   1      31.460  26.055  23.451  1.00  0.00    -0.167 F 
ATOM     21  F   UNL A   1      30.114  24.360  23.317  1.00  0.00    -0.167 F 
ATOM     22  F   UNL A   1      29.547  26.101  24.503  1.00  0.00    -0.167 F 
ENDBRANCH  16  19
ENDBRANCH   4   6
ENDBRANCH   3   4
ENDBRANCH   2   3
ENDBRANCH   1   2
BRANCH   1  23
ATOM     23  O   UNL A   1      32.463  30.300  26.930  1.00  0.00    -0.458 OA
BRANCH  23  24
ATOM     24  C   UNL A   1      33.131  31.443  27.204  1.00  0.00     0.338 C 
ATOM     25  O   UNL A   1      32.670  32.571  27.250  1.00  0.00    -0.246 OA
BRANCH  24  26
ATOM     26  C   UNL A   1      34.523  31.155  27.570  1.00  0.00     0.060 A 
ATOM     27  C   UNL A   1      34.853  29.841  27.865  1.00  0.00     0.016 A 
ATOM     28  C   UNL A   1      35.413  32.180  27.869  1.00  0.00     0.016 A 
ATOM     29  C   UNL A   1      35.962  29.564  28.650  1.00  0.00     0.010 A 
ATOM     30  C   UNL A   1      36.630  31.870  28.490  1.00  0.00     0.010 A 
ATOM     31  C   UNL A   1      36.895  30.565  28.943  1.00  0.00    -0.014 A 
BRANCH  31  32
ATOM     32  C   UNL A   1      38.124  30.233  29.725  1.00  0.00     0.031 A 
ATOM     33  C   UNL A   1      39.193  29.350  29.126  1.00  0.00     0.074 A 
ATOM     34  C   UNL A   1      38.298  30.748  30.962  1.00  0.00     0.049 A 
ATOM     35  N   UNL A   1      40.225  28.798  29.710  1.00  0.00    -0.248 NA
ATOM     36  C   UNL A   1      39.083  29.035  27.691  1.00  0.00     0.031 C 
ATOM     37  C   UNL A   1      37.381  31.673  31.637  1.00  0.00     0.029 A 
ATOM     38  N   UNL A   1      39.312  30.584  31.874  1.00  0.00    -0.354 N 
ATOM     39  C   UNL A   1      40.862  28.043  28.730  1.00  0.00     0.074 A 
ATOM     40  C   UNL A   1      40.085  28.184  27.518  1.00  0.00     0.031 C 
ATOM     41  C   UNL A   1      37.903  32.045  32.812  1.00  0.00     0.029 A 
ATOM     42  C   UNL A   1      39.121  31.283  33.045  1.00  0.00     0.049 A 
ATOM     43  H   UNL A   1      40.102  30.020  31.705  1.00  0.00     0.167 HD
ATOM     44  C   UNL A   1      41.995  27.308  28.835  1.00  0.00     0.034 A 
ATOM     45  C   UNL A   1      39.807  31.276  34.204  1.00  0.00     0.034 A 
ATOM     46  C   UNL A   1      42.783  27.216  30.038  1.00  0.00     0.049 A 
ATOM     47  C   UNL A   1      40.998  30.369  34.326  1.00  0.00     0.074 A 
ATOM     48  C   UNL A   1      43.944  26.493  30.250  1.00  0.00     0.029 A 
ATOM     49  N   UNL A   1      42.504  27.880  31.224  1.00  0.00    -0.354 N 
ATOM     50  N   UNL A   1      41.533  29.591  33.415  1.00  0.00    -0.248 NA
ATOM     51  C   UNL A   1      41.666  30.320  35.632  1.00  0.00     0.031 C 
ATOM     52  C   UNL A   1      44.328  26.664  31.582  1.00  0.00     0.029 A 
ATOM     53  C   UNL A   1      43.454  27.558  32.180  1.00  0.00     0.049 A 
ATOM     54  H   UNL A   1      41.744  28.489  31.367  1.00  0.00     0.167 HD
ATOM     55  C   UNL A   1      42.617  28.978  34.034  1.00  0.00     0.074 A 
ATOM     56  C   UNL A   1      42.666  29.487  35.389  1.00  0.00     0.031 C 
ATOM     57  C   UNL A   1      43.490  28.075  33.525  1.00  0.00     0.034 A 
BRANCH  44  58
ATOM     58  C   UNL A   1      42.452  26.519  27.634  1.00  0.00     0.023 A 
ATOM     59  C   UNL A   1      42.150  25.156  27.487  1.00  0.00     0.031 A 
ATOM     60  C   UNL A   1      43.139  27.162  26.589  1.00  0.00     0.131 A 
ATOM     61  C   UNL A   1      42.552  24.474  26.328  1.00  0.00     0.055 A 
ATOM     62  C   UNL A   1      43.486  26.493  25.414  1.00  0.00     0.041 A 
ATOM     63  F   UNL A   1      43.467  28.461  26.685  1.00  0.00    -0.206 F 
ATOM     64  C   UNL A   1      43.195  25.140  25.281  1.00  0.00     0.022 A 
BRANCH  61  65
ATOM     65  S   UNL A   1      42.275  22.685  26.230  1.00  0.00     0.124 S 
ATOM     66  O   UNL A   1      43.074  22.200  27.351  1.00  0.00    -0.237 OA
ATOM     67  O   UNL A   1      40.828  22.580  26.384  1.00  0.00    -0.237 OA
ATOM     68  O   UNL A   1      42.787  22.331  24.907  1.00  0.00    -0.744 OA
ENDBRANCH  61  65
ENDBRANCH  44  58
BRANCH  45  69
ATOM     69  C   UNL A   1      39.350  32.106  35.357  1.00  0.00     0.023 A 
ATOM     70  C   UNL A   1      39.804  33.424  35.515  1.00  0.00     0.031 A 
ATOM     71  C   UNL A   1      38.467  31.591  36.325  1.00  0.00     0.131 A 
ATOM     72  C   UNL A   1      39.397  34.173  36.629  1.00  0.00     0.055 A 
ATOM     73  C   UNL A   1      38.019  32.360  37.400  1.00  0.00     0.041 A 
ATOM     74  F   UNL A   1      38.001  30.337  36.223  1.00  0.00    -0.206 F 
ATOM     75  C   UNL A   1      38.494  33.657  37.563  1.00  0.00     0.022 A 
BRANCH  72  76
ATOM     76  S   UNL A   1      40.117  35.818  36.875  1.00  0.00     0.124 S 
ATOM     77  O   UNL A   1      41.544  35.517  36.879  1.00  0.00    -0.237 OA
ATOM     78  O   UNL A   1      39.616  36.546  35.714  1.00  0.00    -0.237 OA
ATOM     79  O   UNL A   1      39.565  36.242  38.160  1.00  0.00    -0.744 OA
ENDBRANCH  72  76
ENDBRANCH  45  69
BRANCH  57  80
ATOM     80  C   UNL A   1      44.598  27.601  34.424  1.00  0.00     0.023 A 
ATOM     81  C   UNL A   1      44.464  26.438  35.199  1.00  0.00     0.031 A 
ATOM     82  C   UNL A   1      45.821  28.294  34.465  1.00  0.00     0.131 A 
ATOM     83  C   UNL A   1      45.527  26.015  36.008  1.00  0.00     0.055 A 
ATOM     84  C   UNL A   1      46.895  27.837  35.229  1.00  0.00     0.041 A 
ATOM     85  F   UNL A   1      45.999  29.410  33.740  1.00  0.00    -0.206 F 
ATOM     86  C   UNL A   1      46.750  26.695  36.011  1.00  0.00     0.022 A 
BRANCH  83  87
ATOM     87  S   UNL A   1      45.279  24.583  37.089  1.00  0.00     0.124 S 
ATOM     88  O   UNL A   1      44.452  25.146  38.151  1.00  0.00    -0.237 OA
ATOM     89  O   UNL A   1      44.616  23.631  36.203  1.00  0.00    -0.237 OA
ATOM     90  O   UNL A   1      46.636  24.214  37.488  1.00  0.00    -0.744 OA
ENDBRANCH  83  87
ENDBRANCH  57  80
ENDBRANCH  31  32
ENDBRANCH  24  26
ENDBRANCH  23  24
ENDBRANCH   1  23
TORSDOF 16
ENDMDL
MODEL 3
REMARK VINA RESULT:     -12.3      5.067     10.131
REMARK SMILES C#Cc1cc(Cl)cc2c1O[C@H](C(F)(F)F)C(C(=O)OCCOC(=O)c1ccc(-c3c4nc(c(-c5cc(S(=O)(=O)[O-])ccc5F)c5ccc([nH]5)c(-c5cc(S(=O)(=O)[O-])ccc5F)c5nc(c(-c6cc(S(=O)(=O)[O-])ccc6F)c6ccc3[nH]6)C=C5)C=C4)cc1)=C2
REMARK SMILES IDX 21 1 20 2 19 3 17 4 18 5 16 6 3 7 4 8 9 9 5 10 8 11 10 12
REMARK SMILES IDX 6 13 7 14 88 15 11 16 2 17 1 18 12 19 13 20 14 21 15 22
REMARK SMILES IDX 22 23 23 24 24 25 25 26 26 27 87 28 27 29 86 30 28 31 29 32
REMARK SMILES IDX 30 33 80 34 31 35 85 36 79 37 81 38 32 39 84 40 78 41 77 42
REMARK SMILES IDX 33 44 65 45 45 46 64 47 46 48 49 49 63 50 82 51 47 52 48 53
REMARK SMILES IDX 62 55 83 56 50 57 34 58 35 59 43 60 36 61 42 62 44 63 41 64
REMARK SMILES IDX 37 65 38 66 39 67 40 68 66 69 67 70 75 71 68 72 74 73 76 74
REMARK SMILES IDX 73 75 69 76 70 77 71 78 72 79 51 80 52 81 60 82 53 83 59 84
REMARK SMILES IDX 61 85 58 86 54 87 55 88 56 89 57 90
REMARK H PARENT 81 43 49 54
REMARK Flexibility Score: inf
ROOT
ATOM      1  C   UNL A   1      31.711  29.914  25.419  1.00  0.00     0.275 C 
ENDROOT
BRANCH   1   2
ATOM      2  C   UNL A   1      31.575  28.513  24.819  1.00  0.00     0.275 C 
BRANCH   2   3
ATOM      3  O   UNL A   1      32.359  27.545  25.551  1.00  0.00    -0.459 OA
BRANCH   3   4
ATOM      4  C   UNL A   1      31.647  26.593  26.199  1.00  0.00     0.338 C 
ATOM      5  O   UNL A   1      30.686  26.781  26.927  1.00  0.00    -0.246 OA
BRANCH   4   6
ATOM      6  C   UNL A   1      32.191  25.249  25.925  1.00  0.00     0.087 C 
ATOM      7  C   UNL A   1      33.853  21.628  24.631  1.00  0.00     0.068 A 
ATOM      8  C   UNL A   1      35.243  21.460  24.680  1.00  0.00     0.041 A 
ATOM      9  C   UNL A   1      33.268  22.807  25.115  1.00  0.00     0.143 A 
ATOM     10  C   UNL A   1      36.046  22.455  25.227  1.00  0.00     0.043 A 
ATOM     11  C   UNL A   1      34.086  23.799  25.656  1.00  0.00     0.020 A 
ATOM     12  O   UNL A   1      31.903  22.932  25.048  1.00  0.00    -0.474 OA
ATOM     13  Cl  UNL A   1      37.753  22.256  25.268  1.00  0.00    -0.084 Cl
ATOM     14  C   UNL A   1      35.475  23.621  25.724  1.00  0.00     0.032 A 
ATOM     15  C   UNL A   1      33.500  25.045  26.101  1.00  0.00     0.027 C 
ATOM     16  C   UNL A   1      31.289  24.226  25.305  1.00  0.00     0.316 C 
BRANCH   7  17
ATOM     17  C   UNL A   1      33.054  20.589  24.057  1.00  0.00    -0.067 C 
ATOM     18  C   UNL A   1      32.385  19.713  23.578  1.00  0.00     0.010 C 
ENDBRANCH   7  17
BRANCH  16  19
ATOM     19  C   UNL A   1      30.665  24.753  24.003  1.00  0.00     0.430 C 
ATOM     20  F   UNL A   1      29.633  25.594  24.254  1.00  0.00    -0.167 F 
ATOM     21  F   UNL A   1      31.562  25.462  23.272  1.00  0.00    -0.167 F 
ATOM     22  F   UNL A   1      30.199  23.759  23.216  1.00  0.00    -0.167 F 
ENDBRANCH  16  19
ENDBRANCH   4   6
ENDBRANCH   3   4
ENDBRANCH   2   3
ENDBRANCH   1   2
BRANCH   1  23
ATOM     23  O   UNL A   1      32.402  29.872  26.680  1.00  0.00    -0.458 OA
BRANCH  23  24
ATOM     24  C   UNL A   1      32.932  31.054  27.066  1.00  0.00     0.338 C 
ATOM     25  O   UNL A   1      32.348  32.119  27.180  1.00  0.00    -0.246 OA
BRANCH  24  26
ATOM     26  C   UNL A   1      34.336  30.889  27.462  1.00  0.00     0.060 A 
ATOM     27  C   UNL A   1      34.808  29.597  27.633  1.00  0.00     0.016 A 
ATOM     28  C   UNL A   1      35.088  31.970  27.906  1.00  0.00     0.016 A 
ATOM     29  C   UNL A   1      35.917  29.364  28.433  1.00  0.00     0.010 A 
ATOM     30  C   UNL A   1      36.313  31.734  28.545  1.00  0.00     0.010 A 
ATOM     31  C   UNL A   1      36.715  30.426  28.871  1.00  0.00    -0.014 A 
BRANCH  31  32
ATOM     32  C   UNL A   1      37.949  30.154  29.668  1.00  0.00     0.031 A 
ATOM     33  C   UNL A   1      39.072  29.336  29.078  1.00  0.00     0.074 A 
ATOM     34  C   UNL A   1      38.076  30.665  30.913  1.00  0.00     0.049 A 
ATOM     35  N   UNL A   1      40.124  28.834  29.671  1.00  0.00    -0.248 NA
ATOM     36  C   UNL A   1      39.001  29.030  27.638  1.00  0.00     0.031 C 
ATOM     37  C   UNL A   1      37.101  31.532  31.581  1.00  0.00     0.029 A 
ATOM     38  N   UNL A   1      39.084  30.547  31.837  1.00  0.00    -0.354 N 
ATOM     39  C   UNL A   1      40.816  28.125  28.694  1.00  0.00     0.074 A 
ATOM     40  C   UNL A   1      40.050  28.235  27.472  1.00  0.00     0.031 C 
ATOM     41  C   UNL A   1      37.585  31.920  32.768  1.00  0.00     0.029 A 
ATOM     42  C   UNL A   1      38.838  31.223  33.012  1.00  0.00     0.049 A 
ATOM     43  H   UNL A   1      39.906  30.028  31.675  1.00  0.00     0.167 HD
ATOM     44  C   UNL A   1      41.985  27.451  28.810  1.00  0.00     0.034 A 
ATOM     45  C   UNL A   1      39.507  31.241  34.181  1.00  0.00     0.034 A 
ATOM     46  C   UNL A   1      42.759  27.390  30.023  1.00  0.00     0.049 A 
ATOM     47  C   UNL A   1      40.744  30.399  34.313  1.00  0.00     0.074 A 
ATOM     48  C   UNL A   1      43.954  26.729  30.246  1.00  0.00     0.029 A 
ATOM     49  N   UNL A   1      42.427  28.026  31.212  1.00  0.00    -0.354 N 
ATOM     50  N   UNL A   1      41.333  29.659  33.403  1.00  0.00    -0.248 NA
ATOM     51  C   UNL A   1      41.394  30.373  35.629  1.00  0.00     0.031 C 
ATOM     52  C   UNL A   1      44.309  26.907  31.585  1.00  0.00     0.029 A 
ATOM     53  C   UNL A   1      43.379  27.746  32.178  1.00  0.00     0.049 A 
ATOM     54  H   UNL A   1      41.633  28.592  31.348  1.00  0.00     0.167 HD
ATOM     55  C   UNL A   1      42.440  29.100  34.032  1.00  0.00     0.074 A 
ATOM     56  C   UNL A   1      42.441  29.597  35.393  1.00  0.00     0.031 C 
ATOM     57  C   UNL A   1      43.368  28.250  33.528  1.00  0.00     0.034 A 
BRANCH  44  58
ATOM     58  C   UNL A   1      42.501  26.700  27.609  1.00  0.00     0.023 A 
ATOM     59  C   UNL A   1      42.240  25.334  27.423  1.00  0.00     0.031 A 
ATOM     60  C   UNL A   1      43.206  27.383  26.601  1.00  0.00     0.131 A 
ATOM     61  C   UNL A   1      42.697  24.687  26.264  1.00  0.00     0.055 A 
ATOM     62  C   UNL A   1      43.608  26.748  25.424  1.00  0.00     0.041 A 
ATOM     63  F   UNL A   1      43.497  28.687  26.735  1.00  0.00    -0.206 F 
ATOM     64  C   UNL A   1      43.356  25.391  25.253  1.00  0.00     0.022 A 
BRANCH  61  65
ATOM     65  S   UNL A   1      42.469  22.894  26.120  1.00  0.00     0.124 S 
ATOM     66  O   UNL A   1      43.357  22.398  27.168  1.00  0.00    -0.237 OA
ATOM     67  O   UNL A   1      41.040  22.735  26.364  1.00  0.00    -0.237 OA
ATOM     68  O   UNL A   1      42.903  22.603  24.754  1.00  0.00    -0.744 OA
ENDBRANCH  61  65
ENDBRANCH  44  58
BRANCH  45  69
ATOM     69  C   UNL A   1      38.989  32.034  35.335  1.00  0.00     0.023 A 
ATOM     70  C   UNL A   1      38.385  31.396  36.428  1.00  0.00     0.031 A 
ATOM     71  C   UNL A   1      39.078  33.438  35.356  1.00  0.00     0.131 A 
ATOM     72  C   UNL A   1      37.865  32.162  37.482  1.00  0.00     0.055 A 
ATOM     73  C   UNL A   1      38.612  34.192  36.434  1.00  0.00     0.041 A 
ATOM     74  F   UNL A   1      39.648  34.100  34.337  1.00  0.00    -0.206 F 
ATOM     75  C   UNL A   1      37.991  33.554  37.502  1.00  0.00     0.022 A 
BRANCH  72  76
ATOM     76  S   UNL A   1      36.963  31.313  38.805  1.00  0.00     0.124 S 
ATOM     77  O   UNL A   1      35.733  32.094  38.871  1.00  0.00    -0.237 OA
ATOM     78  O   UNL A   1      36.839  29.962  38.270  1.00  0.00    -0.237 OA
ATOM     79  O   UNL A   1      37.849  31.446  39.960  1.00  0.00    -0.744 OA
ENDBRANCH  72  76
ENDBRANCH  45  69
BRANCH  57  80
ATOM     80  C   UNL A   1      44.487  27.829  34.440  1.00  0.00     0.023 A 
ATOM     81  C   UNL A   1      44.381  26.684  35.246  1.00  0.00     0.031 A 
ATOM     82  C   UNL A   1      45.692  28.552  34.462  1.00  0.00     0.131 A 
ATOM     83  C   UNL A   1      45.454  26.309  36.065  1.00  0.00     0.055 A 
ATOM     84  C   UNL A   1      46.776  28.143  35.238  1.00  0.00     0.041 A 
ATOM     85  F   UNL A   1      45.843  29.652  33.708  1.00  0.00    -0.206 F 
ATOM     86  C   UNL A   1      46.659  27.019  36.050  1.00  0.00     0.022 A 
BRANCH  83  87
ATOM     87  S   UNL A   1      45.240  24.900  37.184  1.00  0.00     0.124 S 
ATOM     88  O   UNL A   1      46.612  24.637  37.605  1.00  0.00    -0.237 OA
ATOM     89  O   UNL A   1      44.353  25.443  38.208  1.00  0.00    -0.237 OA
ATOM     90  O   UNL A   1      44.644  23.872  36.332  1.00  0.00    -0.744 OA
ENDBRANCH  83  87
ENDBRANCH  57  80
ENDBRANCH  31  32
ENDBRANCH  24  26
ENDBRANCH  23  24
ENDBRANCH   1  23
TORSDOF 16
ENDMDL
