MODEL 1
REMARK VINA RESULT:     -10.8      0.000      0.000
REMARK SMILES C/C=C/C[C@]1(C(=O)OCCOC(=O)c2ccc(-c3c4nc(c(-c5cc(S(=O)(=O)[O-])ccc5F)c5ccc([nH]5)c(-c5cc(S(=O)(=O)[O-])ccc5F)c5nc(c(-c6cc(S(=O)(=O)[O-])ccc6F)c6ccc3[nH]6)C=C5)C=C4)cc2)CCN(C(=O)OC(C)(C)C)C1
REMARK SMILES IDX 9 1 8 2 6 3 7 4 5 5 77 6 87 7 78 8 79 9 4 10 3 11 1 12 2 13
REMARK SMILES IDX 80 14 81 15 82 16 83 17 84 18 85 19 86 20 10 21 11 22 12 23
REMARK SMILES IDX 13 24 14 25 15 26 76 27 16 28 75 29 17 30 18 31 19 32 69 33
REMARK SMILES IDX 20 34 74 35 68 36 70 37 21 38 73 39 67 40 66 41 22 43 54 44
REMARK SMILES IDX 34 45 53 46 35 47 38 48 52 49 71 50 36 51 37 52 51 54 72 55
REMARK SMILES IDX 39 56 23 57 24 58 32 59 25 60 31 61 33 62 30 63 26 64 27 65
REMARK SMILES IDX 28 66 29 67 55 68 56 69 64 70 57 71 63 72 65 73 62 74 58 75
REMARK SMILES IDX 59 76 60 77 61 78 40 79 41 80 49 81 42 82 48 83 50 84 47 85
REMARK SMILES IDX 43 86 44 87 45 88 46 89
REMARK H PARENT 70 42 38 53
REMARK Flexibility Score: inf
ROOT
ATOM      1  C   UNL A   1      35.259  21.748  26.592  1.00  0.00     0.274 C 
ENDROOT
BRANCH   1   2
ATOM      2  O   UNL A   1      34.421  22.876  26.268  1.00  0.00    -0.462 OA
BRANCH   2   3
ATOM      3  C   UNL A   1      33.098  22.748  26.544  1.00  0.00     0.314 C 
ATOM      4  O   UNL A   1      32.642  22.766  27.684  1.00  0.00    -0.252 OA
BRANCH   3   5
ATOM      5  C   UNL A   1      32.235  22.483  25.310  1.00  0.00     0.091 C 
ATOM      6  C   UNL A   1      32.849  22.926  23.962  1.00  0.00     0.042 C 
ATOM      7  C   UNL A   1      32.203  20.960  25.196  1.00  0.00     0.142 C 
ATOM      8  C   UNL A   1      32.405  21.861  22.973  1.00  0.00     0.124 C 
ATOM      9  N   UNL A   1      32.263  20.669  23.783  1.00  0.00    -0.307 N 
BRANCH   5  10
ATOM     10  C   UNL A   1      30.830  23.109  25.527  1.00  0.00     0.047 C 
BRANCH  10  11
ATOM     11  C   UNL A   1      30.607  24.573  25.256  1.00  0.00    -0.030 C 
ATOM     12  C   UNL A   1      31.006  26.991  25.834  1.00  0.00     0.035 C 
ATOM     13  C   UNL A   1      31.147  25.521  26.040  1.00  0.00    -0.035 C 
ENDBRANCH  10  11
ENDBRANCH   5  10
BRANCH   9  14
ATOM     14  C   UNL A   1      32.245  19.377  23.348  1.00  0.00     0.410 C 
ATOM     15  O   UNL A   1      32.226  19.079  22.157  1.00  0.00    -0.224 OA
BRANCH  14  16
ATOM     16  O   UNL A   1      32.201  18.491  24.372  1.00  0.00    -0.444 OA
BRANCH  16  17
ATOM     17  C   UNL A   1      33.222  17.471  24.465  1.00  0.00     0.106 C 
ATOM     18  C   UNL A   1      33.019  16.617  25.723  1.00  0.00     0.056 C 
ATOM     19  C   UNL A   1      33.289  16.625  23.188  1.00  0.00     0.056 C 
ATOM     20  C   UNL A   1      34.542  18.242  24.609  1.00  0.00     0.056 C 
ENDBRANCH  16  17
ENDBRANCH  14  16
ENDBRANCH   9  14
ENDBRANCH   3   5
ENDBRANCH   2   3
ENDBRANCH   1   2
BRANCH   1  21
ATOM     21  C   UNL A   1      36.021  21.270  25.358  1.00  0.00     0.275 C 
BRANCH  21  22
ATOM     22  O   UNL A   1      37.188  22.079  25.120  1.00  0.00    -0.458 OA
BRANCH  22  23
ATOM     23  C   UNL A   1      38.321  21.610  25.688  1.00  0.00     0.338 C 
ATOM     24  O   UNL A   1      38.809  20.498  25.563  1.00  0.00    -0.246 OA
BRANCH  23  25
ATOM     25  C   UNL A   1      38.991  22.679  26.436  1.00  0.00     0.060 A 
ATOM     26  C   UNL A   1      38.601  23.991  26.194  1.00  0.00     0.016 A 
ATOM     27  C   UNL A   1      40.110  22.413  27.212  1.00  0.00     0.016 A 
ATOM     28  C   UNL A   1      39.408  25.049  26.591  1.00  0.00     0.010 A 
ATOM     29  C   UNL A   1      40.835  23.484  27.745  1.00  0.00     0.010 A 
ATOM     30  C   UNL A   1      40.516  24.816  27.409  1.00  0.00    -0.014 A 
BRANCH  30  31
ATOM     31  C   UNL A   1      41.351  25.938  27.922  1.00  0.00     0.031 A 
ATOM     32  C   UNL A   1      40.706  27.036  28.723  1.00  0.00     0.074 A 
ATOM     33  C   UNL A   1      42.667  26.005  27.629  1.00  0.00     0.049 A 
ATOM     34  N   UNL A   1      41.134  28.246  28.969  1.00  0.00    -0.248 NA
ATOM     35  C   UNL A   1      39.384  26.736  29.296  1.00  0.00     0.031 C 
ATOM     36  C   UNL A   1      43.445  24.970  26.942  1.00  0.00     0.029 A 
ATOM     37  N   UNL A   1      43.582  27.007  27.849  1.00  0.00    -0.354 N 
ATOM     38  C   UNL A   1      40.109  28.876  29.670  1.00  0.00     0.074 A 
ATOM     39  C   UNL A   1      39.034  27.912  29.797  1.00  0.00     0.031 C 
ATOM     40  C   UNL A   1      44.712  25.383  26.807  1.00  0.00     0.029 A 
ATOM     41  C   UNL A   1      44.810  26.758  27.276  1.00  0.00     0.049 A 
ATOM     42  H   UNL A   1      43.381  27.820  28.365  1.00  0.00     0.167 HD
ATOM     43  C   UNL A   1      40.074  30.144  30.148  1.00  0.00     0.034 A 
ATOM     44  C   UNL A   1      45.869  27.564  27.071  1.00  0.00     0.034 A 
ATOM     45  C   UNL A   1      41.178  31.067  30.025  1.00  0.00     0.049 A 
ATOM     46  C   UNL A   1      45.779  28.999  27.520  1.00  0.00     0.074 A 
ATOM     47  C   UNL A   1      41.263  32.375  30.471  1.00  0.00     0.029 A 
ATOM     48  N   UNL A   1      42.392  30.777  29.413  1.00  0.00    -0.354 N 
ATOM     49  N   UNL A   1      44.778  29.616  28.106  1.00  0.00    -0.248 NA
ATOM     50  C   UNL A   1      46.949  29.850  27.273  1.00  0.00     0.031 C 
ATOM     51  C   UNL A   1      42.492  32.898  30.059  1.00  0.00     0.029 A 
ATOM     52  C   UNL A   1      43.218  31.889  29.444  1.00  0.00     0.049 A 
ATOM     53  H   UNL A   1      42.630  29.909  29.014  1.00  0.00     0.167 HD
ATOM     54  C   UNL A   1      45.219  30.915  28.339  1.00  0.00     0.074 A 
ATOM     55  C   UNL A   1      46.571  30.994  27.824  1.00  0.00     0.031 C 
ATOM     56  C   UNL A   1      44.569  31.944  28.938  1.00  0.00     0.034 A 
BRANCH  43  57
ATOM     57  C   UNL A   1      38.785  30.626  30.774  1.00  0.00     0.023 A 
ATOM     58  C   UNL A   1      37.834  31.370  30.057  1.00  0.00     0.031 A 
ATOM     59  C   UNL A   1      38.518  30.358  32.130  1.00  0.00     0.131 A 
ATOM     60  C   UNL A   1      36.705  31.885  30.714  1.00  0.00     0.055 A 
ATOM     61  C   UNL A   1      37.349  30.794  32.755  1.00  0.00     0.041 A 
ATOM     62  F   UNL A   1      39.400  29.674  32.878  1.00  0.00    -0.206 F 
ATOM     63  C   UNL A   1      36.441  31.577  32.051  1.00  0.00     0.022 A 
BRANCH  60  64
ATOM     64  S   UNL A   1      35.669  33.091  29.842  1.00  0.00     0.124 S 
ATOM     65  O   UNL A   1      35.500  34.126  30.860  1.00  0.00    -0.237 OA
ATOM     66  O   UNL A   1      36.500  33.451  28.697  1.00  0.00    -0.237 OA
ATOM     67  O   UNL A   1      34.458  32.337  29.523  1.00  0.00    -0.744 OA
ENDBRANCH  60  64
ENDBRANCH  43  57
BRANCH  44  68
ATOM     68  C   UNL A   1      47.071  27.061  26.342  1.00  0.00     0.023 A 
ATOM     69  C   UNL A   1      48.167  26.533  27.039  1.00  0.00     0.031 A 
ATOM     70  C   UNL A   1      47.155  27.127  24.937  1.00  0.00     0.131 A 
ATOM     71  C   UNL A   1      49.316  26.136  26.339  1.00  0.00     0.055 A 
ATOM     72  C   UNL A   1      48.273  26.665  24.241  1.00  0.00     0.041 A 
ATOM     73  F   UNL A   1      46.137  27.625  24.218  1.00  0.00    -0.206 F 
ATOM     74  C   UNL A   1      49.369  26.179  24.943  1.00  0.00     0.022 A 
BRANCH  71  75
ATOM     75  S   UNL A   1      50.785  25.657  27.288  1.00  0.00     0.124 S 
ATOM     76  O   UNL A   1      51.443  24.737  26.367  1.00  0.00    -0.237 OA
ATOM     77  O   UNL A   1      51.444  26.942  27.494  1.00  0.00    -0.237 OA
ATOM     78  O   UNL A   1      50.227  25.042  28.491  1.00  0.00    -0.744 OA
ENDBRANCH  71  75
ENDBRANCH  44  68
BRANCH  56  79
ATOM     79  C   UNL A   1      45.344  33.218  29.160  1.00  0.00     0.023 A 
ATOM     80  C   UNL A   1      45.363  34.261  28.220  1.00  0.00     0.031 A 
ATOM     81  C   UNL A   1      46.049  33.396  30.364  1.00  0.00     0.131 A 
ATOM     82  C   UNL A   1      46.098  35.426  28.489  1.00  0.00     0.055 A 
ATOM     83  C   UNL A   1      46.728  34.578  30.651  1.00  0.00     0.041 A 
ATOM     84  F   UNL A   1      46.069  32.425  31.294  1.00  0.00    -0.206 F 
ATOM     85  C   UNL A   1      46.760  35.600  29.707  1.00  0.00     0.022 A 
BRANCH  82  86
ATOM     86  S   UNL A   1      46.229  36.694  27.200  1.00  0.00     0.124 S 
ATOM     87  O   UNL A   1      47.291  37.549  27.721  1.00  0.00    -0.237 OA
ATOM     88  O   UNL A   1      46.567  35.908  26.018  1.00  0.00    -0.237 OA
ATOM     89  O   UNL A   1      44.900  37.301  27.178  1.00  0.00    -0.744 OA
ENDBRANCH  82  86
ENDBRANCH  56  79
ENDBRANCH  30  31
ENDBRANCH  23  25
ENDBRANCH  22  23
ENDBRANCH  21  22
ENDBRANCH   1  21
TORSDOF 19
ENDMDL
MODEL 2
REMARK VINA RESULT:     -10.8      4.822      9.814
REMARK SMILES C/C=C/C[C@]1(C(=O)OCCOC(=O)c2ccc(-c3c4nc(c(-c5cc(S(=O)(=O)[O-])ccc5F)c5ccc([nH]5)c(-c5cc(S(=O)(=O)[O-])ccc5F)c5nc(c(-c6cc(S(=O)(=O)[O-])ccc6F)c6ccc3[nH]6)C=C5)C=C4)cc2)CCN(C(=O)OC(C)(C)C)C1
REMARK SMILES IDX 9 1 8 2 6 3 7 4 5 5 77 6 87 7 78 8 79 9 4 10 3 11 1 12 2 13
REMARK SMILES IDX 80 14 81 15 82 16 83 17 84 18 85 19 86 20 10 21 11 22 12 23
REMARK SMILES IDX 13 24 14 25 15 26 76 27 16 28 75 29 17 30 18 31 19 32 69 33
REMARK SMILES IDX 20 34 74 35 68 36 70 37 21 38 73 39 67 40 66 41 22 43 54 44
REMARK SMILES IDX 34 45 53 46 35 47 38 48 52 49 71 50 36 51 37 52 51 54 72 55
REMARK SMILES IDX 39 56 23 57 24 58 32 59 25 60 31 61 33 62 30 63 26 64 27 65
REMARK SMILES IDX 28 66 29 67 55 68 56 69 64 70 57 71 63 72 65 73 62 74 58 75
REMARK SMILES IDX 59 76 60 77 61 78 40 79 41 80 49 81 42 82 48 83 50 84 47 85
REMARK SMILES IDX 43 86 44 87 45 88 46 89
REMARK H PARENT 70 42 38 53
REMARK Flexibility Score: inf
ROOT
ATOM      1  C   UNL A   1      31.594  29.480  25.105  1.00  0.00     0.274 C 
ENDROOT
BRANCH   1   2
ATOM      2  O   UNL A   1      32.220  28.261  25.555  1.00  0.00    -0.462 OA
BRANCH   2   3
ATOM      3  C   UNL A   1      33.105  27.683  24.703  1.00  0.00     0.314 C 
ATOM      4  O   UNL A   1      34.045  28.287  24.195  1.00  0.00    -0.252 OA
BRANCH   3   5
ATOM      5  C   UNL A   1      32.769  26.231  24.359  1.00  0.00     0.091 C 
ATOM      6  C   UNL A   1      32.536  25.940  22.859  1.00  0.00     0.042 C 
ATOM      7  C   UNL A   1      34.054  25.467  24.669  1.00  0.00     0.142 C 
ATOM      8  C   UNL A   1      33.124  24.556  22.644  1.00  0.00     0.124 C 
ATOM      9  N   UNL A   1      34.174  24.465  23.636  1.00  0.00    -0.307 N 
BRANCH   5  10
ATOM     10  C   UNL A   1      31.562  25.770  25.221  1.00  0.00     0.047 C 
BRANCH  10  11
ATOM     11  C   UNL A   1      30.208  25.586  24.587  1.00  0.00    -0.030 C 
ATOM     12  C   UNL A   1      27.999  26.529  23.830  1.00  0.00     0.035 C 
ATOM     13  C   UNL A   1      29.344  26.608  24.469  1.00  0.00    -0.035 C 
ENDBRANCH  10  11
ENDBRANCH   5  10
BRANCH   9  14
ATOM     14  C   UNL A   1      35.232  23.603  23.637  1.00  0.00     0.410 C 
ATOM     15  O   UNL A   1      35.799  23.249  22.607  1.00  0.00    -0.224 OA
BRANCH  14  16
ATOM     16  O   UNL A   1      35.534  23.163  24.882  1.00  0.00    -0.444 OA
BRANCH  16  17
ATOM     17  C   UNL A   1      35.133  21.829  25.273  1.00  0.00     0.106 C 
ATOM     18  C   UNL A   1      33.904  21.378  24.473  1.00  0.00     0.056 C 
ATOM     19  C   UNL A   1      36.298  20.838  25.165  1.00  0.00     0.056 C 
ATOM     20  C   UNL A   1      34.733  21.952  26.750  1.00  0.00     0.056 C 
ENDBRANCH  16  17
ENDBRANCH  14  16
ENDBRANCH   9  14
ENDBRANCH   3   5
ENDBRANCH   2   3
ENDBRANCH   1   2
BRANCH   1  21
ATOM     21  C   UNL A   1      31.730  30.577  26.160  1.00  0.00     0.275 C 
BRANCH  21  22
ATOM     22  O   UNL A   1      32.904  30.379  26.968  1.00  0.00    -0.458 OA
BRANCH  22  23
ATOM     23  C   UNL A   1      33.501  31.520  27.380  1.00  0.00     0.338 C 
ATOM     24  O   UNL A   1      32.998  32.628  27.474  1.00  0.00    -0.246 OA
BRANCH  23  25
ATOM     25  C   UNL A   1      34.872  31.241  27.821  1.00  0.00     0.060 A 
ATOM     26  C   UNL A   1      35.168  29.960  28.271  1.00  0.00     0.016 A 
ATOM     27  C   UNL A   1      35.794  32.267  27.972  1.00  0.00     0.016 A 
ATOM     28  C   UNL A   1      36.318  29.724  29.013  1.00  0.00     0.010 A 
ATOM     29  C   UNL A   1      37.022  31.990  28.582  1.00  0.00     0.010 A 
ATOM     30  C   UNL A   1      37.283  30.724  29.146  1.00  0.00    -0.014 A 
BRANCH  30  31
ATOM     31  C   UNL A   1      38.565  30.474  29.864  1.00  0.00     0.031 A 
ATOM     32  C   UNL A   1      39.567  29.515  29.279  1.00  0.00     0.074 A 
ATOM     33  C   UNL A   1      38.811  31.057  31.056  1.00  0.00     0.049 A 
ATOM     34  N   UNL A   1      40.556  28.891  29.861  1.00  0.00    -0.248 NA
ATOM     35  C   UNL A   1      39.410  29.197  27.852  1.00  0.00     0.031 C 
ATOM     36  C   UNL A   1      37.975  32.075  31.699  1.00  0.00     0.029 A 
ATOM     37  N   UNL A   1      39.827  30.855  31.958  1.00  0.00    -0.354 N 
ATOM     38  C   UNL A   1      41.100  28.054  28.890  1.00  0.00     0.074 A 
ATOM     39  C   UNL A   1      40.320  28.248  27.685  1.00  0.00     0.031 C 
ATOM     40  C   UNL A   1      38.514  32.412  32.878  1.00  0.00     0.029 A 
ATOM     41  C   UNL A   1      39.655  31.547  33.137  1.00  0.00     0.049 A 
ATOM     42  H   UNL A   1      40.601  30.273  31.781  1.00  0.00     0.167 HD
ATOM     43  C   UNL A   1      42.148  27.201  29.008  1.00  0.00     0.034 A 
ATOM     44  C   UNL A   1      40.285  31.443  34.323  1.00  0.00     0.034 A 
ATOM     45  C   UNL A   1      42.919  27.057  30.220  1.00  0.00     0.049 A 
ATOM     46  C   UNL A   1      41.382  30.421  34.468  1.00  0.00     0.074 A 
ATOM     47  C   UNL A   1      44.002  26.229  30.461  1.00  0.00     0.029 A 
ATOM     48  N   UNL A   1      42.690  27.761  31.397  1.00  0.00    -0.354 N 
ATOM     49  N   UNL A   1      41.839  29.573  33.575  1.00  0.00    -0.248 NA
ATOM     50  C   UNL A   1      42.040  30.331  35.776  1.00  0.00     0.031 C 
ATOM     51  C   UNL A   1      44.375  26.374  31.800  1.00  0.00     0.029 A 
ATOM     52  C   UNL A   1      43.592  27.365  32.372  1.00  0.00     0.049 A 
ATOM     53  H   UNL A   1      41.989  28.442  31.520  1.00  0.00     0.167 HD
ATOM     54  C   UNL A   1      42.870  28.882  34.204  1.00  0.00     0.074 A 
ATOM     55  C   UNL A   1      42.963  29.407  35.550  1.00  0.00     0.031 C 
ATOM     56  C   UNL A   1      43.677  27.911  33.706  1.00  0.00     0.034 A 
BRANCH  43  57
ATOM     57  C   UNL A   1      42.467  26.310  27.829  1.00  0.00     0.023 A 
ATOM     58  C   UNL A   1      41.880  25.045  27.662  1.00  0.00     0.031 A 
ATOM     59  C   UNL A   1      43.404  26.728  26.866  1.00  0.00     0.131 A 
ATOM     60  C   UNL A   1      42.291  24.215  26.608  1.00  0.00     0.055 A 
ATOM     61  C   UNL A   1      43.742  25.936  25.768  1.00  0.00     0.041 A 
ATOM     62  F   UNL A   1      44.021  27.916  26.981  1.00  0.00    -0.206 F 
ATOM     63  C   UNL A   1      43.196  24.662  25.642  1.00  0.00     0.022 A 
BRANCH  60  64
ATOM     64  S   UNL A   1      41.747  22.485  26.605  1.00  0.00     0.124 S 
ATOM     65  O   UNL A   1      42.394  21.970  27.809  1.00  0.00    -0.237 OA
ATOM     66  O   UNL A   1      40.294  22.611  26.664  1.00  0.00    -0.237 OA
ATOM     67  O   UNL A   1      42.278  21.960  25.348  1.00  0.00    -0.744 OA
ENDBRANCH  60  64
ENDBRANCH  43  57
BRANCH  44  68
ATOM     68  C   UNL A   1      39.846  32.270  35.485  1.00  0.00     0.023 A 
ATOM     69  C   UNL A   1      40.351  33.564  35.680  1.00  0.00     0.031 A 
ATOM     70  C   UNL A   1      38.937  31.770  36.437  1.00  0.00     0.131 A 
ATOM     71  C   UNL A   1      39.983  34.294  36.820  1.00  0.00     0.055 A 
ATOM     72  C   UNL A   1      38.520  32.527  37.532  1.00  0.00     0.041 A 
ATOM     73  F   UNL A   1      38.423  30.536  36.304  1.00  0.00    -0.206 F 
ATOM     74  C   UNL A   1      39.055  33.794  37.737  1.00  0.00     0.022 A 
BRANCH  71  75
ATOM     75  S   UNL A   1      40.816  35.872  37.142  1.00  0.00     0.124 S 
ATOM     76  O   UNL A   1      39.720  36.682  37.663  1.00  0.00    -0.237 OA
ATOM     77  O   UNL A   1      41.841  35.482  38.105  1.00  0.00    -0.237 OA
ATOM     78  O   UNL A   1      41.315  36.269  35.827  1.00  0.00    -0.744 OA
ENDBRANCH  71  75
ENDBRANCH  44  68
BRANCH  56  79
ATOM     79  C   UNL A   1      44.797  27.421  34.587  1.00  0.00     0.023 A 
ATOM     80  C   UNL A   1      44.657  26.307  35.431  1.00  0.00     0.031 A 
ATOM     81  C   UNL A   1      46.044  28.072  34.547  1.00  0.00     0.131 A 
ATOM     82  C   UNL A   1      45.740  25.895  36.223  1.00  0.00     0.055 A 
ATOM     83  C   UNL A   1      47.133  27.622  35.290  1.00  0.00     0.041 A 
ATOM     84  F   UNL A   1      46.227  29.146  33.761  1.00  0.00    -0.206 F 
ATOM     85  C   UNL A   1      46.983  26.531  36.140  1.00  0.00     0.022 A 
BRANCH  82  86
ATOM     86  S   UNL A   1      45.492  24.550  37.413  1.00  0.00     0.124 S 
ATOM     87  O   UNL A   1      44.240  24.938  38.054  1.00  0.00    -0.237 OA
ATOM     88  O   UNL A   1      45.428  23.375  36.550  1.00  0.00    -0.237 OA
ATOM     89  O   UNL A   1      46.676  24.624  38.268  1.00  0.00    -0.744 OA
ENDBRANCH  82  86
ENDBRANCH  56  79
ENDBRANCH  30  31
ENDBRANCH  23  25
ENDBRANCH  22  23
ENDBRANCH  21  22
ENDBRANCH   1  21
TORSDOF 19
ENDMDL
MODEL 3
REMARK VINA RESULT:     -10.6      2.110      8.446
REMARK SMILES C/C=C/C[C@]1(C(=O)OCCOC(=O)c2ccc(-c3c4nc(c(-c5cc(S(=O)(=O)[O-])ccc5F)c5ccc([nH]5)c(-c5cc(S(=O)(=O)[O-])ccc5F)c5nc(c(-c6cc(S(=O)(=O)[O-])ccc6F)c6ccc3[nH]6)C=C5)C=C4)cc2)CCN(C(=O)OC(C)(C)C)C1
REMARK SMILES IDX 9 1 8 2 6 3 7 4 5 5 77 6 87 7 78 8 79 9 4 10 3 11 1 12 2 13
REMARK SMILES IDX 80 14 81 15 82 16 83 17 84 18 85 19 86 20 10 21 11 22 12 23
REMARK SMILES IDX 13 24 14 25 15 26 76 27 16 28 75 29 17 30 18 31 19 32 69 33
REMARK SMILES IDX 20 34 74 35 68 36 70 37 21 38 73 39 67 40 66 41 22 43 54 44
REMARK SMILES IDX 34 45 53 46 35 47 38 48 52 49 71 50 36 51 37 52 51 54 72 55
REMARK SMILES IDX 39 56 23 57 24 58 32 59 25 60 31 61 33 62 30 63 26 64 27 65
REMARK SMILES IDX 28 66 29 67 55 68 56 69 64 70 57 71 63 72 65 73 62 74 58 75
REMARK SMILES IDX 59 76 60 77 61 78 40 79 41 80 49 81 42 82 48 83 50 84 47 85
REMARK SMILES IDX 43 86 44 87 45 88 46 89
REMARK H PARENT 70 42 38 53
REMARK Flexibility Score: inf
ROOT
ATOM      1  C   UNL A   1      36.177  21.197  25.520  1.00  0.00     0.274 C 
ENDROOT
BRANCH   1   2
ATOM      2  O   UNL A   1      35.715  21.824  24.307  1.00  0.00    -0.462 OA
BRANCH   2   3
ATOM      3  C   UNL A   1      35.361  23.131  24.395  1.00  0.00     0.314 C 
ATOM      4  O   UNL A   1      36.173  24.044  24.510  1.00  0.00    -0.252 OA
BRANCH   3   5
ATOM      5  C   UNL A   1      33.849  23.357  24.433  1.00  0.00     0.091 C 
ATOM      6  C   UNL A   1      33.222  23.423  25.844  1.00  0.00     0.042 C 
ATOM      7  C   UNL A   1      33.670  24.778  23.903  1.00  0.00     0.142 C 
ATOM      8  C   UNL A   1      32.128  24.471  25.727  1.00  0.00     0.124 C 
ATOM      9  N   UNL A   1      32.606  25.360  24.688  1.00  0.00    -0.307 N 
BRANCH   5  10
ATOM     10  C   UNL A   1      33.152  22.284  23.552  1.00  0.00     0.047 C 
BRANCH  10  11
ATOM     11  C   UNL A   1      32.438  21.125  24.197  1.00  0.00    -0.030 C 
ATOM     12  C   UNL A   1      32.341  18.687  24.817  1.00  0.00     0.035 C 
ATOM     13  C   UNL A   1      32.957  19.886  24.181  1.00  0.00    -0.035 C 
ENDBRANCH  10  11
ENDBRANCH   5  10
BRANCH   9  14
ATOM     14  C   UNL A   1      32.199  26.639  24.449  1.00  0.00     0.410 C 
ATOM     15  O   UNL A   1      32.465  27.236  23.409  1.00  0.00    -0.224 OA
BRANCH  14  16
ATOM     16  O   UNL A   1      31.526  27.168  25.499  1.00  0.00    -0.444 OA
BRANCH  16  17
ATOM     17  C   UNL A   1      32.122  28.258  26.240  1.00  0.00     0.106 C 
ATOM     18  C   UNL A   1      33.648  28.106  26.289  1.00  0.00     0.056 C 
ATOM     19  C   UNL A   1      31.686  29.620  25.686  1.00  0.00     0.056 C 
ATOM     20  C   UNL A   1      31.574  28.114  27.667  1.00  0.00     0.056 C 
ENDBRANCH  16  17
ENDBRANCH  14  16
ENDBRANCH   9  14
ENDBRANCH   3   5
ENDBRANCH   2   3
ENDBRANCH   1   2
BRANCH   1  21
ATOM     21  C   UNL A   1      37.446  20.387  25.261  1.00  0.00     0.275 C 
BRANCH  21  22
ATOM     22  O   UNL A   1      38.604  21.239  25.201  1.00  0.00    -0.458 OA
BRANCH  22  23
ATOM     23  C   UNL A   1      39.428  21.142  26.268  1.00  0.00     0.338 C 
ATOM     24  O   UNL A   1      39.856  20.123  26.785  1.00  0.00    -0.246 OA
BRANCH  23  25
ATOM     25  C   UNL A   1      39.852  22.478  26.701  1.00  0.00     0.060 A 
ATOM     26  C   UNL A   1      39.097  23.570  26.292  1.00  0.00     0.016 A 
ATOM     27  C   UNL A   1      41.075  22.668  27.330  1.00  0.00     0.016 A 
ATOM     28  C   UNL A   1      39.620  24.854  26.363  1.00  0.00     0.010 A 
ATOM     29  C   UNL A   1      41.530  23.973  27.544  1.00  0.00     0.010 A 
ATOM     30  C   UNL A   1      40.827  25.082  27.028  1.00  0.00    -0.014 A 
BRANCH  30  31
ATOM     31  C   UNL A   1      41.373  26.458  27.197  1.00  0.00     0.031 A 
ATOM     32  C   UNL A   1      42.736  26.787  26.650  1.00  0.00     0.074 A 
ATOM     33  C   UNL A   1      40.680  27.393  27.880  1.00  0.00     0.049 A 
ATOM     34  N   UNL A   1      43.541  27.768  26.963  1.00  0.00    -0.248 NA
ATOM     35  C   UNL A   1      43.273  25.866  25.638  1.00  0.00     0.031 C 
ATOM     36  C   UNL A   1      39.312  27.245  28.386  1.00  0.00     0.029 A 
ATOM     37  N   UNL A   1      41.044  28.652  28.294  1.00  0.00    -0.354 N 
ATOM     38  C   UNL A   1      44.707  27.548  26.235  1.00  0.00     0.074 A 
ATOM     39  C   UNL A   1      44.503  26.331  25.475  1.00  0.00     0.031 C 
ATOM     40  C   UNL A   1      38.953  28.364  29.029  1.00  0.00     0.029 A 
ATOM     41  C   UNL A   1      40.101  29.256  29.096  1.00  0.00     0.049 A 
ATOM     42  H   UNL A   1      41.894  29.080  28.043  1.00  0.00     0.167 HD
ATOM     43  C   UNL A   1      45.840  28.293  26.219  1.00  0.00     0.034 A 
ATOM     44  C   UNL A   1      40.172  30.357  29.869  1.00  0.00     0.034 A 
ATOM     45  C   UNL A   1      45.994  29.515  26.970  1.00  0.00     0.049 A 
ATOM     46  C   UNL A   1      41.471  31.119  29.918  1.00  0.00     0.074 A 
ATOM     47  C   UNL A   1      47.092  30.358  27.033  1.00  0.00     0.029 A 
ATOM     48  N   UNL A   1      45.020  30.074  27.790  1.00  0.00    -0.354 N 
ATOM     49  N   UNL A   1      42.599  30.863  29.295  1.00  0.00    -0.248 NA
ATOM     50  C   UNL A   1      41.514  32.308  30.776  1.00  0.00     0.031 C 
ATOM     51  C   UNL A   1      46.810  31.377  27.948  1.00  0.00     0.029 A 
ATOM     52  C   UNL A   1      45.501  31.230  28.382  1.00  0.00     0.049 A 
ATOM     53  H   UNL A   1      44.119  29.701  27.929  1.00  0.00     0.167 HD
ATOM     54  C   UNL A   1      43.469  31.887  29.653  1.00  0.00     0.074 A 
ATOM     55  C   UNL A   1      42.739  32.760  30.549  1.00  0.00     0.031 C 
ATOM     56  C   UNL A   1      44.752  32.095  29.263  1.00  0.00     0.034 A 
BRANCH  43  57
ATOM     57  C   UNL A   1      47.017  27.768  25.428  1.00  0.00     0.023 A 
ATOM     58  C   UNL A   1      47.238  28.121  24.087  1.00  0.00     0.031 A 
ATOM     59  C   UNL A   1      47.922  26.870  26.026  1.00  0.00     0.131 A 
ATOM     60  C   UNL A   1      48.285  27.522  23.368  1.00  0.00     0.055 A 
ATOM     61  C   UNL A   1      49.015  26.348  25.333  1.00  0.00     0.041 A 
ATOM     62  F   UNL A   1      47.751  26.472  27.298  1.00  0.00    -0.206 F 
ATOM     63  C   UNL A   1      49.192  26.660  23.988  1.00  0.00     0.022 A 
BRANCH  60  64
ATOM     64  S   UNL A   1      48.349  27.761  21.571  1.00  0.00     0.124 S 
ATOM     65  O   UNL A   1      47.007  28.269  21.293  1.00  0.00    -0.237 OA
ATOM     66  O   UNL A   1      49.439  28.718  21.418  1.00  0.00    -0.237 OA
ATOM     67  O   UNL A   1      48.618  26.420  21.056  1.00  0.00    -0.744 OA
ENDBRANCH  60  64
ENDBRANCH  43  57
BRANCH  44  68
ATOM     68  C   UNL A   1      39.012  30.760  30.717  1.00  0.00     0.023 A 
ATOM     69  C   UNL A   1      38.031  31.633  30.228  1.00  0.00     0.031 A 
ATOM     70  C   UNL A   1      38.881  30.301  32.043  1.00  0.00     0.131 A 
ATOM     71  C   UNL A   1      36.990  32.058  31.067  1.00  0.00     0.055 A 
ATOM     72  C   UNL A   1      37.806  30.671  32.851  1.00  0.00     0.041 A 
ATOM     73  F   UNL A   1      39.792  29.465  32.566  1.00  0.00    -0.206 F 
ATOM     74  C   UNL A   1      36.858  31.568  32.369  1.00  0.00     0.022 A 
BRANCH  71  75
ATOM     75  S   UNL A   1      35.865  33.346  30.465  1.00  0.00     0.124 S 
ATOM     76  O   UNL A   1      36.585  33.845  29.299  1.00  0.00    -0.237 OA
ATOM     77  O   UNL A   1      34.651  32.584  30.193  1.00  0.00    -0.237 OA
ATOM     78  O   UNL A   1      35.778  34.275  31.590  1.00  0.00    -0.744 OA
ENDBRANCH  71  75
ENDBRANCH  44  68
BRANCH  56  79
ATOM     79  C   UNL A   1      45.419  33.366  29.722  1.00  0.00     0.023 A 
ATOM     80  C   UNL A   1      45.253  34.588  29.052  1.00  0.00     0.031 A 
ATOM     81  C   UNL A   1      46.212  33.348  30.885  1.00  0.00     0.131 A 
ATOM     82  C   UNL A   1      45.896  35.739  29.534  1.00  0.00     0.055 A 
ATOM     83  C   UNL A   1      46.799  34.505  31.392  1.00  0.00     0.041 A 
ATOM     84  F   UNL A   1      46.408  32.203  31.559  1.00  0.00    -0.206 F 
ATOM     85  C   UNL A   1      46.648  35.710  30.712  1.00  0.00     0.022 A 
BRANCH  82  86
ATOM     86  S   UNL A   1      45.788  37.271  28.569  1.00  0.00     0.124 S 
ATOM     87  O   UNL A   1      44.853  38.063  29.361  1.00  0.00    -0.237 OA
ATOM     88  O   UNL A   1      47.171  37.736  28.563  1.00  0.00    -0.237 OA
ATOM     89  O   UNL A   1      45.280  36.826  27.273  1.00  0.00    -0.744 OA
ENDBRANCH  82  86
ENDBRANCH  56  79
ENDBRANCH  30  31
ENDBRANCH  23  25
ENDBRANCH  22  23
ENDBRANCH  21  22
ENDBRANCH   1  21
TORSDOF 19
ENDMDL
