MODEL 1
REMARK VINA RESULT:     -12.0      0.000      0.000
REMARK SMILES COc1cccc(NC(=O)[C@@H]2[C@@H](C(=O)OCCOC(=O)c3ccc(-c4c5nc(c(-c6cc(S(=O)(=O)[O-])ccc6F)c6ccc([nH]6)c(-c6cc(S(=O)(=O)[O-])ccc6F)c6nc(c(-c7cc(S(=O)(=O)[O-])ccc7F)c7ccc4[nH]7)C=C6)C=C5)cc3)[C@H]3C=C[C@@H]2C3)c1
REMARK SMILES IDX 16 1 15 2 13 3 14 4 12 5 11 6 87 7 84 8 86 9 88 10 85 11
REMARK SMILES IDX 9 12 8 13 10 15 7 16 3 17 4 18 89 19 5 20 6 21 2 22 1 23
REMARK SMILES IDX 17 24 18 25 19 26 20 27 21 28 22 29 83 30 23 31 82 32 24 33
REMARK SMILES IDX 25 34 26 35 76 36 27 37 81 38 75 39 77 40 28 41 80 42 74 43
REMARK SMILES IDX 73 44 29 46 61 47 41 48 60 49 42 50 45 51 59 52 78 53 43 54
REMARK SMILES IDX 44 55 58 57 79 58 46 59 30 60 31 61 39 62 32 63 38 64 40 65
REMARK SMILES IDX 37 66 33 67 34 68 35 69 36 70 62 71 63 72 71 73 64 74 70 75
REMARK SMILES IDX 72 76 69 77 65 78 66 79 67 80 68 81 47 82 48 83 56 84 49 85
REMARK SMILES IDX 55 86 57 87 54 88 50 89 51 90 52 91 53 92
REMARK H PARENT 8 14 77 45 45 56
REMARK Flexibility Score: inf
ROOT
ATOM      1  C   UNL A   1      35.761  20.533  25.106  1.00  0.00     0.274 C 
ENDROOT
BRANCH   1   2
ATOM      2  O   UNL A   1      34.644  21.103  24.397  1.00  0.00    -0.462 OA
BRANCH   2   3
ATOM      3  C   UNL A   1      33.560  21.486  25.140  1.00  0.00     0.310 C 
ATOM      4  O   UNL A   1      33.036  20.813  26.013  1.00  0.00    -0.252 OA
BRANCH   3   5
ATOM      5  C   UNL A   1      33.136  22.880  24.697  1.00  0.00     0.119 C 
ATOM      6  C   UNL A   1      33.954  23.549  23.578  1.00  0.00     0.100 C 
ATOM      7  C   UNL A   1      34.534  24.823  24.237  1.00  0.00     0.025 C 
ATOM      8  C   UNL A   1      33.275  23.919  25.847  1.00  0.00     0.027 C 
ATOM      9  C   UNL A   1      35.467  24.402  25.354  1.00  0.00    -0.027 C 
ATOM     10  C   UNL A   1      33.375  25.269  25.115  1.00  0.00     0.017 C 
ATOM     11  C   UNL A   1      34.708  23.886  26.335  1.00  0.00    -0.027 C 
BRANCH   6  12
ATOM     12  C   UNL A   1      33.226  23.847  22.266  1.00  0.00     0.228 C 
ATOM     13  N   UNL A   1      32.183  24.661  21.981  1.00  0.00    -0.326 N 
ATOM     14  H   UNL A   1      32.025  24.631  21.010  1.00  0.00     0.169 HD
ATOM     15  O   UNL A   1      33.707  23.314  21.250  1.00  0.00    -0.274 OA
BRANCH  13  16
ATOM     16  C   UNL A   1      31.235  25.537  22.557  1.00  0.00     0.044 A 
ATOM     17  C   UNL A   1      30.495  27.859  22.688  1.00  0.00     0.120 A 
ATOM     18  C   UNL A   1      29.568  27.552  23.673  1.00  0.00     0.046 A 
ATOM     19  C   UNL A   1      31.328  26.876  22.143  1.00  0.00     0.072 A 
ATOM     20  C   UNL A   1      29.419  26.233  24.051  1.00  0.00     0.006 A 
ATOM     21  C   UNL A   1      30.235  25.245  23.483  1.00  0.00     0.026 A 
BRANCH  17  22
ATOM     22  O   UNL A   1      30.620  29.160  22.288  1.00  0.00    -0.497 OA
ATOM     23  C   UNL A   1      29.324  29.720  22.070  1.00  0.00     0.278 C 
ENDBRANCH  17  22
ENDBRANCH  13  16
ENDBRANCH   6  12
ENDBRANCH   3   5
ENDBRANCH   2   3
ENDBRANCH   1   2
BRANCH   1  24
ATOM     24  C   UNL A   1      37.101  21.007  24.535  1.00  0.00     0.275 C 
BRANCH  24  25
ATOM     25  O   UNL A   1      37.726  21.962  25.411  1.00  0.00    -0.458 OA
BRANCH  25  26
ATOM     26  C   UNL A   1      38.879  21.551  25.992  1.00  0.00     0.338 C 
ATOM     27  O   UNL A   1      39.412  20.460  25.873  1.00  0.00    -0.246 OA
BRANCH  26  28
ATOM     28  C   UNL A   1      39.538  22.706  26.620  1.00  0.00     0.060 A 
ATOM     29  C   UNL A   1      39.131  23.956  26.173  1.00  0.00     0.016 A 
ATOM     30  C   UNL A   1      40.573  22.601  27.545  1.00  0.00     0.016 A 
ATOM     31  C   UNL A   1      39.733  25.118  26.636  1.00  0.00     0.010 A 
ATOM     32  C   UNL A   1      41.181  23.775  28.024  1.00  0.00     0.010 A 
ATOM     33  C   UNL A   1      40.769  25.045  27.568  1.00  0.00    -0.014 A 
BRANCH  33  34
ATOM     34  C   UNL A   1      41.473  26.296  27.964  1.00  0.00     0.031 A 
ATOM     35  C   UNL A   1      40.743  27.320  28.788  1.00  0.00     0.074 A 
ATOM     36  C   UNL A   1      42.773  26.484  27.666  1.00  0.00     0.049 A 
ATOM     37  N   UNL A   1      41.095  28.539  29.105  1.00  0.00    -0.248 NA
ATOM     38  C   UNL A   1      39.435  26.911  29.323  1.00  0.00     0.031 C 
ATOM     39  C   UNL A   1      43.634  25.516  26.983  1.00  0.00     0.029 A 
ATOM     40  N   UNL A   1      43.606  27.550  27.912  1.00  0.00    -0.354 N 
ATOM     41  C   UNL A   1      40.035  29.061  29.839  1.00  0.00     0.074 A 
ATOM     42  C   UNL A   1      39.024  28.026  29.908  1.00  0.00     0.031 C 
ATOM     43  C   UNL A   1      44.872  26.027  26.878  1.00  0.00     0.029 A 
ATOM     44  C   UNL A   1      44.875  27.388  27.405  1.00  0.00     0.049 A 
ATOM     45  H   UNL A   1      43.321  28.353  28.404  1.00  0.00     0.167 HD
ATOM     46  C   UNL A   1      39.920  30.291  30.398  1.00  0.00     0.034 A 
ATOM     47  C   UNL A   1      45.907  28.254  27.324  1.00  0.00     0.034 A 
ATOM     48  C   UNL A   1      40.957  31.295  30.343  1.00  0.00     0.049 A 
ATOM     49  C   UNL A   1      45.721  29.653  27.861  1.00  0.00     0.074 A 
ATOM     50  C   UNL A   1      40.940  32.582  30.853  1.00  0.00     0.029 A 
ATOM     51  N   UNL A   1      42.202  31.123  29.750  1.00  0.00    -0.354 N 
ATOM     52  N   UNL A   1      44.677  30.177  28.463  1.00  0.00    -0.248 NA
ATOM     53  C   UNL A   1      46.845  30.582  27.693  1.00  0.00     0.031 C 
ATOM     54  C   UNL A   1      42.145  33.207  30.512  1.00  0.00     0.029 A 
ATOM     55  C   UNL A   1      42.948  32.287  29.857  1.00  0.00     0.049 A 
ATOM     56  H   UNL A   1      42.510  30.294  29.316  1.00  0.00     0.167 HD
ATOM     57  C   UNL A   1      45.030  31.489  28.763  1.00  0.00     0.074 A 
ATOM     58  C   UNL A   1      46.388  31.671  28.293  1.00  0.00     0.031 C 
ATOM     59  C   UNL A   1      44.299  32.457  29.372  1.00  0.00     0.034 A 
BRANCH  46  60
ATOM     60  C   UNL A   1      38.597  30.641  31.036  1.00  0.00     0.023 A 
ATOM     61  C   UNL A   1      37.544  31.227  30.313  1.00  0.00     0.031 A 
ATOM     62  C   UNL A   1      38.406  30.420  32.413  1.00  0.00     0.131 A 
ATOM     63  C   UNL A   1      36.380  31.638  30.982  1.00  0.00     0.055 A 
ATOM     64  C   UNL A   1      37.214  30.756  33.057  1.00  0.00     0.041 A 
ATOM     65  F   UNL A   1      39.385  29.887  33.162  1.00  0.00    -0.206 F 
ATOM     66  C   UNL A   1      36.198  31.383  32.344  1.00  0.00     0.022 A 
BRANCH  63  67
ATOM     67  S   UNL A   1      35.166  32.643  30.082  1.00  0.00     0.124 S 
ATOM     68  O   UNL A   1      34.153  32.876  31.109  1.00  0.00    -0.237 OA
ATOM     69  O   UNL A   1      35.951  33.806  29.684  1.00  0.00    -0.237 OA
ATOM     70  O   UNL A   1      34.742  31.773  28.987  1.00  0.00    -0.744 OA
ENDBRANCH  63  67
ENDBRANCH  46  60
BRANCH  47  71
ATOM     71  C   UNL A   1      47.174  27.867  26.634  1.00  0.00     0.023 A 
ATOM     72  C   UNL A   1      47.307  27.962  25.239  1.00  0.00     0.031 A 
ATOM     73  C   UNL A   1      48.254  27.330  27.361  1.00  0.00     0.131 A 
ATOM     74  C   UNL A   1      48.475  27.493  24.614  1.00  0.00     0.055 A 
ATOM     75  C   UNL A   1      49.436  26.925  26.741  1.00  0.00     0.041 A 
ATOM     76  F   UNL A   1      48.178  27.199  28.695  1.00  0.00    -0.206 F 
ATOM     77  C   UNL A   1      49.546  26.992  25.357  1.00  0.00     0.022 A 
BRANCH  74  78
ATOM     78  S   UNL A   1      48.540  27.455  22.800  1.00  0.00     0.124 S 
ATOM     79  O   UNL A   1      49.819  28.104  22.535  1.00  0.00    -0.237 OA
ATOM     80  O   UNL A   1      48.478  26.024  22.524  1.00  0.00    -0.237 OA
ATOM     81  O   UNL A   1      47.359  28.217  22.401  1.00  0.00    -0.744 OA
ENDBRANCH  74  78
ENDBRANCH  47  71
BRANCH  59  82
ATOM     82  C   UNL A   1      44.979  33.786  29.604  1.00  0.00     0.023 A 
ATOM     83  C   UNL A   1      44.995  34.792  28.622  1.00  0.00     0.031 A 
ATOM     84  C   UNL A   1      45.630  34.040  30.824  1.00  0.00     0.131 A 
ATOM     85  C   UNL A   1      45.696  35.986  28.857  1.00  0.00     0.055 A 
ATOM     86  C   UNL A   1      46.274  35.252  31.074  1.00  0.00     0.041 A 
ATOM     87  F   UNL A   1      45.648  33.114  31.796  1.00  0.00    -0.206 F 
ATOM     88  C   UNL A   1      46.320  36.228  30.084  1.00  0.00     0.022 A 
BRANCH  85  89
ATOM     89  S   UNL A   1      45.853  37.186  27.507  1.00  0.00     0.124 S 
ATOM     90  O   UNL A   1      45.811  36.326  26.329  1.00  0.00    -0.237 OA
ATOM     91  O   UNL A   1      44.691  38.044  27.712  1.00  0.00    -0.237 OA
ATOM     92  O   UNL A   1      47.144  37.824  27.762  1.00  0.00    -0.744 OA
ENDBRANCH  85  89
ENDBRANCH  59  82
ENDBRANCH  33  34
ENDBRANCH  26  28
ENDBRANCH  25  26
ENDBRANCH  24  25
ENDBRANCH   1  24
TORSDOF 17
ENDMDL
MODEL 2
REMARK VINA RESULT:     -11.9      1.269      7.693
REMARK SMILES COc1cccc(NC(=O)[C@@H]2[C@@H](C(=O)OCCOC(=O)c3ccc(-c4c5nc(c(-c6cc(S(=O)(=O)[O-])ccc6F)c6ccc([nH]6)c(-c6cc(S(=O)(=O)[O-])ccc6F)c6nc(c(-c7cc(S(=O)(=O)[O-])ccc7F)c7ccc4[nH]7)C=C6)C=C5)cc3)[C@H]3C=C[C@@H]2C3)c1
REMARK SMILES IDX 16 1 15 2 13 3 14 4 12 5 11 6 87 7 84 8 86 9 88 10 85 11
REMARK SMILES IDX 9 12 8 13 10 15 7 16 3 17 4 18 89 19 5 20 6 21 2 22 1 23
REMARK SMILES IDX 17 24 18 25 19 26 20 27 21 28 22 29 83 30 23 31 82 32 24 33
REMARK SMILES IDX 25 34 26 35 76 36 27 37 81 38 75 39 77 40 28 41 80 42 74 43
REMARK SMILES IDX 73 44 29 46 61 47 41 48 60 49 42 50 45 51 59 52 78 53 43 54
REMARK SMILES IDX 44 55 58 57 79 58 46 59 30 60 31 61 39 62 32 63 38 64 40 65
REMARK SMILES IDX 37 66 33 67 34 68 35 69 36 70 62 71 63 72 71 73 64 74 70 75
REMARK SMILES IDX 72 76 69 77 65 78 66 79 67 80 68 81 47 82 48 83 56 84 49 85
REMARK SMILES IDX 55 86 57 87 54 88 50 89 51 90 52 91 53 92
REMARK H PARENT 8 14 77 45 45 56
REMARK Flexibility Score: inf
ROOT
ATOM      1  C   UNL A   1      35.805  20.177  25.003  1.00  0.00     0.274 C 
ENDROOT
BRANCH   1   2
ATOM      2  O   UNL A   1      35.288  21.188  25.890  1.00  0.00    -0.462 OA
BRANCH   2   3
ATOM      3  C   UNL A   1      34.028  21.658  25.638  1.00  0.00     0.310 C 
ATOM      4  O   UNL A   1      33.116  20.999  25.163  1.00  0.00    -0.252 OA
BRANCH   3   5
ATOM      5  C   UNL A   1      33.962  23.120  26.056  1.00  0.00     0.119 C 
ATOM      6  C   UNL A   1      32.780  23.955  25.534  1.00  0.00     0.100 C 
ATOM      7  C   UNL A   1      33.442  25.073  24.694  1.00  0.00     0.025 C 
ATOM      8  C   UNL A   1      35.177  23.931  25.519  1.00  0.00     0.027 C 
ATOM      9  C   UNL A   1      34.156  24.430  23.521  1.00  0.00    -0.027 C 
ATOM     10  C   UNL A   1      34.680  25.387  25.521  1.00  0.00     0.017 C 
ATOM     11  C   UNL A   1      35.217  23.768  24.014  1.00  0.00    -0.027 C 
BRANCH   6  12
ATOM     12  C   UNL A   1      31.803  24.507  26.574  1.00  0.00     0.228 C 
ATOM     13  N   UNL A   1      31.376  25.766  26.829  1.00  0.00    -0.326 N 
ATOM     14  H   UNL A   1      30.702  25.723  27.546  1.00  0.00     0.169 HD
ATOM     15  O   UNL A   1      31.228  23.656  27.277  1.00  0.00    -0.274 OA
BRANCH  13  16
ATOM     16  C   UNL A   1      31.536  27.118  26.450  1.00  0.00     0.044 A 
ATOM     17  C   UNL A   1      31.116  28.753  24.688  1.00  0.00     0.120 A 
ATOM     18  C   UNL A   1      31.845  29.725  25.357  1.00  0.00     0.046 A 
ATOM     19  C   UNL A   1      30.969  27.464  25.212  1.00  0.00     0.072 A 
ATOM     20  C   UNL A   1      32.359  29.423  26.603  1.00  0.00     0.006 A 
ATOM     21  C   UNL A   1      32.187  28.139  27.139  1.00  0.00     0.026 A 
BRANCH  17  22
ATOM     22  O   UNL A   1      30.578  29.061  23.469  1.00  0.00    -0.497 OA
ATOM     23  C   UNL A   1      30.858  28.010  22.543  1.00  0.00     0.278 C 
ENDBRANCH  17  22
ENDBRANCH  13  16
ENDBRANCH   6  12
ENDBRANCH   3   5
ENDBRANCH   2   3
ENDBRANCH   1   2
BRANCH   1  24
ATOM     24  C   UNL A   1      37.314  20.325  24.787  1.00  0.00     0.275 C 
BRANCH  24  25
ATOM     25  O   UNL A   1      37.848  21.389  25.595  1.00  0.00    -0.458 OA
BRANCH  25  26
ATOM     26  C   UNL A   1      39.080  21.165  26.112  1.00  0.00     0.338 C 
ATOM     27  O   UNL A   1      39.753  20.154  25.994  1.00  0.00    -0.246 OA
BRANCH  26  28
ATOM     28  C   UNL A   1      39.609  22.425  26.657  1.00  0.00     0.060 A 
ATOM     29  C   UNL A   1      39.036  23.589  26.162  1.00  0.00     0.016 A 
ATOM     30  C   UNL A   1      40.674  22.498  27.549  1.00  0.00     0.016 A 
ATOM     31  C   UNL A   1      39.502  24.840  26.544  1.00  0.00     0.010 A 
ATOM     32  C   UNL A   1      41.145  23.763  27.946  1.00  0.00     0.010 A 
ATOM     33  C   UNL A   1      40.565  24.946  27.442  1.00  0.00    -0.014 A 
BRANCH  33  34
ATOM     34  C   UNL A   1      41.119  26.293  27.749  1.00  0.00     0.031 A 
ATOM     35  C   UNL A   1      42.508  26.639  27.289  1.00  0.00     0.074 A 
ATOM     36  C   UNL A   1      40.365  27.231  28.355  1.00  0.00     0.049 A 
ATOM     37  N   UNL A   1      43.248  27.677  27.581  1.00  0.00    -0.248 NA
ATOM     38  C   UNL A   1      43.149  25.678  26.379  1.00  0.00     0.031 C 
ATOM     39  C   UNL A   1      38.961  27.070  28.739  1.00  0.00     0.029 A 
ATOM     40  N   UNL A   1      40.669  28.513  28.746  1.00  0.00    -0.354 N 
ATOM     41  C   UNL A   1      44.459  27.475  26.928  1.00  0.00     0.074 A 
ATOM     42  C   UNL A   1      44.355  26.208  26.235  1.00  0.00     0.031 C 
ATOM     43  C   UNL A   1      38.524  28.212  29.295  1.00  0.00     0.029 A 
ATOM     44  C   UNL A   1      39.634  29.155  29.388  1.00  0.00     0.049 A 
ATOM     45  H   UNL A   1      41.543  28.933  28.582  1.00  0.00     0.167 HD
ATOM     46  C   UNL A   1      45.555  28.274  26.916  1.00  0.00     0.034 A 
ATOM     47  C   UNL A   1      39.598  30.343  30.027  1.00  0.00     0.034 A 
ATOM     48  C   UNL A   1      45.623  29.550  27.589  1.00  0.00     0.049 A 
ATOM     49  C   UNL A   1      40.861  31.170  30.089  1.00  0.00     0.074 A 
ATOM     50  C   UNL A   1      46.688  30.431  27.663  1.00  0.00     0.029 A 
ATOM     51  N   UNL A   1      44.580  30.132  28.299  1.00  0.00    -0.354 N 
ATOM     52  N   UNL A   1      42.037  30.927  29.556  1.00  0.00    -0.248 NA
ATOM     53  C   UNL A   1      40.795  32.424  30.850  1.00  0.00     0.031 C 
ATOM     54  C   UNL A   1      46.311  31.511  28.469  1.00  0.00     0.029 A 
ATOM     55  C   UNL A   1      44.985  31.346  28.836  1.00  0.00     0.049 A 
ATOM     56  H   UNL A   1      43.682  29.740  28.406  1.00  0.00     0.167 HD
ATOM     57  C   UNL A   1      42.843  32.008  29.902  1.00  0.00     0.074 A 
ATOM     58  C   UNL A   1      42.013  32.913  30.672  1.00  0.00     0.031 C 
ATOM     59  C   UNL A   1      44.149  32.233  29.612  1.00  0.00     0.034 A 
BRANCH  46  60
ATOM     60  C   UNL A   1      46.789  27.746  26.223  1.00  0.00     0.023 A 
ATOM     61  C   UNL A   1      47.081  28.038  24.879  1.00  0.00     0.031 A 
ATOM     62  C   UNL A   1      47.668  26.895  26.918  1.00  0.00     0.131 A 
ATOM     63  C   UNL A   1      48.179  27.427  24.254  1.00  0.00     0.055 A 
ATOM     64  C   UNL A   1      48.805  26.355  26.313  1.00  0.00     0.041 A 
ATOM     65  F   UNL A   1      47.429  26.560  28.195  1.00  0.00    -0.206 F 
ATOM     66  C   UNL A   1      49.058  26.608  24.969  1.00  0.00     0.022 A 
BRANCH  63  67
ATOM     67  S   UNL A   1      48.364  27.595  22.456  1.00  0.00     0.124 S 
ATOM     68  O   UNL A   1      48.610  26.213  22.052  1.00  0.00    -0.237 OA
ATOM     69  O   UNL A   1      47.079  28.158  22.057  1.00  0.00    -0.237 OA
ATOM     70  O   UNL A   1      49.509  28.491  22.310  1.00  0.00    -0.744 OA
ENDBRANCH  63  67
ENDBRANCH  46  60
BRANCH  47  71
ATOM     71  C   UNL A   1      38.363  30.788  30.739  1.00  0.00     0.023 A 
ATOM     72  C   UNL A   1      37.338  31.477  30.069  1.00  0.00     0.031 A 
ATOM     73  C   UNL A   1      38.220  30.586  32.125  1.00  0.00     0.131 A 
ATOM     74  C   UNL A   1      36.238  31.970  30.790  1.00  0.00     0.055 A 
ATOM     75  C   UNL A   1      37.095  31.023  32.825  1.00  0.00     0.041 A 
ATOM     76  F   UNL A   1      39.174  29.949  32.822  1.00  0.00    -0.206 F 
ATOM     77  C   UNL A   1      36.102  31.732  32.160  1.00  0.00     0.022 A 
BRANCH  74  78
ATOM     78  S   UNL A   1      35.028  33.016  29.932  1.00  0.00     0.124 S 
ATOM     79  O   UNL A   1      34.421  32.069  29.004  1.00  0.00    -0.237 OA
ATOM     80  O   UNL A   1      34.183  33.468  31.033  1.00  0.00    -0.237 OA
ATOM     81  O   UNL A   1      35.852  34.054  29.317  1.00  0.00    -0.744 OA
ENDBRANCH  74  78
ENDBRANCH  47  71
BRANCH  59  82
ATOM     82  C   UNL A   1      44.743  33.536  30.092  1.00  0.00     0.023 A 
ATOM     83  C   UNL A   1      44.688  34.707  29.315  1.00  0.00     0.031 A 
ATOM     84  C   UNL A   1      45.383  33.600  31.342  1.00  0.00     0.131 A 
ATOM     85  C   UNL A   1      45.311  35.878  29.773  1.00  0.00     0.055 A 
ATOM     86  C   UNL A   1      45.948  34.784  31.818  1.00  0.00     0.041 A 
ATOM     87  F   UNL A   1      45.466  32.512  32.125  1.00  0.00    -0.206 F 
ATOM     88  C   UNL A   1      45.925  35.928  31.027  1.00  0.00     0.022 A 
BRANCH  85  89
ATOM     89  S   UNL A   1      45.383  37.317  28.671  1.00  0.00     0.124 S 
ATOM     90  O   UNL A   1      44.153  38.024  29.015  1.00  0.00    -0.237 OA
ATOM     91  O   UNL A   1      46.626  37.963  29.080  1.00  0.00    -0.237 OA
ATOM     92  O   UNL A   1      45.405  36.726  27.334  1.00  0.00    -0.744 OA
ENDBRANCH  85  89
ENDBRANCH  59  82
ENDBRANCH  33  34
ENDBRANCH  26  28
ENDBRANCH  25  26
ENDBRANCH  24  25
ENDBRANCH   1  24
TORSDOF 17
ENDMDL
MODEL 3
REMARK VINA RESULT:     -11.8      4.961      9.973
REMARK SMILES COc1cccc(NC(=O)[C@@H]2[C@@H](C(=O)OCCOC(=O)c3ccc(-c4c5nc(c(-c6cc(S(=O)(=O)[O-])ccc6F)c6ccc([nH]6)c(-c6cc(S(=O)(=O)[O-])ccc6F)c6nc(c(-c7cc(S(=O)(=O)[O-])ccc7F)c7ccc4[nH]7)C=C6)C=C5)cc3)[C@H]3C=C[C@@H]2C3)c1
REMARK SMILES IDX 16 1 15 2 13 3 14 4 12 5 11 6 87 7 84 8 86 9 88 10 85 11
REMARK SMILES IDX 9 12 8 13 10 15 7 16 3 17 4 18 89 19 5 20 6 21 2 22 1 23
REMARK SMILES IDX 17 24 18 25 19 26 20 27 21 28 22 29 83 30 23 31 82 32 24 33
REMARK SMILES IDX 25 34 26 35 76 36 27 37 81 38 75 39 77 40 28 41 80 42 74 43
REMARK SMILES IDX 73 44 29 46 61 47 41 48 60 49 42 50 45 51 59 52 78 53 43 54
REMARK SMILES IDX 44 55 58 57 79 58 46 59 30 60 31 61 39 62 32 63 38 64 40 65
REMARK SMILES IDX 37 66 33 67 34 68 35 69 36 70 62 71 63 72 71 73 64 74 70 75
REMARK SMILES IDX 72 76 69 77 65 78 66 79 67 80 68 81 47 82 48 83 56 84 49 85
REMARK SMILES IDX 55 86 57 87 54 88 50 89 51 90 52 91 53 92
REMARK H PARENT 8 14 77 45 45 56
REMARK Flexibility Score: inf
ROOT
ATOM      1  C   UNL A   1      31.307  29.016  24.888  1.00  0.00     0.274 C 
ENDROOT
BRANCH   1   2
ATOM      2  O   UNL A   1      32.369  28.060  25.080  1.00  0.00    -0.462 OA
BRANCH   2   3
ATOM      3  C   UNL A   1      32.098  26.971  25.862  1.00  0.00     0.310 C 
ATOM      4  O   UNL A   1      31.853  27.009  27.057  1.00  0.00    -0.252 OA
BRANCH   3   5
ATOM      5  C   UNL A   1      32.147  25.723  24.990  1.00  0.00     0.119 C 
ATOM      6  C   UNL A   1      32.211  25.924  23.466  1.00  0.00     0.100 C 
ATOM      7  C   UNL A   1      30.923  25.250  22.936  1.00  0.00     0.025 C 
ATOM      8  C   UNL A   1      30.858  24.864  25.136  1.00  0.00     0.027 C 
ATOM      9  C   UNL A   1      29.728  26.000  23.490  1.00  0.00    -0.027 C 
ATOM     10  C   UNL A   1      30.819  24.032  23.842  1.00  0.00     0.017 C 
ATOM     11  C   UNL A   1      29.671  25.744  24.807  1.00  0.00    -0.027 C 
BRANCH   6  12
ATOM     12  C   UNL A   1      33.468  25.428  22.749  1.00  0.00     0.228 C 
ATOM     13  N   UNL A   1      34.386  24.493  23.087  1.00  0.00    -0.326 N 
ATOM     14  H   UNL A   1      35.030  24.412  22.346  1.00  0.00     0.169 HD
ATOM     15  O   UNL A   1      33.665  25.903  21.616  1.00  0.00    -0.274 OA
BRANCH  13  16
ATOM     16  C   UNL A   1      34.766  23.590  24.105  1.00  0.00     0.044 A 
ATOM     17  C   UNL A   1      34.429  21.343  24.998  1.00  0.00     0.120 A 
ATOM     18  C   UNL A   1      35.217  21.620  26.106  1.00  0.00     0.046 A 
ATOM     19  C   UNL A   1      34.191  22.310  24.016  1.00  0.00     0.072 A 
ATOM     20  C   UNL A   1      35.839  22.850  26.182  1.00  0.00     0.006 A 
ATOM     21  C   UNL A   1      35.623  23.808  25.182  1.00  0.00     0.026 A 
BRANCH  17  22
ATOM     22  O   UNL A   1      33.839  20.113  24.905  1.00  0.00    -0.497 OA
ATOM     23  C   UNL A   1      32.577  20.237  24.247  1.00  0.00     0.278 C 
ENDBRANCH  17  22
ENDBRANCH  13  16
ENDBRANCH   6  12
ENDBRANCH   3   5
ENDBRANCH   2   3
ENDBRANCH   1   2
BRANCH   1  24
ATOM     24  C   UNL A   1      31.675  30.394  25.445  1.00  0.00     0.275 C 
BRANCH  24  25
ATOM     25  O   UNL A   1      32.615  30.280  26.528  1.00  0.00    -0.458 OA
BRANCH  25  26
ATOM     26  C   UNL A   1      33.040  31.452  27.056  1.00  0.00     0.338 C 
ATOM     27  O   UNL A   1      32.387  32.473  27.196  1.00  0.00    -0.246 OA
BRANCH  26  28
ATOM     28  C   UNL A   1      34.364  31.252  27.665  1.00  0.00     0.060 A 
ATOM     29  C   UNL A   1      34.670  29.951  28.041  1.00  0.00     0.016 A 
ATOM     30  C   UNL A   1      35.253  32.286  27.947  1.00  0.00     0.016 A 
ATOM     31  C   UNL A   1      35.858  29.651  28.694  1.00  0.00     0.010 A 
ATOM     32  C   UNL A   1      36.461  31.986  28.601  1.00  0.00     0.010 A 
ATOM     33  C   UNL A   1      36.772  30.665  28.985  1.00  0.00    -0.014 A 
BRANCH  33  34
ATOM     34  C   UNL A   1      37.984  30.335  29.783  1.00  0.00     0.031 A 
ATOM     35  C   UNL A   1      39.045  29.456  29.180  1.00  0.00     0.074 A 
ATOM     36  C   UNL A   1      38.183  30.880  31.000  1.00  0.00     0.049 A 
ATOM     37  N   UNL A   1      40.092  28.910  29.741  1.00  0.00    -0.248 NA
ATOM     38  C   UNL A   1      38.897  29.150  27.749  1.00  0.00     0.031 C 
ATOM     39  C   UNL A   1      37.296  31.848  31.648  1.00  0.00     0.029 A 
ATOM     40  N   UNL A   1      39.202  30.707  31.906  1.00  0.00    -0.354 N 
ATOM     41  C   UNL A   1      40.707  28.158  28.745  1.00  0.00     0.074 A 
ATOM     42  C   UNL A   1      39.905  28.312  27.549  1.00  0.00     0.031 C 
ATOM     43  C   UNL A   1      37.817  32.192  32.838  1.00  0.00     0.029 A 
ATOM     44  C   UNL A   1      39.025  31.409  33.077  1.00  0.00     0.049 A 
ATOM     45  H   UNL A   1      39.985  30.136  31.733  1.00  0.00     0.167 HD
ATOM     46  C   UNL A   1      41.833  27.408  28.828  1.00  0.00     0.034 A 
ATOM     47  C   UNL A   1      39.724  31.384  34.231  1.00  0.00     0.034 A 
ATOM     48  C   UNL A   1      42.635  27.296  30.025  1.00  0.00     0.049 A 
ATOM     49  C   UNL A   1      40.916  30.461  34.335  1.00  0.00     0.074 A 
ATOM     50  C   UNL A   1      43.781  26.547  30.229  1.00  0.00     0.029 A 
ATOM     51  N   UNL A   1      42.379  27.959  31.219  1.00  0.00    -0.354 N 
ATOM     52  N   UNL A   1      41.434  29.672  33.422  1.00  0.00    -0.248 NA
ATOM     53  C   UNL A   1      41.607  30.416  35.630  1.00  0.00     0.031 C 
ATOM     54  C   UNL A   1      44.179  26.706  31.561  1.00  0.00     0.029 A 
ATOM     55  C   UNL A   1      43.329  27.615  32.170  1.00  0.00     0.049 A 
ATOM     56  H   UNL A   1      41.632  28.584  31.369  1.00  0.00     0.167 HD
ATOM     57  C   UNL A   1      42.524  29.053  34.027  1.00  0.00     0.074 A 
ATOM     58  C   UNL A   1      42.600  29.575  35.377  1.00  0.00     0.031 C 
ATOM     59  C   UNL A   1      43.384  28.136  33.516  1.00  0.00     0.034 A 
BRANCH  46  60
ATOM     60  C   UNL A   1      42.208  26.587  27.618  1.00  0.00     0.023 A 
ATOM     61  C   UNL A   1      41.872  25.227  27.496  1.00  0.00     0.031 A 
ATOM     62  C   UNL A   1      42.960  27.173  26.582  1.00  0.00     0.131 A 
ATOM     63  C   UNL A   1      42.347  24.484  26.404  1.00  0.00     0.055 A 
ATOM     64  C   UNL A   1      43.360  26.448  25.458  1.00  0.00     0.041 A 
ATOM     65  F   UNL A   1      43.334  28.460  26.653  1.00  0.00    -0.206 F 
ATOM     66  C   UNL A   1      43.067  25.091  25.371  1.00  0.00     0.022 A 
BRANCH  63  67
ATOM     67  S   UNL A   1      42.140  22.681  26.421  1.00  0.00     0.124 S 
ATOM     68  O   UNL A   1      43.217  22.267  27.318  1.00  0.00    -0.237 OA
ATOM     69  O   UNL A   1      40.784  22.521  26.933  1.00  0.00    -0.237 OA
ATOM     70  O   UNL A   1      42.327  22.300  25.021  1.00  0.00    -0.744 OA
ENDBRANCH  63  67
ENDBRANCH  46  60
BRANCH  47  71
ATOM     71  C   UNL A   1      39.274  32.179  35.412  1.00  0.00     0.023 A 
ATOM     72  C   UNL A   1      39.681  33.510  35.598  1.00  0.00     0.031 A 
ATOM     73  C   UNL A   1      38.476  31.591  36.412  1.00  0.00     0.131 A 
ATOM     74  C   UNL A   1      39.321  34.195  36.771  1.00  0.00     0.055 A 
ATOM     75  C   UNL A   1      38.069  32.296  37.545  1.00  0.00     0.041 A 
ATOM     76  F   UNL A   1      38.070  30.317  36.297  1.00  0.00    -0.206 F 
ATOM     77  C   UNL A   1      38.504  33.602  37.736  1.00  0.00     0.022 A 
BRANCH  74  78
ATOM     78  S   UNL A   1      40.018  35.844  37.069  1.00  0.00     0.124 S 
ATOM     79  O   UNL A   1      39.322  36.245  38.286  1.00  0.00    -0.237 OA
ATOM     80  O   UNL A   1      41.441  35.552  37.210  1.00  0.00    -0.237 OA
ATOM     81  O   UNL A   1      39.654  36.590  35.866  1.00  0.00    -0.744 OA
ENDBRANCH  74  78
ENDBRANCH  47  71
BRANCH  59  82
ATOM     82  C   UNL A   1      44.510  27.679  34.413  1.00  0.00     0.023 A 
ATOM     83  C   UNL A   1      44.393  26.541  35.230  1.00  0.00     0.031 A 
ATOM     84  C   UNL A   1      45.715  28.404  34.456  1.00  0.00     0.131 A 
ATOM     85  C   UNL A   1      45.441  26.192  36.096  1.00  0.00     0.055 A 
ATOM     86  C   UNL A   1      46.776  28.017  35.276  1.00  0.00     0.041 A 
ATOM     87  F   UNL A   1      45.881  29.501  33.699  1.00  0.00    -0.206 F 
ATOM     88  C   UNL A   1      46.638  26.913  36.110  1.00  0.00     0.022 A 
BRANCH  85  89
ATOM     89  S   UNL A   1      45.190  24.830  37.267  1.00  0.00     0.124 S 
ATOM     90  O   UNL A   1      44.169  25.378  38.155  1.00  0.00    -0.237 OA
ATOM     91  O   UNL A   1      44.760  23.742  36.396  1.00  0.00    -0.237 OA
ATOM     92  O   UNL A   1      46.508  24.651  37.875  1.00  0.00    -0.744 OA
ENDBRANCH  85  89
ENDBRANCH  59  82
ENDBRANCH  33  34
ENDBRANCH  26  28
ENDBRANCH  25  26
ENDBRANCH  24  25
ENDBRANCH   1  24
TORSDOF 17
ENDMDL
