MODEL 1
REMARK VINA RESULT:     -13.0      0.000      0.000
REMARK SMILES [NH3+][C@H]1CN(C(=O)OCC2c3ccccc3-c3ccccc32)C[C@@H]1C(=O)OCCOC(=O)c1ccc(-c2c3nc(c(-c4cc(S(=O)(=O)[O-])ccc4F)c4ccc([nH]4)c(-c4cc(S(=O)(=O)[O-])ccc4F)c4nc(c(-c5cc(S(=O)(=O)[O-])ccc5F)c5ccc2[nH]5)C=C4)C=C3)cc1
REMARK SMILES IDX 27 1 26 2 24 3 25 4 23 5 2 6 3 7 4 8 22 9 1 10 5 14 6 15
REMARK SMILES IDX 7 16 8 17 9 18 10 19 21 20 11 21 15 22 16 23 20 24 12 25
REMARK SMILES IDX 14 26 17 27 19 28 13 29 18 30 28 31 29 32 30 33 31 34 32 35
REMARK SMILES IDX 33 36 94 37 34 38 93 39 35 40 36 41 37 42 87 43 38 44 92 45
REMARK SMILES IDX 86 46 88 47 39 48 91 49 85 50 84 51 40 53 72 54 52 55 71 56
REMARK SMILES IDX 53 57 56 58 70 59 89 60 54 61 55 62 69 64 90 65 57 66 41 67
REMARK SMILES IDX 42 68 50 69 43 70 49 71 51 72 48 73 44 74 45 75 46 76 47 77
REMARK SMILES IDX 73 78 74 79 82 80 75 81 81 82 83 83 80 84 76 85 77 86 78 87
REMARK SMILES IDX 79 88 58 89 59 90 67 91 60 92 66 93 68 94 65 95 61 96 62 97
REMARK SMILES IDX 63 98 64 99
REMARK H PARENT 1 11 1 12 1 13 88 52 56 63
REMARK Flexibility Score: inf
ROOT
ATOM      1  C   UNL A   1      35.069  21.118  25.325  1.00  0.00     0.274 C 
ENDROOT
BRANCH   1   2
ATOM      2  O   UNL A   1      34.322  21.436  24.131  1.00  0.00    -0.462 OA
BRANCH   2   3
ATOM      3  C   UNL A   1      34.399  22.740  23.736  1.00  0.00     0.317 C 
ATOM      4  O   UNL A   1      35.178  23.146  22.886  1.00  0.00    -0.252 OA
BRANCH   3   5
ATOM      5  C   UNL A   1      33.506  23.622  24.586  1.00  0.00     0.178 C 
ATOM      6  C   UNL A   1      32.019  23.214  24.592  1.00  0.00     0.216 C 
ATOM      7  C   UNL A   1      31.334  24.140  23.548  1.00  0.00     0.188 C 
ATOM      8  N   UNL A   1      32.365  25.059  23.123  1.00  0.00    -0.301 N 
ATOM      9  C   UNL A   1      33.495  25.034  24.022  1.00  0.00     0.145 C 
BRANCH   6  10
ATOM     10  N   UNL A   1      31.442  23.424  25.933  1.00  0.00    -0.353 N 
ATOM     11  H   UNL A   1      31.983  22.900  26.621  1.00  0.00     0.344 HD
ATOM     12  H   UNL A   1      30.475  23.098  25.942  1.00  0.00     0.344 HD
ATOM     13  H   UNL A   1      31.469  24.417  26.164  1.00  0.00     0.344 HD
ENDBRANCH   6  10
BRANCH   8  14
ATOM     14  C   UNL A   1      32.404  25.685  21.906  1.00  0.00     0.410 C 
ATOM     15  O   UNL A   1      33.258  25.442  21.066  1.00  0.00    -0.224 OA
BRANCH  14  16
ATOM     16  O   UNL A   1      31.414  26.604  21.767  1.00  0.00    -0.448 OA
BRANCH  16  17
ATOM     17  C   UNL A   1      31.653  27.913  22.350  1.00  0.00     0.248 C 
BRANCH  17  18
ATOM     18  C   UNL A   1      30.680  28.226  23.499  1.00  0.00     0.088 C 
ATOM     19  C   UNL A   1      31.370  28.769  24.755  1.00  0.00    -0.029 A 
ATOM     20  C   UNL A   1      29.745  29.386  23.150  1.00  0.00    -0.029 A 
ATOM     21  C   UNL A   1      32.290  28.155  25.590  1.00  0.00     0.005 A 
ATOM     22  C   UNL A   1      30.952  30.090  25.009  1.00  0.00    -0.014 A 
ATOM     23  C   UNL A   1      29.901  30.433  24.082  1.00  0.00    -0.014 A 
ATOM     24  C   UNL A   1      28.820  29.484  22.118  1.00  0.00     0.005 A 
ATOM     25  C   UNL A   1      32.898  28.914  26.592  1.00  0.00     0.000 A 
ATOM     26  C   UNL A   1      31.547  30.847  26.006  1.00  0.00     0.009 A 
ATOM     27  C   UNL A   1      29.077  31.543  24.043  1.00  0.00     0.009 A 
ATOM     28  C   UNL A   1      28.017  30.626  22.055  1.00  0.00     0.000 A 
ATOM     29  C   UNL A   1      32.546  30.257  26.786  1.00  0.00     0.001 A 
ATOM     30  C   UNL A   1      28.124  31.632  23.025  1.00  0.00     0.001 A 
ENDBRANCH  17  18
ENDBRANCH  16  17
ENDBRANCH  14  16
ENDBRANCH   8  14
ENDBRANCH   3   5
ENDBRANCH   2   3
ENDBRANCH   1   2
BRANCH   1  31
ATOM     31  C   UNL A   1      36.422  20.499  24.994  1.00  0.00     0.275 C 
BRANCH  31  32
ATOM     32  O   UNL A   1      37.449  21.501  25.033  1.00  0.00    -0.458 OA
BRANCH  32  33
ATOM     33  C   UNL A   1      38.578  21.159  25.696  1.00  0.00     0.338 C 
ATOM     34  O   UNL A   1      39.096  20.057  25.753  1.00  0.00    -0.246 OA
BRANCH  33  35
ATOM     35  C   UNL A   1      39.153  22.349  26.341  1.00  0.00     0.060 A 
ATOM     36  C   UNL A   1      38.591  23.594  26.088  1.00  0.00     0.016 A 
ATOM     37  C   UNL A   1      40.334  22.252  27.081  1.00  0.00     0.016 A 
ATOM     38  C   UNL A   1      39.262  24.743  26.492  1.00  0.00     0.010 A 
ATOM     39  C   UNL A   1      40.961  23.416  27.553  1.00  0.00     0.010 A 
ATOM     40  C   UNL A   1      40.457  24.684  27.220  1.00  0.00    -0.014 A 
BRANCH  40  41
ATOM     41  C   UNL A   1      41.192  25.949  27.528  1.00  0.00     0.031 A 
ATOM     42  C   UNL A   1      40.584  26.955  28.475  1.00  0.00     0.074 A 
ATOM     43  C   UNL A   1      42.441  26.155  27.056  1.00  0.00     0.049 A 
ATOM     44  N   UNL A   1      41.011  28.145  28.810  1.00  0.00    -0.248 NA
ATOM     45  C   UNL A   1      39.329  26.565  29.139  1.00  0.00     0.031 C 
ATOM     46  C   UNL A   1      43.189  25.203  26.235  1.00  0.00     0.029 A 
ATOM     47  N   UNL A   1      43.327  27.192  27.237  1.00  0.00    -0.354 N 
ATOM     48  C   UNL A   1      40.039  28.678  29.653  1.00  0.00     0.074 A 
ATOM     49  C   UNL A   1      39.016  27.667  29.806  1.00  0.00     0.031 C 
ATOM     50  C   UNL A   1      44.440  25.652  26.065  1.00  0.00     0.029 A 
ATOM     51  C   UNL A   1      44.555  26.988  26.641  1.00  0.00     0.049 A 
ATOM     52  H   UNL A   1      43.105  28.005  27.744  1.00  0.00     0.167 HD
ATOM     53  C   UNL A   1      39.997  29.909  30.222  1.00  0.00     0.034 A 
ATOM     54  C   UNL A   1      45.639  27.791  26.540  1.00  0.00     0.034 A 
ATOM     55  C   UNL A   1      41.054  30.883  30.096  1.00  0.00     0.049 A 
ATOM     56  C   UNL A   1      45.558  29.162  27.177  1.00  0.00     0.074 A 
ATOM     57  C   UNL A   1      41.096  32.178  30.584  1.00  0.00     0.029 A 
ATOM     58  N   UNL A   1      42.263  30.666  29.444  1.00  0.00    -0.354 N 
ATOM     59  N   UNL A   1      44.593  29.684  27.904  1.00  0.00    -0.248 NA
ATOM     60  C   UNL A   1      46.701  30.060  26.971  1.00  0.00     0.031 C 
ATOM     61  C   UNL A   1      42.302  32.761  30.177  1.00  0.00     0.029 A 
ATOM     62  C   UNL A   1      43.045  31.809  29.496  1.00  0.00     0.049 A 
ATOM     63  H   UNL A   1      42.524  29.823  29.009  1.00  0.00     0.167 HD
ATOM     64  C   UNL A   1      45.023  30.962  28.249  1.00  0.00     0.074 A 
ATOM     65  C   UNL A   1      46.351  31.115  27.693  1.00  0.00     0.031 C 
ATOM     66  C   UNL A   1      44.374  31.934  28.942  1.00  0.00     0.034 A 
BRANCH  53  67
ATOM     67  C   UNL A   1      38.719  30.308  30.921  1.00  0.00     0.023 A 
ATOM     68  C   UNL A   1      37.669  30.980  30.271  1.00  0.00     0.031 A 
ATOM     69  C   UNL A   1      38.573  30.033  32.295  1.00  0.00     0.131 A 
ATOM     70  C   UNL A   1      36.549  31.401  31.008  1.00  0.00     0.055 A 
ATOM     71  C   UNL A   1      37.429  30.394  33.005  1.00  0.00     0.041 A 
ATOM     72  F   UNL A   1      39.555  29.416  32.974  1.00  0.00    -0.206 F 
ATOM     73  C   UNL A   1      36.413  31.094  32.364  1.00  0.00     0.022 A 
BRANCH  70  74
ATOM     74  S   UNL A   1      35.326  32.475  30.203  1.00  0.00     0.124 S 
ATOM     75  O   UNL A   1      34.319  32.617  31.251  1.00  0.00    -0.237 OA
ATOM     76  O   UNL A   1      36.106  33.668  29.899  1.00  0.00    -0.237 OA
ATOM     77  O   UNL A   1      34.899  31.696  29.040  1.00  0.00    -0.744 OA
ENDBRANCH  70  74
ENDBRANCH  53  67
BRANCH  54  78
ATOM     78  C   UNL A   1      46.872  27.336  25.805  1.00  0.00     0.023 A 
ATOM     79  C   UNL A   1      47.100  27.701  24.468  1.00  0.00     0.031 A 
ATOM     80  C   UNL A   1      47.853  26.533  26.413  1.00  0.00     0.131 A 
ATOM     81  C   UNL A   1      48.273  27.314  23.798  1.00  0.00     0.055 A 
ATOM     82  C   UNL A   1      49.043  26.181  25.764  1.00  0.00     0.041 A 
ATOM     83  F   UNL A   1      47.689  26.087  27.669  1.00  0.00    -0.206 F 
ATOM     84  C   UNL A   1      49.256  26.572  24.447  1.00  0.00     0.022 A 
BRANCH  81  85
ATOM     85  S   UNL A   1      48.462  27.693  22.033  1.00  0.00     0.124 S 
ATOM     86  O   UNL A   1      48.517  26.366  21.425  1.00  0.00    -0.237 OA
ATOM     87  O   UNL A   1      47.257  28.468  21.759  1.00  0.00    -0.237 OA
ATOM     88  O   UNL A   1      49.711  28.448  21.988  1.00  0.00    -0.744 OA
ENDBRANCH  81  85
ENDBRANCH  54  78
BRANCH  66  89
ATOM     89  C   UNL A   1      45.108  33.236  29.155  1.00  0.00     0.023 A 
ATOM     90  C   UNL A   1      45.124  34.239  28.170  1.00  0.00     0.031 A 
ATOM     91  C   UNL A   1      45.793  33.481  30.359  1.00  0.00     0.131 A 
ATOM     92  C   UNL A   1      45.858  35.417  28.381  1.00  0.00     0.055 A 
ATOM     93  C   UNL A   1      46.471  34.680  30.587  1.00  0.00     0.041 A 
ATOM     94  F   UNL A   1      45.807  32.561  31.336  1.00  0.00    -0.206 F 
ATOM     95  C   UNL A   1      46.517  35.651  29.590  1.00  0.00     0.022 A 
BRANCH  92  96
ATOM     96  S   UNL A   1      46.009  36.603  27.018  1.00  0.00     0.124 S 
ATOM     97  O   UNL A   1      46.101  35.722  25.858  1.00  0.00    -0.237 OA
ATOM     98  O   UNL A   1      44.776  37.374  27.136  1.00  0.00    -0.237 OA
ATOM     99  O   UNL A   1      47.231  37.339  27.336  1.00  0.00    -0.744 OA
ENDBRANCH  92  96
ENDBRANCH  66  89
ENDBRANCH  40  41
ENDBRANCH  33  35
ENDBRANCH  32  33
ENDBRANCH  31  32
ENDBRANCH   1  31
TORSDOF 19
ENDMDL
MODEL 2
REMARK VINA RESULT:     -12.8      4.953      9.999
REMARK SMILES [NH3+][C@H]1CN(C(=O)OCC2c3ccccc3-c3ccccc32)C[C@@H]1C(=O)OCCOC(=O)c1ccc(-c2c3nc(c(-c4cc(S(=O)(=O)[O-])ccc4F)c4ccc([nH]4)c(-c4cc(S(=O)(=O)[O-])ccc4F)c4nc(c(-c5cc(S(=O)(=O)[O-])ccc5F)c5ccc2[nH]5)C=C4)C=C3)cc1
REMARK SMILES IDX 27 1 26 2 24 3 25 4 23 5 2 6 3 7 4 8 22 9 1 10 5 14 6 15
REMARK SMILES IDX 7 16 8 17 9 18 10 19 21 20 11 21 15 22 16 23 20 24 12 25
REMARK SMILES IDX 14 26 17 27 19 28 13 29 18 30 28 31 29 32 30 33 31 34 32 35
REMARK SMILES IDX 33 36 94 37 34 38 93 39 35 40 36 41 37 42 87 43 38 44 92 45
REMARK SMILES IDX 86 46 88 47 39 48 91 49 85 50 84 51 40 53 72 54 52 55 71 56
REMARK SMILES IDX 53 57 56 58 70 59 89 60 54 61 55 62 69 64 90 65 57 66 41 67
REMARK SMILES IDX 42 68 50 69 43 70 49 71 51 72 48 73 44 74 45 75 46 76 47 77
REMARK SMILES IDX 73 78 74 79 82 80 75 81 81 82 83 83 80 84 76 85 77 86 78 87
REMARK SMILES IDX 79 88 58 89 59 90 67 91 60 92 66 93 68 94 65 95 61 96 62 97
REMARK SMILES IDX 63 98 64 99
REMARK H PARENT 1 11 1 12 1 13 88 52 56 63
REMARK Flexibility Score: inf
ROOT
ATOM      1  C   UNL A   1      31.818  28.572  27.001  1.00  0.00     0.274 C 
ENDROOT
BRANCH   1   2
ATOM      2  O   UNL A   1      31.074  27.987  25.911  1.00  0.00    -0.462 OA
BRANCH   2   3
ATOM      3  C   UNL A   1      31.730  27.001  25.233  1.00  0.00     0.317 C 
ATOM      4  O   UNL A   1      31.375  25.832  25.224  1.00  0.00    -0.252 OA
BRANCH   3   5
ATOM      5  C   UNL A   1      33.018  27.521  24.625  1.00  0.00     0.178 C 
ATOM      6  C   UNL A   1      32.825  28.573  23.514  1.00  0.00     0.216 C 
ATOM      7  C   UNL A   1      32.933  27.785  22.178  1.00  0.00     0.188 C 
ATOM      8  N   UNL A   1      33.291  26.439  22.561  1.00  0.00    -0.301 N 
ATOM      9  C   UNL A   1      33.751  26.384  23.929  1.00  0.00     0.145 C 
BRANCH   6  10
ATOM     10  N   UNL A   1      33.881  29.600  23.601  1.00  0.00    -0.353 N 
ATOM     11  H   UNL A   1      34.637  29.261  24.195  1.00  0.00     0.344 HD
ATOM     12  H   UNL A   1      33.492  30.454  24.001  1.00  0.00     0.344 HD
ATOM     13  H   UNL A   1      34.243  29.796  22.668  1.00  0.00     0.344 HD
ENDBRANCH   6  10
BRANCH   8  14
ATOM     14  C   UNL A   1      33.001  25.315  21.835  1.00  0.00     0.410 C 
ATOM     15  O   UNL A   1      33.115  25.267  20.619  1.00  0.00    -0.224 OA
BRANCH  14  16
ATOM     16  O   UNL A   1      32.561  24.295  22.617  1.00  0.00    -0.448 OA
BRANCH  16  17
ATOM     17  C   UNL A   1      33.048  22.966  22.289  1.00  0.00     0.248 C 
BRANCH  17  18
ATOM     18  C   UNL A   1      33.503  22.188  23.536  1.00  0.00     0.088 C 
ATOM     19  C   UNL A   1      34.867  22.635  24.072  1.00  0.00    -0.029 A 
ATOM     20  C   UNL A   1      32.603  22.473  24.741  1.00  0.00    -0.029 A 
ATOM     21  C   UNL A   1      36.114  22.567  23.473  1.00  0.00     0.005 A 
ATOM     22  C   UNL A   1      34.728  23.188  25.360  1.00  0.00    -0.014 A 
ATOM     23  C   UNL A   1      33.365  23.011  25.799  1.00  0.00    -0.014 A 
ATOM     24  C   UNL A   1      31.241  22.244  24.889  1.00  0.00     0.005 A 
ATOM     25  C   UNL A   1      37.197  23.185  24.103  1.00  0.00     0.000 A 
ATOM     26  C   UNL A   1      35.799  23.798  25.994  1.00  0.00     0.009 A 
ATOM     27  C   UNL A   1      32.791  23.241  27.037  1.00  0.00     0.009 A 
ATOM     28  C   UNL A   1      30.655  22.516  26.128  1.00  0.00     0.000 A 
ATOM     29  C   UNL A   1      37.037  23.815  25.345  1.00  0.00     0.001 A 
ATOM     30  C   UNL A   1      31.428  22.982  27.200  1.00  0.00     0.001 A 
ENDBRANCH  17  18
ENDBRANCH  16  17
ENDBRANCH  14  16
ENDBRANCH   8  14
ENDBRANCH   3   5
ENDBRANCH   2   3
ENDBRANCH   1   2
BRANCH   1  31
ATOM     31  C   UNL A   1      31.879  30.092  26.890  1.00  0.00     0.275 C 
BRANCH  31  32
ATOM     32  O   UNL A   1      33.206  30.511  26.540  1.00  0.00    -0.458 OA
BRANCH  32  33
ATOM     33  C   UNL A   1      33.753  31.457  27.338  1.00  0.00     0.338 C 
ATOM     34  O   UNL A   1      33.238  32.496  27.711  1.00  0.00    -0.246 OA
BRANCH  33  35
ATOM     35  C   UNL A   1      35.100  31.036  27.753  1.00  0.00     0.060 A 
ATOM     36  C   UNL A   1      35.341  29.692  28.007  1.00  0.00     0.016 A 
ATOM     37  C   UNL A   1      36.085  31.987  28.029  1.00  0.00     0.016 A 
ATOM     38  C   UNL A   1      36.527  29.313  28.625  1.00  0.00     0.010 A 
ATOM     39  C   UNL A   1      37.312  31.584  28.580  1.00  0.00     0.010 A 
ATOM     40  C   UNL A   1      37.529  30.242  28.932  1.00  0.00    -0.014 A 
BRANCH  40  41
ATOM     41  C   UNL A   1      38.733  29.796  29.699  1.00  0.00     0.031 A 
ATOM     42  C   UNL A   1      39.742  28.886  29.042  1.00  0.00     0.074 A 
ATOM     43  C   UNL A   1      38.986  30.283  30.934  1.00  0.00     0.049 A 
ATOM     44  N   UNL A   1      40.804  28.316  29.552  1.00  0.00    -0.248 NA
ATOM     45  C   UNL A   1      39.530  28.580  27.618  1.00  0.00     0.031 C 
ATOM     46  C   UNL A   1      38.154  31.266  31.628  1.00  0.00     0.029 A 
ATOM     47  N   UNL A   1      40.031  30.072  31.803  1.00  0.00    -0.354 N 
ATOM     48  C   UNL A   1      41.336  27.522  28.540  1.00  0.00     0.074 A 
ATOM     49  C   UNL A   1      40.499  27.709  27.375  1.00  0.00     0.031 C 
ATOM     50  C   UNL A   1      38.764  31.640  32.761  1.00  0.00     0.029 A 
ATOM     51  C   UNL A   1      39.961  30.829  32.955  1.00  0.00     0.049 A 
ATOM     52  H   UNL A   1      40.761  29.437  31.621  1.00  0.00     0.167 HD
ATOM     53  C   UNL A   1      42.409  26.694  28.592  1.00  0.00     0.034 A 
ATOM     54  C   UNL A   1      40.747  30.848  34.055  1.00  0.00     0.034 A 
ATOM     55  C   UNL A   1      43.260  26.562  29.750  1.00  0.00     0.049 A 
ATOM     56  C   UNL A   1      41.932  29.907  34.088  1.00  0.00     0.074 A 
ATOM     57  C   UNL A   1      44.341  25.717  29.934  1.00  0.00     0.029 A 
ATOM     58  N   UNL A   1      43.134  27.304  30.918  1.00  0.00    -0.354 N 
ATOM     59  N   UNL A   1      42.375  29.097  33.149  1.00  0.00    -0.248 NA
ATOM     60  C   UNL A   1      42.716  29.865  35.329  1.00  0.00     0.031 C 
ATOM     61  C   UNL A   1      44.829  25.906  31.232  1.00  0.00     0.029 A 
ATOM     62  C   UNL A   1      44.100  26.919  31.835  1.00  0.00     0.049 A 
ATOM     63  H   UNL A   1      42.457  28.001  31.073  1.00  0.00     0.167 HD
ATOM     64  C   UNL A   1      43.493  28.465  33.686  1.00  0.00     0.074 A 
ATOM     65  C   UNL A   1      43.686  29.021  35.009  1.00  0.00     0.031 C 
ATOM     66  C   UNL A   1      44.280  27.496  33.148  1.00  0.00     0.034 A 
BRANCH  53  67
ATOM     67  C   UNL A   1      42.642  25.782  27.410  1.00  0.00     0.023 A 
ATOM     68  C   UNL A   1      42.144  24.470  27.347  1.00  0.00     0.031 A 
ATOM     69  C   UNL A   1      43.422  26.243  26.331  1.00  0.00     0.131 A 
ATOM     70  C   UNL A   1      42.478  23.649  26.256  1.00  0.00     0.055 A 
ATOM     71  C   UNL A   1      43.693  25.445  25.220  1.00  0.00     0.041 A 
ATOM     72  F   UNL A   1      43.947  27.479  26.348  1.00  0.00    -0.206 F 
ATOM     73  C   UNL A   1      43.231  24.135  25.184  1.00  0.00     0.022 A 
BRANCH  70  74
ATOM     74  S   UNL A   1      42.027  21.891  26.314  1.00  0.00     0.124 S 
ATOM     75  O   UNL A   1      42.898  21.326  25.286  1.00  0.00    -0.237 OA
ATOM     76  O   UNL A   1      42.345  21.531  27.690  1.00  0.00    -0.237 OA
ATOM     77  O   UNL A   1      40.603  21.891  25.983  1.00  0.00    -0.744 OA
ENDBRANCH  70  74
ENDBRANCH  53  67
BRANCH  54  78
ATOM     78  C   UNL A   1      40.441  31.767  35.208  1.00  0.00     0.023 A 
ATOM     79  C   UNL A   1      39.379  31.502  36.089  1.00  0.00     0.031 A 
ATOM     80  C   UNL A   1      41.195  32.926  35.466  1.00  0.00     0.131 A 
ATOM     81  C   UNL A   1      39.122  32.335  37.191  1.00  0.00     0.055 A 
ATOM     82  C   UNL A   1      40.970  33.734  36.586  1.00  0.00     0.041 A 
ATOM     83  F   UNL A   1      42.191  33.289  34.641  1.00  0.00    -0.206 F 
ATOM     84  C   UNL A   1      39.926  33.440  37.456  1.00  0.00     0.022 A 
BRANCH  81  85
ATOM     85  S   UNL A   1      37.659  32.031  38.222  1.00  0.00     0.124 S 
ATOM     86  O   UNL A   1      37.294  30.663  37.863  1.00  0.00    -0.237 OA
ATOM     87  O   UNL A   1      38.194  32.214  39.566  1.00  0.00    -0.237 OA
ATOM     88  O   UNL A   1      36.722  33.060  37.778  1.00  0.00    -0.744 OA
ENDBRANCH  81  85
ENDBRANCH  54  78
BRANCH  66  89
ATOM     89  C   UNL A   1      45.432  26.999  33.987  1.00  0.00     0.023 A 
ATOM     90  C   UNL A   1      45.285  25.912  34.867  1.00  0.00     0.031 A 
ATOM     91  C   UNL A   1      46.695  27.612  33.900  1.00  0.00     0.131 A 
ATOM     92  C   UNL A   1      46.364  25.509  35.668  1.00  0.00     0.055 A 
ATOM     93  C   UNL A   1      47.782  27.167  34.655  1.00  0.00     0.041 A 
ATOM     94  F   UNL A   1      46.895  28.651  33.073  1.00  0.00    -0.206 F 
ATOM     95  C   UNL A   1      47.616  26.118  35.555  1.00  0.00     0.022 A 
BRANCH  92  96
ATOM     96  S   UNL A   1      46.084  24.229  36.922  1.00  0.00     0.124 S 
ATOM     97  O   UNL A   1      44.739  23.767  36.589  1.00  0.00    -0.237 OA
ATOM     98  O   UNL A   1      47.165  23.287  36.655  1.00  0.00    -0.237 OA
ATOM     99  O   UNL A   1      46.195  24.955  38.185  1.00  0.00    -0.744 OA
ENDBRANCH  92  96
ENDBRANCH  66  89
ENDBRANCH  40  41
ENDBRANCH  33  35
ENDBRANCH  32  33
ENDBRANCH  31  32
ENDBRANCH   1  31
TORSDOF 19
ENDMDL
MODEL 3
REMARK VINA RESULT:     -12.8      1.225      7.661
REMARK SMILES [NH3+][C@H]1CN(C(=O)OCC2c3ccccc3-c3ccccc32)C[C@@H]1C(=O)OCCOC(=O)c1ccc(-c2c3nc(c(-c4cc(S(=O)(=O)[O-])ccc4F)c4ccc([nH]4)c(-c4cc(S(=O)(=O)[O-])ccc4F)c4nc(c(-c5cc(S(=O)(=O)[O-])ccc5F)c5ccc2[nH]5)C=C4)C=C3)cc1
REMARK SMILES IDX 27 1 26 2 24 3 25 4 23 5 2 6 3 7 4 8 22 9 1 10 5 14 6 15
REMARK SMILES IDX 7 16 8 17 9 18 10 19 21 20 11 21 15 22 16 23 20 24 12 25
REMARK SMILES IDX 14 26 17 27 19 28 13 29 18 30 28 31 29 32 30 33 31 34 32 35
REMARK SMILES IDX 33 36 94 37 34 38 93 39 35 40 36 41 37 42 87 43 38 44 92 45
REMARK SMILES IDX 86 46 88 47 39 48 91 49 85 50 84 51 40 53 72 54 52 55 71 56
REMARK SMILES IDX 53 57 56 58 70 59 89 60 54 61 55 62 69 64 90 65 57 66 41 67
REMARK SMILES IDX 42 68 50 69 43 70 49 71 51 72 48 73 44 74 45 75 46 76 47 77
REMARK SMILES IDX 73 78 74 79 82 80 75 81 81 82 83 83 80 84 76 85 77 86 78 87
REMARK SMILES IDX 79 88 58 89 59 90 67 91 60 92 66 93 68 94 65 95 61 96 62 97
REMARK SMILES IDX 63 98 64 99
REMARK H PARENT 1 11 1 12 1 13 88 52 56 63
REMARK Flexibility Score: inf
ROOT
ATOM      1  C   UNL A   1      35.475  20.468  25.078  1.00  0.00     0.274 C 
ENDROOT
BRANCH   1   2
ATOM      2  O   UNL A   1      35.142  21.717  25.721  1.00  0.00    -0.462 OA
BRANCH   2   3
ATOM      3  C   UNL A   1      34.377  22.563  24.970  1.00  0.00     0.317 C 
ATOM      4  O   UNL A   1      34.621  23.752  24.827  1.00  0.00    -0.252 OA
BRANCH   3   5
ATOM      5  C   UNL A   1      33.127  21.867  24.470  1.00  0.00     0.178 C 
ATOM      6  C   UNL A   1      32.379  22.618  23.349  1.00  0.00     0.216 C 
ATOM      7  C   UNL A   1      31.232  23.387  24.064  1.00  0.00     0.188 C 
ATOM      8  N   UNL A   1      31.293  22.962  25.443  1.00  0.00    -0.301 N 
ATOM      9  C   UNL A   1      32.106  21.778  25.594  1.00  0.00     0.145 C 
BRANCH   6  10
ATOM     10  N   UNL A   1      31.833  21.657  22.373  1.00  0.00    -0.353 N 
ATOM     11  H   UNL A   1      30.965  22.024  21.983  1.00  0.00     0.344 HD
ATOM     12  H   UNL A   1      31.647  20.768  22.838  1.00  0.00     0.344 HD
ATOM     13  H   UNL A   1      32.508  21.513  21.623  1.00  0.00     0.344 HD
ENDBRANCH   6  10
BRANCH   8  14
ATOM     14  C   UNL A   1      30.866  23.704  26.512  1.00  0.00     0.410 C 
ATOM     15  O   UNL A   1      30.008  23.310  27.287  1.00  0.00    -0.224 OA
BRANCH  14  16
ATOM     16  O   UNL A   1      31.486  24.910  26.583  1.00  0.00    -0.448 OA
BRANCH  16  17
ATOM     17  C   UNL A   1      30.723  26.061  26.129  1.00  0.00     0.248 C 
BRANCH  17  18
ATOM     18  C   UNL A   1      31.531  26.954  25.172  1.00  0.00     0.088 C 
ATOM     19  C   UNL A   1      30.657  27.837  24.273  1.00  0.00    -0.029 A 
ATOM     20  C   UNL A   1      32.339  28.011  25.928  1.00  0.00    -0.029 A 
ATOM     21  C   UNL A   1      29.746  27.469  23.297  1.00  0.00     0.005 A 
ATOM     22  C   UNL A   1      30.875  29.197  24.565  1.00  0.00    -0.014 A 
ATOM     23  C   UNL A   1      31.960  29.304  25.511  1.00  0.00    -0.014 A 
ATOM     24  C   UNL A   1      33.341  27.834  26.874  1.00  0.00     0.005 A 
ATOM     25  C   UNL A   1      28.950  28.458  22.715  1.00  0.00     0.000 A 
ATOM     26  C   UNL A   1      30.093  30.185  23.987  1.00  0.00     0.009 A 
ATOM     27  C   UNL A   1      32.635  30.421  25.969  1.00  0.00     0.009 A 
ATOM     28  C   UNL A   1      33.994  28.967  27.368  1.00  0.00     0.000 A 
ATOM     29  C   UNL A   1      29.106  29.804  23.073  1.00  0.00     0.001 A 
ATOM     30  C   UNL A   1      33.664  30.245  26.897  1.00  0.00     0.001 A 
ENDBRANCH  17  18
ENDBRANCH  16  17
ENDBRANCH  14  16
ENDBRANCH   8  14
ENDBRANCH   3   5
ENDBRANCH   2   3
ENDBRANCH   1   2
BRANCH   1  31
ATOM     31  C   UNL A   1      36.983  20.288  24.946  1.00  0.00     0.275 C 
BRANCH  31  32
ATOM     32  O   UNL A   1      37.666  21.464  25.406  1.00  0.00    -0.458 OA
BRANCH  32  33
ATOM     33  C   UNL A   1      38.892  21.260  25.940  1.00  0.00     0.338 C 
ATOM     34  O   UNL A   1      39.547  20.233  25.914  1.00  0.00    -0.246 OA
BRANCH  33  35
ATOM     35  C   UNL A   1      39.378  22.505  26.555  1.00  0.00     0.060 A 
ATOM     36  C   UNL A   1      38.798  23.712  26.187  1.00  0.00     0.016 A 
ATOM     37  C   UNL A   1      40.501  22.492  27.385  1.00  0.00     0.016 A 
ATOM     38  C   UNL A   1      39.398  24.906  26.571  1.00  0.00     0.010 A 
ATOM     39  C   UNL A   1      41.053  23.704  27.833  1.00  0.00     0.010 A 
ATOM     40  C   UNL A   1      40.535  24.931  27.389  1.00  0.00    -0.014 A 
BRANCH  40  41
ATOM     41  C   UNL A   1      41.204  26.238  27.675  1.00  0.00     0.031 A 
ATOM     42  C   UNL A   1      42.506  26.576  26.989  1.00  0.00     0.074 A 
ATOM     43  C   UNL A   1      40.606  27.165  28.455  1.00  0.00     0.049 A 
ATOM     44  N   UNL A   1      43.290  27.609  27.159  1.00  0.00    -0.248 NA
ATOM     45  C   UNL A   1      42.986  25.626  25.973  1.00  0.00     0.031 C 
ATOM     46  C   UNL A   1      39.289  27.009  29.073  1.00  0.00     0.029 A 
ATOM     47  N   UNL A   1      40.986  28.436  28.819  1.00  0.00    -0.354 N 
ATOM     48  C   UNL A   1      44.393  27.393  26.336  1.00  0.00     0.074 A 
ATOM     49  C   UNL A   1      44.160  26.145  25.643  1.00  0.00     0.031 C 
ATOM     50  C   UNL A   1      38.934  28.163  29.653  1.00  0.00     0.029 A 
ATOM     51  C   UNL A   1      40.046  29.105  29.577  1.00  0.00     0.049 A 
ATOM     52  H   UNL A   1      41.850  28.832  28.563  1.00  0.00     0.167 HD
ATOM     53  C   UNL A   1      45.506  28.155  26.197  1.00  0.00     0.034 A 
ATOM     54  C   UNL A   1      40.083  30.319  30.170  1.00  0.00     0.034 A 
ATOM     55  C   UNL A   1      45.693  29.423  26.862  1.00  0.00     0.049 A 
ATOM     56  C   UNL A   1      41.342  31.143  30.004  1.00  0.00     0.074 A 
ATOM     57  C   UNL A   1      46.800  30.254  26.837  1.00  0.00     0.029 A 
ATOM     58  N   UNL A   1      44.746  30.049  27.662  1.00  0.00    -0.354 N 
ATOM     59  N   UNL A   1      42.414  30.885  29.287  1.00  0.00    -0.248 NA
ATOM     60  C   UNL A   1      41.408  32.414  30.737  1.00  0.00     0.031 C 
ATOM     61  C   UNL A   1      46.543  31.351  27.668  1.00  0.00     0.029 A 
ATOM     62  C   UNL A   1      45.250  31.242  28.156  1.00  0.00     0.049 A 
ATOM     63  H   UNL A   1      43.846  29.696  27.852  1.00  0.00     0.167 HD
ATOM     64  C   UNL A   1      43.270  31.966  29.475  1.00  0.00     0.074 A 
ATOM     65  C   UNL A   1      42.572  32.901  30.332  1.00  0.00     0.031 C 
ATOM     66  C   UNL A   1      44.529  32.165  29.003  1.00  0.00     0.034 A 
BRANCH  53  67
ATOM     67  C   UNL A   1      46.649  27.578  25.396  1.00  0.00     0.023 A 
ATOM     68  C   UNL A   1      46.966  28.010  24.097  1.00  0.00     0.031 A 
ATOM     69  C   UNL A   1      47.417  26.535  25.949  1.00  0.00     0.131 A 
ATOM     70  C   UNL A   1      47.986  27.363  23.377  1.00  0.00     0.055 A 
ATOM     71  C   UNL A   1      48.471  25.944  25.254  1.00  0.00     0.041 A 
ATOM     72  F   UNL A   1      47.143  26.063  27.176  1.00  0.00    -0.206 F 
ATOM     73  C   UNL A   1      48.753  26.349  23.954  1.00  0.00     0.022 A 
BRANCH  70  74
ATOM     74  S   UNL A   1      48.213  27.775  21.623  1.00  0.00     0.124 S 
ATOM     75  O   UNL A   1      46.911  28.343  21.279  1.00  0.00    -0.237 OA
ATOM     76  O   UNL A   1      49.329  28.712  21.662  1.00  0.00    -0.237 OA
ATOM     77  O   UNL A   1      48.504  26.483  21.002  1.00  0.00    -0.744 OA
ENDBRANCH  70  74
ENDBRANCH  53  67
BRANCH  54  78
ATOM     78  C   UNL A   1      38.914  30.822  30.976  1.00  0.00     0.023 A 
ATOM     79  C   UNL A   1      37.971  31.702  30.421  1.00  0.00     0.031 A 
ATOM     80  C   UNL A   1      38.705  30.438  32.313  1.00  0.00     0.131 A 
ATOM     81  C   UNL A   1      36.857  32.135  31.160  1.00  0.00     0.055 A 
ATOM     82  C   UNL A   1      37.574  30.831  33.038  1.00  0.00     0.041 A 
ATOM     83  F   UNL A   1      39.590  29.647  32.942  1.00  0.00    -0.206 F 
ATOM     84  C   UNL A   1      36.643  31.687  32.461  1.00  0.00     0.022 A 
BRANCH  81  85
ATOM     85  S   UNL A   1      35.739  33.377  30.451  1.00  0.00     0.124 S 
ATOM     86  O   UNL A   1      35.572  34.322  31.550  1.00  0.00    -0.237 OA
ATOM     87  O   UNL A   1      36.509  33.859  29.309  1.00  0.00    -0.237 OA
ATOM     88  O   UNL A   1      34.549  32.598  30.116  1.00  0.00    -0.744 OA
ENDBRANCH  81  85
ENDBRANCH  54  78
BRANCH  66  89
ATOM     89  C   UNL A   1      45.215  33.453  29.389  1.00  0.00     0.023 A 
ATOM     90  C   UNL A   1      45.100  34.611  28.600  1.00  0.00     0.031 A 
ATOM     91  C   UNL A   1      45.986  33.528  30.563  1.00  0.00     0.131 A 
ATOM     92  C   UNL A   1      45.792  35.777  28.962  1.00  0.00     0.055 A 
ATOM     93  C   UNL A   1      46.622  34.708  30.950  1.00  0.00     0.041 A 
ATOM     94  F   UNL A   1      46.127  32.454  31.357  1.00  0.00    -0.206 F 
ATOM     95  C   UNL A   1      46.538  35.838  30.141  1.00  0.00     0.022 A 
BRANCH  92  96
ATOM     96  S   UNL A   1      45.769  37.189  27.825  1.00  0.00     0.124 S 
ATOM     97  O   UNL A   1      46.109  36.559  26.552  1.00  0.00    -0.237 OA
ATOM     98  O   UNL A   1      44.398  37.672  27.951  1.00  0.00    -0.237 OA
ATOM     99  O   UNL A   1      46.791  38.083  28.366  1.00  0.00    -0.744 OA
ENDBRANCH  92  96
ENDBRANCH  66  89
ENDBRANCH  40  41
ENDBRANCH  33  35
ENDBRANCH  32  33
ENDBRANCH  31  32
ENDBRANCH   1  31
TORSDOF 19
ENDMDL
