MODEL 1
REMARK VINA RESULT:     -12.0      0.000      0.000
REMARK SMILES COc1ccc(CCc2nnc(NC(=O)[C@@H]3[C@@H](C(=O)OCCOC(=O)c4ccc(-c5c6nc(c(-c7cc(S(=O)(=O)[O-])ccc7F)c7ccc([nH]7)c(-c7cc(S(=O)(=O)[O-])ccc7F)c7nc(c(-c8cc(S(=O)(=O)[O-])ccc8F)c8ccc5[nH]8)C=C7)C=C6)cc4)C3(C)C)s2)cc1
REMARK SMILES IDX 20 1 18 2 19 3 17 4 16 5 89 6 90 7 91 8 14 9 13 10 15 12
REMARK SMILES IDX 12 13 9 14 10 15 92 16 11 17 8 18 7 19 6 20 3 21 4 22 94 23
REMARK SMILES IDX 5 24 93 25 2 26 1 27 21 28 22 29 23 30 24 31 25 32 26 33
REMARK SMILES IDX 27 34 88 35 28 36 87 37 29 38 30 39 31 40 81 41 32 42 86 43
REMARK SMILES IDX 80 44 82 45 33 46 85 47 79 48 78 49 34 51 66 52 46 53 65 54
REMARK SMILES IDX 47 55 50 56 64 57 83 58 48 59 49 60 63 62 84 63 51 64 35 65
REMARK SMILES IDX 36 66 44 67 37 68 43 69 45 70 42 71 38 72 39 73 40 74 41 75
REMARK SMILES IDX 67 76 68 77 76 78 69 79 75 80 77 81 74 82 70 83 71 84 72 85
REMARK SMILES IDX 73 86 52 87 53 88 61 89 54 90 60 91 62 92 59 93 55 94 56 95
REMARK SMILES IDX 57 96 58 97
REMARK H PARENT 13 11 82 50 50 61
REMARK Flexibility Score: inf
ROOT
ATOM      1  O   UNL A   1      30.236  31.503  24.578  1.00  0.00    -0.462 OA
ENDROOT
BRANCH   1   2
ATOM      2  C   UNL A   1      30.232  30.308  23.937  1.00  0.00     0.310 C 
ATOM      3  O   UNL A   1      29.769  30.097  22.824  1.00  0.00    -0.252 OA
BRANCH   2   4
ATOM      4  C   UNL A   1      30.884  29.213  24.701  1.00  0.00     0.118 C 
ATOM      5  C   UNL A   1      31.900  28.420  23.924  1.00  0.00     0.100 C 
ATOM      6  C   UNL A   1      30.682  27.717  24.534  1.00  0.00    -0.009 C 
ATOM      7  C   UNL A   1      29.612  27.188  23.618  1.00  0.00     0.013 C 
ATOM      8  C   UNL A   1      30.858  26.857  25.770  1.00  0.00     0.013 C 
BRANCH   5   9
ATOM      9  C   UNL A   1      33.284  27.961  24.224  1.00  0.00     0.230 C 
ATOM     10  N   UNL A   1      33.970  26.948  23.621  1.00  0.00    -0.300 N 
ATOM     11  H   UNL A   1      34.942  26.956  23.773  1.00  0.00     0.172 HD
ATOM     12  O   UNL A   1      33.923  28.657  25.019  1.00  0.00    -0.274 OA
BRANCH  10  13
ATOM     13  C   UNL A   1      33.521  25.931  22.845  1.00  0.00     0.212 A 
ATOM     14  C   UNL A   1      32.948  23.723  22.245  1.00  0.00     0.119 A 
ATOM     15  N   UNL A   1      33.135  24.502  21.197  1.00  0.00    -0.142 NA
ATOM     16  S   UNL A   1      32.920  24.598  23.729  1.00  0.00    -0.080 S 
ATOM     17  N   UNL A   1      33.508  25.783  21.548  1.00  0.00    -0.120 NA
BRANCH  14  18
ATOM     18  C   UNL A   1      32.785  22.234  22.223  1.00  0.00     0.074 C 
BRANCH  18  19
ATOM     19  C   UNL A   1      32.640  21.601  23.612  1.00  0.00     0.043 C 
BRANCH  19  20
ATOM     20  C   UNL A   1      32.858  20.105  23.730  1.00  0.00    -0.047 A 
ATOM     21  C   UNL A   1      33.382  17.321  23.815  1.00  0.00     0.118 A 
ATOM     22  C   UNL A   1      33.963  18.182  24.742  1.00  0.00     0.046 A 
ATOM     23  C   UNL A   1      32.537  17.851  22.844  1.00  0.00     0.046 A 
ATOM     24  C   UNL A   1      33.715  19.558  24.691  1.00  0.00     0.007 A 
ATOM     25  C   UNL A   1      32.275  19.229  22.805  1.00  0.00     0.007 A 
BRANCH  21  26
ATOM     26  O   UNL A   1      33.683  15.997  23.983  1.00  0.00    -0.497 OA
ATOM     27  C   UNL A   1      33.125  15.382  25.139  1.00  0.00     0.278 C 
ENDBRANCH  21  26
ENDBRANCH  19  20
ENDBRANCH  18  19
ENDBRANCH  14  18
ENDBRANCH  10  13
ENDBRANCH   5   9
ENDBRANCH   2   4
ENDBRANCH   1   2
BRANCH   1  28
ATOM     28  C   UNL A   1      30.661  31.479  25.954  1.00  0.00     0.274 C 
BRANCH  28  29
ATOM     29  C   UNL A   1      31.611  32.641  26.237  1.00  0.00     0.275 C 
BRANCH  29  30
ATOM     30  O   UNL A   1      32.120  32.561  27.581  1.00  0.00    -0.458 OA
BRANCH  30  31
ATOM     31  C   UNL A   1      33.034  33.511  27.891  1.00  0.00     0.338 C 
ATOM     32  O   UNL A   1      32.832  34.701  28.053  1.00  0.00    -0.246 OA
BRANCH  31  33
ATOM     33  C   UNL A   1      34.349  32.889  28.088  1.00  0.00     0.060 A 
ATOM     34  C   UNL A   1      34.397  31.543  28.422  1.00  0.00     0.016 A 
ATOM     35  C   UNL A   1      35.510  33.664  28.122  1.00  0.00     0.016 A 
ATOM     36  C   UNL A   1      35.586  31.003  28.903  1.00  0.00     0.010 A 
ATOM     37  C   UNL A   1      36.723  33.085  28.536  1.00  0.00     0.010 A 
ATOM     38  C   UNL A   1      36.764  31.761  29.004  1.00  0.00    -0.014 A 
BRANCH  38  39
ATOM     39  C   UNL A   1      37.955  31.179  29.714  1.00  0.00     0.031 A 
ATOM     40  C   UNL A   1      38.240  31.533  31.164  1.00  0.00     0.074 A 
ATOM     41  C   UNL A   1      38.693  30.203  29.139  1.00  0.00     0.049 A 
ATOM     42  N   UNL A   1      39.189  31.089  31.955  1.00  0.00    -0.248 NA
ATOM     43  C   UNL A   1      37.327  32.481  31.819  1.00  0.00     0.031 C 
ATOM     44  C   UNL A   1      38.492  29.682  27.784  1.00  0.00     0.029 A 
ATOM     45  N   UNL A   1      39.730  29.441  29.630  1.00  0.00    -0.354 N 
ATOM     46  C   UNL A   1      38.993  31.711  33.185  1.00  0.00     0.074 A 
ATOM     47  C   UNL A   1      37.854  32.589  33.029  1.00  0.00     0.031 C 
ATOM     48  C   UNL A   1      39.322  28.649  27.580  1.00  0.00     0.029 A 
ATOM     49  C   UNL A   1      40.197  28.499  28.738  1.00  0.00     0.049 A 
ATOM     50  H   UNL A   1      40.103  29.558  30.533  1.00  0.00     0.167 HD
ATOM     51  C   UNL A   1      39.676  31.556  34.348  1.00  0.00     0.034 A 
ATOM     52  C   UNL A   1      41.236  27.640  28.809  1.00  0.00     0.034 A 
ATOM     53  C   UNL A   1      40.810  30.680  34.521  1.00  0.00     0.049 A 
ATOM     54  C   UNL A   1      42.089  27.620  30.050  1.00  0.00     0.074 A 
ATOM     55  C   UNL A   1      41.571  30.472  35.660  1.00  0.00     0.029 A 
ATOM     56  N   UNL A   1      41.358  29.877  33.532  1.00  0.00    -0.354 N 
ATOM     57  N   UNL A   1      41.917  28.260  31.182  1.00  0.00    -0.248 NA
ATOM     58  C   UNL A   1      43.292  26.776  30.012  1.00  0.00     0.031 C 
ATOM     59  C   UNL A   1      42.620  29.605  35.339  1.00  0.00     0.029 A 
ATOM     60  C   UNL A   1      42.473  29.210  34.020  1.00  0.00     0.049 A 
ATOM     61  H   UNL A   1      41.008  29.793  32.615  1.00  0.00     0.167 HD
ATOM     62  C   UNL A   1      42.988  27.890  31.993  1.00  0.00     0.074 A 
ATOM     63  C   UNL A   1      43.780  26.948  31.232  1.00  0.00     0.031 C 
ATOM     64  C   UNL A   1      43.287  28.298  33.252  1.00  0.00     0.034 A 
BRANCH  51  65
ATOM     65  C   UNL A   1      39.247  32.404  35.521  1.00  0.00     0.023 A 
ATOM     66  C   UNL A   1      39.686  33.729  35.683  1.00  0.00     0.031 A 
ATOM     67  C   UNL A   1      38.385  31.869  36.496  1.00  0.00     0.131 A 
ATOM     68  C   UNL A   1      39.303  34.458  36.821  1.00  0.00     0.055 A 
ATOM     69  C   UNL A   1      37.956  32.620  37.590  1.00  0.00     0.041 A 
ATOM     70  F   UNL A   1      37.949  30.603  36.398  1.00  0.00    -0.206 F 
ATOM     71  C   UNL A   1      38.423  33.919  37.763  1.00  0.00     0.022 A 
BRANCH  68  72
ATOM     72  S   UNL A   1      40.051  36.085  37.109  1.00  0.00     0.124 S 
ATOM     73  O   UNL A   1      41.437  35.727  37.400  1.00  0.00    -0.237 OA
ATOM     74  O   UNL A   1      39.824  36.765  35.840  1.00  0.00    -0.237 OA
ATOM     75  O   UNL A   1      39.303  36.612  38.247  1.00  0.00    -0.744 OA
ENDBRANCH  68  72
ENDBRANCH  51  65
BRANCH  52  76
ATOM     76  C   UNL A   1      41.601  26.798  27.628  1.00  0.00     0.023 A 
ATOM     77  C   UNL A   1      41.343  25.418  27.595  1.00  0.00     0.031 A 
ATOM     78  C   UNL A   1      42.283  27.365  26.533  1.00  0.00     0.131 A 
ATOM     79  C   UNL A   1      41.791  24.650  26.507  1.00  0.00     0.055 A 
ATOM     80  C   UNL A   1      42.666  26.608  25.427  1.00  0.00     0.041 A 
ATOM     81  F   UNL A   1      42.580  28.674  26.521  1.00  0.00    -0.206 F 
ATOM     82  C   UNL A   1      42.431  25.239  25.414  1.00  0.00     0.022 A 
BRANCH  79  83
ATOM     83  S   UNL A   1      41.614  22.845  26.581  1.00  0.00     0.124 S 
ATOM     84  O   UNL A   1      42.206  22.436  25.311  1.00  0.00    -0.237 OA
ATOM     85  O   UNL A   1      42.374  22.512  27.780  1.00  0.00    -0.237 OA
ATOM     86  O   UNL A   1      40.169  22.648  26.687  1.00  0.00    -0.744 OA
ENDBRANCH  79  83
ENDBRANCH  52  76
BRANCH  64  87
ATOM     87  C   UNL A   1      44.522  27.707  33.887  1.00  0.00     0.023 A 
ATOM     88  C   UNL A   1      44.482  26.471  34.559  1.00  0.00     0.031 A 
ATOM     89  C   UNL A   1      45.745  28.398  33.852  1.00  0.00     0.131 A 
ATOM     90  C   UNL A   1      45.627  25.993  35.216  1.00  0.00     0.055 A 
ATOM     91  C   UNL A   1      46.896  27.890  34.456  1.00  0.00     0.041 A 
ATOM     92  F   UNL A   1      45.842  29.585  33.230  1.00  0.00    -0.206 F 
ATOM     93  C   UNL A   1      46.838  26.688  35.155  1.00  0.00     0.022 A 
BRANCH  90  94
ATOM     94  S   UNL A   1      45.487  24.500  36.236  1.00  0.00     0.124 S 
ATOM     95  O   UNL A   1      46.026  24.953  37.514  1.00  0.00    -0.237 OA
ATOM     96  O   UNL A   1      44.053  24.235  36.207  1.00  0.00    -0.237 OA
ATOM     97  O   UNL A   1      46.311  23.522  35.528  1.00  0.00    -0.744 OA
ENDBRANCH  90  94
ENDBRANCH  64  87
ENDBRANCH  38  39
ENDBRANCH  31  33
ENDBRANCH  30  31
ENDBRANCH  29  30
ENDBRANCH  28  29
ENDBRANCH   1  28
TORSDOF 20
ENDMDL
MODEL 2
REMARK VINA RESULT:     -11.9      1.585      2.115
REMARK SMILES COc1ccc(CCc2nnc(NC(=O)[C@@H]3[C@@H](C(=O)OCCOC(=O)c4ccc(-c5c6nc(c(-c7cc(S(=O)(=O)[O-])ccc7F)c7ccc([nH]7)c(-c7cc(S(=O)(=O)[O-])ccc7F)c7nc(c(-c8cc(S(=O)(=O)[O-])ccc8F)c8ccc5[nH]8)C=C7)C=C6)cc4)C3(C)C)s2)cc1
REMARK SMILES IDX 20 1 18 2 19 3 17 4 16 5 89 6 90 7 91 8 14 9 13 10 15 12
REMARK SMILES IDX 12 13 9 14 10 15 92 16 11 17 8 18 7 19 6 20 3 21 4 22 94 23
REMARK SMILES IDX 5 24 93 25 2 26 1 27 21 28 22 29 23 30 24 31 25 32 26 33
REMARK SMILES IDX 27 34 88 35 28 36 87 37 29 38 30 39 31 40 81 41 32 42 86 43
REMARK SMILES IDX 80 44 82 45 33 46 85 47 79 48 78 49 34 51 66 52 46 53 65 54
REMARK SMILES IDX 47 55 50 56 64 57 83 58 48 59 49 60 63 62 84 63 51 64 35 65
REMARK SMILES IDX 36 66 44 67 37 68 43 69 45 70 42 71 38 72 39 73 40 74 41 75
REMARK SMILES IDX 67 76 68 77 76 78 69 79 75 80 77 81 74 82 70 83 71 84 72 85
REMARK SMILES IDX 73 86 52 87 53 88 61 89 54 90 60 91 62 92 59 93 55 94 56 95
REMARK SMILES IDX 57 96 58 97
REMARK H PARENT 13 11 82 50 50 61
REMARK Flexibility Score: inf
ROOT
ATOM      1  O   UNL A   1      31.743  30.463  27.198  1.00  0.00    -0.462 OA
ENDROOT
BRANCH   1   2
ATOM      2  C   UNL A   1      31.804  29.224  26.651  1.00  0.00     0.310 C 
ATOM      3  O   UNL A   1      31.389  28.195  27.167  1.00  0.00    -0.252 OA
BRANCH   2   4
ATOM      4  C   UNL A   1      32.416  29.193  25.297  1.00  0.00     0.118 C 
ATOM      5  C   UNL A   1      31.830  28.167  24.364  1.00  0.00     0.100 C 
ATOM      6  C   UNL A   1      33.323  28.123  24.713  1.00  0.00    -0.009 C 
ATOM      7  C   UNL A   1      33.836  27.002  25.576  1.00  0.00     0.013 C 
ATOM      8  C   UNL A   1      34.343  28.573  23.686  1.00  0.00     0.013 C 
BRANCH   5   9
ATOM      9  C   UNL A   1      31.373  28.218  22.948  1.00  0.00     0.230 C 
ATOM     10  N   UNL A   1      31.405  27.209  22.030  1.00  0.00    -0.300 N 
ATOM     11  H   UNL A   1      30.836  27.349  21.240  1.00  0.00     0.172 HD
ATOM     12  O   UNL A   1      30.784  29.248  22.609  1.00  0.00    -0.274 OA
BRANCH  10  13
ATOM     13  C   UNL A   1      32.098  26.044  22.038  1.00  0.00     0.212 A 
ATOM     14  C   UNL A   1      32.742  23.885  22.734  1.00  0.00     0.119 A 
ATOM     15  N   UNL A   1      33.675  24.489  22.023  1.00  0.00    -0.142 NA
ATOM     16  S   UNL A   1      31.243  24.734  22.726  1.00  0.00    -0.080 S 
ATOM     17  N   UNL A   1      33.312  25.766  21.649  1.00  0.00    -0.120 NA
BRANCH  14  18
ATOM     18  C   UNL A   1      32.903  22.608  23.501  1.00  0.00     0.074 C 
BRANCH  18  19
ATOM     19  C   UNL A   1      32.143  21.420  22.900  1.00  0.00     0.043 C 
BRANCH  19  20
ATOM     20  C   UNL A   1      32.548  20.027  23.344  1.00  0.00    -0.047 A 
ATOM     21  C   UNL A   1      33.154  17.419  24.271  1.00  0.00     0.118 A 
ATOM     22  C   UNL A   1      32.642  17.617  22.991  1.00  0.00     0.046 A 
ATOM     23  C   UNL A   1      33.365  18.525  25.089  1.00  0.00     0.046 A 
ATOM     24  C   UNL A   1      32.330  18.903  22.540  1.00  0.00     0.007 A 
ATOM     25  C   UNL A   1      33.069  19.817  24.627  1.00  0.00     0.007 A 
BRANCH  21  26
ATOM     26  O   UNL A   1      33.440  16.119  24.587  1.00  0.00    -0.497 OA
ATOM     27  C   UNL A   1      32.542  15.497  25.501  1.00  0.00     0.278 C 
ENDBRANCH  21  26
ENDBRANCH  19  20
ENDBRANCH  18  19
ENDBRANCH  14  18
ENDBRANCH  10  13
ENDBRANCH   5   9
ENDBRANCH   2   4
ENDBRANCH   1   2
BRANCH   1  28
ATOM     28  C   UNL A   1      31.322  31.522  26.317  1.00  0.00     0.274 C 
BRANCH  28  29
ATOM     29  C   UNL A   1      31.793  32.874  26.848  1.00  0.00     0.275 C 
BRANCH  29  30
ATOM     30  O   UNL A   1      32.640  32.699  27.997  1.00  0.00    -0.458 OA
BRANCH  30  31
ATOM     31  C   UNL A   1      33.657  33.588  28.086  1.00  0.00     0.338 C 
ATOM     32  O   UNL A   1      33.573  34.804  28.085  1.00  0.00    -0.246 OA
BRANCH  31  33
ATOM     33  C   UNL A   1      34.928  32.875  28.264  1.00  0.00     0.060 A 
ATOM     34  C   UNL A   1      34.885  31.543  28.650  1.00  0.00     0.016 A 
ATOM     35  C   UNL A   1      36.144  33.558  28.226  1.00  0.00     0.016 A 
ATOM     36  C   UNL A   1      36.046  30.931  29.113  1.00  0.00     0.010 A 
ATOM     37  C   UNL A   1      37.324  32.904  28.623  1.00  0.00     0.010 A 
ATOM     38  C   UNL A   1      37.282  31.600  29.142  1.00  0.00    -0.014 A 
BRANCH  38  39
ATOM     39  C   UNL A   1      38.451  30.955  29.835  1.00  0.00     0.031 A 
ATOM     40  C   UNL A   1      38.754  31.265  31.291  1.00  0.00     0.074 A 
ATOM     41  C   UNL A   1      39.148  29.963  29.236  1.00  0.00     0.049 A 
ATOM     42  N   UNL A   1      39.687  30.766  32.069  1.00  0.00    -0.248 NA
ATOM     43  C   UNL A   1      37.881  32.234  31.970  1.00  0.00     0.031 C 
ATOM     44  C   UNL A   1      38.922  29.481  27.871  1.00  0.00     0.029 A 
ATOM     45  N   UNL A   1      40.154  29.149  29.706  1.00  0.00    -0.354 N 
ATOM     46  C   UNL A   1      39.519  31.368  33.313  1.00  0.00     0.074 A 
ATOM     47  C   UNL A   1      38.416  32.294  33.181  1.00  0.00     0.031 C 
ATOM     48  C   UNL A   1      39.708  28.420  27.641  1.00  0.00     0.029 A 
ATOM     49  C   UNL A   1      40.580  28.209  28.792  1.00  0.00     0.049 A 
ATOM     50  H   UNL A   1      40.534  29.231  30.610  1.00  0.00     0.167 HD
ATOM     51  C   UNL A   1      40.199  31.160  34.469  1.00  0.00     0.034 A 
ATOM     52  C   UNL A   1      41.584  27.308  28.840  1.00  0.00     0.034 A 
ATOM     53  C   UNL A   1      41.297  30.236  34.619  1.00  0.00     0.049 A 
ATOM     54  C   UNL A   1      42.440  27.226  30.077  1.00  0.00     0.074 A 
ATOM     55  C   UNL A   1      42.052  29.973  35.750  1.00  0.00     0.029 A 
ATOM     56  N   UNL A   1      41.810  29.434  33.610  1.00  0.00    -0.354 N 
ATOM     57  N   UNL A   1      42.297  27.848  31.224  1.00  0.00    -0.248 NA
ATOM     58  C   UNL A   1      43.607  26.336  30.016  1.00  0.00     0.031 C 
ATOM     59  C   UNL A   1      43.065  29.072  35.406  1.00  0.00     0.029 A 
ATOM     60  C   UNL A   1      42.898  28.712  34.080  1.00  0.00     0.049 A 
ATOM     61  H   UNL A   1      41.454  29.384  32.693  1.00  0.00     0.167 HD
ATOM     62  C   UNL A   1      43.354  27.417  32.022  1.00  0.00     0.074 A 
ATOM     63  C   UNL A   1      44.106  26.461  31.237  1.00  0.00     0.031 C 
ATOM     64  C   UNL A   1      43.673  27.785  33.289  1.00  0.00     0.034 A 
BRANCH  51  65
ATOM     65  C   UNL A   1      39.808  31.999  35.663  1.00  0.00     0.023 A 
ATOM     66  C   UNL A   1      38.902  31.537  36.632  1.00  0.00     0.031 A 
ATOM     67  C   UNL A   1      40.354  33.285  35.826  1.00  0.00     0.131 A 
ATOM     68  C   UNL A   1      38.528  32.377  37.695  1.00  0.00     0.055 A 
ATOM     69  C   UNL A   1      40.028  34.089  36.919  1.00  0.00     0.041 A 
ATOM     70  F   UNL A   1      41.212  33.781  34.921  1.00  0.00    -0.206 F 
ATOM     71  C   UNL A   1      39.102  33.640  37.856  1.00  0.00     0.022 A 
BRANCH  68  72
ATOM     72  S   UNL A   1      37.202  31.837  38.809  1.00  0.00     0.124 S 
ATOM     73  O   UNL A   1      37.797  32.082  40.120  1.00  0.00    -0.237 OA
ATOM     74  O   UNL A   1      36.100  32.716  38.436  1.00  0.00    -0.237 OA
ATOM     75  O   UNL A   1      37.021  30.427  38.472  1.00  0.00    -0.744 OA
ENDBRANCH  68  72
ENDBRANCH  51  65
BRANCH  52  76
ATOM     76  C   UNL A   1      41.912  26.479  27.640  1.00  0.00     0.023 A 
ATOM     77  C   UNL A   1      41.694  25.092  27.617  1.00  0.00     0.031 A 
ATOM     78  C   UNL A   1      42.518  27.067  26.512  1.00  0.00     0.131 A 
ATOM     79  C   UNL A   1      42.107  24.338  26.506  1.00  0.00     0.055 A 
ATOM     80  C   UNL A   1      42.865  26.323  25.385  1.00  0.00     0.041 A 
ATOM     81  F   UNL A   1      42.774  28.384  26.487  1.00  0.00    -0.206 F 
ATOM     82  C   UNL A   1      42.671  24.947  25.381  1.00  0.00     0.022 A 
BRANCH  79  83
ATOM     83  S   UNL A   1      41.988  22.528  26.584  1.00  0.00     0.124 S 
ATOM     84  O   UNL A   1      41.845  22.302  28.018  1.00  0.00    -0.237 OA
ATOM     85  O   UNL A   1      40.806  22.265  25.771  1.00  0.00    -0.237 OA
ATOM     86  O   UNL A   1      43.252  22.078  26.004  1.00  0.00    -0.744 OA
ENDBRANCH  79  83
ENDBRANCH  52  76
BRANCH  64  87
ATOM     87  C   UNL A   1      44.885  27.132  33.906  1.00  0.00     0.023 A 
ATOM     88  C   UNL A   1      44.780  25.937  34.641  1.00  0.00     0.031 A 
ATOM     89  C   UNL A   1      46.155  27.724  33.788  1.00  0.00     0.131 A 
ATOM     90  C   UNL A   1      45.912  25.404  35.278  1.00  0.00     0.055 A 
ATOM     91  C   UNL A   1      47.289  27.157  34.374  1.00  0.00     0.041 A 
ATOM     92  F   UNL A   1      46.315  28.867  33.103  1.00  0.00    -0.206 F 
ATOM     93  C   UNL A   1      47.169  25.998  35.136  1.00  0.00     0.022 A 
BRANCH  90  94
ATOM     94  S   UNL A   1      45.702  23.977  36.378  1.00  0.00     0.124 S 
ATOM     95  O   UNL A   1      46.130  22.872  35.527  1.00  0.00    -0.237 OA
ATOM     96  O   UNL A   1      46.588  24.306  37.490  1.00  0.00    -0.237 OA
ATOM     97  O   UNL A   1      44.276  23.997  36.698  1.00  0.00    -0.744 OA
ENDBRANCH  90  94
ENDBRANCH  64  87
ENDBRANCH  38  39
ENDBRANCH  31  33
ENDBRANCH  30  31
ENDBRANCH  29  30
ENDBRANCH  28  29
ENDBRANCH   1  28
TORSDOF 20
ENDMDL
MODEL 3
REMARK VINA RESULT:     -11.8      2.060      2.673
REMARK SMILES COc1ccc(CCc2nnc(NC(=O)[C@@H]3[C@@H](C(=O)OCCOC(=O)c4ccc(-c5c6nc(c(-c7cc(S(=O)(=O)[O-])ccc7F)c7ccc([nH]7)c(-c7cc(S(=O)(=O)[O-])ccc7F)c7nc(c(-c8cc(S(=O)(=O)[O-])ccc8F)c8ccc5[nH]8)C=C7)C=C6)cc4)C3(C)C)s2)cc1
REMARK SMILES IDX 20 1 18 2 19 3 17 4 16 5 89 6 90 7 91 8 14 9 13 10 15 12
REMARK SMILES IDX 12 13 9 14 10 15 92 16 11 17 8 18 7 19 6 20 3 21 4 22 94 23
REMARK SMILES IDX 5 24 93 25 2 26 1 27 21 28 22 29 23 30 24 31 25 32 26 33
REMARK SMILES IDX 27 34 88 35 28 36 87 37 29 38 30 39 31 40 81 41 32 42 86 43
REMARK SMILES IDX 80 44 82 45 33 46 85 47 79 48 78 49 34 51 66 52 46 53 65 54
REMARK SMILES IDX 47 55 50 56 64 57 83 58 48 59 49 60 63 62 84 63 51 64 35 65
REMARK SMILES IDX 36 66 44 67 37 68 43 69 45 70 42 71 38 72 39 73 40 74 41 75
REMARK SMILES IDX 67 76 68 77 76 78 69 79 75 80 77 81 74 82 70 83 71 84 72 85
REMARK SMILES IDX 73 86 52 87 53 88 61 89 54 90 60 91 62 92 59 93 55 94 56 95
REMARK SMILES IDX 57 96 58 97
REMARK H PARENT 13 11 82 50 50 61
REMARK Flexibility Score: inf
ROOT
ATOM      1  O   UNL A   1      31.672  30.539  27.179  1.00  0.00    -0.462 OA
ENDROOT
BRANCH   1   2
ATOM      2  C   UNL A   1      31.830  29.293  26.667  1.00  0.00     0.310 C 
ATOM      3  O   UNL A   1      31.541  28.247  27.233  1.00  0.00    -0.252 OA
BRANCH   2   4
ATOM      4  C   UNL A   1      32.382  29.274  25.287  1.00  0.00     0.118 C 
ATOM      5  C   UNL A   1      31.817  28.200  24.397  1.00  0.00     0.100 C 
ATOM      6  C   UNL A   1      33.324  28.250  24.678  1.00  0.00    -0.009 C 
ATOM      7  C   UNL A   1      33.940  27.175  25.533  1.00  0.00     0.013 C 
ATOM      8  C   UNL A   1      34.269  28.740  23.600  1.00  0.00     0.013 C 
BRANCH   5   9
ATOM      9  C   UNL A   1      31.295  28.200  23.002  1.00  0.00     0.230 C 
ATOM     10  N   UNL A   1      31.362  27.186  22.092  1.00  0.00    -0.300 N 
ATOM     11  H   UNL A   1      30.751  27.274  21.327  1.00  0.00     0.172 HD
ATOM     12  O   UNL A   1      30.616  29.180  22.681  1.00  0.00    -0.274 OA
BRANCH  10  13
ATOM     13  C   UNL A   1      32.141  26.077  22.079  1.00  0.00     0.212 A 
ATOM     14  C   UNL A   1      32.984  23.985  22.770  1.00  0.00     0.119 A 
ATOM     15  N   UNL A   1      33.828  24.643  21.998  1.00  0.00    -0.142 NA
ATOM     16  S   UNL A   1      31.427  24.720  22.833  1.00  0.00    -0.080 S 
ATOM     17  N   UNL A   1      33.350  25.883  21.626  1.00  0.00    -0.120 NA
BRANCH  14  18
ATOM     18  C   UNL A   1      33.283  22.739  23.545  1.00  0.00     0.074 C 
BRANCH  18  19
ATOM     19  C   UNL A   1      32.172  21.684  23.483  1.00  0.00     0.043 C 
BRANCH  19  20
ATOM     20  C   UNL A   1      32.578  20.226  23.581  1.00  0.00    -0.047 A 
ATOM     21  C   UNL A   1      33.456  17.532  23.632  1.00  0.00     0.118 A 
ATOM     22  C   UNL A   1      33.888  18.439  24.596  1.00  0.00     0.046 A 
ATOM     23  C   UNL A   1      32.584  17.972  22.640  1.00  0.00     0.046 A 
ATOM     24  C   UNL A   1      33.465  19.771  24.563  1.00  0.00     0.007 A 
ATOM     25  C   UNL A   1      32.146  19.305  22.618  1.00  0.00     0.007 A 
BRANCH  21  26
ATOM     26  O   UNL A   1      33.921  16.255  23.785  1.00  0.00    -0.497 OA
ATOM     27  C   UNL A   1      34.694  16.019  24.958  1.00  0.00     0.278 C 
ENDBRANCH  21  26
ENDBRANCH  19  20
ENDBRANCH  18  19
ENDBRANCH  14  18
ENDBRANCH  10  13
ENDBRANCH   5   9
ENDBRANCH   2   4
ENDBRANCH   1   2
BRANCH   1  28
ATOM     28  C   UNL A   1      31.523  31.601  26.217  1.00  0.00     0.274 C 
BRANCH  28  29
ATOM     29  C   UNL A   1      31.769  32.955  26.879  1.00  0.00     0.275 C 
BRANCH  29  30
ATOM     30  O   UNL A   1      33.057  32.978  27.519  1.00  0.00    -0.458 OA
BRANCH  30  31
ATOM     31  C   UNL A   1      33.255  34.033  28.344  1.00  0.00     0.338 C 
ATOM     32  O   UNL A   1      32.610  35.066  28.384  1.00  0.00    -0.246 OA
BRANCH  31  33
ATOM     33  C   UNL A   1      34.349  33.737  29.276  1.00  0.00     0.060 A 
ATOM     34  C   UNL A   1      35.626  34.175  28.953  1.00  0.00     0.016 A 
ATOM     35  C   UNL A   1      34.153  32.884  30.364  1.00  0.00     0.016 A 
ATOM     36  C   UNL A   1      36.718  33.663  29.647  1.00  0.00     0.010 A 
ATOM     37  C   UNL A   1      35.259  32.435  31.107  1.00  0.00     0.010 A 
ATOM     38  C   UNL A   1      36.568  32.761  30.715  1.00  0.00    -0.014 A 
BRANCH  38  39
ATOM     39  C   UNL A   1      37.787  32.094  31.290  1.00  0.00     0.031 A 
ATOM     40  C   UNL A   1      38.276  32.447  32.684  1.00  0.00     0.074 A 
ATOM     41  C   UNL A   1      38.367  31.050  30.656  1.00  0.00     0.049 A 
ATOM     42  N   UNL A   1      39.277  31.939  33.366  1.00  0.00    -0.248 NA
ATOM     43  C   UNL A   1      37.530  33.479  33.419  1.00  0.00     0.031 C 
ATOM     44  C   UNL A   1      37.959  30.524  29.351  1.00  0.00     0.029 A 
ATOM     45  N   UNL A   1      39.391  30.212  31.038  1.00  0.00    -0.354 N 
ATOM     46  C   UNL A   1      39.285  32.596  34.594  1.00  0.00     0.074 A 
ATOM     47  C   UNL A   1      38.210  33.563  34.553  1.00  0.00     0.031 C 
ATOM     48  C   UNL A   1      38.670  29.422  29.075  1.00  0.00     0.029 A 
ATOM     49  C   UNL A   1      39.667  29.219  30.122  1.00  0.00     0.049 A 
ATOM     50  H   UNL A   1      39.881  30.313  31.885  1.00  0.00     0.167 HD
ATOM     51  C   UNL A   1      40.092  32.404  35.668  1.00  0.00     0.034 A 
ATOM     52  C   UNL A   1      40.634  28.278  30.088  1.00  0.00     0.034 A 
ATOM     53  C   UNL A   1      41.164  31.440  35.725  1.00  0.00     0.049 A 
ATOM     54  C   UNL A   1      41.630  28.208  31.217  1.00  0.00     0.074 A 
ATOM     55  C   UNL A   1      42.040  31.189  36.769  1.00  0.00     0.029 A 
ATOM     56  N   UNL A   1      41.519  30.578  34.699  1.00  0.00    -0.354 N 
ATOM     57  N   UNL A   1      41.651  28.879  32.344  1.00  0.00    -0.248 NA
ATOM     58  C   UNL A   1      42.746  27.266  31.056  1.00  0.00     0.031 C 
ATOM     59  C   UNL A   1      42.968  30.232  36.346  1.00  0.00     0.029 A 
ATOM     60  C   UNL A   1      42.628  29.828  35.066  1.00  0.00     0.049 A 
ATOM     61  H   UNL A   1      41.053  30.507  33.835  1.00  0.00     0.167 HD
ATOM     62  C   UNL A   1      42.780  28.435  33.028  1.00  0.00     0.074 A 
ATOM     63  C   UNL A   1      43.394  27.417  32.202  1.00  0.00     0.031 C 
ATOM     64  C   UNL A   1      43.264  28.838  34.230  1.00  0.00     0.034 A 
BRANCH  51  65
ATOM     65  C   UNL A   1      39.881  33.305  36.861  1.00  0.00     0.023 A 
ATOM     66  C   UNL A   1      39.220  32.864  38.020  1.00  0.00     0.031 A 
ATOM     67  C   UNL A   1      40.350  34.631  36.832  1.00  0.00     0.131 A 
ATOM     68  C   UNL A   1      39.000  33.756  39.082  1.00  0.00     0.055 A 
ATOM     69  C   UNL A   1      40.186  35.494  37.916  1.00  0.00     0.041 A 
ATOM     70  F   UNL A   1      40.974  35.109  35.744  1.00  0.00    -0.206 F 
ATOM     71  C   UNL A   1      39.498  35.061  39.045  1.00  0.00     0.022 A 
BRANCH  68  72
ATOM     72  S   UNL A   1      37.963  33.223  40.471  1.00  0.00     0.124 S 
ATOM     73  O   UNL A   1      36.658  33.080  39.830  1.00  0.00    -0.237 OA
ATOM     74  O   UNL A   1      38.606  31.982  40.885  1.00  0.00    -0.237 OA
ATOM     75  O   UNL A   1      38.062  34.328  41.420  1.00  0.00    -0.744 OA
ENDBRANCH  68  72
ENDBRANCH  51  65
BRANCH  52  76
ATOM     76  C   UNL A   1      40.781  27.389  28.896  1.00  0.00     0.023 A 
ATOM     77  C   UNL A   1      41.712  27.661  27.881  1.00  0.00     0.031 A 
ATOM     78  C   UNL A   1      39.932  26.277  28.726  1.00  0.00     0.131 A 
ATOM     79  C   UNL A   1      41.749  26.853  26.731  1.00  0.00     0.055 A 
ATOM     80  C   UNL A   1      40.019  25.441  27.615  1.00  0.00     0.041 A 
ATOM     81  F   UNL A   1      39.005  25.983  29.651  1.00  0.00    -0.206 F 
ATOM     82  C   UNL A   1      40.924  25.733  26.602  1.00  0.00     0.022 A 
BRANCH  79  83
ATOM     83  S   UNL A   1      42.827  27.341  25.354  1.00  0.00     0.124 S 
ATOM     84  O   UNL A   1      42.779  26.155  24.506  1.00  0.00    -0.237 OA
ATOM     85  O   UNL A   1      42.148  28.525  24.840  1.00  0.00    -0.237 OA
ATOM     86  O   UNL A   1      44.113  27.594  26.001  1.00  0.00    -0.744 OA
ENDBRANCH  79  83
ENDBRANCH  52  76
BRANCH  64  87
ATOM     87  C   UNL A   1      44.517  28.158  34.726  1.00  0.00     0.023 A 
ATOM     88  C   UNL A   1      44.464  26.926  35.403  1.00  0.00     0.031 A 
ATOM     89  C   UNL A   1      45.775  28.759  34.550  1.00  0.00     0.131 A 
ATOM     90  C   UNL A   1      45.637  26.364  35.931  1.00  0.00     0.055 A 
ATOM     91  C   UNL A   1      46.947  28.166  35.024  1.00  0.00     0.041 A 
ATOM     92  F   UNL A   1      45.887  29.937  33.915  1.00  0.00    -0.206 F 
ATOM     93  C   UNL A   1      46.881  26.969  35.731  1.00  0.00     0.022 A 
BRANCH  90  94
ATOM     94  S   UNL A   1      45.504  24.881  36.967  1.00  0.00     0.124 S 
ATOM     95  O   UNL A   1      44.824  23.948  36.076  1.00  0.00    -0.237 OA
ATOM     96  O   UNL A   1      46.901  24.579  37.261  1.00  0.00    -0.237 OA
ATOM     97  O   UNL A   1      44.715  25.333  38.112  1.00  0.00    -0.744 OA
ENDBRANCH  90  94
ENDBRANCH  64  87
ENDBRANCH  38  39
ENDBRANCH  31  33
ENDBRANCH  30  31
ENDBRANCH  29  30
ENDBRANCH  28  29
ENDBRANCH   1  28
TORSDOF 20
ENDMDL
