MODEL 1
REMARK VINA RESULT:     -12.7      0.000      0.000
REMARK SMILES Cc1cc(C(=O)OCCOC(=O)c2ccc(-c3c4nc(c(-c5cc(S(=O)(=O)[O-])ccc5F)c5ccc([nH]5)c(-c5cc(S(=O)(=O)[O-])ccc5F)c5nc(c(-c6cc(S(=O)(=O)[O-])ccc6F)c6ccc3[nH]6)C=C5)C=C4)cc2)ccc1NS(=O)(=O)c1c(F)cccc1F
REMARK SMILES IDX 8 1 7 2 5 3 6 4 4 5 1 6 2 7 3 8 78 9 77 10 76 11 79 12 80 14
REMARK SMILES IDX 81 15 82 16 83 17 84 18 89 19 85 20 86 21 88 22 90 23 87 24
REMARK SMILES IDX 9 25 10 26 11 27 12 28 13 29 14 30 75 31 15 32 74 33 16 34
REMARK SMILES IDX 17 35 18 36 68 37 19 38 73 39 67 40 69 41 20 42 72 43 66 44
REMARK SMILES IDX 65 45 21 47 53 48 33 49 52 50 34 51 37 52 51 53 70 54 35 55
REMARK SMILES IDX 36 56 50 58 71 59 38 60 22 61 23 62 31 63 24 64 30 65 32 66
REMARK SMILES IDX 29 67 25 68 26 69 27 70 28 71 54 72 55 73 63 74 56 75 62 76
REMARK SMILES IDX 64 77 61 78 57 79 58 80 59 81 60 82 39 83 40 84 48 85 41 86
REMARK SMILES IDX 47 87 49 88 46 89 42 90 43 91 44 92 45 93
REMARK H PARENT 79 13 69 46 37 57
REMARK Flexibility Score: inf
ROOT
ATOM      1  C   UNL A   1      32.496  30.266  27.100  1.00  0.00     0.275 C 
ENDROOT
BRANCH   1   2
ATOM      2  O   UNL A   1      31.622  29.445  26.320  1.00  0.00    -0.458 OA
BRANCH   2   3
ATOM      3  C   UNL A   1      31.501  28.186  26.815  1.00  0.00     0.338 C 
ATOM      4  O   UNL A   1      31.440  27.903  28.003  1.00  0.00    -0.246 OA
BRANCH   3   5
ATOM      5  C   UNL A   1      31.533  27.146  25.753  1.00  0.00     0.060 A 
ATOM      6  C   UNL A   1      33.627  25.902  22.858  1.00  0.00     0.046 C 
ATOM      7  C   UNL A   1      32.699  25.889  24.041  1.00  0.00    -0.026 A 
ATOM      8  C   UNL A   1      32.565  27.048  24.817  1.00  0.00     0.021 A 
ATOM      9  C   UNL A   1      31.876  24.795  24.351  1.00  0.00     0.052 A 
ATOM     10  C   UNL A   1      30.669  25.010  25.008  1.00  0.00     0.028 A 
ATOM     11  C   UNL A   1      30.510  26.188  25.738  1.00  0.00     0.018 A 
BRANCH   9  12
ATOM     12  N   UNL A   1      32.393  23.479  24.135  1.00  0.00    -0.279 N 
ATOM     13  H   UNL A   1      32.442  23.134  23.214  1.00  0.00     0.180 HD
BRANCH  12  14
ATOM     14  S   UNL A   1      32.928  22.488  25.412  1.00  0.00     0.267 S 
ATOM     15  O   UNL A   1      32.547  23.190  26.617  1.00  0.00    -0.201 OA
ATOM     16  O   UNL A   1      32.385  21.170  25.131  1.00  0.00    -0.201 OA
BRANCH  14  17
ATOM     17  C   UNL A   1      34.678  22.314  25.406  1.00  0.00     0.158 A 
ATOM     18  C   UNL A   1      35.462  23.461  25.492  1.00  0.00     0.146 A 
ATOM     19  C   UNL A   1      35.304  21.092  25.209  1.00  0.00     0.146 A 
ATOM     20  F   UNL A   1      34.935  24.648  25.818  1.00  0.00    -0.205 F 
ATOM     21  C   UNL A   1      36.837  23.411  25.262  1.00  0.00     0.041 A 
ATOM     22  C   UNL A   1      36.676  21.033  24.941  1.00  0.00     0.041 A 
ATOM     23  F   UNL A   1      34.611  19.947  25.210  1.00  0.00    -0.205 F 
ATOM     24  C   UNL A   1      37.442  22.199  24.944  1.00  0.00     0.006 A 
ENDBRANCH  14  17
ENDBRANCH  12  14
ENDBRANCH   9  12
ENDBRANCH   3   5
ENDBRANCH   2   3
ENDBRANCH   1   2
BRANCH   1  25
ATOM     25  C   UNL A   1      33.990  29.997  26.861  1.00  0.00     0.275 C 
BRANCH  25  26
ATOM     26  O   UNL A   1      34.856  29.740  27.996  1.00  0.00    -0.458 OA
BRANCH  26  27
ATOM     27  C   UNL A   1      35.902  30.487  28.444  1.00  0.00     0.338 C 
ATOM     28  O   UNL A   1      35.709  31.600  28.921  1.00  0.00    -0.246 OA
BRANCH  27  29
ATOM     29  C   UNL A   1      37.224  29.827  28.538  1.00  0.00     0.060 A 
ATOM     30  C   UNL A   1      37.454  28.964  29.620  1.00  0.00     0.016 A 
ATOM     31  C   UNL A   1      38.147  29.905  27.501  1.00  0.00     0.016 A 
ATOM     32  C   UNL A   1      38.495  28.039  29.572  1.00  0.00     0.010 A 
ATOM     33  C   UNL A   1      39.138  28.945  27.414  1.00  0.00     0.010 A 
ATOM     34  C   UNL A   1      39.304  27.996  28.434  1.00  0.00    -0.014 A 
BRANCH  34  35
ATOM     35  C   UNL A   1      40.541  27.220  28.388  1.00  0.00     0.031 A 
ATOM     36  C   UNL A   1      40.593  25.751  28.238  1.00  0.00     0.074 A 
ATOM     37  C   UNL A   1      41.655  27.955  28.592  1.00  0.00     0.049 A 
ATOM     38  N   UNL A   1      41.489  24.992  28.776  1.00  0.00    -0.248 NA
ATOM     39  C   UNL A   1      39.609  24.999  27.468  1.00  0.00     0.031 C 
ATOM     40  C   UNL A   1      43.048  27.551  28.580  1.00  0.00     0.029 A 
ATOM     41  N   UNL A   1      41.682  29.242  29.135  1.00  0.00    -0.354 N 
ATOM     42  C   UNL A   1      41.383  23.737  28.206  1.00  0.00     0.074 A 
ATOM     43  C   UNL A   1      40.137  23.767  27.478  1.00  0.00     0.031 C 
ATOM     44  C   UNL A   1      43.722  28.389  29.392  1.00  0.00     0.029 A 
ATOM     45  C   UNL A   1      42.732  29.247  30.042  1.00  0.00     0.049 A 
ATOM     46  H   UNL A   1      41.081  29.992  28.919  1.00  0.00     0.167 HD
ATOM     47  C   UNL A   1      42.441  22.874  28.269  1.00  0.00     0.034 A 
ATOM     48  C   UNL A   1      42.530  29.375  31.386  1.00  0.00     0.034 A 
ATOM     49  C   UNL A   1      43.542  23.467  29.019  1.00  0.00     0.049 A 
ATOM     50  C   UNL A   1      43.178  28.227  32.117  1.00  0.00     0.074 A 
ATOM     51  C   UNL A   1      44.657  24.172  28.597  1.00  0.00     0.029 A 
ATOM     52  N   UNL A   1      43.427  23.672  30.387  1.00  0.00    -0.354 N 
ATOM     53  N   UNL A   1      43.258  27.011  31.646  1.00  0.00    -0.248 NA
ATOM     54  C   UNL A   1      43.835  28.396  33.404  1.00  0.00     0.031 C 
ATOM     55  C   UNL A   1      45.147  24.903  29.708  1.00  0.00     0.029 A 
ATOM     56  C   UNL A   1      44.361  24.597  30.808  1.00  0.00     0.049 A 
ATOM     57  H   UNL A   1      42.776  23.223  30.972  1.00  0.00     0.167 HD
ATOM     58  C   UNL A   1      44.056  26.271  32.484  1.00  0.00     0.074 A 
ATOM     59  C   UNL A   1      44.367  27.176  33.582  1.00  0.00     0.031 C 
ATOM     60  C   UNL A   1      44.455  24.995  32.201  1.00  0.00     0.034 A 
BRANCH  47  61
ATOM     61  C   UNL A   1      42.634  21.658  27.379  1.00  0.00     0.023 A 
ATOM     62  C   UNL A   1      43.698  21.654  26.444  1.00  0.00     0.031 A 
ATOM     63  C   UNL A   1      41.817  20.514  27.363  1.00  0.00     0.131 A 
ATOM     64  C   UNL A   1      43.849  20.627  25.492  1.00  0.00     0.055 A 
ATOM     65  C   UNL A   1      41.947  19.504  26.394  1.00  0.00     0.041 A 
ATOM     66  F   UNL A   1      40.887  20.306  28.305  1.00  0.00    -0.206 F 
ATOM     67  C   UNL A   1      42.955  19.565  25.440  1.00  0.00     0.022 A 
BRANCH  64  68
ATOM     68  S   UNL A   1      45.226  20.712  24.309  1.00  0.00     0.124 S 
ATOM     69  O   UNL A   1      46.360  21.022  25.173  1.00  0.00    -0.237 OA
ATOM     70  O   UNL A   1      45.209  19.379  23.716  1.00  0.00    -0.237 OA
ATOM     71  O   UNL A   1      44.830  21.793  23.405  1.00  0.00    -0.744 OA
ENDBRANCH  64  68
ENDBRANCH  47  61
BRANCH  48  72
ATOM     72  C   UNL A   1      41.281  30.071  31.843  1.00  0.00     0.023 A 
ATOM     73  C   UNL A   1      41.042  31.396  31.410  1.00  0.00     0.031 A 
ATOM     74  C   UNL A   1      40.222  29.415  32.488  1.00  0.00     0.131 A 
ATOM     75  C   UNL A   1      39.762  31.968  31.498  1.00  0.00     0.055 A 
ATOM     76  C   UNL A   1      38.960  30.013  32.635  1.00  0.00     0.041 A 
ATOM     77  F   UNL A   1      40.358  28.153  32.921  1.00  0.00    -0.206 F 
ATOM     78  C   UNL A   1      38.714  31.282  32.110  1.00  0.00     0.022 A 
BRANCH  75  79
ATOM     79  S   UNL A   1      39.435  33.510  30.591  1.00  0.00     0.124 S 
ATOM     80  O   UNL A   1      40.782  33.947  30.240  1.00  0.00    -0.237 OA
ATOM     81  O   UNL A   1      38.600  33.054  29.483  1.00  0.00    -0.237 OA
ATOM     82  O   UNL A   1      38.737  34.339  31.568  1.00  0.00    -0.744 OA
ENDBRANCH  75  79
ENDBRANCH  48  72
BRANCH  60  83
ATOM     83  C   UNL A   1      45.125  24.065  33.181  1.00  0.00     0.023 A 
ATOM     84  C   UNL A   1      46.445  24.249  33.608  1.00  0.00     0.031 A 
ATOM     85  C   UNL A   1      44.424  22.995  33.791  1.00  0.00     0.131 A 
ATOM     86  C   UNL A   1      47.060  23.341  34.482  1.00  0.00     0.055 A 
ATOM     87  C   UNL A   1      45.007  22.150  34.738  1.00  0.00     0.041 A 
ATOM     88  F   UNL A   1      43.141  22.733  33.503  1.00  0.00    -0.206 F 
ATOM     89  C   UNL A   1      46.344  22.304  35.072  1.00  0.00     0.022 A 
BRANCH  86  90
ATOM     90  S   UNL A   1      48.843  23.503  34.744  1.00  0.00     0.124 S 
ATOM     91  O   UNL A   1      49.352  22.323  34.048  1.00  0.00    -0.237 OA
ATOM     92  O   UNL A   1      49.138  24.784  34.111  1.00  0.00    -0.237 OA
ATOM     93  O   UNL A   1      48.981  23.476  36.197  1.00  0.00    -0.744 OA
ENDBRANCH  86  90
ENDBRANCH  60  83
ENDBRANCH  34  35
ENDBRANCH  27  29
ENDBRANCH  26  27
ENDBRANCH  25  26
ENDBRANCH   1  25
TORSDOF 17
ENDMDL
MODEL 2
REMARK VINA RESULT:     -12.6      1.637      2.476
REMARK SMILES Cc1cc(C(=O)OCCOC(=O)c2ccc(-c3c4nc(c(-c5cc(S(=O)(=O)[O-])ccc5F)c5ccc([nH]5)c(-c5cc(S(=O)(=O)[O-])ccc5F)c5nc(c(-c6cc(S(=O)(=O)[O-])ccc6F)c6ccc3[nH]6)C=C5)C=C4)cc2)ccc1NS(=O)(=O)c1c(F)cccc1F
REMARK SMILES IDX 8 1 7 2 5 3 6 4 4 5 1 6 2 7 3 8 78 9 77 10 76 11 79 12 80 14
REMARK SMILES IDX 81 15 82 16 83 17 84 18 89 19 85 20 86 21 88 22 90 23 87 24
REMARK SMILES IDX 9 25 10 26 11 27 12 28 13 29 14 30 75 31 15 32 74 33 16 34
REMARK SMILES IDX 17 35 18 36 68 37 19 38 73 39 67 40 69 41 20 42 72 43 66 44
REMARK SMILES IDX 65 45 21 47 53 48 33 49 52 50 34 51 37 52 51 53 70 54 35 55
REMARK SMILES IDX 36 56 50 58 71 59 38 60 22 61 23 62 31 63 24 64 30 65 32 66
REMARK SMILES IDX 29 67 25 68 26 69 27 70 28 71 54 72 55 73 63 74 56 75 62 76
REMARK SMILES IDX 64 77 61 78 57 79 58 80 59 81 60 82 39 83 40 84 48 85 41 86
REMARK SMILES IDX 47 87 49 88 46 89 42 90 43 91 44 92 45 93
REMARK H PARENT 79 13 69 46 37 57
REMARK Flexibility Score: inf
ROOT
ATOM      1  C   UNL A   1      32.578  29.720  26.476  1.00  0.00     0.275 C 
ENDROOT
BRANCH   1   2
ATOM      2  O   UNL A   1      32.976  28.348  26.411  1.00  0.00    -0.458 OA
BRANCH   2   3
ATOM      3  C   UNL A   1      32.344  27.662  25.424  1.00  0.00     0.338 C 
ATOM      4  O   UNL A   1      31.157  27.765  25.148  1.00  0.00    -0.246 OA
BRANCH   3   5
ATOM      5  C   UNL A   1      33.233  26.684  24.744  1.00  0.00     0.060 A 
ATOM      6  C   UNL A   1      35.729  23.929  25.449  1.00  0.00     0.046 C 
ATOM      7  C   UNL A   1      34.637  24.709  24.770  1.00  0.00    -0.026 A 
ATOM      8  C   UNL A   1      34.056  25.794  25.439  1.00  0.00     0.021 A 
ATOM      9  C   UNL A   1      34.237  24.466  23.447  1.00  0.00     0.052 A 
ATOM     10  C   UNL A   1      33.722  25.509  22.684  1.00  0.00     0.028 A 
ATOM     11  C   UNL A   1      33.190  26.616  23.345  1.00  0.00     0.018 A 
BRANCH   9  12
ATOM     12  N   UNL A   1      34.213  23.112  22.987  1.00  0.00    -0.279 N 
ATOM     13  H   UNL A   1      34.870  22.828  22.311  1.00  0.00     0.180 HD
BRANCH  12  14
ATOM     14  S   UNL A   1      33.088  21.973  23.567  1.00  0.00     0.267 S 
ATOM     15  O   UNL A   1      32.311  21.589  22.409  1.00  0.00    -0.201 OA
ATOM     16  O   UNL A   1      33.876  20.981  24.279  1.00  0.00    -0.201 OA
BRANCH  14  17
ATOM     17  C   UNL A   1      31.999  22.683  24.751  1.00  0.00     0.158 A 
ATOM     18  C   UNL A   1      31.069  23.624  24.319  1.00  0.00     0.146 A 
ATOM     19  C   UNL A   1      32.104  22.424  26.109  1.00  0.00     0.146 A 
ATOM     20  F   UNL A   1      30.821  23.821  23.018  1.00  0.00    -0.205 F 
ATOM     21  C   UNL A   1      30.341  24.387  25.233  1.00  0.00     0.041 A 
ATOM     22  C   UNL A   1      31.407  23.206  27.037  1.00  0.00     0.041 A 
ATOM     23  F   UNL A   1      32.915  21.465  26.574  1.00  0.00    -0.205 F 
ATOM     24  C   UNL A   1      30.540  24.207  26.599  1.00  0.00     0.006 A 
ENDBRANCH  14  17
ENDBRANCH  12  14
ENDBRANCH   9  12
ENDBRANCH   3   5
ENDBRANCH   2   3
ENDBRANCH   1   2
BRANCH   1  25
ATOM     25  C   UNL A   1      33.591  30.636  27.180  1.00  0.00     0.275 C 
BRANCH  25  26
ATOM     26  O   UNL A   1      34.776  30.055  27.781  1.00  0.00    -0.458 OA
BRANCH  26  27
ATOM     27  C   UNL A   1      35.602  30.602  28.716  1.00  0.00     0.338 C 
ATOM     28  O   UNL A   1      35.154  31.354  29.574  1.00  0.00    -0.246 OA
BRANCH  27  29
ATOM     29  C   UNL A   1      36.988  30.087  28.790  1.00  0.00     0.060 A 
ATOM     30  C   UNL A   1      37.306  29.197  29.827  1.00  0.00     0.016 A 
ATOM     31  C   UNL A   1      37.902  30.321  27.769  1.00  0.00     0.016 A 
ATOM     32  C   UNL A   1      38.442  28.396  29.742  1.00  0.00     0.010 A 
ATOM     33  C   UNL A   1      38.994  29.483  27.642  1.00  0.00     0.010 A 
ATOM     34  C   UNL A   1      39.258  28.503  28.613  1.00  0.00    -0.014 A 
BRANCH  34  35
ATOM     35  C   UNL A   1      40.573  27.871  28.540  1.00  0.00     0.031 A 
ATOM     36  C   UNL A   1      40.796  26.462  28.154  1.00  0.00     0.074 A 
ATOM     37  C   UNL A   1      41.584  28.665  28.952  1.00  0.00     0.049 A 
ATOM     38  N   UNL A   1      41.734  25.713  28.631  1.00  0.00    -0.248 NA
ATOM     39  C   UNL A   1      39.951  25.762  27.194  1.00  0.00     0.031 C 
ATOM     40  C   UNL A   1      43.011  28.407  28.987  1.00  0.00     0.029 A 
ATOM     41  N   UNL A   1      41.435  29.836  29.700  1.00  0.00    -0.354 N 
ATOM     42  C   UNL A   1      41.802  24.571  27.854  1.00  0.00     0.074 A 
ATOM     43  C   UNL A   1      40.609  24.604  27.043  1.00  0.00     0.031 C 
ATOM     44  C   UNL A   1      43.536  29.155  29.978  1.00  0.00     0.029 A 
ATOM     45  C   UNL A   1      42.418  29.787  30.678  1.00  0.00     0.049 A 
ATOM     46  H   UNL A   1      40.770  30.549  29.563  1.00  0.00     0.167 HD
ATOM     47  C   UNL A   1      42.943  23.817  27.860  1.00  0.00     0.034 A 
ATOM     48  C   UNL A   1      42.118  29.661  32.003  1.00  0.00     0.034 A 
ATOM     49  C   UNL A   1      43.922  24.377  28.784  1.00  0.00     0.049 A 
ATOM     50  C   UNL A   1      42.842  28.473  32.585  1.00  0.00     0.074 A 
ATOM     51  C   UNL A   1      44.978  25.250  28.577  1.00  0.00     0.029 A 
ATOM     52  N   UNL A   1      43.699  24.331  30.154  1.00  0.00    -0.354 N 
ATOM     53  N   UNL A   1      43.084  27.370  31.928  1.00  0.00    -0.248 NA
ATOM     54  C   UNL A   1      43.393  28.480  33.931  1.00  0.00     0.031 C 
ATOM     55  C   UNL A   1      45.312  25.822  29.829  1.00  0.00     0.029 A 
ATOM     56  C   UNL A   1      44.497  25.256  30.796  1.00  0.00     0.049 A 
ATOM     57  H   UNL A   1      43.065  23.726  30.602  1.00  0.00     0.167 HD
ATOM     58  C   UNL A   1      43.904  26.578  32.695  1.00  0.00     0.074 A 
ATOM     59  C   UNL A   1      44.043  27.306  33.948  1.00  0.00     0.031 C 
ATOM     60  C   UNL A   1      44.458  25.415  32.238  1.00  0.00     0.034 A 
BRANCH  47  61
ATOM     61  C   UNL A   1      43.325  22.798  26.801  1.00  0.00     0.023 A 
ATOM     62  C   UNL A   1      42.766  21.499  26.865  1.00  0.00     0.031 A 
ATOM     63  C   UNL A   1      44.233  23.009  25.748  1.00  0.00     0.131 A 
ATOM     64  C   UNL A   1      43.183  20.465  26.004  1.00  0.00     0.055 A 
ATOM     65  C   UNL A   1      44.674  21.972  24.909  1.00  0.00     0.041 A 
ATOM     66  F   UNL A   1      44.701  24.232  25.463  1.00  0.00    -0.206 F 
ATOM     67  C   UNL A   1      44.163  20.687  25.045  1.00  0.00     0.022 A 
BRANCH  64  68
ATOM     68  S   UNL A   1      42.435  18.818  26.173  1.00  0.00     0.124 S 
ATOM     69  O   UNL A   1      43.277  18.003  25.304  1.00  0.00    -0.237 OA
ATOM     70  O   UNL A   1      42.551  18.568  27.605  1.00  0.00    -0.237 OA
ATOM     71  O   UNL A   1      41.067  19.015  25.692  1.00  0.00    -0.744 OA
ENDBRANCH  64  68
ENDBRANCH  47  61
BRANCH  48  72
ATOM     72  C   UNL A   1      40.774  30.142  32.467  1.00  0.00     0.023 A 
ATOM     73  C   UNL A   1      40.358  31.446  32.110  1.00  0.00     0.031 A 
ATOM     74  C   UNL A   1      39.806  29.302  33.038  1.00  0.00     0.131 A 
ATOM     75  C   UNL A   1      39.008  31.824  32.195  1.00  0.00     0.055 A 
ATOM     76  C   UNL A   1      38.469  29.705  33.184  1.00  0.00     0.041 A 
ATOM     77  F   UNL A   1      40.112  28.046  33.394  1.00  0.00    -0.206 F 
ATOM     78  C   UNL A   1      38.056  30.959  32.733  1.00  0.00     0.022 A 
BRANCH  75  79
ATOM     79  S   UNL A   1      38.483  33.362  31.377  1.00  0.00     0.124 S 
ATOM     80  O   UNL A   1      37.089  33.467  31.793  1.00  0.00    -0.237 OA
ATOM     81  O   UNL A   1      39.398  34.349  31.945  1.00  0.00    -0.237 OA
ATOM     82  O   UNL A   1      38.700  33.086  29.961  1.00  0.00    -0.744 OA
ENDBRANCH  75  79
ENDBRANCH  48  72
BRANCH  60  83
ATOM     83  C   UNL A   1      45.163  24.399  33.102  1.00  0.00     0.023 A 
ATOM     84  C   UNL A   1      46.449  24.611  33.611  1.00  0.00     0.031 A 
ATOM     85  C   UNL A   1      44.525  23.205  33.519  1.00  0.00     0.131 A 
ATOM     86  C   UNL A   1      47.101  23.629  34.371  1.00  0.00     0.055 A 
ATOM     87  C   UNL A   1      45.138  22.272  34.359  1.00  0.00     0.041 A 
ATOM     88  F   UNL A   1      43.276  22.899  33.138  1.00  0.00    -0.206 F 
ATOM     89  C   UNL A   1      46.447  22.468  34.772  1.00  0.00     0.022 A 
BRANCH  86  90
ATOM     90  S   UNL A   1      48.856  23.876  34.734  1.00  0.00     0.124 S 
ATOM     91  O   UNL A   1      49.108  25.172  34.109  1.00  0.00    -0.237 OA
ATOM     92  O   UNL A   1      48.880  23.863  36.193  1.00  0.00    -0.237 OA
ATOM     93  O   UNL A   1      49.505  22.738  34.088  1.00  0.00    -0.744 OA
ENDBRANCH  86  90
ENDBRANCH  60  83
ENDBRANCH  34  35
ENDBRANCH  27  29
ENDBRANCH  26  27
ENDBRANCH  25  26
ENDBRANCH   1  25
TORSDOF 17
ENDMDL
MODEL 3
REMARK VINA RESULT:     -12.5      1.636      1.966
REMARK SMILES Cc1cc(C(=O)OCCOC(=O)c2ccc(-c3c4nc(c(-c5cc(S(=O)(=O)[O-])ccc5F)c5ccc([nH]5)c(-c5cc(S(=O)(=O)[O-])ccc5F)c5nc(c(-c6cc(S(=O)(=O)[O-])ccc6F)c6ccc3[nH]6)C=C5)C=C4)cc2)ccc1NS(=O)(=O)c1c(F)cccc1F
REMARK SMILES IDX 8 1 7 2 5 3 6 4 4 5 1 6 2 7 3 8 78 9 77 10 76 11 79 12 80 14
REMARK SMILES IDX 81 15 82 16 83 17 84 18 89 19 85 20 86 21 88 22 90 23 87 24
REMARK SMILES IDX 9 25 10 26 11 27 12 28 13 29 14 30 75 31 15 32 74 33 16 34
REMARK SMILES IDX 17 35 18 36 68 37 19 38 73 39 67 40 69 41 20 42 72 43 66 44
REMARK SMILES IDX 65 45 21 47 53 48 33 49 52 50 34 51 37 52 51 53 70 54 35 55
REMARK SMILES IDX 36 56 50 58 71 59 38 60 22 61 23 62 31 63 24 64 30 65 32 66
REMARK SMILES IDX 29 67 25 68 26 69 27 70 28 71 54 72 55 73 63 74 56 75 62 76
REMARK SMILES IDX 64 77 61 78 57 79 58 80 59 81 60 82 39 83 40 84 48 85 41 86
REMARK SMILES IDX 47 87 49 88 46 89 42 90 43 91 44 92 45 93
REMARK H PARENT 79 13 69 46 37 57
REMARK Flexibility Score: inf
ROOT
ATOM      1  C   UNL A   1      32.790  29.785  26.606  1.00  0.00     0.275 C 
ENDROOT
BRANCH   1   2
ATOM      2  O   UNL A   1      32.827  29.040  25.386  1.00  0.00    -0.458 OA
BRANCH   2   3
ATOM      3  C   UNL A   1      31.624  29.002  24.755  1.00  0.00     0.338 C 
ATOM      4  O   UNL A   1      30.833  29.932  24.699  1.00  0.00    -0.246 OA
BRANCH   3   5
ATOM      5  C   UNL A   1      31.313  27.661  24.195  1.00  0.00     0.060 A 
ATOM      6  C   UNL A   1      32.961  24.540  22.833  1.00  0.00     0.046 C 
ATOM      7  C   UNL A   1      31.972  25.423  23.542  1.00  0.00    -0.026 A 
ATOM      8  C   UNL A   1      32.298  26.764  23.776  1.00  0.00     0.021 A 
ATOM      9  C   UNL A   1      30.683  24.992  23.894  1.00  0.00     0.052 A 
ATOM     10  C   UNL A   1      29.647  25.918  23.967  1.00  0.00     0.028 A 
ATOM     11  C   UNL A   1      29.970  27.263  24.147  1.00  0.00     0.018 A 
BRANCH   9  12
ATOM     12  N   UNL A   1      30.520  23.642  24.336  1.00  0.00    -0.279 N 
ATOM     13  H   UNL A   1      30.135  22.982  23.714  1.00  0.00     0.180 HD
BRANCH  12  14
ATOM     14  S   UNL A   1      30.967  23.132  25.897  1.00  0.00     0.267 S 
ATOM     15  O   UNL A   1      31.182  24.353  26.643  1.00  0.00    -0.201 OA
ATOM     16  O   UNL A   1      29.934  22.197  26.309  1.00  0.00    -0.201 OA
BRANCH  14  17
ATOM     17  C   UNL A   1      32.475  22.227  25.875  1.00  0.00     0.158 A 
ATOM     18  C   UNL A   1      33.328  22.327  26.971  1.00  0.00     0.146 A 
ATOM     19  C   UNL A   1      32.895  21.508  24.767  1.00  0.00     0.146 A 
ATOM     20  F   UNL A   1      32.931  22.887  28.120  1.00  0.00    -0.205 F 
ATOM     21  C   UNL A   1      34.628  21.825  26.917  1.00  0.00     0.041 A 
ATOM     22  C   UNL A   1      34.208  21.031  24.687  1.00  0.00     0.041 A 
ATOM     23  F   UNL A   1      32.083  21.301  23.722  1.00  0.00    -0.205 F 
ATOM     24  C   UNL A   1      35.086  21.210  25.755  1.00  0.00     0.006 A 
ENDBRANCH  14  17
ENDBRANCH  12  14
ENDBRANCH   9  12
ENDBRANCH   3   5
ENDBRANCH   2   3
ENDBRANCH   1   2
BRANCH   1  25
ATOM     25  C   UNL A   1      34.144  30.385  27.017  1.00  0.00     0.275 C 
BRANCH  25  26
ATOM     26  O   UNL A   1      34.651  30.145  28.354  1.00  0.00    -0.458 OA
BRANCH  26  27
ATOM     27  C   UNL A   1      35.816  30.585  28.906  1.00  0.00     0.338 C 
ATOM     28  O   UNL A   1      35.817  31.549  29.663  1.00  0.00    -0.246 OA
BRANCH  27  29
ATOM     29  C   UNL A   1      37.017  29.736  28.737  1.00  0.00     0.060 A 
ATOM     30  C   UNL A   1      37.798  29.920  27.586  1.00  0.00     0.016 A 
ATOM     31  C   UNL A   1      37.470  28.911  29.761  1.00  0.00     0.016 A 
ATOM     32  C   UNL A   1      39.107  29.447  27.543  1.00  0.00     0.010 A 
ATOM     33  C   UNL A   1      38.789  28.499  29.755  1.00  0.00     0.010 A 
ATOM     34  C   UNL A   1      39.620  28.783  28.659  1.00  0.00    -0.014 A 
BRANCH  34  35
ATOM     35  C   UNL A   1      40.893  28.067  28.622  1.00  0.00     0.031 A 
ATOM     36  C   UNL A   1      41.038  26.652  28.221  1.00  0.00     0.074 A 
ATOM     37  C   UNL A   1      41.938  28.787  29.084  1.00  0.00     0.049 A 
ATOM     38  N   UNL A   1      41.907  25.837  28.718  1.00  0.00    -0.248 NA
ATOM     39  C   UNL A   1      40.185  26.023  27.219  1.00  0.00     0.031 C 
ATOM     40  C   UNL A   1      43.343  28.435  29.165  1.00  0.00     0.029 A 
ATOM     41  N   UNL A   1      41.838  29.954  29.846  1.00  0.00    -0.354 N 
ATOM     42  C   UNL A   1      41.929  24.704  27.925  1.00  0.00     0.074 A 
ATOM     43  C   UNL A   1      40.772  24.827  27.072  1.00  0.00     0.031 C 
ATOM     44  C   UNL A   1      43.879  29.132  30.187  1.00  0.00     0.029 A 
ATOM     45  C   UNL A   1      42.779  29.826  30.857  1.00  0.00     0.049 A 
ATOM     46  H   UNL A   1      41.226  30.711  29.697  1.00  0.00     0.167 HD
ATOM     47  C   UNL A   1      43.018  23.877  27.959  1.00  0.00     0.034 A 
ATOM     48  C   UNL A   1      42.424  29.700  32.169  1.00  0.00     0.034 A 
ATOM     49  C   UNL A   1      43.996  24.357  28.927  1.00  0.00     0.049 A 
ATOM     50  C   UNL A   1      43.046  28.459  32.756  1.00  0.00     0.074 A 
ATOM     51  C   UNL A   1      45.114  25.162  28.772  1.00  0.00     0.029 A 
ATOM     52  N   UNL A   1      43.720  24.306  30.286  1.00  0.00    -0.354 N 
ATOM     53  N   UNL A   1      43.241  27.353  32.089  1.00  0.00    -0.248 NA
ATOM     54  C   UNL A   1      43.548  28.411  34.120  1.00  0.00     0.031 C 
ATOM     55  C   UNL A   1      45.439  25.693  30.044  1.00  0.00     0.029 A 
ATOM     56  C   UNL A   1      44.553  25.167  30.972  1.00  0.00     0.049 A 
ATOM     57  H   UNL A   1      43.033  23.738  30.701  1.00  0.00     0.167 HD
ATOM     58  C   UNL A   1      43.978  26.498  32.871  1.00  0.00     0.074 A 
ATOM     59  C   UNL A   1      44.118  27.197  34.141  1.00  0.00     0.031 C 
ATOM     60  C   UNL A   1      44.472  25.308  32.415  1.00  0.00     0.034 A 
BRANCH  47  61
ATOM     61  C   UNL A   1      43.371  22.851  26.897  1.00  0.00     0.023 A 
ATOM     62  C   UNL A   1      42.768  21.570  26.952  1.00  0.00     0.031 A 
ATOM     63  C   UNL A   1      44.291  23.035  25.850  1.00  0.00     0.131 A 
ATOM     64  C   UNL A   1      43.155  20.527  26.088  1.00  0.00     0.055 A 
ATOM     65  C   UNL A   1      44.702  21.988  25.008  1.00  0.00     0.041 A 
ATOM     66  F   UNL A   1      44.802  24.244  25.573  1.00  0.00    -0.206 F 
ATOM     67  C   UNL A   1      44.148  20.720  25.135  1.00  0.00     0.022 A 
BRANCH  64  68
ATOM     68  S   UNL A   1      42.351  18.905  26.244  1.00  0.00     0.124 S 
ATOM     69  O   UNL A   1      42.438  18.651  27.678  1.00  0.00    -0.237 OA
ATOM     70  O   UNL A   1      41.017  19.167  25.714  1.00  0.00    -0.237 OA
ATOM     71  O   UNL A   1      43.182  18.032  25.414  1.00  0.00    -0.744 OA
ENDBRANCH  64  68
ENDBRANCH  47  61
BRANCH  48  72
ATOM     72  C   UNL A   1      41.097  30.262  32.592  1.00  0.00     0.023 A 
ATOM     73  C   UNL A   1      40.862  31.647  32.432  1.00  0.00     0.031 A 
ATOM     74  C   UNL A   1      39.991  29.466  32.925  1.00  0.00     0.131 A 
ATOM     75  C   UNL A   1      39.559  32.170  32.466  1.00  0.00     0.055 A 
ATOM     76  C   UNL A   1      38.697  30.002  33.025  1.00  0.00     0.041 A 
ATOM     77  F   UNL A   1      40.122  28.141  33.084  1.00  0.00    -0.206 F 
ATOM     78  C   UNL A   1      38.469  31.354  32.763  1.00  0.00     0.022 A 
BRANCH  75  79
ATOM     79  S   UNL A   1      39.290  33.873  31.884  1.00  0.00     0.124 S 
ATOM     80  O   UNL A   1      40.580  34.196  31.284  1.00  0.00    -0.237 OA
ATOM     81  O   UNL A   1      38.173  33.716  30.957  1.00  0.00    -0.237 OA
ATOM     82  O   UNL A   1      38.961  34.602  33.105  1.00  0.00    -0.744 OA
ENDBRANCH  75  79
ENDBRANCH  48  72
BRANCH  60  83
ATOM     83  C   UNL A   1      45.077  24.235  33.286  1.00  0.00     0.023 A 
ATOM     84  C   UNL A   1      46.330  24.379  33.891  1.00  0.00     0.031 A 
ATOM     85  C   UNL A   1      44.369  23.052  33.610  1.00  0.00     0.131 A 
ATOM     86  C   UNL A   1      46.891  23.346  34.656  1.00  0.00     0.055 A 
ATOM     87  C   UNL A   1      44.887  22.066  34.454  1.00  0.00     0.041 A 
ATOM     88  F   UNL A   1      43.141  22.807  33.131  1.00  0.00    -0.206 F 
ATOM     89  C   UNL A   1      46.169  22.198  34.965  1.00  0.00     0.022 A 
BRANCH  86  90
ATOM     90  S   UNL A   1      48.624  23.513  35.151  1.00  0.00     0.124 S 
ATOM     91  O   UNL A   1      49.316  22.921  34.008  1.00  0.00    -0.237 OA
ATOM     92  O   UNL A   1      48.771  24.957  35.298  1.00  0.00    -0.237 OA
ATOM     93  O   UNL A   1      48.703  22.747  36.391  1.00  0.00    -0.744 OA
ENDBRANCH  86  90
ENDBRANCH  60  83
ENDBRANCH  34  35
ENDBRANCH  27  29
ENDBRANCH  26  27
ENDBRANCH  25  26
ENDBRANCH   1  25
TORSDOF 17
ENDMDL
