MODEL 1
REMARK VINA RESULT:     -13.1      0.000      0.000
REMARK SMILES O=C(OCCOC(=O)c1ccc(-n2cc(CSc3nc4ccccc4c(=O)n3-c3ccc(Br)cc3)nn2)cc1)c1ccc(-c2c3nc(c(-c4cc(S(=O)(=O)[O-])ccc4F)c4ccc([nH]4)c(-c4cc(S(=O)(=O)[O-])ccc4F)c4nc(c(-c5cc(S(=O)(=O)[O-])ccc5F)c5ccc2[nH]5)C=C4)C=C3)cc1
REMARK SMILES IDX 5 1 4 2 3 3 2 4 1 5 40 6 41 7 102 8 42 9 101 10 43 11 44 12
REMARK SMILES IDX 45 13 95 14 46 15 100 16 94 17 96 18 47 19 99 20 93 21 92 22
REMARK SMILES IDX 48 24 80 25 60 26 79 27 61 28 64 29 78 30 97 31 62 32 63 33
REMARK SMILES IDX 77 35 98 36 65 37 49 38 50 39 58 40 51 41 57 42 59 43 56 44
REMARK SMILES IDX 52 45 53 46 54 47 55 48 81 49 82 50 90 51 83 52 89 53 91 54
REMARK SMILES IDX 88 55 84 56 85 57 86 58 87 59 66 60 67 61 75 62 68 63 74 64
REMARK SMILES IDX 76 65 73 66 69 67 70 68 71 69 72 70 6 71 7 72 8 73 9 74
REMARK SMILES IDX 10 75 39 76 11 77 38 78 12 79 13 80 14 81 37 82 15 83 36 84
REMARK SMILES IDX 16 85 17 86 18 87 19 88 28 89 20 90 26 91 21 92 25 93 27 94
REMARK SMILES IDX 22 95 24 96 23 97 29 98 30 99 35 100 31 101 34 102 32 103
REMARK SMILES IDX 33 104
REMARK H PARENT 96 23 64 34
REMARK Flexibility Score: inf
ROOT
ATOM      1  C   UNL A   1      35.129  33.149  28.720  1.00  0.00     0.275 C 
ENDROOT
BRANCH   1   2
ATOM      2  C   UNL A   1      35.743  32.146  29.697  1.00  0.00     0.275 C 
BRANCH   2   3
ATOM      3  O   UNL A   1      36.232  30.905  29.151  1.00  0.00    -0.458 OA
BRANCH   3   4
ATOM      4  C   UNL A   1      36.705  29.955  29.983  1.00  0.00     0.338 C 
ATOM      5  O   UNL A   1      36.006  29.353  30.785  1.00  0.00    -0.246 OA
BRANCH   4   6
ATOM      6  C   UNL A   1      38.090  29.533  29.661  1.00  0.00     0.060 A 
ATOM      7  C   UNL A   1      38.744  29.894  28.479  1.00  0.00     0.016 A 
ATOM      8  C   UNL A   1      38.747  28.739  30.611  1.00  0.00     0.016 A 
ATOM      9  C   UNL A   1      40.003  29.378  28.204  1.00  0.00     0.010 A 
ATOM     10  C   UNL A   1      40.015  28.250  30.350  1.00  0.00     0.010 A 
ATOM     11  C   UNL A   1      40.610  28.515  29.120  1.00  0.00    -0.014 A 
BRANCH  11  12
ATOM     12  C   UNL A   1      41.941  27.991  28.829  1.00  0.00     0.031 A 
ATOM     13  C   UNL A   1      41.917  26.712  28.070  1.00  0.00     0.074 A 
ATOM     14  C   UNL A   1      43.071  28.685  29.083  1.00  0.00     0.049 A 
ATOM     15  N   UNL A   1      42.208  25.528  28.502  1.00  0.00    -0.248 NA
ATOM     16  C   UNL A   1      41.294  26.712  26.737  1.00  0.00     0.031 C 
ATOM     17  C   UNL A   1      43.185  30.051  29.603  1.00  0.00     0.029 A 
ATOM     18  N   UNL A   1      44.371  28.358  28.839  1.00  0.00    -0.354 N 
ATOM     19  C   UNL A   1      42.099  24.690  27.394  1.00  0.00     0.074 A 
ATOM     20  C   UNL A   1      41.296  25.411  26.447  1.00  0.00     0.031 C 
ATOM     21  C   UNL A   1      44.442  30.510  29.398  1.00  0.00     0.029 A 
ATOM     22  C   UNL A   1      45.260  29.436  28.862  1.00  0.00     0.049 A 
ATOM     23  H   UNL A   1      44.661  27.434  28.660  1.00  0.00     0.167 HD
ATOM     24  C   UNL A   1      42.945  23.632  27.238  1.00  0.00     0.034 A 
ATOM     25  C   UNL A   1      46.557  29.456  28.435  1.00  0.00     0.034 A 
ATOM     26  C   UNL A   1      43.593  23.313  28.498  1.00  0.00     0.049 A 
ATOM     27  C   UNL A   1      47.021  28.046  28.436  1.00  0.00     0.074 A 
ATOM     28  C   UNL A   1      43.144  22.995  29.767  1.00  0.00     0.029 A 
ATOM     29  N   UNL A   1      44.912  23.686  28.664  1.00  0.00    -0.354 N 
ATOM     30  N   UNL A   1      47.142  27.342  29.530  1.00  0.00    -0.248 NA
ATOM     31  C   UNL A   1      46.833  27.269  27.219  1.00  0.00     0.031 C 
ATOM     32  C   UNL A   1      44.025  23.687  30.651  1.00  0.00     0.029 A 
ATOM     33  C   UNL A   1      45.024  24.295  29.887  1.00  0.00     0.049 A 
ATOM     34  H   UNL A   1      45.640  23.541  28.018  1.00  0.00     0.167 HD
ATOM     35  C   UNL A   1      46.595  26.106  29.219  1.00  0.00     0.074 A 
ATOM     36  C   UNL A   1      46.503  26.090  27.758  1.00  0.00     0.031 C 
ATOM     37  C   UNL A   1      45.989  25.338  30.175  1.00  0.00     0.034 A 
BRANCH  24  38
ATOM     38  C   UNL A   1      43.553  23.208  25.906  1.00  0.00     0.023 A 
ATOM     39  C   UNL A   1      43.547  21.825  25.638  1.00  0.00     0.031 A 
ATOM     40  C   UNL A   1      44.412  23.975  25.089  1.00  0.00     0.131 A 
ATOM     41  C   UNL A   1      44.504  21.249  24.789  1.00  0.00     0.055 A 
ATOM     42  C   UNL A   1      45.316  23.401  24.187  1.00  0.00     0.041 A 
ATOM     43  F   UNL A   1      44.483  25.306  25.145  1.00  0.00    -0.206 F 
ATOM     44  C   UNL A   1      45.404  22.026  24.071  1.00  0.00     0.022 A 
BRANCH  41  45
ATOM     45  S   UNL A   1      44.695  19.451  24.843  1.00  0.00     0.124 S 
ATOM     46  O   UNL A   1      46.025  19.328  25.432  1.00  0.00    -0.237 OA
ATOM     47  O   UNL A   1      43.575  19.058  25.692  1.00  0.00    -0.237 OA
ATOM     48  O   UNL A   1      44.585  19.056  23.442  1.00  0.00    -0.744 OA
ENDBRANCH  41  45
ENDBRANCH  24  38
BRANCH  25  49
ATOM     49  C   UNL A   1      47.267  30.559  27.706  1.00  0.00     0.023 A 
ATOM     50  C   UNL A   1      46.612  31.665  27.110  1.00  0.00     0.031 A 
ATOM     51  C   UNL A   1      48.675  30.651  27.805  1.00  0.00     0.131 A 
ATOM     52  C   UNL A   1      47.360  32.784  26.649  1.00  0.00     0.055 A 
ATOM     53  C   UNL A   1      49.403  31.755  27.356  1.00  0.00     0.041 A 
ATOM     54  F   UNL A   1      49.393  29.702  28.425  1.00  0.00    -0.206 F 
ATOM     55  C   UNL A   1      48.748  32.831  26.783  1.00  0.00     0.022 A 
BRANCH  52  56
ATOM     56  S   UNL A   1      46.538  34.247  25.921  1.00  0.00     0.124 S 
ATOM     57  O   UNL A   1      45.339  33.669  25.325  1.00  0.00    -0.237 OA
ATOM     58  O   UNL A   1      46.336  35.108  27.080  1.00  0.00    -0.237 OA
ATOM     59  O   UNL A   1      47.518  34.748  24.955  1.00  0.00    -0.744 OA
ENDBRANCH  52  56
ENDBRANCH  25  49
BRANCH  37  60
ATOM     60  C   UNL A   1      46.187  25.701  31.634  1.00  0.00     0.023 A 
ATOM     61  C   UNL A   1      47.320  25.373  32.416  1.00  0.00     0.031 A 
ATOM     62  C   UNL A   1      45.212  26.532  32.215  1.00  0.00     0.131 A 
ATOM     63  C   UNL A   1      47.430  25.868  33.732  1.00  0.00     0.055 A 
ATOM     64  C   UNL A   1      45.337  27.035  33.507  1.00  0.00     0.041 A 
ATOM     65  F   UNL A   1      44.128  26.902  31.513  1.00  0.00    -0.206 F 
ATOM     66  C   UNL A   1      46.444  26.699  34.273  1.00  0.00     0.022 A 
BRANCH  63  67
ATOM     67  S   UNL A   1      48.854  25.425  34.784  1.00  0.00     0.124 S 
ATOM     68  O   UNL A   1      49.556  24.413  34.005  1.00  0.00    -0.237 OA
ATOM     69  O   UNL A   1      49.540  26.704  34.943  1.00  0.00    -0.237 OA
ATOM     70  O   UNL A   1      48.225  24.922  36.009  1.00  0.00    -0.744 OA
ENDBRANCH  63  67
ENDBRANCH  37  60
ENDBRANCH  11  12
ENDBRANCH   4   6
ENDBRANCH   3   4
ENDBRANCH   2   3
ENDBRANCH   1   2
BRANCH   1  71
ATOM     71  O   UNL A   1      34.655  32.478  27.541  1.00  0.00    -0.458 OA
BRANCH  71  72
ATOM     72  C   UNL A   1      33.311  32.371  27.417  1.00  0.00     0.338 C 
ATOM     73  O   UNL A   1      32.466  33.245  27.576  1.00  0.00    -0.246 OA
BRANCH  72  74
ATOM     74  C   UNL A   1      33.004  30.995  27.013  1.00  0.00     0.060 A 
ATOM     75  C   UNL A   1      31.813  30.731  26.327  1.00  0.00     0.018 A 
ATOM     76  C   UNL A   1      33.890  29.962  27.333  1.00  0.00     0.018 A 
ATOM     77  C   UNL A   1      31.537  29.442  25.879  1.00  0.00     0.029 A 
ATOM     78  C   UNL A   1      33.572  28.653  26.967  1.00  0.00     0.029 A 
ATOM     79  C   UNL A   1      32.412  28.409  26.215  1.00  0.00     0.066 A 
BRANCH  79  80
ATOM     80  N   UNL A   1      31.986  27.092  25.988  1.00  0.00    -0.220 N 
ATOM     81  C   UNL A   1      32.213  26.052  26.847  1.00  0.00     0.141 A 
ATOM     82  N   UNL A   1      31.113  26.714  25.041  1.00  0.00    -0.062 NA
ATOM     83  C   UNL A   1      31.463  25.003  26.375  1.00  0.00     0.093 A 
ATOM     84  N   UNL A   1      30.853  25.419  25.217  1.00  0.00    -0.134 NA
BRANCH  83  85
ATOM     85  C   UNL A   1      31.464  23.577  26.781  1.00  0.00     0.138 C 
BRANCH  85  86
ATOM     86  S   UNL A   1      30.881  22.224  25.757  1.00  0.00    -0.081 SA
BRANCH  86  87
ATOM     87  C   UNL A   1      32.143  21.265  25.031  1.00  0.00     0.176 A 
ATOM     88  N   UNL A   1      31.833  20.000  24.962  1.00  0.00    -0.223 NA
ATOM     89  N   UNL A   1      33.357  21.726  24.557  1.00  0.00    -0.255 N 
ATOM     90  C   UNL A   1      32.826  19.094  24.564  1.00  0.00     0.079 A 
ATOM     91  C   UNL A   1      34.433  20.878  24.849  1.00  0.00     0.266 A 
ATOM     92  C   UNL A   1      32.513  17.799  24.154  1.00  0.00     0.029 A 
ATOM     93  C   UNL A   1      34.162  19.443  24.693  1.00  0.00     0.066 A 
ATOM     94  O   UNL A   1      35.556  21.232  25.198  1.00  0.00    -0.268 OA
ATOM     95  C   UNL A   1      33.532  16.857  23.955  1.00  0.00     0.002 A 
ATOM     96  C   UNL A   1      35.187  18.502  24.565  1.00  0.00     0.016 A 
ATOM     97  C   UNL A   1      34.864  17.197  24.204  1.00  0.00     0.001 A 
BRANCH  89  98
ATOM     98  C   UNL A   1      33.620  22.954  23.840  1.00  0.00     0.051 A 
ATOM     99  C   UNL A   1      34.352  23.985  24.465  1.00  0.00     0.028 A 
ATOM    100  C   UNL A   1      33.171  23.225  22.543  1.00  0.00     0.028 A 
ATOM    101  C   UNL A   1      34.381  25.287  23.960  1.00  0.00     0.018 A 
ATOM    102  C   UNL A   1      33.124  24.543  22.059  1.00  0.00     0.018 A 
ATOM    103  C   UNL A   1      33.686  25.577  22.799  1.00  0.00     0.018 A 
ATOM    104  Br  UNL A   1      33.463  27.369  22.257  1.00  0.00    -0.051 Br
ENDBRANCH  89  98
ENDBRANCH  86  87
ENDBRANCH  85  86
ENDBRANCH  83  85
ENDBRANCH  79  80
ENDBRANCH  72  74
ENDBRANCH  71  72
ENDBRANCH   1  71
TORSDOF 19
ENDMDL
MODEL 2
REMARK VINA RESULT:     -13.1      2.966      9.126
REMARK SMILES O=C(OCCOC(=O)c1ccc(-n2cc(CSc3nc4ccccc4c(=O)n3-c3ccc(Br)cc3)nn2)cc1)c1ccc(-c2c3nc(c(-c4cc(S(=O)(=O)[O-])ccc4F)c4ccc([nH]4)c(-c4cc(S(=O)(=O)[O-])ccc4F)c4nc(c(-c5cc(S(=O)(=O)[O-])ccc5F)c5ccc2[nH]5)C=C4)C=C3)cc1
REMARK SMILES IDX 5 1 4 2 3 3 2 4 1 5 40 6 41 7 102 8 42 9 101 10 43 11 44 12
REMARK SMILES IDX 45 13 95 14 46 15 100 16 94 17 96 18 47 19 99 20 93 21 92 22
REMARK SMILES IDX 48 24 80 25 60 26 79 27 61 28 64 29 78 30 97 31 62 32 63 33
REMARK SMILES IDX 77 35 98 36 65 37 49 38 50 39 58 40 51 41 57 42 59 43 56 44
REMARK SMILES IDX 52 45 53 46 54 47 55 48 81 49 82 50 90 51 83 52 89 53 91 54
REMARK SMILES IDX 88 55 84 56 85 57 86 58 87 59 66 60 67 61 75 62 68 63 74 64
REMARK SMILES IDX 76 65 73 66 69 67 70 68 71 69 72 70 6 71 7 72 8 73 9 74
REMARK SMILES IDX 10 75 39 76 11 77 38 78 12 79 13 80 14 81 37 82 15 83 36 84
REMARK SMILES IDX 16 85 17 86 18 87 19 88 28 89 20 90 26 91 21 92 25 93 27 94
REMARK SMILES IDX 22 95 24 96 23 97 29 98 30 99 35 100 31 101 34 102 32 103
REMARK SMILES IDX 33 104
REMARK H PARENT 96 23 64 34
REMARK Flexibility Score: inf
ROOT
ATOM      1  C   UNL A   1      44.531  18.759  24.565  1.00  0.00     0.275 C 
ENDROOT
BRANCH   1   2
ATOM      2  C   UNL A   1      45.703  19.612  24.080  1.00  0.00     0.275 C 
BRANCH   2   3
ATOM      3  O   UNL A   1      45.817  20.944  24.617  1.00  0.00    -0.458 OA
BRANCH   3   4
ATOM      4  C   UNL A   1      45.086  21.942  24.077  1.00  0.00     0.338 C 
ATOM      5  O   UNL A   1      44.387  21.803  23.083  1.00  0.00    -0.246 OA
BRANCH   4   6
ATOM      6  C   UNL A   1      45.012  23.145  24.941  1.00  0.00     0.060 A 
ATOM      7  C   UNL A   1      45.908  23.394  25.986  1.00  0.00     0.016 A 
ATOM      8  C   UNL A   1      43.984  24.058  24.667  1.00  0.00     0.016 A 
ATOM      9  C   UNL A   1      45.713  24.491  26.813  1.00  0.00     0.010 A 
ATOM     10  C   UNL A   1      43.809  25.170  25.474  1.00  0.00     0.010 A 
ATOM     11  C   UNL A   1      44.632  25.346  26.583  1.00  0.00    -0.014 A 
BRANCH  11  12
ATOM     12  C   UNL A   1      44.445  26.505  27.449  1.00  0.00     0.031 A 
ATOM     13  C   UNL A   1      45.492  27.546  27.273  1.00  0.00     0.074 A 
ATOM     14  C   UNL A   1      43.342  26.679  28.210  1.00  0.00     0.049 A 
ATOM     15  N   UNL A   1      46.449  27.854  28.086  1.00  0.00    -0.248 NA
ATOM     16  C   UNL A   1      45.624  28.175  25.950  1.00  0.00     0.031 C 
ATOM     17  C   UNL A   1      42.149  25.829  28.264  1.00  0.00     0.029 A 
ATOM     18  N   UNL A   1      43.002  27.711  29.032  1.00  0.00    -0.354 N 
ATOM     19  C   UNL A   1      47.107  28.932  27.497  1.00  0.00     0.074 A 
ATOM     20  C   UNL A   1      46.734  28.896  26.112  1.00  0.00     0.031 C 
ATOM     21  C   UNL A   1      41.141  26.501  28.867  1.00  0.00     0.029 A 
ATOM     22  C   UNL A   1      41.646  27.769  29.366  1.00  0.00     0.049 A 
ATOM     23  H   UNL A   1      43.659  28.364  29.364  1.00  0.00     0.167 HD
ATOM     24  C   UNL A   1      47.629  29.930  28.266  1.00  0.00     0.034 A 
ATOM     25  C   UNL A   1      40.979  28.797  29.969  1.00  0.00     0.034 A 
ATOM     26  C   UNL A   1      47.758  29.493  29.645  1.00  0.00     0.049 A 
ATOM     27  C   UNL A   1      42.006  29.605  30.675  1.00  0.00     0.074 A 
ATOM     28  C   UNL A   1      48.392  28.436  30.273  1.00  0.00     0.029 A 
ATOM     29  N   UNL A   1      46.840  29.962  30.564  1.00  0.00    -0.354 N 
ATOM     30  N   UNL A   1      42.697  29.145  31.684  1.00  0.00    -0.248 NA
ATOM     31  C   UNL A   1      42.634  30.695  29.941  1.00  0.00     0.031 C 
ATOM     32  C   UNL A   1      47.480  28.010  31.284  1.00  0.00     0.029 A 
ATOM     33  C   UNL A   1      46.396  28.890  31.295  1.00  0.00     0.049 A 
ATOM     34  H   UNL A   1      46.556  30.897  30.673  1.00  0.00     0.167 HD
ATOM     35  C   UNL A   1      44.000  29.550  31.436  1.00  0.00     0.074 A 
ATOM     36  C   UNL A   1      43.886  30.576  30.397  1.00  0.00     0.031 C 
ATOM     37  C   UNL A   1      45.066  28.811  31.869  1.00  0.00     0.034 A 
BRANCH  24  38
ATOM     38  C   UNL A   1      47.566  31.411  27.908  1.00  0.00     0.023 A 
ATOM     39  C   UNL A   1      46.302  31.899  27.523  1.00  0.00     0.031 A 
ATOM     40  C   UNL A   1      48.657  32.248  27.588  1.00  0.00     0.131 A 
ATOM     41  C   UNL A   1      46.184  33.012  26.675  1.00  0.00     0.055 A 
ATOM     42  C   UNL A   1      48.527  33.399  26.804  1.00  0.00     0.041 A 
ATOM     43  F   UNL A   1      49.914  31.986  27.951  1.00  0.00    -0.206 F 
ATOM     44  C   UNL A   1      47.292  33.759  26.296  1.00  0.00     0.022 A 
BRANCH  41  45
ATOM     45  S   UNL A   1      44.580  33.299  25.892  1.00  0.00     0.124 S 
ATOM     46  O   UNL A   1      43.973  34.236  26.832  1.00  0.00    -0.237 OA
ATOM     47  O   UNL A   1      44.973  33.848  24.599  1.00  0.00    -0.237 OA
ATOM     48  O   UNL A   1      43.980  31.968  25.851  1.00  0.00    -0.744 OA
ENDBRANCH  41  45
ENDBRANCH  24  38
BRANCH  25  49
ATOM     49  C   UNL A   1      39.597  29.298  29.669  1.00  0.00     0.023 A 
ATOM     50  C   UNL A   1      38.733  29.868  30.637  1.00  0.00     0.031 A 
ATOM     51  C   UNL A   1      39.198  29.440  28.320  1.00  0.00     0.131 A 
ATOM     52  C   UNL A   1      37.541  30.534  30.237  1.00  0.00     0.055 A 
ATOM     53  C   UNL A   1      38.029  30.101  27.933  1.00  0.00     0.041 A 
ATOM     54  F   UNL A   1      39.977  29.013  27.314  1.00  0.00    -0.206 F 
ATOM     55  C   UNL A   1      37.199  30.659  28.890  1.00  0.00     0.022 A 
BRANCH  52  56
ATOM     56  S   UNL A   1      36.432  31.322  31.459  1.00  0.00     0.124 S 
ATOM     57  O   UNL A   1      36.212  30.249  32.421  1.00  0.00    -0.237 OA
ATOM     58  O   UNL A   1      37.224  32.456  31.922  1.00  0.00    -0.237 OA
ATOM     59  O   UNL A   1      35.253  31.686  30.671  1.00  0.00    -0.744 OA
ENDBRANCH  52  56
ENDBRANCH  25  49
BRANCH  37  60
ATOM     60  C   UNL A   1      44.826  27.711  32.884  1.00  0.00     0.023 A 
ATOM     61  C   UNL A   1      44.658  26.338  32.583  1.00  0.00     0.031 A 
ATOM     62  C   UNL A   1      44.894  28.078  34.240  1.00  0.00     0.131 A 
ATOM     63  C   UNL A   1      44.553  25.399  33.630  1.00  0.00     0.055 A 
ATOM     64  C   UNL A   1      44.813  27.143  35.269  1.00  0.00     0.041 A 
ATOM     65  F   UNL A   1      45.082  29.361  34.589  1.00  0.00    -0.206 F 
ATOM     66  C   UNL A   1      44.635  25.800  34.968  1.00  0.00     0.022 A 
BRANCH  63  67
ATOM     67  S   UNL A   1      44.288  23.628  33.280  1.00  0.00     0.124 S 
ATOM     68  O   UNL A   1      45.503  22.993  33.775  1.00  0.00    -0.237 OA
ATOM     69  O   UNL A   1      43.064  23.338  34.022  1.00  0.00    -0.237 OA
ATOM     70  O   UNL A   1      44.132  23.591  31.822  1.00  0.00    -0.744 OA
ENDBRANCH  63  67
ENDBRANCH  37  60
ENDBRANCH  11  12
ENDBRANCH   4   6
ENDBRANCH   3   4
ENDBRANCH   2   3
ENDBRANCH   1   2
BRANCH   1  71
ATOM     71  O   UNL A   1      44.316  18.950  25.973  1.00  0.00    -0.458 OA
BRANCH  71  72
ATOM     72  C   UNL A   1      43.156  18.460  26.469  1.00  0.00     0.338 C 
ATOM     73  O   UNL A   1      42.959  17.368  26.991  1.00  0.00    -0.246 OA
BRANCH  72  74
ATOM     74  C   UNL A   1      42.126  19.494  26.311  1.00  0.00     0.060 A 
ATOM     75  C   UNL A   1      42.474  20.839  26.473  1.00  0.00     0.018 A 
ATOM     76  C   UNL A   1      40.809  19.124  26.023  1.00  0.00     0.018 A 
ATOM     77  C   UNL A   1      41.525  21.836  26.262  1.00  0.00     0.029 A 
ATOM     78  C   UNL A   1      39.833  20.115  25.903  1.00  0.00     0.029 A 
ATOM     79  C   UNL A   1      40.207  21.466  25.993  1.00  0.00     0.066 A 
BRANCH  79  80
ATOM     80  N   UNL A   1      39.224  22.465  26.049  1.00  0.00    -0.220 N 
ATOM     81  C   UNL A   1      37.973  22.343  25.509  1.00  0.00     0.141 A 
ATOM     82  N   UNL A   1      39.278  23.560  26.823  1.00  0.00    -0.062 NA
ATOM     83  C   UNL A   1      37.261  23.427  25.961  1.00  0.00     0.093 A 
ATOM     84  N   UNL A   1      38.114  24.199  26.710  1.00  0.00    -0.134 NA
BRANCH  83  85
ATOM     85  C   UNL A   1      35.925  23.922  25.550  1.00  0.00     0.138 C 
BRANCH  85  86
ATOM     86  S   UNL A   1      35.246  23.771  23.896  1.00  0.00    -0.081 SA
BRANCH  86  87
ATOM     87  C   UNL A   1      33.560  24.189  23.761  1.00  0.00     0.176 A 
ATOM     88  N   UNL A   1      33.377  25.375  23.252  1.00  0.00    -0.223 NA
ATOM     89  N   UNL A   1      32.485  23.400  24.128  1.00  0.00    -0.255 N 
ATOM     90  C   UNL A   1      32.080  25.907  23.253  1.00  0.00     0.079 A 
ATOM     91  C   UNL A   1      31.451  24.113  24.748  1.00  0.00     0.266 A 
ATOM     92  C   UNL A   1      31.736  26.999  22.458  1.00  0.00     0.029 A 
ATOM     93  C   UNL A   1      31.141  25.419  24.150  1.00  0.00     0.066 A 
ATOM     94  O   UNL A   1      30.791  23.734  25.712  1.00  0.00    -0.268 OA
ATOM     95  C   UNL A   1      30.495  27.630  22.626  1.00  0.00     0.002 A 
ATOM     96  C   UNL A   1      29.929  26.074  24.380  1.00  0.00     0.016 A 
ATOM     97  C   UNL A   1      29.612  27.195  23.617  1.00  0.00     0.001 A 
BRANCH  89  98
ATOM     98  C   UNL A   1      32.336  21.971  23.962  1.00  0.00     0.051 A 
ATOM     99  C   UNL A   1      32.607  21.111  25.047  1.00  0.00     0.028 A 
ATOM    100  C   UNL A   1      31.958  21.347  22.769  1.00  0.00     0.028 A 
ATOM    101  C   UNL A   1      32.779  19.735  24.878  1.00  0.00     0.018 A 
ATOM    102  C   UNL A   1      32.202  19.979  22.565  1.00  0.00     0.018 A 
ATOM    103  C   UNL A   1      32.662  19.189  23.612  1.00  0.00     0.018 A 
ATOM    104  Br  UNL A   1      33.175  17.401  23.305  1.00  0.00    -0.051 Br
ENDBRANCH  89  98
ENDBRANCH  86  87
ENDBRANCH  85  86
ENDBRANCH  83  85
ENDBRANCH  79  80
ENDBRANCH  72  74
ENDBRANCH  71  72
ENDBRANCH   1  71
TORSDOF 19
ENDMDL
MODEL 3
REMARK VINA RESULT:     -13.0      2.390      6.805
REMARK SMILES O=C(OCCOC(=O)c1ccc(-n2cc(CSc3nc4ccccc4c(=O)n3-c3ccc(Br)cc3)nn2)cc1)c1ccc(-c2c3nc(c(-c4cc(S(=O)(=O)[O-])ccc4F)c4ccc([nH]4)c(-c4cc(S(=O)(=O)[O-])ccc4F)c4nc(c(-c5cc(S(=O)(=O)[O-])ccc5F)c5ccc2[nH]5)C=C4)C=C3)cc1
REMARK SMILES IDX 5 1 4 2 3 3 2 4 1 5 40 6 41 7 102 8 42 9 101 10 43 11 44 12
REMARK SMILES IDX 45 13 95 14 46 15 100 16 94 17 96 18 47 19 99 20 93 21 92 22
REMARK SMILES IDX 48 24 80 25 60 26 79 27 61 28 64 29 78 30 97 31 62 32 63 33
REMARK SMILES IDX 77 35 98 36 65 37 49 38 50 39 58 40 51 41 57 42 59 43 56 44
REMARK SMILES IDX 52 45 53 46 54 47 55 48 81 49 82 50 90 51 83 52 89 53 91 54
REMARK SMILES IDX 88 55 84 56 85 57 86 58 87 59 66 60 67 61 75 62 68 63 74 64
REMARK SMILES IDX 76 65 73 66 69 67 70 68 71 69 72 70 6 71 7 72 8 73 9 74
REMARK SMILES IDX 10 75 39 76 11 77 38 78 12 79 13 80 14 81 37 82 15 83 36 84
REMARK SMILES IDX 16 85 17 86 18 87 19 88 28 89 20 90 26 91 21 92 25 93 27 94
REMARK SMILES IDX 22 95 24 96 23 97 29 98 30 99 35 100 31 101 34 102 32 103
REMARK SMILES IDX 33 104
REMARK H PARENT 96 23 64 34
REMARK Flexibility Score: inf
ROOT
ATOM      1  C   UNL A   1      34.663  33.147  29.409  1.00  0.00     0.275 C 
ENDROOT
BRANCH   1   2
ATOM      2  C   UNL A   1      34.937  32.602  30.811  1.00  0.00     0.275 C 
BRANCH   2   3
ATOM      3  O   UNL A   1      35.822  31.469  30.919  1.00  0.00    -0.458 OA
BRANCH   3   4
ATOM      4  C   UNL A   1      36.649  31.372  31.981  1.00  0.00     0.338 C 
ATOM      5  O   UNL A   1      36.333  31.708  33.113  1.00  0.00    -0.246 OA
BRANCH   4   6
ATOM      6  C   UNL A   1      37.876  30.590  31.696  1.00  0.00     0.060 A 
ATOM      7  C   UNL A   1      37.869  29.210  31.465  1.00  0.00     0.016 A 
ATOM      8  C   UNL A   1      39.084  31.299  31.660  1.00  0.00     0.016 A 
ATOM      9  C   UNL A   1      39.070  28.533  31.304  1.00  0.00     0.010 A 
ATOM     10  C   UNL A   1      40.280  30.628  31.468  1.00  0.00     0.010 A 
ATOM     11  C   UNL A   1      40.273  29.240  31.359  1.00  0.00    -0.014 A 
BRANCH  11  12
ATOM     12  C   UNL A   1      41.530  28.520  31.173  1.00  0.00     0.031 A 
ATOM     13  C   UNL A   1      42.282  28.312  32.438  1.00  0.00     0.074 A 
ATOM     14  C   UNL A   1      41.884  27.963  29.994  1.00  0.00     0.049 A 
ATOM     15  N   UNL A   1      43.373  28.893  32.817  1.00  0.00    -0.248 NA
ATOM     16  C   UNL A   1      41.639  27.525  33.501  1.00  0.00     0.031 C 
ATOM     17  C   UNL A   1      41.098  27.906  28.759  1.00  0.00     0.029 A 
ATOM     18  N   UNL A   1      42.989  27.235  29.670  1.00  0.00    -0.354 N 
ATOM     19  C   UNL A   1      43.707  28.303  34.034  1.00  0.00     0.074 A 
ATOM     20  C   UNL A   1      42.497  27.694  34.508  1.00  0.00     0.031 C 
ATOM     21  C   UNL A   1      41.634  26.985  27.923  1.00  0.00     0.029 A 
ATOM     22  C   UNL A   1      42.873  26.486  28.496  1.00  0.00     0.049 A 
ATOM     23  H   UNL A   1      43.806  27.237  30.220  1.00  0.00     0.167 HD
ATOM     24  C   UNL A   1      45.013  28.096  34.370  1.00  0.00     0.034 A 
ATOM     25  C   UNL A   1      43.707  25.502  28.048  1.00  0.00     0.034 A 
ATOM     26  C   UNL A   1      45.884  28.910  33.541  1.00  0.00     0.049 A 
ATOM     27  C   UNL A   1      45.011  25.719  28.724  1.00  0.00     0.074 A 
ATOM     28  C   UNL A   1      45.982  30.264  33.274  1.00  0.00     0.029 A 
ATOM     29  N   UNL A   1      46.580  28.290  32.524  1.00  0.00    -0.354 N 
ATOM     30  N   UNL A   1      45.751  26.774  28.511  1.00  0.00    -0.248 NA
ATOM     31  C   UNL A   1      45.229  25.058  30.003  1.00  0.00     0.031 C 
ATOM     32  C   UNL A   1      46.259  30.342  31.877  1.00  0.00     0.029 A 
ATOM     33  C   UNL A   1      46.425  29.044  31.390  1.00  0.00     0.049 A 
ATOM     34  H   UNL A   1      47.094  27.455  32.600  1.00  0.00     0.167 HD
ATOM     35  C   UNL A   1      46.175  27.171  29.770  1.00  0.00     0.074 A 
ATOM     36  C   UNL A   1      45.897  26.027  30.641  1.00  0.00     0.031 C 
ATOM     37  C   UNL A   1      46.426  28.485  30.051  1.00  0.00     0.034 A 
BRANCH  24  38
ATOM     38  C   UNL A   1      45.531  26.845  35.072  1.00  0.00     0.023 A 
ATOM     39  C   UNL A   1      45.261  25.621  34.429  1.00  0.00     0.031 A 
ATOM     40  C   UNL A   1      45.930  26.741  36.422  1.00  0.00     0.131 A 
ATOM     41  C   UNL A   1      45.167  24.426  35.160  1.00  0.00     0.055 A 
ATOM     42  C   UNL A   1      45.906  25.534  37.130  1.00  0.00     0.041 A 
ATOM     43  F   UNL A   1      46.306  27.787  37.159  1.00  0.00    -0.206 F 
ATOM     44  C   UNL A   1      45.471  24.374  36.514  1.00  0.00     0.022 A 
BRANCH  41  45
ATOM     45  S   UNL A   1      44.400  23.006  34.343  1.00  0.00     0.124 S 
ATOM     46  O   UNL A   1      43.077  23.010  34.959  1.00  0.00    -0.237 OA
ATOM     47  O   UNL A   1      44.460  23.401  32.940  1.00  0.00    -0.237 OA
ATOM     48  O   UNL A   1      45.267  21.892  34.717  1.00  0.00    -0.744 OA
ENDBRANCH  41  45
ENDBRANCH  24  38
BRANCH  25  49
ATOM     49  C   UNL A   1      43.332  24.218  27.369  1.00  0.00     0.023 A 
ATOM     50  C   UNL A   1      44.077  23.630  26.316  1.00  0.00     0.031 A 
ATOM     51  C   UNL A   1      42.324  23.408  27.943  1.00  0.00     0.131 A 
ATOM     52  C   UNL A   1      43.798  22.303  25.888  1.00  0.00     0.055 A 
ATOM     53  C   UNL A   1      42.058  22.103  27.522  1.00  0.00     0.041 A 
ATOM     54  F   UNL A   1      41.611  23.828  28.999  1.00  0.00    -0.206 F 
ATOM     55  C   UNL A   1      42.800  21.541  26.497  1.00  0.00     0.022 A 
BRANCH  52  56
ATOM     56  S   UNL A   1      44.775  21.501  24.567  1.00  0.00     0.124 S 
ATOM     57  O   UNL A   1      44.538  22.376  23.425  1.00  0.00    -0.237 OA
ATOM     58  O   UNL A   1      46.124  21.507  25.120  1.00  0.00    -0.237 OA
ATOM     59  O   UNL A   1      44.172  20.171  24.451  1.00  0.00    -0.744 OA
ENDBRANCH  52  56
ENDBRANCH  25  49
BRANCH  37  60
ATOM     60  C   UNL A   1      46.538  29.468  28.902  1.00  0.00     0.023 A 
ATOM     61  C   UNL A   1      45.526  30.365  28.487  1.00  0.00     0.031 A 
ATOM     62  C   UNL A   1      47.795  29.570  28.279  1.00  0.00     0.131 A 
ATOM     63  C   UNL A   1      45.796  31.308  27.473  1.00  0.00     0.055 A 
ATOM     64  C   UNL A   1      48.063  30.516  27.294  1.00  0.00     0.041 A 
ATOM     65  F   UNL A   1      48.805  28.765  28.649  1.00  0.00    -0.206 F 
ATOM     66  C   UNL A   1      47.062  31.386  26.882  1.00  0.00     0.022 A 
BRANCH  63  67
ATOM     67  S   UNL A   1      44.501  32.448  26.881  1.00  0.00     0.124 S 
ATOM     68  O   UNL A   1      43.716  32.728  28.077  1.00  0.00    -0.237 OA
ATOM     69  O   UNL A   1      45.279  33.563  26.349  1.00  0.00    -0.237 OA
ATOM     70  O   UNL A   1      43.798  31.662  25.863  1.00  0.00    -0.744 OA
ENDBRANCH  63  67
ENDBRANCH  37  60
ENDBRANCH  11  12
ENDBRANCH   4   6
ENDBRANCH   3   4
ENDBRANCH   2   3
ENDBRANCH   1   2
BRANCH   1  71
ATOM     71  O   UNL A   1      34.028  32.147  28.595  1.00  0.00    -0.458 OA
BRANCH  71  72
ATOM     72  C   UNL A   1      34.851  31.390  27.833  1.00  0.00     0.338 C 
ATOM     73  O   UNL A   1      36.047  31.558  27.617  1.00  0.00    -0.246 OA
BRANCH  72  74
ATOM     74  C   UNL A   1      34.070  30.267  27.303  1.00  0.00     0.060 A 
ATOM     75  C   UNL A   1      32.681  30.390  27.192  1.00  0.00     0.018 A 
ATOM     76  C   UNL A   1      34.716  29.082  26.936  1.00  0.00     0.018 A 
ATOM     77  C   UNL A   1      31.931  29.359  26.631  1.00  0.00     0.029 A 
ATOM     78  C   UNL A   1      33.958  28.012  26.460  1.00  0.00     0.029 A 
ATOM     79  C   UNL A   1      32.574  28.171  26.282  1.00  0.00     0.066 A 
BRANCH  79  80
ATOM     80  N   UNL A   1      31.773  27.061  25.973  1.00  0.00    -0.220 N 
ATOM     81  C   UNL A   1      32.029  26.190  24.951  1.00  0.00     0.141 A 
ATOM     82  N   UNL A   1      30.802  26.567  26.757  1.00  0.00    -0.062 NA
ATOM     83  C   UNL A   1      31.154  25.145  25.119  1.00  0.00     0.093 A 
ATOM     84  N   UNL A   1      30.359  25.441  26.199  1.00  0.00    -0.134 NA
BRANCH  83  85
ATOM     85  C   UNL A   1      30.840  24.016  24.212  1.00  0.00     0.138 C 
BRANCH  85  86
ATOM     86  S   UNL A   1      32.017  23.245  23.096  1.00  0.00    -0.081 SA
BRANCH  86  87
ATOM     87  C   UNL A   1      32.717  21.764  23.688  1.00  0.00     0.176 A 
ATOM     88  N   UNL A   1      32.243  20.710  23.084  1.00  0.00    -0.223 NA
ATOM     89  N   UNL A   1      33.675  21.645  24.678  1.00  0.00    -0.255 N 
ATOM     90  C   UNL A   1      32.588  19.447  23.584  1.00  0.00     0.079 A 
ATOM     91  C   UNL A   1      33.456  20.566  25.544  1.00  0.00     0.266 A 
ATOM     92  C   UNL A   1      32.403  18.287  22.833  1.00  0.00     0.029 A 
ATOM     93  C   UNL A   1      33.012  19.323  24.899  1.00  0.00     0.066 A 
ATOM     94  O   UNL A   1      33.621  20.572  26.761  1.00  0.00    -0.268 OA
ATOM     95  C   UNL A   1      32.569  17.028  23.427  1.00  0.00     0.002 A 
ATOM     96  C   UNL A   1      33.116  18.079  25.528  1.00  0.00     0.016 A 
ATOM     97  C   UNL A   1      32.882  16.925  24.785  1.00  0.00     0.001 A 
BRANCH  89  98
ATOM     98  C   UNL A   1      34.819  22.499  24.913  1.00  0.00     0.051 A 
ATOM     99  C   UNL A   1      36.082  22.129  24.407  1.00  0.00     0.028 A 
ATOM    100  C   UNL A   1      34.780  23.688  25.648  1.00  0.00     0.028 A 
ATOM    101  C   UNL A   1      37.264  22.732  24.846  1.00  0.00     0.018 A 
ATOM    102  C   UNL A   1      35.959  24.256  26.158  1.00  0.00     0.018 A 
ATOM    103  C   UNL A   1      37.197  23.738  25.793  1.00  0.00     0.018 A 
ATOM    104  Br  UNL A   1      38.773  24.363  26.616  1.00  0.00    -0.051 Br
ENDBRANCH  89  98
ENDBRANCH  86  87
ENDBRANCH  85  86
ENDBRANCH  83  85
ENDBRANCH  79  80
ENDBRANCH  72  74
ENDBRANCH  71  72
ENDBRANCH   1  71
TORSDOF 19
ENDMDL
