MODEL 1
REMARK VINA RESULT:     -12.6      0.000      0.000
REMARK SMILES Cc1c(Cl)cc2c(c1C)O[C@H](C(F)(F)F)C(C(=O)OCCOC(=O)c1ccc(-c3c4nc(c(-c5cc(S(=O)(=O)[O-])ccc5F)c5ccc([nH]5)c(-c5cc(S(=O)(=O)[O-])ccc5F)c5nc(c(-c6cc(S(=O)(=O)[O-])ccc6F)c6ccc3[nH]6)C=C5)C=C4)cc1)=C2
REMARK SMILES IDX 21 1 20 2 19 3 17 4 18 5 16 6 1 7 2 8 3 9 8 10 4 11 5 12
REMARK SMILES IDX 7 13 9 14 6 15 10 16 88 17 11 18 12 19 13 20 14 21 15 22
REMARK SMILES IDX 22 23 23 24 24 25 25 26 26 27 87 28 27 29 86 30 28 31 29 32
REMARK SMILES IDX 30 33 80 34 31 35 85 36 79 37 81 38 32 39 84 40 78 41 77 42
REMARK SMILES IDX 33 44 65 45 45 46 64 47 46 48 49 49 63 50 82 51 47 52 48 53
REMARK SMILES IDX 62 55 83 56 50 57 34 58 35 59 43 60 36 61 42 62 44 63 41 64
REMARK SMILES IDX 37 65 38 66 39 67 40 68 66 69 67 70 75 71 68 72 74 73 76 74
REMARK SMILES IDX 73 75 69 76 70 77 71 78 72 79 51 80 52 81 60 82 53 83 59 84
REMARK SMILES IDX 61 85 58 86 54 87 55 88 56 89 57 90
REMARK H PARENT 81 43 49 54
REMARK Flexibility Score: inf
ROOT
ATOM      1  C   UNL A   1      36.340  20.728  24.970  1.00  0.00     0.275 C 
ENDROOT
BRANCH   1   2
ATOM      2  C   UNL A   1      34.964  21.394  24.901  1.00  0.00     0.275 C 
BRANCH   2   3
ATOM      3  O   UNL A   1      34.954  22.680  25.559  1.00  0.00    -0.459 OA
BRANCH   3   4
ATOM      4  C   UNL A   1      33.762  23.049  26.084  1.00  0.00     0.338 C 
ATOM      5  O   UNL A   1      33.166  22.484  26.990  1.00  0.00    -0.246 OA
BRANCH   4   6
ATOM      6  C   UNL A   1      33.244  24.263  25.426  1.00  0.00     0.087 C 
ATOM      7  C   UNL A   1      30.426  30.007  24.164  1.00  0.00     0.046 C 
ATOM      8  C   UNL A   1      31.229  28.824  24.642  1.00  0.00    -0.026 A 
ATOM      9  C   UNL A   1      31.904  28.861  25.877  1.00  0.00     0.045 A 
ATOM     10  C   UNL A   1      31.324  27.648  23.845  1.00  0.00    -0.004 A 
ATOM     11  Cl  UNL A   1      31.903  30.250  26.906  1.00  0.00    -0.084 Cl
ATOM     12  C   UNL A   1      32.605  27.750  26.337  1.00  0.00     0.032 A 
ATOM     13  C   UNL A   1      32.023  26.525  24.334  1.00  0.00     0.131 A 
ATOM     14  C   UNL A   1      30.675  27.544  22.488  1.00  0.00     0.049 C 
ATOM     15  C   UNL A   1      32.640  26.579  25.579  1.00  0.00     0.019 A 
ATOM     16  O   UNL A   1      32.075  25.408  23.538  1.00  0.00    -0.475 OA
ATOM     17  C   UNL A   1      33.283  25.403  26.121  1.00  0.00     0.027 C 
ATOM     18  C   UNL A   1      32.562  24.152  24.096  1.00  0.00     0.316 C 
BRANCH  18  19
ATOM     19  C   UNL A   1      31.395  23.153  24.152  1.00  0.00     0.430 C 
ATOM     20  F   UNL A   1      31.833  21.876  24.031  1.00  0.00    -0.167 F 
ATOM     21  F   UNL A   1      30.735  23.218  25.334  1.00  0.00    -0.167 F 
ATOM     22  F   UNL A   1      30.489  23.363  23.170  1.00  0.00    -0.167 F 
ENDBRANCH  18  19
ENDBRANCH   4   6
ENDBRANCH   3   4
ENDBRANCH   2   3
ENDBRANCH   1   2
BRANCH   1  23
ATOM     23  O   UNL A   1      37.392  21.710  24.994  1.00  0.00    -0.458 OA
BRANCH  23  24
ATOM     24  C   UNL A   1      38.501  21.327  25.669  1.00  0.00     0.338 C 
ATOM     25  O   UNL A   1      39.042  20.235  25.632  1.00  0.00    -0.246 OA
BRANCH  24  26
ATOM     26  C   UNL A   1      39.068  22.454  26.422  1.00  0.00     0.060 A 
ATOM     27  C   UNL A   1      38.580  23.725  26.151  1.00  0.00     0.016 A 
ATOM     28  C   UNL A   1      40.216  22.298  27.191  1.00  0.00     0.016 A 
ATOM     29  C   UNL A   1      39.337  24.843  26.473  1.00  0.00     0.010 A 
ATOM     30  C   UNL A   1      40.882  23.435  27.669  1.00  0.00     0.010 A 
ATOM     31  C   UNL A   1      40.483  24.725  27.271  1.00  0.00    -0.014 A 
BRANCH  31  32
ATOM     32  C   UNL A   1      41.251  25.940  27.683  1.00  0.00     0.031 A 
ATOM     33  C   UNL A   1      40.613  26.990  28.560  1.00  0.00     0.074 A 
ATOM     34  C   UNL A   1      42.531  26.102  27.284  1.00  0.00     0.049 A 
ATOM     35  N   UNL A   1      41.021  28.205  28.826  1.00  0.00    -0.248 NA
ATOM     36  C   UNL A   1      39.342  26.634  29.212  1.00  0.00     0.031 C 
ATOM     37  C   UNL A   1      43.307  25.137  26.498  1.00  0.00     0.029 A 
ATOM     38  N   UNL A   1      43.417  27.132  27.491  1.00  0.00    -0.354 N 
ATOM     39  C   UNL A   1      40.039  28.773  29.632  1.00  0.00     0.074 A 
ATOM     40  C   UNL A   1      39.006  27.773  29.801  1.00  0.00     0.031 C 
ATOM     41  C   UNL A   1      44.560  25.587  26.349  1.00  0.00     0.029 A 
ATOM     42  C   UNL A   1      44.644  26.930  26.901  1.00  0.00     0.049 A 
ATOM     43  H   UNL A   1      43.195  27.936  28.012  1.00  0.00     0.167 HD
ATOM     44  C   UNL A   1      40.006  30.016  30.175  1.00  0.00     0.034 A 
ATOM     45  C   UNL A   1      45.704  27.749  26.754  1.00  0.00     0.034 A 
ATOM     46  C   UNL A   1      41.067  30.983  30.027  1.00  0.00     0.049 A 
ATOM     47  C   UNL A   1      45.611  29.150  27.285  1.00  0.00     0.074 A 
ATOM     48  C   UNL A   1      41.127  32.278  30.515  1.00  0.00     0.029 A 
ATOM     49  N   UNL A   1      42.264  30.758  29.357  1.00  0.00    -0.354 N 
ATOM     50  N   UNL A   1      44.619  29.719  27.930  1.00  0.00    -0.248 NA
ATOM     51  C   UNL A   1      46.765  30.025  27.051  1.00  0.00     0.031 C 
ATOM     52  C   UNL A   1      42.330  32.853  30.092  1.00  0.00     0.029 A 
ATOM     53  C   UNL A   1      43.057  31.894  29.406  1.00  0.00     0.049 A 
ATOM     54  H   UNL A   1      42.511  29.915  28.912  1.00  0.00     0.167 HD
ATOM     55  C   UNL A   1      45.042  31.015  28.201  1.00  0.00     0.074 A 
ATOM     56  C   UNL A   1      46.379  31.140  27.654  1.00  0.00     0.031 C 
ATOM     57  C   UNL A   1      44.385  32.007  28.851  1.00  0.00     0.034 A 
BRANCH  44  58
ATOM     58  C   UNL A   1      38.768  30.427  30.936  1.00  0.00     0.023 A 
ATOM     59  C   UNL A   1      37.699  31.097  30.319  1.00  0.00     0.031 A 
ATOM     60  C   UNL A   1      38.645  30.107  32.301  1.00  0.00     0.131 A 
ATOM     61  C   UNL A   1      36.569  31.456  31.074  1.00  0.00     0.055 A 
ATOM     62  C   UNL A   1      37.494  30.408  33.030  1.00  0.00     0.041 A 
ATOM     63  F   UNL A   1      39.643  29.482  32.948  1.00  0.00    -0.206 F 
ATOM     64  C   UNL A   1      36.449  31.092  32.418  1.00  0.00     0.022 A 
BRANCH  61  65
ATOM     65  S   UNL A   1      35.284  32.473  30.297  1.00  0.00     0.124 S 
ATOM     66  O   UNL A   1      34.316  32.603  31.384  1.00  0.00    -0.237 OA
ATOM     67  O   UNL A   1      36.010  33.684  29.939  1.00  0.00    -0.237 OA
ATOM     68  O   UNL A   1      34.838  31.657  29.169  1.00  0.00    -0.744 OA
ENDBRANCH  61  65
ENDBRANCH  44  58
BRANCH  45  69
ATOM     69  C   UNL A   1      46.912  27.277  26.019  1.00  0.00     0.023 A 
ATOM     70  C   UNL A   1      47.115  27.619  24.674  1.00  0.00     0.031 A 
ATOM     71  C   UNL A   1      47.894  26.498  26.660  1.00  0.00     0.131 A 
ATOM     72  C   UNL A   1      48.267  27.174  24.008  1.00  0.00     0.055 A 
ATOM     73  C   UNL A   1      49.062  26.102  26.008  1.00  0.00     0.041 A 
ATOM     74  F   UNL A   1      47.750  26.149  27.947  1.00  0.00    -0.206 F 
ATOM     75  C   UNL A   1      49.251  26.435  24.671  1.00  0.00     0.022 A 
BRANCH  72  76
ATOM     76  S   UNL A   1      48.452  27.550  22.244  1.00  0.00     0.124 S 
ATOM     77  O   UNL A   1      49.608  28.439  22.251  1.00  0.00    -0.237 OA
ATOM     78  O   UNL A   1      48.661  26.226  21.669  1.00  0.00    -0.237 OA
ATOM     79  O   UNL A   1      47.181  28.183  21.896  1.00  0.00    -0.744 OA
ENDBRANCH  72  76
ENDBRANCH  45  69
BRANCH  57  80
ATOM     80  C   UNL A   1      45.125  33.301  29.056  1.00  0.00     0.023 A 
ATOM     81  C   UNL A   1      45.049  34.353  28.128  1.00  0.00     0.031 A 
ATOM     82  C   UNL A   1      45.907  33.487  30.211  1.00  0.00     0.131 A 
ATOM     83  C   UNL A   1      45.777  35.530  28.350  1.00  0.00     0.055 A 
ATOM     84  C   UNL A   1      46.584  34.681  30.453  1.00  0.00     0.041 A 
ATOM     85  F   UNL A   1      46.013  32.512  31.127  1.00  0.00    -0.206 F 
ATOM     86  C   UNL A   1      46.529  35.708  29.516  1.00  0.00     0.022 A 
BRANCH  83  87
ATOM     87  S   UNL A   1      45.778  36.808  27.064  1.00  0.00     0.124 S 
ATOM     88  O   UNL A   1      44.356  37.108  26.936  1.00  0.00    -0.237 OA
ATOM     89  O   UNL A   1      46.599  37.856  27.662  1.00  0.00    -0.237 OA
ATOM     90  O   UNL A   1      46.376  36.136  25.913  1.00  0.00    -0.744 OA
ENDBRANCH  83  87
ENDBRANCH  57  80
ENDBRANCH  31  32
ENDBRANCH  24  26
ENDBRANCH  23  24
ENDBRANCH   1  23
TORSDOF 15
ENDMDL
MODEL 2
REMARK VINA RESULT:     -12.6      1.391      1.614
REMARK SMILES Cc1c(Cl)cc2c(c1C)O[C@H](C(F)(F)F)C(C(=O)OCCOC(=O)c1ccc(-c3c4nc(c(-c5cc(S(=O)(=O)[O-])ccc5F)c5ccc([nH]5)c(-c5cc(S(=O)(=O)[O-])ccc5F)c5nc(c(-c6cc(S(=O)(=O)[O-])ccc6F)c6ccc3[nH]6)C=C5)C=C4)cc1)=C2
REMARK SMILES IDX 21 1 20 2 19 3 17 4 18 5 16 6 1 7 2 8 3 9 8 10 4 11 5 12
REMARK SMILES IDX 7 13 9 14 6 15 10 16 88 17 11 18 12 19 13 20 14 21 15 22
REMARK SMILES IDX 22 23 23 24 24 25 25 26 26 27 87 28 27 29 86 30 28 31 29 32
REMARK SMILES IDX 30 33 80 34 31 35 85 36 79 37 81 38 32 39 84 40 78 41 77 42
REMARK SMILES IDX 33 44 65 45 45 46 64 47 46 48 49 49 63 50 82 51 47 52 48 53
REMARK SMILES IDX 62 55 83 56 50 57 34 58 35 59 43 60 36 61 42 62 44 63 41 64
REMARK SMILES IDX 37 65 38 66 39 67 40 68 66 69 67 70 75 71 68 72 74 73 76 74
REMARK SMILES IDX 73 75 69 76 70 77 71 78 72 79 51 80 52 81 60 82 53 83 59 84
REMARK SMILES IDX 61 85 58 86 54 87 55 88 56 89 57 90
REMARK H PARENT 81 43 49 54
REMARK Flexibility Score: inf
ROOT
ATOM      1  C   UNL A   1      36.304  20.723  24.953  1.00  0.00     0.275 C 
ENDROOT
BRANCH   1   2
ATOM      2  C   UNL A   1      35.016  21.225  25.610  1.00  0.00     0.275 C 
BRANCH   2   3
ATOM      3  O   UNL A   1      34.901  22.663  25.542  1.00  0.00    -0.459 OA
BRANCH   3   4
ATOM      4  C   UNL A   1      33.852  23.190  26.214  1.00  0.00     0.338 C 
ATOM      5  O   UNL A   1      33.394  22.782  27.273  1.00  0.00    -0.246 OA
BRANCH   4   6
ATOM      6  C   UNL A   1      33.304  24.364  25.510  1.00  0.00     0.087 C 
ATOM      7  C   UNL A   1      30.372  29.999  24.035  1.00  0.00     0.046 C 
ATOM      8  C   UNL A   1      31.202  28.852  24.553  1.00  0.00    -0.026 A 
ATOM      9  C   UNL A   1      31.896  28.957  25.773  1.00  0.00     0.045 A 
ATOM     10  C   UNL A   1      31.304  27.643  23.809  1.00  0.00    -0.004 A 
ATOM     11  Cl  UNL A   1      31.888  30.391  26.738  1.00  0.00    -0.084 Cl
ATOM     12  C   UNL A   1      32.622  27.879  26.272  1.00  0.00     0.032 A 
ATOM     13  C   UNL A   1      32.029  26.554  24.337  1.00  0.00     0.131 A 
ATOM     14  C   UNL A   1      30.635  27.466  22.469  1.00  0.00     0.049 C 
ATOM     15  C   UNL A   1      32.664  26.675  25.568  1.00  0.00     0.019 A 
ATOM     16  O   UNL A   1      32.086  25.403  23.592  1.00  0.00    -0.475 OA
ATOM     17  C   UNL A   1      33.335  25.535  26.152  1.00  0.00     0.027 C 
ATOM     18  C   UNL A   1      32.602  24.182  24.199  1.00  0.00     0.316 C 
BRANCH  18  19
ATOM     19  C   UNL A   1      31.453  23.168  24.319  1.00  0.00     0.430 C 
ATOM     20  F   UNL A   1      30.683  23.422  25.405  1.00  0.00    -0.167 F 
ATOM     21  F   UNL A   1      30.626  23.218  23.246  1.00  0.00    -0.167 F 
ATOM     22  F   UNL A   1      31.898  21.896  24.428  1.00  0.00    -0.167 F 
ENDBRANCH  18  19
ENDBRANCH   4   6
ENDBRANCH   3   4
ENDBRANCH   2   3
ENDBRANCH   1   2
BRANCH   1  23
ATOM     23  O   UNL A   1      37.336  21.725  25.001  1.00  0.00    -0.458 OA
BRANCH  23  24
ATOM     24  C   UNL A   1      38.460  21.341  25.650  1.00  0.00     0.338 C 
ATOM     25  O   UNL A   1      39.011  20.255  25.584  1.00  0.00    -0.246 OA
BRANCH  24  26
ATOM     26  C   UNL A   1      39.028  22.459  26.414  1.00  0.00     0.060 A 
ATOM     27  C   UNL A   1      38.555  23.736  26.142  1.00  0.00     0.016 A 
ATOM     28  C   UNL A   1      40.166  22.290  27.196  1.00  0.00     0.016 A 
ATOM     29  C   UNL A   1      39.319  24.846  26.478  1.00  0.00     0.010 A 
ATOM     30  C   UNL A   1      40.836  23.420  27.687  1.00  0.00     0.010 A 
ATOM     31  C   UNL A   1      40.454  24.715  27.289  1.00  0.00    -0.014 A 
BRANCH  31  32
ATOM     32  C   UNL A   1      41.228  25.920  27.715  1.00  0.00     0.031 A 
ATOM     33  C   UNL A   1      40.581  26.987  28.566  1.00  0.00     0.074 A 
ATOM     34  C   UNL A   1      42.522  26.060  27.353  1.00  0.00     0.049 A 
ATOM     35  N   UNL A   1      41.000  28.197  28.835  1.00  0.00    -0.248 NA
ATOM     36  C   UNL A   1      39.286  26.655  29.182  1.00  0.00     0.031 C 
ATOM     37  C   UNL A   1      43.306  25.078  26.597  1.00  0.00     0.029 A 
ATOM     38  N   UNL A   1      43.417  27.078  27.579  1.00  0.00    -0.354 N 
ATOM     39  C   UNL A   1      40.003  28.787  29.607  1.00  0.00     0.074 A 
ATOM     40  C   UNL A   1      38.950  27.804  29.752  1.00  0.00     0.031 C 
ATOM     41  C   UNL A   1      44.569  25.507  26.482  1.00  0.00     0.029 A 
ATOM     42  C   UNL A   1      44.658  26.853  27.027  1.00  0.00     0.049 A 
ATOM     43  H   UNL A   1      43.192  27.889  28.087  1.00  0.00     0.167 HD
ATOM     44  C   UNL A   1      39.973  30.034  30.140  1.00  0.00     0.034 A 
ATOM     45  C   UNL A   1      45.734  27.654  26.905  1.00  0.00     0.034 A 
ATOM     46  C   UNL A   1      41.053  30.983  30.016  1.00  0.00     0.049 A 
ATOM     47  C   UNL A   1      45.647  29.061  27.423  1.00  0.00     0.074 A 
ATOM     48  C   UNL A   1      41.119  32.281  30.497  1.00  0.00     0.029 A 
ATOM     49  N   UNL A   1      42.265  30.735  29.384  1.00  0.00    -0.354 N 
ATOM     50  N   UNL A   1      44.646  29.650  28.034  1.00  0.00    -0.248 NA
ATOM     51  C   UNL A   1      46.821  29.916  27.217  1.00  0.00     0.031 C 
ATOM     52  C   UNL A   1      42.342  32.834  30.105  1.00  0.00     0.029 A 
ATOM     53  C   UNL A   1      43.074  31.859  29.448  1.00  0.00     0.049 A 
ATOM     54  H   UNL A   1      42.512  29.885  28.953  1.00  0.00     0.167 HD
ATOM     55  C   UNL A   1      45.080  30.941  28.309  1.00  0.00     0.074 A 
ATOM     56  C   UNL A   1      46.434  31.042  27.801  1.00  0.00     0.031 C 
ATOM     57  C   UNL A   1      44.419  31.948  28.932  1.00  0.00     0.034 A 
BRANCH  44  58
ATOM     58  C   UNL A   1      38.720  30.470  30.861  1.00  0.00     0.023 A 
ATOM     59  C   UNL A   1      37.672  31.135  30.203  1.00  0.00     0.031 A 
ATOM     60  C   UNL A   1      38.560  30.178  32.229  1.00  0.00     0.131 A 
ATOM     61  C   UNL A   1      36.526  31.517  30.923  1.00  0.00     0.055 A 
ATOM     62  C   UNL A   1      37.394  30.502  32.922  1.00  0.00     0.041 A 
ATOM     63  F   UNL A   1      39.537  29.559  32.913  1.00  0.00    -0.206 F 
ATOM     64  C   UNL A   1      36.370  31.181  32.270  1.00  0.00     0.022 A 
BRANCH  61  65
ATOM     65  S   UNL A   1      35.269  32.527  30.093  1.00  0.00     0.124 S 
ATOM     66  O   UNL A   1      34.329  32.778  31.183  1.00  0.00    -0.237 OA
ATOM     67  O   UNL A   1      36.037  33.677  29.633  1.00  0.00    -0.237 OA
ATOM     68  O   UNL A   1      34.768  31.650  29.036  1.00  0.00    -0.744 OA
ENDBRANCH  61  65
ENDBRANCH  44  58
BRANCH  45  69
ATOM     69  C   UNL A   1      46.955  27.159  26.210  1.00  0.00     0.023 A 
ATOM     70  C   UNL A   1      47.988  26.536  26.925  1.00  0.00     0.031 A 
ATOM     71  C   UNL A   1      47.096  27.278  24.813  1.00  0.00     0.131 A 
ATOM     72  C   UNL A   1      49.122  26.066  26.245  1.00  0.00     0.055 A 
ATOM     73  C   UNL A   1      48.201  26.763  24.136  1.00  0.00     0.041 A 
ATOM     74  F   UNL A   1      46.133  27.862  24.082  1.00  0.00    -0.206 F 
ATOM     75  C   UNL A   1      49.227  26.157  24.854  1.00  0.00     0.022 A 
BRANCH  72  76
ATOM     76  S   UNL A   1      50.482  25.355  27.210  1.00  0.00     0.124 S 
ATOM     77  O   UNL A   1      49.831  24.211  27.839  1.00  0.00    -0.237 OA
ATOM     78  O   UNL A   1      51.463  25.048  26.176  1.00  0.00    -0.237 OA
ATOM     79  O   UNL A   1      50.857  26.436  28.118  1.00  0.00    -0.744 OA
ENDBRANCH  72  76
ENDBRANCH  45  69
BRANCH  57  80
ATOM     80  C   UNL A   1      45.173  33.232  29.150  1.00  0.00     0.023 A 
ATOM     81  C   UNL A   1      45.070  34.312  28.257  1.00  0.00     0.031 A 
ATOM     82  C   UNL A   1      45.996  33.379  30.281  1.00  0.00     0.131 A 
ATOM     83  C   UNL A   1      45.811  35.479  28.489  1.00  0.00     0.055 A 
ATOM     84  C   UNL A   1      46.688  34.563  30.535  1.00  0.00     0.041 A 
ATOM     85  F   UNL A   1      46.130  32.376  31.163  1.00  0.00    -0.206 F 
ATOM     86  C   UNL A   1      46.605  35.618  29.632  1.00  0.00     0.022 A 
BRANCH  83  87
ATOM     87  S   UNL A   1      45.773  36.796  27.243  1.00  0.00     0.124 S 
ATOM     88  O   UNL A   1      44.341  36.950  27.011  1.00  0.00    -0.237 OA
ATOM     89  O   UNL A   1      46.430  37.901  27.933  1.00  0.00    -0.237 OA
ATOM     90  O   UNL A   1      46.525  36.231  26.124  1.00  0.00    -0.744 OA
ENDBRANCH  83  87
ENDBRANCH  57  80
ENDBRANCH  31  32
ENDBRANCH  24  26
ENDBRANCH  23  24
ENDBRANCH   1  23
TORSDOF 15
ENDMDL
MODEL 3
REMARK VINA RESULT:     -12.5      5.087     10.154
REMARK SMILES Cc1c(Cl)cc2c(c1C)O[C@H](C(F)(F)F)C(C(=O)OCCOC(=O)c1ccc(-c3c4nc(c(-c5cc(S(=O)(=O)[O-])ccc5F)c5ccc([nH]5)c(-c5cc(S(=O)(=O)[O-])ccc5F)c5nc(c(-c6cc(S(=O)(=O)[O-])ccc6F)c6ccc3[nH]6)C=C5)C=C4)cc1)=C2
REMARK SMILES IDX 21 1 20 2 19 3 17 4 18 5 16 6 1 7 2 8 3 9 8 10 4 11 5 12
REMARK SMILES IDX 7 13 9 14 6 15 10 16 88 17 11 18 12 19 13 20 14 21 15 22
REMARK SMILES IDX 22 23 23 24 24 25 25 26 26 27 87 28 27 29 86 30 28 31 29 32
REMARK SMILES IDX 30 33 80 34 31 35 85 36 79 37 81 38 32 39 84 40 78 41 77 42
REMARK SMILES IDX 33 44 65 45 45 46 64 47 46 48 49 49 63 50 82 51 47 52 48 53
REMARK SMILES IDX 62 55 83 56 50 57 34 58 35 59 43 60 36 61 42 62 44 63 41 64
REMARK SMILES IDX 37 65 38 66 39 67 40 68 66 69 67 70 75 71 68 72 74 73 76 74
REMARK SMILES IDX 73 75 69 76 70 77 71 78 72 79 51 80 52 81 60 82 53 83 59 84
REMARK SMILES IDX 61 85 58 86 54 87 55 88 56 89 57 90
REMARK H PARENT 81 43 49 54
REMARK Flexibility Score: inf
ROOT
ATOM      1  C   UNL A   1      31.983  30.170  25.554  1.00  0.00     0.275 C 
ENDROOT
BRANCH   1   2
ATOM      2  C   UNL A   1      31.573  28.737  25.205  1.00  0.00     0.275 C 
BRANCH   2   3
ATOM      3  O   UNL A   1      32.629  27.791  25.486  1.00  0.00    -0.459 OA
BRANCH   3   4
ATOM      4  C   UNL A   1      33.103  27.123  24.409  1.00  0.00     0.338 C 
ATOM      5  O   UNL A   1      33.447  27.618  23.345  1.00  0.00    -0.246 OA
BRANCH   4   6
ATOM      6  C   UNL A   1      33.175  25.673  24.673  1.00  0.00     0.087 C 
ATOM      7  C   UNL A   1      34.863  19.374  24.723  1.00  0.00     0.046 C 
ATOM      8  C   UNL A   1      34.739  20.876  24.790  1.00  0.00    -0.026 A 
ATOM      9  C   UNL A   1      35.881  21.697  24.762  1.00  0.00     0.045 A 
ATOM     10  C   UNL A   1      33.458  21.488  24.893  1.00  0.00    -0.004 A 
ATOM     11  Cl  UNL A   1      37.490  21.067  24.689  1.00  0.00    -0.084 Cl
ATOM     12  C   UNL A   1      35.760  23.084  24.775  1.00  0.00     0.032 A 
ATOM     13  C   UNL A   1      33.351  22.894  24.888  1.00  0.00     0.131 A 
ATOM     14  C   UNL A   1      32.187  20.681  24.982  1.00  0.00     0.049 C 
ATOM     15  C   UNL A   1      34.498  23.677  24.811  1.00  0.00     0.019 A 
ATOM     16  O   UNL A   1      32.094  23.440  24.973  1.00  0.00    -0.475 OA
ATOM     17  C   UNL A   1      34.388  25.116  24.718  1.00  0.00     0.027 C 
ATOM     18  C   UNL A   1      31.914  24.865  24.719  1.00  0.00     0.316 C 
BRANCH  18  19
ATOM     19  C   UNL A   1      31.096  25.035  23.429  1.00  0.00     0.430 C 
ATOM     20  F   UNL A   1      30.222  24.013  23.259  1.00  0.00    -0.167 F 
ATOM     21  F   UNL A   1      30.354  26.170  23.452  1.00  0.00    -0.167 F 
ATOM     22  F   UNL A   1      31.877  25.086  22.326  1.00  0.00    -0.167 F 
ENDBRANCH  18  19
ENDBRANCH   4   6
ENDBRANCH   3   4
ENDBRANCH   2   3
ENDBRANCH   1   2
BRANCH   1  23
ATOM     23  O   UNL A   1      32.413  30.269  26.924  1.00  0.00    -0.458 OA
BRANCH  23  24
ATOM     24  C   UNL A   1      33.060  31.419  27.226  1.00  0.00     0.338 C 
ATOM     25  O   UNL A   1      32.580  32.539  27.278  1.00  0.00    -0.246 OA
BRANCH  24  26
ATOM     26  C   UNL A   1      34.457  31.150  27.594  1.00  0.00     0.060 A 
ATOM     27  C   UNL A   1      34.800  29.846  27.922  1.00  0.00     0.016 A 
ATOM     28  C   UNL A   1      35.344  32.190  27.850  1.00  0.00     0.016 A 
ATOM     29  C   UNL A   1      35.936  29.597  28.682  1.00  0.00     0.010 A 
ATOM     30  C   UNL A   1      36.575  31.908  28.459  1.00  0.00     0.010 A 
ATOM     31  C   UNL A   1      36.866  30.615  28.933  1.00  0.00    -0.014 A 
BRANCH  31  32
ATOM     32  C   UNL A   1      38.126  30.325  29.682  1.00  0.00     0.031 A 
ATOM     33  C   UNL A   1      39.200  29.457  29.071  1.00  0.00     0.074 A 
ATOM     34  C   UNL A   1      38.322  30.850  30.911  1.00  0.00     0.049 A 
ATOM     35  N   UNL A   1      40.239  28.903  29.641  1.00  0.00    -0.248 NA
ATOM     36  C   UNL A   1      39.081  29.159  27.634  1.00  0.00     0.031 C 
ATOM     37  C   UNL A   1      37.410  31.769  31.600  1.00  0.00     0.029 A 
ATOM     38  N   UNL A   1      39.358  30.700  31.801  1.00  0.00    -0.354 N 
ATOM     39  C   UNL A   1      40.869  28.155  28.651  1.00  0.00     0.074 A 
ATOM     40  C   UNL A   1      40.086  28.315  27.444  1.00  0.00     0.031 C 
ATOM     41  C   UNL A   1      37.953  32.149  32.764  1.00  0.00     0.029 A 
ATOM     42  C   UNL A   1      39.181  31.397  32.975  1.00  0.00     0.049 A 
ATOM     43  H   UNL A   1      40.151  30.148  31.617  1.00  0.00     0.167 HD
ATOM     44  C   UNL A   1      41.995  27.403  28.745  1.00  0.00     0.034 A 
ATOM     45  C   UNL A   1      39.882  31.392  34.125  1.00  0.00     0.034 A 
ATOM     46  C   UNL A   1      42.783  27.291  29.949  1.00  0.00     0.049 A 
ATOM     47  C   UNL A   1      41.074  30.485  34.239  1.00  0.00     0.074 A 
ATOM     48  C   UNL A   1      43.927  26.540  30.163  1.00  0.00     0.029 A 
ATOM     49  N   UNL A   1      42.523  27.961  31.138  1.00  0.00    -0.354 N 
ATOM     50  N   UNL A   1      41.581  29.680  33.335  1.00  0.00    -0.248 NA
ATOM     51  C   UNL A   1      41.772  30.468  35.528  1.00  0.00     0.031 C 
ATOM     52  C   UNL A   1      44.323  26.710  31.493  1.00  0.00     0.029 A 
ATOM     53  C   UNL A   1      43.475  27.627  32.090  1.00  0.00     0.049 A 
ATOM     54  H   UNL A   1      41.773  28.581  31.284  1.00  0.00     0.167 HD
ATOM     55  C   UNL A   1      42.677  29.077  33.941  1.00  0.00     0.074 A 
ATOM     56  C   UNL A   1      42.758  29.616  35.284  1.00  0.00     0.031 C 
ATOM     57  C   UNL A   1      43.540  28.167  33.427  1.00  0.00     0.034 A 
BRANCH  44  58
ATOM     58  C   UNL A   1      42.419  26.602  27.538  1.00  0.00     0.023 A 
ATOM     59  C   UNL A   1      42.090  25.245  27.388  1.00  0.00     0.031 A 
ATOM     60  C   UNL A   1      43.138  27.225  26.500  1.00  0.00     0.131 A 
ATOM     61  C   UNL A   1      42.509  24.546  26.243  1.00  0.00     0.055 A 
ATOM     62  C   UNL A   1      43.495  26.543  25.336  1.00  0.00     0.041 A 
ATOM     63  F   UNL A   1      43.495  28.516  26.597  1.00  0.00    -0.206 F 
ATOM     64  C   UNL A   1      43.186  25.193  25.205  1.00  0.00     0.022 A 
BRANCH  61  65
ATOM     65  S   UNL A   1      42.224  22.757  26.156  1.00  0.00     0.124 S 
ATOM     66  O   UNL A   1      42.966  22.285  27.323  1.00  0.00    -0.237 OA
ATOM     67  O   UNL A   1      40.772  22.662  26.240  1.00  0.00    -0.237 OA
ATOM     68  O   UNL A   1      42.799  22.381  24.866  1.00  0.00    -0.744 OA
ENDBRANCH  61  65
ENDBRANCH  44  58
BRANCH  45  69
ATOM     69  C   UNL A   1      39.433  32.228  35.274  1.00  0.00     0.023 A 
ATOM     70  C   UNL A   1      38.676  31.672  36.316  1.00  0.00     0.031 A 
ATOM     71  C   UNL A   1      39.776  33.591  35.360  1.00  0.00     0.131 A 
ATOM     72  C   UNL A   1      38.277  32.477  37.394  1.00  0.00     0.055 A 
ATOM     73  C   UNL A   1      39.420  34.374  36.458  1.00  0.00     0.041 A 
ATOM     74  F   UNL A   1      40.503  34.170  34.391  1.00  0.00    -0.206 F 
ATOM     75  C   UNL A   1      38.660  33.819  37.482  1.00  0.00     0.022 A 
BRANCH  72  76
ATOM     76  S   UNL A   1      37.217  31.752  38.674  1.00  0.00     0.124 S 
ATOM     77  O   UNL A   1      36.054  32.630  38.627  1.00  0.00    -0.237 OA
ATOM     78  O   UNL A   1      37.020  30.395  38.176  1.00  0.00    -0.237 OA
ATOM     79  O   UNL A   1      38.028  31.856  39.886  1.00  0.00    -0.744 OA
ENDBRANCH  72  76
ENDBRANCH  45  69
BRANCH  57  80
ATOM     80  C   UNL A   1      44.684  27.735  34.305  1.00  0.00     0.023 A 
ATOM     81  C   UNL A   1      44.584  26.626  35.161  1.00  0.00     0.031 A 
ATOM     82  C   UNL A   1      45.901  28.441  34.269  1.00  0.00     0.131 A 
ATOM     83  C   UNL A   1      45.669  26.278  35.978  1.00  0.00     0.055 A 
ATOM     84  C   UNL A   1      46.994  28.057  35.043  1.00  0.00     0.041 A 
ATOM     85  F   UNL A   1      46.047  29.509  33.469  1.00  0.00    -0.206 F 
ATOM     86  C   UNL A   1      46.879  26.975  35.911  1.00  0.00     0.022 A 
BRANCH  83  87
ATOM     87  S   UNL A   1      45.459  24.936  37.178  1.00  0.00     0.124 S 
ATOM     88  O   UNL A   1      45.957  25.548  38.405  1.00  0.00    -0.237 OA
ATOM     89  O   UNL A   1      44.021  24.689  37.128  1.00  0.00    -0.237 OA
ATOM     90  O   UNL A   1      46.289  23.860  36.640  1.00  0.00    -0.744 OA
ENDBRANCH  83  87
ENDBRANCH  57  80
ENDBRANCH  31  32
ENDBRANCH  24  26
ENDBRANCH  23  24
ENDBRANCH   1  23
TORSDOF 15
ENDMDL
