MODEL 1
REMARK VINA RESULT:     -12.1      0.000      0.000
REMARK SMILES O=C(OCCOC(=O)c1cccn1CC(=O)N1CC[C@H]2CCCC[C@H]2C1)c1ccc(-c2c3nc(c(-c4cc(S(=O)(=O)[O-])ccc4F)c4ccc([nH]4)c(-c4cc(S(=O)(=O)[O-])ccc4F)c4nc(c(-c5cc(S(=O)(=O)[O-])ccc5F)c5ccc2[nH]5)C=C4)C=C3)cc1
REMARK SMILES IDX 4 1 3 2 2 3 1 4 27 5 28 6 89 7 29 8 88 9 30 10 31 11 32 12
REMARK SMILES IDX 82 13 33 14 87 15 81 16 83 17 34 18 86 19 80 20 79 21 35 23
REMARK SMILES IDX 67 24 47 25 66 26 48 27 51 28 65 29 84 30 49 31 50 32 64 34
REMARK SMILES IDX 85 35 52 36 36 37 37 38 45 39 38 40 44 41 46 42 43 43 39 44
REMARK SMILES IDX 40 45 41 46 42 47 68 48 69 49 77 50 70 51 76 52 78 53 75 54
REMARK SMILES IDX 71 55 72 56 73 57 74 58 53 59 54 60 62 61 55 62 61 63 63 64
REMARK SMILES IDX 60 65 56 66 57 67 58 68 59 69 5 70 6 71 7 72 8 73 9 74 10 75
REMARK SMILES IDX 13 76 11 77 12 78 14 79 15 80 16 81 17 82 18 83 26 84 19 85
REMARK SMILES IDX 25 86 20 87 24 88 21 89 23 90 22 91
REMARK H PARENT 83 22 51 33
REMARK Flexibility Score: inf
ROOT
ATOM      1  C   UNL A   1      33.091  31.637  27.556  1.00  0.00     0.275 C 
ENDROOT
BRANCH   1   2
ATOM      2  O   UNL A   1      33.115  33.081  27.298  1.00  0.00    -0.458 OA
BRANCH   2   3
ATOM      3  C   UNL A   1      33.402  33.729  28.449  1.00  0.00     0.338 C 
ATOM      4  O   UNL A   1      32.497  34.279  29.057  1.00  0.00    -0.246 OA
BRANCH   3   5
ATOM      5  C   UNL A   1      34.707  33.716  29.165  1.00  0.00     0.060 A 
ATOM      6  C   UNL A   1      35.891  33.979  28.489  1.00  0.00     0.016 A 
ATOM      7  C   UNL A   1      34.764  32.789  30.218  1.00  0.00     0.016 A 
ATOM      8  C   UNL A   1      37.040  33.178  28.744  1.00  0.00     0.010 A 
ATOM      9  C   UNL A   1      35.860  31.922  30.379  1.00  0.00     0.010 A 
ATOM     10  C   UNL A   1      37.009  32.038  29.583  1.00  0.00    -0.014 A 
BRANCH  10  11
ATOM     11  C   UNL A   1      38.294  31.268  29.827  1.00  0.00     0.031 A 
ATOM     12  C   UNL A   1      39.204  32.248  30.462  1.00  0.00     0.074 A 
ATOM     13  C   UNL A   1      38.725  29.966  29.849  1.00  0.00     0.049 A 
ATOM     14  N   UNL A   1      39.912  33.137  29.839  1.00  0.00    -0.248 NA
ATOM     15  C   UNL A   1      38.930  32.557  31.886  1.00  0.00     0.031 C 
ATOM     16  C   UNL A   1      38.147  28.735  30.373  1.00  0.00     0.029 A 
ATOM     17  N   UNL A   1      39.758  29.433  29.080  1.00  0.00    -0.354 N 
ATOM     18  C   UNL A   1      40.312  33.989  30.858  1.00  0.00     0.074 A 
ATOM     19  C   UNL A   1      39.347  33.823  31.912  1.00  0.00     0.031 C 
ATOM     20  C   UNL A   1      38.691  27.624  29.798  1.00  0.00     0.029 A 
ATOM     21  C   UNL A   1      39.714  28.012  28.844  1.00  0.00     0.049 A 
ATOM     22  H   UNL A   1      40.480  29.997  28.719  1.00  0.00     0.167 HD
ATOM     23  C   UNL A   1      41.615  34.317  31.053  1.00  0.00     0.034 A 
ATOM     24  C   UNL A   1      40.484  27.269  27.961  1.00  0.00     0.034 A 
ATOM     25  C   UNL A   1      42.468  33.484  30.241  1.00  0.00     0.049 A 
ATOM     26  C   UNL A   1      41.691  28.093  28.006  1.00  0.00     0.074 A 
ATOM     27  C   UNL A   1      43.123  33.545  29.040  1.00  0.00     0.029 A 
ATOM     28  N   UNL A   1      42.758  32.262  30.809  1.00  0.00    -0.354 N 
ATOM     29  N   UNL A   1      42.463  28.082  29.044  1.00  0.00    -0.248 NA
ATOM     30  C   UNL A   1      42.024  29.022  26.940  1.00  0.00     0.031 C 
ATOM     31  C   UNL A   1      43.798  32.302  28.897  1.00  0.00     0.029 A 
ATOM     32  C   UNL A   1      43.349  31.440  29.894  1.00  0.00     0.049 A 
ATOM     33  H   UNL A   1      42.564  32.017  31.742  1.00  0.00     0.167 HD
ATOM     34  C   UNL A   1      43.102  29.279  28.966  1.00  0.00     0.074 A 
ATOM     35  C   UNL A   1      42.985  29.699  27.570  1.00  0.00     0.031 C 
ATOM     36  C   UNL A   1      43.266  30.012  30.100  1.00  0.00     0.034 A 
BRANCH  23  37
ATOM     37  C   UNL A   1      42.283  34.958  32.243  1.00  0.00     0.023 A 
ATOM     38  C   UNL A   1      41.576  34.776  33.447  1.00  0.00     0.031 A 
ATOM     39  C   UNL A   1      43.324  35.899  32.276  1.00  0.00     0.131 A 
ATOM     40  C   UNL A   1      41.764  35.622  34.537  1.00  0.00     0.055 A 
ATOM     41  C   UNL A   1      43.566  36.697  33.399  1.00  0.00     0.041 A 
ATOM     42  F   UNL A   1      44.119  36.154  31.234  1.00  0.00    -0.206 F 
ATOM     43  C   UNL A   1      42.755  36.594  34.522  1.00  0.00     0.022 A 
BRANCH  40  44
ATOM     44  S   UNL A   1      40.573  35.500  35.888  1.00  0.00     0.124 S 
ATOM     45  O   UNL A   1      39.893  36.787  35.817  1.00  0.00    -0.237 OA
ATOM     46  O   UNL A   1      39.783  34.337  35.488  1.00  0.00    -0.237 OA
ATOM     47  O   UNL A   1      41.420  35.301  37.060  1.00  0.00    -0.744 OA
ENDBRANCH  40  44
ENDBRANCH  23  37
BRANCH  24  48
ATOM     48  C   UNL A   1      40.745  25.951  27.190  1.00  0.00     0.023 A 
ATOM     49  C   UNL A   1      41.980  25.485  26.682  1.00  0.00     0.031 A 
ATOM     50  C   UNL A   1      39.722  24.932  27.232  1.00  0.00     0.131 A 
ATOM     51  C   UNL A   1      42.148  24.098  26.332  1.00  0.00     0.055 A 
ATOM     52  C   UNL A   1      39.915  23.576  26.956  1.00  0.00     0.041 A 
ATOM     53  F   UNL A   1      38.465  25.194  27.620  1.00  0.00    -0.206 F 
ATOM     54  C   UNL A   1      41.140  23.146  26.520  1.00  0.00     0.022 A 
BRANCH  51  55
ATOM     55  S   UNL A   1      43.715  23.413  25.686  1.00  0.00     0.124 S 
ATOM     56  O   UNL A   1      43.262  22.206  25.000  1.00  0.00    -0.237 OA
ATOM     57  O   UNL A   1      44.225  24.482  24.836  1.00  0.00    -0.237 OA
ATOM     58  O   UNL A   1      44.498  23.171  26.899  1.00  0.00    -0.744 OA
ENDBRANCH  51  55
ENDBRANCH  24  48
BRANCH  36  59
ATOM     59  C   UNL A   1      42.795  29.263  31.383  1.00  0.00     0.023 A 
ATOM     60  C   UNL A   1      41.754  29.745  32.210  1.00  0.00     0.031 A 
ATOM     61  C   UNL A   1      43.527  28.183  31.923  1.00  0.00     0.131 A 
ATOM     62  C   UNL A   1      41.513  29.179  33.490  1.00  0.00     0.055 A 
ATOM     63  C   UNL A   1      43.284  27.611  33.179  1.00  0.00     0.041 A 
ATOM     64  F   UNL A   1      44.532  27.638  31.238  1.00  0.00    -0.206 F 
ATOM     65  C   UNL A   1      42.274  28.114  33.975  1.00  0.00     0.022 A 
BRANCH  62  66
ATOM     66  S   UNL A   1      40.174  29.812  34.547  1.00  0.00     0.124 S 
ATOM     67  O   UNL A   1      40.429  31.247  34.565  1.00  0.00    -0.237 OA
ATOM     68  O   UNL A   1      38.971  29.381  33.841  1.00  0.00    -0.237 OA
ATOM     69  O   UNL A   1      40.400  29.134  35.825  1.00  0.00    -0.744 OA
ENDBRANCH  62  66
ENDBRANCH  36  59
ENDBRANCH  10  11
ENDBRANCH   3   5
ENDBRANCH   2   3
ENDBRANCH   1   2
BRANCH   1  70
ATOM     70  C   UNL A   1      31.991  30.779  26.844  1.00  0.00     0.275 C 
BRANCH  70  71
ATOM     71  O   UNL A   1      32.248  29.359  26.759  1.00  0.00    -0.457 OA
BRANCH  71  72
ATOM     72  C   UNL A   1      32.647  28.836  25.541  1.00  0.00     0.355 C 
ATOM     73  O   UNL A   1      33.738  28.995  25.045  1.00  0.00    -0.244 OA
BRANCH  72  74
ATOM     74  C   UNL A   1      31.559  27.999  25.014  1.00  0.00     0.128 A 
ATOM     75  C   UNL A   1      30.639  28.380  24.042  1.00  0.00     0.035 A 
ATOM     76  N   UNL A   1      31.168  26.722  25.470  1.00  0.00    -0.333 N 
ATOM     77  C   UNL A   1      29.726  27.328  23.847  1.00  0.00     0.020 A 
ATOM     78  C   UNL A   1      30.083  26.316  24.714  1.00  0.00     0.087 A 
BRANCH  76  79
ATOM     79  C   UNL A   1      31.890  25.868  26.454  1.00  0.00     0.222 C 
BRANCH  79  80
ATOM     80  C   UNL A   1      31.724  24.303  26.483  1.00  0.00     0.242 C 
ATOM     81  O   UNL A   1      30.795  23.775  27.098  1.00  0.00    -0.273 OA
BRANCH  80  82
ATOM     82  N   UNL A   1      32.626  23.545  25.682  1.00  0.00    -0.341 N 
ATOM     83  C   UNL A   1      33.273  24.309  24.683  1.00  0.00     0.120 C 
ATOM     84  C   UNL A   1      33.526  22.478  26.155  1.00  0.00     0.123 C 
ATOM     85  C   UNL A   1      33.540  23.537  23.424  1.00  0.00     0.025 C 
ATOM     86  C   UNL A   1      34.413  21.771  25.026  1.00  0.00     0.012 C 
ATOM     87  C   UNL A   1      34.645  22.520  23.688  1.00  0.00    -0.005 C 
ATOM     88  C   UNL A   1      35.694  21.039  25.501  1.00  0.00     0.006 C 
ATOM     89  C   UNL A   1      36.041  23.117  23.391  1.00  0.00     0.004 C 
ATOM     90  C   UNL A   1      37.060  21.486  24.946  1.00  0.00     0.000 C 
ATOM     91  C   UNL A   1      37.107  22.901  24.435  1.00  0.00     0.000 C 
ENDBRANCH  80  82
ENDBRANCH  79  80
ENDBRANCH  76  79
ENDBRANCH  72  74
ENDBRANCH  71  72
ENDBRANCH  70  71
ENDBRANCH   1  70
TORSDOF 17
ENDMDL
MODEL 2
REMARK VINA RESULT:     -12.0      3.325      9.416
REMARK SMILES O=C(OCCOC(=O)c1cccn1CC(=O)N1CC[C@H]2CCCC[C@H]2C1)c1ccc(-c2c3nc(c(-c4cc(S(=O)(=O)[O-])ccc4F)c4ccc([nH]4)c(-c4cc(S(=O)(=O)[O-])ccc4F)c4nc(c(-c5cc(S(=O)(=O)[O-])ccc5F)c5ccc2[nH]5)C=C4)C=C3)cc1
REMARK SMILES IDX 4 1 3 2 2 3 1 4 27 5 28 6 89 7 29 8 88 9 30 10 31 11 32 12
REMARK SMILES IDX 82 13 33 14 87 15 81 16 83 17 34 18 86 19 80 20 79 21 35 23
REMARK SMILES IDX 67 24 47 25 66 26 48 27 51 28 65 29 84 30 49 31 50 32 64 34
REMARK SMILES IDX 85 35 52 36 36 37 37 38 45 39 38 40 44 41 46 42 43 43 39 44
REMARK SMILES IDX 40 45 41 46 42 47 68 48 69 49 77 50 70 51 76 52 78 53 75 54
REMARK SMILES IDX 71 55 72 56 73 57 74 58 53 59 54 60 62 61 55 62 61 63 63 64
REMARK SMILES IDX 60 65 56 66 57 67 58 68 59 69 5 70 6 71 7 72 8 73 9 74 10 75
REMARK SMILES IDX 13 76 11 77 12 78 14 79 15 80 16 81 17 82 18 83 26 84 19 85
REMARK SMILES IDX 25 86 20 87 24 88 21 89 23 90 22 91
REMARK H PARENT 83 22 51 33
REMARK Flexibility Score: inf
ROOT
ATOM      1  C   UNL A   1      39.142  19.779  25.408  1.00  0.00     0.275 C 
ENDROOT
BRANCH   1   2
ATOM      2  O   UNL A   1      39.962  19.967  26.610  1.00  0.00    -0.458 OA
BRANCH   2   3
ATOM      3  C   UNL A   1      41.253  20.119  26.243  1.00  0.00     0.338 C 
ATOM      4  O   UNL A   1      41.712  19.385  25.382  1.00  0.00    -0.246 OA
BRANCH   3   5
ATOM      5  C   UNL A   1      42.166  21.216  26.669  1.00  0.00     0.060 A 
ATOM      6  C   UNL A   1      42.332  21.521  28.013  1.00  0.00     0.016 A 
ATOM      7  C   UNL A   1      42.231  22.281  25.757  1.00  0.00     0.016 A 
ATOM      8  C   UNL A   1      42.357  22.883  28.427  1.00  0.00     0.010 A 
ATOM      9  C   UNL A   1      42.132  23.620  26.180  1.00  0.00     0.010 A 
ATOM     10  C   UNL A   1      42.108  23.959  27.541  1.00  0.00    -0.014 A 
BRANCH  10  11
ATOM     11  C   UNL A   1      42.196  25.380  28.065  1.00  0.00     0.031 A 
ATOM     12  C   UNL A   1      43.502  25.445  28.759  1.00  0.00     0.074 A 
ATOM     13  C   UNL A   1      41.570  26.586  27.878  1.00  0.00     0.049 A 
ATOM     14  N   UNL A   1      43.739  25.036  29.966  1.00  0.00    -0.248 NA
ATOM     15  C   UNL A   1      44.696  25.523  27.883  1.00  0.00     0.031 C 
ATOM     16  C   UNL A   1      41.093  27.287  26.693  1.00  0.00     0.029 A 
ATOM     17  N   UNL A   1      40.953  27.350  28.868  1.00  0.00    -0.354 N 
ATOM     18  C   UNL A   1      45.124  25.006  30.021  1.00  0.00     0.074 A 
ATOM     19  C   UNL A   1      45.569  24.879  28.659  1.00  0.00     0.031 C 
ATOM     20  C   UNL A   1      40.154  28.229  26.993  1.00  0.00     0.029 A 
ATOM     21  C   UNL A   1      39.931  28.266  28.427  1.00  0.00     0.049 A 
ATOM     22  H   UNL A   1      41.204  27.269  29.818  1.00  0.00     0.167 HD
ATOM     23  C   UNL A   1      45.820  25.634  31.002  1.00  0.00     0.034 A 
ATOM     24  C   UNL A   1      39.032  28.980  29.205  1.00  0.00     0.034 A 
ATOM     25  C   UNL A   1      44.947  26.488  31.768  1.00  0.00     0.049 A 
ATOM     26  C   UNL A   1      39.877  29.145  30.387  1.00  0.00     0.074 A 
ATOM     27  C   UNL A   1      44.243  26.451  32.943  1.00  0.00     0.029 A 
ATOM     28  N   UNL A   1      44.746  27.730  31.204  1.00  0.00    -0.354 N 
ATOM     29  N   UNL A   1      40.876  29.968  30.379  1.00  0.00    -0.248 NA
ATOM     30  C   UNL A   1      39.696  28.331  31.577  1.00  0.00     0.031 C 
ATOM     31  C   UNL A   1      43.592  27.711  33.050  1.00  0.00     0.029 A 
ATOM     32  C   UNL A   1      43.729  28.381  31.837  1.00  0.00     0.049 A 
ATOM     33  H   UNL A   1      45.264  28.094  30.450  1.00  0.00     0.167 HD
ATOM     34  C   UNL A   1      41.689  29.476  31.350  1.00  0.00     0.074 A 
ATOM     35  C   UNL A   1      40.836  28.643  32.197  1.00  0.00     0.031 C 
ATOM     36  C   UNL A   1      43.028  29.423  31.120  1.00  0.00     0.034 A 
BRANCH  23  37
ATOM     37  C   UNL A   1      47.287  25.976  31.080  1.00  0.00     0.023 A 
ATOM     38  C   UNL A   1      47.919  26.022  29.822  1.00  0.00     0.031 A 
ATOM     39  C   UNL A   1      48.138  25.988  32.197  1.00  0.00     0.131 A 
ATOM     40  C   UNL A   1      49.298  25.881  29.695  1.00  0.00     0.055 A 
ATOM     41  C   UNL A   1      49.529  25.926  32.070  1.00  0.00     0.041 A 
ATOM     42  F   UNL A   1      47.696  25.996  33.458  1.00  0.00    -0.206 F 
ATOM     43  C   UNL A   1      50.115  25.826  30.815  1.00  0.00     0.022 A 
BRANCH  40  44
ATOM     44  S   UNL A   1      49.947  25.622  28.031  1.00  0.00     0.124 S 
ATOM     45  O   UNL A   1      49.614  24.224  27.784  1.00  0.00    -0.237 OA
ATOM     46  O   UNL A   1      49.192  26.604  27.256  1.00  0.00    -0.237 OA
ATOM     47  O   UNL A   1      51.371  25.911  28.180  1.00  0.00    -0.744 OA
ENDBRANCH  40  44
ENDBRANCH  23  37
BRANCH  24  48
ATOM     48  C   UNL A   1      37.744  29.833  29.327  1.00  0.00     0.023 A 
ATOM     49  C   UNL A   1      37.290  30.543  30.462  1.00  0.00     0.031 A 
ATOM     50  C   UNL A   1      37.070  30.211  28.106  1.00  0.00     0.131 A 
ATOM     51  C   UNL A   1      36.301  31.582  30.325  1.00  0.00     0.055 A 
ATOM     52  C   UNL A   1      36.164  31.266  27.974  1.00  0.00     0.041 A 
ATOM     53  F   UNL A   1      37.314  29.605  26.935  1.00  0.00    -0.206 F 
ATOM     54  C   UNL A   1      35.786  31.973  29.085  1.00  0.00     0.022 A 
BRANCH  51  55
ATOM     55  S   UNL A   1      35.674  32.557  31.738  1.00  0.00     0.124 S 
ATOM     56  O   UNL A   1      36.408  31.979  32.860  1.00  0.00    -0.237 OA
ATOM     57  O   UNL A   1      36.021  33.928  31.381  1.00  0.00    -0.237 OA
ATOM     58  O   UNL A   1      34.238  32.269  31.731  1.00  0.00    -0.744 OA
ENDBRANCH  51  55
ENDBRANCH  24  48
BRANCH  36  59
ATOM     59  C   UNL A   1      43.444  30.094  29.776  1.00  0.00     0.023 A 
ATOM     60  C   UNL A   1      44.077  29.382  28.730  1.00  0.00     0.031 A 
ATOM     61  C   UNL A   1      43.421  31.496  29.607  1.00  0.00     0.131 A 
ATOM     62  C   UNL A   1      44.658  30.062  27.628  1.00  0.00     0.055 A 
ATOM     63  C   UNL A   1      43.980  32.171  28.514  1.00  0.00     0.041 A 
ATOM     64  F   UNL A   1      42.849  32.277  30.523  1.00  0.00    -0.206 F 
ATOM     65  C   UNL A   1      44.611  31.453  27.517  1.00  0.00     0.022 A 
BRANCH  62  66
ATOM     66  S   UNL A   1      45.476  29.135  26.292  1.00  0.00     0.124 S 
ATOM     67  O   UNL A   1      46.438  28.312  27.014  1.00  0.00    -0.237 OA
ATOM     68  O   UNL A   1      44.366  28.425  25.663  1.00  0.00    -0.237 OA
ATOM     69  O   UNL A   1      46.069  30.186  25.463  1.00  0.00    -0.744 OA
ENDBRANCH  62  66
ENDBRANCH  36  59
ENDBRANCH  10  11
ENDBRANCH   3   5
ENDBRANCH   2   3
ENDBRANCH   1   2
BRANCH   1  70
ATOM     70  C   UNL A   1      38.070  20.870  25.068  1.00  0.00     0.275 C 
BRANCH  70  71
ATOM     71  O   UNL A   1      36.693  20.432  25.076  1.00  0.00    -0.457 OA
BRANCH  71  72
ATOM     72  C   UNL A   1      35.735  21.290  25.590  1.00  0.00     0.355 C 
ATOM     73  O   UNL A   1      35.974  22.319  26.177  1.00  0.00    -0.244 OA
BRANCH  72  74
ATOM     74  C   UNL A   1      34.406  20.779  25.222  1.00  0.00     0.128 A 
ATOM     75  C   UNL A   1      34.136  19.510  24.719  1.00  0.00     0.035 A 
ATOM     76  N   UNL A   1      33.194  21.499  25.190  1.00  0.00    -0.333 N 
ATOM     77  C   UNL A   1      32.760  19.419  24.439  1.00  0.00     0.020 A 
ATOM     78  C   UNL A   1      32.200  20.639  24.758  1.00  0.00     0.087 A 
BRANCH  76  79
ATOM     79  C   UNL A   1      32.963  22.878  25.705  1.00  0.00     0.222 C 
BRANCH  79  80
ATOM     80  C   UNL A   1      32.366  24.019  24.800  1.00  0.00     0.242 C 
ATOM     81  O   UNL A   1      31.393  23.809  24.073  1.00  0.00    -0.273 OA
BRANCH  80  82
ATOM     82  N   UNL A   1      32.931  25.319  24.948  1.00  0.00    -0.341 N 
ATOM     83  C   UNL A   1      32.552  26.219  23.926  1.00  0.00     0.120 C 
ATOM     84  C   UNL A   1      33.114  26.051  26.215  1.00  0.00     0.123 C 
ATOM     85  C   UNL A   1      33.629  27.204  23.571  1.00  0.00     0.025 C 
ATOM     86  C   UNL A   1      33.805  27.487  26.089  1.00  0.00     0.012 C 
ATOM     87  C   UNL A   1      33.786  28.203  24.713  1.00  0.00    -0.005 C 
ATOM     88  C   UNL A   1      33.566  28.483  27.253  1.00  0.00     0.006 C 
ATOM     89  C   UNL A   1      32.864  29.430  24.514  1.00  0.00     0.004 C 
ATOM     90  C   UNL A   1      32.897  29.837  26.954  1.00  0.00     0.000 C 
ATOM     91  C   UNL A   1      32.053  29.869  25.708  1.00  0.00     0.000 C 
ENDBRANCH  80  82
ENDBRANCH  79  80
ENDBRANCH  76  79
ENDBRANCH  72  74
ENDBRANCH  71  72
ENDBRANCH  70  71
ENDBRANCH   1  70
TORSDOF 17
ENDMDL
MODEL 3
REMARK VINA RESULT:     -11.8      4.786     10.784
REMARK SMILES O=C(OCCOC(=O)c1cccn1CC(=O)N1CC[C@H]2CCCC[C@H]2C1)c1ccc(-c2c3nc(c(-c4cc(S(=O)(=O)[O-])ccc4F)c4ccc([nH]4)c(-c4cc(S(=O)(=O)[O-])ccc4F)c4nc(c(-c5cc(S(=O)(=O)[O-])ccc5F)c5ccc2[nH]5)C=C4)C=C3)cc1
REMARK SMILES IDX 4 1 3 2 2 3 1 4 27 5 28 6 89 7 29 8 88 9 30 10 31 11 32 12
REMARK SMILES IDX 82 13 33 14 87 15 81 16 83 17 34 18 86 19 80 20 79 21 35 23
REMARK SMILES IDX 67 24 47 25 66 26 48 27 51 28 65 29 84 30 49 31 50 32 64 34
REMARK SMILES IDX 85 35 52 36 36 37 37 38 45 39 38 40 44 41 46 42 43 43 39 44
REMARK SMILES IDX 40 45 41 46 42 47 68 48 69 49 77 50 70 51 76 52 78 53 75 54
REMARK SMILES IDX 71 55 72 56 73 57 74 58 53 59 54 60 62 61 55 62 61 63 63 64
REMARK SMILES IDX 60 65 56 66 57 67 58 68 59 69 5 70 6 71 7 72 8 73 9 74 10 75
REMARK SMILES IDX 13 76 11 77 12 78 14 79 15 80 16 81 17 82 18 83 26 84 19 85
REMARK SMILES IDX 25 86 20 87 24 88 21 89 23 90 22 91
REMARK H PARENT 83 22 51 33
REMARK Flexibility Score: inf
ROOT
ATOM      1  C   UNL A   1      37.123  32.536  28.750  1.00  0.00     0.275 C 
ENDROOT
BRANCH   1   2
ATOM      2  O   UNL A   1      36.703  31.275  29.373  1.00  0.00    -0.458 OA
BRANCH   2   3
ATOM      3  C   UNL A   1      36.706  30.300  28.437  1.00  0.00     0.338 C 
ATOM      4  O   UNL A   1      35.893  30.353  27.528  1.00  0.00    -0.246 OA
BRANCH   3   5
ATOM      5  C   UNL A   1      37.720  29.219  28.296  1.00  0.00     0.060 A 
ATOM      6  C   UNL A   1      38.103  28.457  29.392  1.00  0.00     0.016 A 
ATOM      7  C   UNL A   1      38.701  29.489  27.329  1.00  0.00     0.016 A 
ATOM      8  C   UNL A   1      39.480  28.155  29.593  1.00  0.00     0.010 A 
ATOM      9  C   UNL A   1      40.070  29.297  27.594  1.00  0.00     0.010 A 
ATOM     10  C   UNL A   1      40.508  28.694  28.782  1.00  0.00    -0.014 A 
BRANCH  10  11
ATOM     11  C   UNL A   1      41.946  28.285  29.048  1.00  0.00     0.031 A 
ATOM     12  C   UNL A   1      42.100  26.984  28.356  1.00  0.00     0.074 A 
ATOM     13  C   UNL A   1      43.110  28.852  29.500  1.00  0.00     0.049 A 
ATOM     14  N   UNL A   1      41.736  25.832  28.823  1.00  0.00    -0.248 NA
ATOM     15  C   UNL A   1      42.221  27.048  26.880  1.00  0.00     0.031 C 
ATOM     16  C   UNL A   1      43.753  30.136  29.253  1.00  0.00     0.029 A 
ATOM     17  N   UNL A   1      43.864  28.415  30.588  1.00  0.00    -0.354 N 
ATOM     18  C   UNL A   1      41.783  25.012  27.705  1.00  0.00     0.074 A 
ATOM     19  C   UNL A   1      41.646  25.885  26.571  1.00  0.00     0.031 C 
ATOM     20  C   UNL A   1      44.649  30.460  30.228  1.00  0.00     0.029 A 
ATOM     21  C   UNL A   1      44.710  29.399  31.217  1.00  0.00     0.049 A 
ATOM     22  H   UNL A   1      43.821  27.485  30.910  1.00  0.00     0.167 HD
ATOM     23  C   UNL A   1      42.474  23.844  27.698  1.00  0.00     0.034 A 
ATOM     24  C   UNL A   1      45.393  29.293  32.419  1.00  0.00     0.034 A 
ATOM     25  C   UNL A   1      43.298  23.741  28.877  1.00  0.00     0.049 A 
ATOM     26  C   UNL A   1      45.635  27.851  32.386  1.00  0.00     0.074 A 
ATOM     27  C   UNL A   1      43.252  23.158  30.116  1.00  0.00     0.029 A 
ATOM     28  N   UNL A   1      44.511  24.384  28.767  1.00  0.00    -0.354 N 
ATOM     29  N   UNL A   1      46.511  27.343  31.580  1.00  0.00    -0.248 NA
ATOM     30  C   UNL A   1      44.843  26.924  33.176  1.00  0.00     0.031 C 
ATOM     31  C   UNL A   1      44.476  23.498  30.755  1.00  0.00     0.029 A 
ATOM     32  C   UNL A   1      45.122  24.461  29.984  1.00  0.00     0.049 A 
ATOM     33  H   UNL A   1      44.884  24.739  27.928  1.00  0.00     0.167 HD
ATOM     34  C   UNL A   1      46.089  26.060  31.435  1.00  0.00     0.074 A 
ATOM     35  C   UNL A   1      45.233  25.791  32.589  1.00  0.00     0.031 C 
ATOM     36  C   UNL A   1      46.105  25.500  30.195  1.00  0.00     0.034 A 
BRANCH  23  37
ATOM     37  C   UNL A   1      42.898  22.979  26.537  1.00  0.00     0.023 A 
ATOM     38  C   UNL A   1      42.319  21.695  26.555  1.00  0.00     0.031 A 
ATOM     39  C   UNL A   1      43.951  23.168  25.628  1.00  0.00     0.131 A 
ATOM     40  C   UNL A   1      42.891  20.630  25.864  1.00  0.00     0.055 A 
ATOM     41  C   UNL A   1      44.475  22.114  24.873  1.00  0.00     0.041 A 
ATOM     42  F   UNL A   1      44.573  24.337  25.455  1.00  0.00    -0.206 F 
ATOM     43  C   UNL A   1      43.977  20.827  25.022  1.00  0.00     0.022 A 
BRANCH  40  44
ATOM     44  S   UNL A   1      42.259  18.979  26.231  1.00  0.00     0.124 S 
ATOM     45  O   UNL A   1      40.905  19.041  25.694  1.00  0.00    -0.237 OA
ATOM     46  O   UNL A   1      43.196  18.129  25.500  1.00  0.00    -0.237 OA
ATOM     47  O   UNL A   1      42.355  18.901  27.686  1.00  0.00    -0.744 OA
ENDBRANCH  40  44
ENDBRANCH  23  37
BRANCH  24  48
ATOM     48  C   UNL A   1      46.177  29.955  33.581  1.00  0.00     0.023 A 
ATOM     49  C   UNL A   1      47.502  30.448  33.549  1.00  0.00     0.031 A 
ATOM     50  C   UNL A   1      45.425  30.403  34.730  1.00  0.00     0.131 A 
ATOM     51  C   UNL A   1      47.963  31.364  34.561  1.00  0.00     0.055 A 
ATOM     52  C   UNL A   1      45.859  31.345  35.666  1.00  0.00     0.041 A 
ATOM     53  F   UNL A   1      44.172  29.992  34.972  1.00  0.00    -0.206 F 
ATOM     54  C   UNL A   1      47.131  31.848  35.575  1.00  0.00     0.022 A 
BRANCH  51  55
ATOM     55  S   UNL A   1      49.653  32.059  34.584  1.00  0.00     0.124 S 
ATOM     56  O   UNL A   1      49.953  32.184  33.160  1.00  0.00    -0.237 OA
ATOM     57  O   UNL A   1      49.494  33.309  35.319  1.00  0.00    -0.237 OA
ATOM     58  O   UNL A   1      50.427  31.033  35.285  1.00  0.00    -0.744 OA
ENDBRANCH  51  55
ENDBRANCH  24  48
BRANCH  36  59
ATOM     59  C   UNL A   1      46.763  26.417  29.120  1.00  0.00     0.023 A 
ATOM     60  C   UNL A   1      46.027  27.012  28.069  1.00  0.00     0.031 A 
ATOM     61  C   UNL A   1      48.166  26.526  28.995  1.00  0.00     0.131 A 
ATOM     62  C   UNL A   1      46.684  27.636  26.976  1.00  0.00     0.055 A 
ATOM     63  C   UNL A   1      48.819  27.154  27.926  1.00  0.00     0.041 A 
ATOM     64  F   UNL A   1      48.969  26.008  29.924  1.00  0.00    -0.206 F 
ATOM     65  C   UNL A   1      48.076  27.708  26.902  1.00  0.00     0.022 A 
BRANCH  62  66
ATOM     66  S   UNL A   1      45.725  28.392  25.627  1.00  0.00     0.124 S 
ATOM     67  O   UNL A   1      45.134  27.236  24.965  1.00  0.00    -0.237 OA
ATOM     68  O   UNL A   1      44.800  29.270  26.338  1.00  0.00    -0.237 OA
ATOM     69  O   UNL A   1      46.741  29.095  24.841  1.00  0.00    -0.744 OA
ENDBRANCH  62  66
ENDBRANCH  36  59
ENDBRANCH  10  11
ENDBRANCH   3   5
ENDBRANCH   2   3
ENDBRANCH   1   2
BRANCH   1  70
ATOM     70  C   UNL A   1      36.727  33.876  29.458  1.00  0.00     0.275 C 
BRANCH  70  71
ATOM     71  O   UNL A   1      35.338  34.262  29.358  1.00  0.00    -0.457 OA
BRANCH  71  72
ATOM     72  C   UNL A   1      34.457  33.794  30.318  1.00  0.00     0.355 C 
ATOM     73  O   UNL A   1      34.033  32.663  30.374  1.00  0.00    -0.244 OA
BRANCH  72  74
ATOM     74  C   UNL A   1      34.208  34.872  31.287  1.00  0.00     0.128 A 
ATOM     75  C   UNL A   1      33.442  36.010  31.055  1.00  0.00     0.035 A 
ATOM     76  N   UNL A   1      34.785  35.019  32.566  1.00  0.00    -0.333 N 
ATOM     77  C   UNL A   1      33.488  36.826  32.201  1.00  0.00     0.020 A 
ATOM     78  C   UNL A   1      34.295  36.189  33.120  1.00  0.00     0.087 A 
BRANCH  76  79
ATOM     79  C   UNL A   1      35.622  34.020  33.287  1.00  0.00     0.222 C 
BRANCH  79  80
ATOM     80  C   UNL A   1      37.191  34.128  33.344  1.00  0.00     0.242 C 
ATOM     81  O   UNL A   1      37.742  35.037  33.970  1.00  0.00    -0.273 OA
BRANCH  80  82
ATOM     82  N   UNL A   1      37.932  33.073  32.738  1.00  0.00    -0.341 N 
ATOM     83  C   UNL A   1      39.265  33.425  32.425  1.00  0.00     0.120 C 
ATOM     84  C   UNL A   1      37.863  31.644  33.093  1.00  0.00     0.123 C 
ATOM     85  C   UNL A   1      39.779  32.763  31.180  1.00  0.00     0.025 C 
ATOM     86  C   UNL A   1      38.786  30.670  32.223  1.00  0.00     0.012 C 
ATOM     87  C   UNL A   1      39.990  31.278  31.457  1.00  0.00    -0.005 C 
ATOM     88  C   UNL A   1      39.143  29.299  32.851  1.00  0.00     0.006 C 
ATOM     89  C   UNL A   1      41.425  31.002  31.966  1.00  0.00     0.004 C 
ATOM     90  C   UNL A   1      40.624  28.941  33.075  1.00  0.00     0.000 C 
ATOM     91  C   UNL A   1      41.555  30.119  33.182  1.00  0.00     0.000 C 
ENDBRANCH  80  82
ENDBRANCH  79  80
ENDBRANCH  76  79
ENDBRANCH  72  74
ENDBRANCH  71  72
ENDBRANCH  70  71
ENDBRANCH   1  70
TORSDOF 17
ENDMDL
