MODEL 1
REMARK VINA RESULT:     -12.3      0.000      0.000
REMARK SMILES Cc1c(Br)c(C)c2c(c1Br)O[C@H](C(F)(F)F)C(C(=O)OCCOC(=O)c1ccc(-c3c4nc(c(-c5cc(S(=O)(=O)[O-])ccc5F)c5ccc([nH]5)c(-c5cc(S(=O)(=O)[O-])ccc5F)c5nc(c(-c6cc(S(=O)(=O)[O-])ccc6F)c6ccc3[nH]6)C=C5)C=C4)cc1)=C2
REMARK SMILES IDX 22 1 21 2 20 3 18 4 19 5 17 6 1 7 2 8 3 9 9 10 4 11 5 12
REMARK SMILES IDX 8 13 10 14 6 15 7 16 11 17 89 18 12 19 13 20 14 21 15 22
REMARK SMILES IDX 16 23 23 24 24 25 25 26 26 27 27 28 88 29 28 30 87 31 29 32
REMARK SMILES IDX 30 33 31 34 81 35 32 36 86 37 80 38 82 39 33 40 85 41 79 42
REMARK SMILES IDX 78 43 34 45 66 46 46 47 65 48 47 49 50 50 64 51 83 52 48 53
REMARK SMILES IDX 49 54 63 56 84 57 51 58 35 59 36 60 44 61 37 62 43 63 45 64
REMARK SMILES IDX 42 65 38 66 39 67 40 68 41 69 67 70 68 71 76 72 69 73 75 74
REMARK SMILES IDX 77 75 74 76 70 77 71 78 72 79 73 80 52 81 53 82 61 83 54 84
REMARK SMILES IDX 60 85 62 86 59 87 55 88 56 89 57 90 58 91
REMARK H PARENT 82 44 50 55
REMARK Flexibility Score: inf
ROOT
ATOM      1  C   UNL A   1      36.378  20.679  24.940  1.00  0.00     0.275 C 
ENDROOT
BRANCH   1   2
ATOM      2  C   UNL A   1      34.984  21.296  25.054  1.00  0.00     0.275 C 
BRANCH   2   3
ATOM      3  O   UNL A   1      35.019  22.726  24.851  1.00  0.00    -0.459 OA
BRANCH   3   4
ATOM      4  C   UNL A   1      34.472  23.467  25.843  1.00  0.00     0.338 C 
ATOM      5  O   UNL A   1      34.534  23.237  27.040  1.00  0.00    -0.246 OA
BRANCH   4   6
ATOM      6  C   UNL A   1      33.757  24.633  25.289  1.00  0.00     0.087 C 
ATOM      7  C   UNL A   1      30.401  30.161  24.282  1.00  0.00     0.047 C 
ATOM      8  C   UNL A   1      31.339  29.050  24.692  1.00  0.00    -0.019 A 
ATOM      9  C   UNL A   1      32.257  29.236  25.754  1.00  0.00     0.025 A 
ATOM     10  C   UNL A   1      31.367  27.822  23.995  1.00  0.00     0.064 A 
ATOM     11  Br  UNL A   1      32.362  30.961  26.595  1.00  0.00    -0.050 Br
ATOM     12  C   UNL A   1      33.109  28.191  26.184  1.00  0.00    -0.026 A 
ATOM     13  C   UNL A   1      32.215  26.776  24.398  1.00  0.00     0.142 A 
ATOM     14  Br  UNL A   1      30.254  27.534  22.461  1.00  0.00    -0.046 Br
ATOM     15  C   UNL A   1      34.077  28.371  27.335  1.00  0.00     0.046 C 
ATOM     16  C   UNL A   1      33.064  26.947  25.499  1.00  0.00     0.022 A 
ATOM     17  O   UNL A   1      32.187  25.623  23.653  1.00  0.00    -0.474 OA
ATOM     18  C   UNL A   1      33.879  25.807  25.916  1.00  0.00     0.027 C 
ATOM     19  C   UNL A   1      32.819  24.418  24.148  1.00  0.00     0.316 C 
BRANCH  19  20
ATOM     20  C   UNL A   1      31.736  23.384  24.493  1.00  0.00     0.430 C 
ATOM     21  F   UNL A   1      31.544  23.295  25.831  1.00  0.00    -0.167 F 
ATOM     22  F   UNL A   1      30.536  23.720  23.958  1.00  0.00    -0.167 F 
ATOM     23  F   UNL A   1      32.045  22.145  24.046  1.00  0.00    -0.167 F 
ENDBRANCH  19  20
ENDBRANCH   4   6
ENDBRANCH   3   4
ENDBRANCH   2   3
ENDBRANCH   1   2
BRANCH   1  24
ATOM     24  O   UNL A   1      37.389  21.697  25.038  1.00  0.00    -0.458 OA
BRANCH  24  25
ATOM     25  C   UNL A   1      38.518  21.322  25.684  1.00  0.00     0.338 C 
ATOM     26  O   UNL A   1      39.065  20.234  25.639  1.00  0.00    -0.246 OA
BRANCH  25  27
ATOM     27  C   UNL A   1      39.082  22.463  26.422  1.00  0.00     0.060 A 
ATOM     28  C   UNL A   1      38.590  23.731  26.151  1.00  0.00     0.016 A 
ATOM     29  C   UNL A   1      40.219  22.312  27.212  1.00  0.00     0.016 A 
ATOM     30  C   UNL A   1      39.321  24.853  26.527  1.00  0.00     0.010 A 
ATOM     31  C   UNL A   1      40.868  23.450  27.716  1.00  0.00     0.010 A 
ATOM     32  C   UNL A   1      40.463  24.742  27.332  1.00  0.00    -0.014 A 
BRANCH  32  33
ATOM     33  C   UNL A   1      41.235  25.964  27.726  1.00  0.00     0.031 A 
ATOM     34  C   UNL A   1      40.606  27.014  28.615  1.00  0.00     0.074 A 
ATOM     35  C   UNL A   1      42.520  26.123  27.338  1.00  0.00     0.049 A 
ATOM     36  N   UNL A   1      41.024  28.227  28.883  1.00  0.00    -0.248 NA
ATOM     37  C   UNL A   1      39.339  26.665  29.278  1.00  0.00     0.031 C 
ATOM     38  C   UNL A   1      43.296  25.165  26.546  1.00  0.00     0.029 A 
ATOM     39  N   UNL A   1      43.416  27.141  27.574  1.00  0.00    -0.354 N 
ATOM     40  C   UNL A   1      40.047  28.802  29.691  1.00  0.00     0.074 A 
ATOM     41  C   UNL A   1      39.011  27.807  29.869  1.00  0.00     0.031 C 
ATOM     42  C   UNL A   1      44.561  25.594  26.439  1.00  0.00     0.029 A 
ATOM     43  C   UNL A   1      44.656  26.928  27.015  1.00  0.00     0.049 A 
ATOM     44  H   UNL A   1      43.191  27.945  28.095  1.00  0.00     0.167 HD
ATOM     45  C   UNL A   1      40.018  30.046  30.230  1.00  0.00     0.034 A 
ATOM     46  C   UNL A   1      45.736  27.729  26.909  1.00  0.00     0.034 A 
ATOM     47  C   UNL A   1      41.087  31.006  30.097  1.00  0.00     0.049 A 
ATOM     48  C   UNL A   1      45.650  29.131  27.444  1.00  0.00     0.074 A 
ATOM     49  C   UNL A   1      41.148  32.298  30.590  1.00  0.00     0.029 A 
ATOM     50  N   UNL A   1      42.290  30.773  29.447  1.00  0.00    -0.354 N 
ATOM     51  N   UNL A   1      44.659  29.708  28.080  1.00  0.00    -0.248 NA
ATOM     52  C   UNL A   1      46.813  29.999  27.219  1.00  0.00     0.031 C 
ATOM     53  C   UNL A   1      42.362  32.864  30.192  1.00  0.00     0.029 A 
ATOM     54  C   UNL A   1      43.091  31.902  29.512  1.00  0.00     0.049 A 
ATOM     55  H   UNL A   1      42.539  29.930  29.004  1.00  0.00     0.167 HD
ATOM     56  C   UNL A   1      45.085  31.005  28.344  1.00  0.00     0.074 A 
ATOM     57  C   UNL A   1      46.426  31.121  27.810  1.00  0.00     0.031 C 
ATOM     58  C   UNL A   1      44.423  32.008  28.971  1.00  0.00     0.034 A 
BRANCH  45  59
ATOM     59  C   UNL A   1      38.777  30.476  30.974  1.00  0.00     0.023 A 
ATOM     60  C   UNL A   1      37.719  31.146  30.340  1.00  0.00     0.031 A 
ATOM     61  C   UNL A   1      38.633  30.149  32.336  1.00  0.00     0.131 A 
ATOM     62  C   UNL A   1      36.572  31.491  31.075  1.00  0.00     0.055 A 
ATOM     63  C   UNL A   1      37.468  30.441  33.045  1.00  0.00     0.041 A 
ATOM     64  F   UNL A   1      39.621  29.523  32.995  1.00  0.00    -0.206 F 
ATOM     65  C   UNL A   1      36.430  31.120  32.415  1.00  0.00     0.022 A 
BRANCH  62  66
ATOM     66  S   UNL A   1      35.286  32.487  30.274  1.00  0.00     0.124 S 
ATOM     67  O   UNL A   1      34.871  31.608  29.183  1.00  0.00    -0.237 OA
ATOM     68  O   UNL A   1      34.315  32.676  31.346  1.00  0.00    -0.237 OA
ATOM     69  O   UNL A   1      35.996  33.695  29.858  1.00  0.00    -0.744 OA
ENDBRANCH  62  66
ENDBRANCH  45  59
BRANCH  46  70
ATOM     70  C   UNL A   1      46.954  27.253  26.191  1.00  0.00     0.023 A 
ATOM     71  C   UNL A   1      47.197  27.617  24.858  1.00  0.00     0.031 A 
ATOM     72  C   UNL A   1      47.895  26.423  26.830  1.00  0.00     0.131 A 
ATOM     73  C   UNL A   1      48.346  27.142  24.204  1.00  0.00     0.055 A 
ATOM     74  C   UNL A   1      49.061  26.000  26.194  1.00  0.00     0.041 A 
ATOM     75  F   UNL A   1      47.708  26.041  28.104  1.00  0.00    -0.206 F 
ATOM     76  C   UNL A   1      49.289  26.354  24.869  1.00  0.00     0.022 A 
BRANCH  73  77
ATOM     77  S   UNL A   1      48.572  27.530  22.446  1.00  0.00     0.124 S 
ATOM     78  O   UNL A   1      47.366  28.297  22.157  1.00  0.00    -0.237 OA
ATOM     79  O   UNL A   1      49.823  28.279  22.458  1.00  0.00    -0.237 OA
ATOM     80  O   UNL A   1      48.642  26.215  21.814  1.00  0.00    -0.744 OA
ENDBRANCH  73  77
ENDBRANCH  46  70
BRANCH  58  81
ATOM     81  C   UNL A   1      45.157  33.308  29.156  1.00  0.00     0.023 A 
ATOM     82  C   UNL A   1      45.207  34.275  28.139  1.00  0.00     0.031 A 
ATOM     83  C   UNL A   1      45.790  33.593  30.378  1.00  0.00     0.131 A 
ATOM     84  C   UNL A   1      45.909  35.471  28.350  1.00  0.00     0.055 A 
ATOM     85  C   UNL A   1      46.441  34.804  30.601  1.00  0.00     0.041 A 
ATOM     86  F   UNL A   1      45.768  32.700  31.382  1.00  0.00    -0.206 F 
ATOM     87  C   UNL A   1      46.510  35.750  29.582  1.00  0.00     0.022 A 
BRANCH  84  88
ATOM     88  S   UNL A   1      46.067  36.643  26.976  1.00  0.00     0.124 S 
ATOM     89  O   UNL A   1      44.882  37.476  27.152  1.00  0.00    -0.237 OA
ATOM     90  O   UNL A   1      47.346  37.287  27.255  1.00  0.00    -0.237 OA
ATOM     91  O   UNL A   1      46.052  35.785  25.792  1.00  0.00    -0.744 OA
ENDBRANCH  84  88
ENDBRANCH  58  81
ENDBRANCH  32  33
ENDBRANCH  25  27
ENDBRANCH  24  25
ENDBRANCH   1  24
TORSDOF 15
ENDMDL
MODEL 2
REMARK VINA RESULT:     -12.1      5.121     10.061
REMARK SMILES Cc1c(Br)c(C)c2c(c1Br)O[C@H](C(F)(F)F)C(C(=O)OCCOC(=O)c1ccc(-c3c4nc(c(-c5cc(S(=O)(=O)[O-])ccc5F)c5ccc([nH]5)c(-c5cc(S(=O)(=O)[O-])ccc5F)c5nc(c(-c6cc(S(=O)(=O)[O-])ccc6F)c6ccc3[nH]6)C=C5)C=C4)cc1)=C2
REMARK SMILES IDX 22 1 21 2 20 3 18 4 19 5 17 6 1 7 2 8 3 9 9 10 4 11 5 12
REMARK SMILES IDX 8 13 10 14 6 15 7 16 11 17 89 18 12 19 13 20 14 21 15 22
REMARK SMILES IDX 16 23 23 24 24 25 25 26 26 27 27 28 88 29 28 30 87 31 29 32
REMARK SMILES IDX 30 33 31 34 81 35 32 36 86 37 80 38 82 39 33 40 85 41 79 42
REMARK SMILES IDX 78 43 34 45 66 46 46 47 65 48 47 49 50 50 64 51 83 52 48 53
REMARK SMILES IDX 49 54 63 56 84 57 51 58 35 59 36 60 44 61 37 62 43 63 45 64
REMARK SMILES IDX 42 65 38 66 39 67 40 68 41 69 67 70 68 71 76 72 69 73 75 74
REMARK SMILES IDX 77 75 74 76 70 77 71 78 72 79 73 80 52 81 53 82 61 83 54 84
REMARK SMILES IDX 60 85 62 86 59 87 55 88 56 89 57 90 58 91
REMARK H PARENT 82 44 50 55
REMARK Flexibility Score: inf
ROOT
ATOM      1  C   UNL A   1      31.652  30.181  26.043  1.00  0.00     0.275 C 
ENDROOT
BRANCH   1   2
ATOM      2  C   UNL A   1      31.551  28.916  25.189  1.00  0.00     0.275 C 
BRANCH   2   3
ATOM      3  O   UNL A   1      32.306  27.827  25.764  1.00  0.00    -0.459 OA
BRANCH   3   4
ATOM      4  C   UNL A   1      33.311  27.347  24.994  1.00  0.00     0.338 C 
ATOM      5  O   UNL A   1      34.060  28.003  24.287  1.00  0.00    -0.246 OA
BRANCH   4   6
ATOM      6  C   UNL A   1      33.398  25.878  25.106  1.00  0.00     0.087 C 
ATOM      7  C   UNL A   1      35.042  19.551  24.797  1.00  0.00     0.047 C 
ATOM      8  C   UNL A   1      34.939  21.050  24.953  1.00  0.00    -0.019 A 
ATOM      9  C   UNL A   1      36.100  21.835  25.159  1.00  0.00     0.025 A 
ATOM     10  C   UNL A   1      33.687  21.701  24.956  1.00  0.00     0.064 A 
ATOM     11  Br  UNL A   1      37.796  20.949  25.342  1.00  0.00    -0.050 Br
ATOM     12  C   UNL A   1      36.029  23.245  25.259  1.00  0.00    -0.026 A 
ATOM     13  C   UNL A   1      33.593  23.100  25.067  1.00  0.00     0.142 A 
ATOM     14  Br  UNL A   1      32.056  20.701  24.819  1.00  0.00    -0.046 Br
ATOM     15  C   UNL A   1      37.267  24.096  25.454  1.00  0.00     0.046 C 
ATOM     16  C   UNL A   1      34.756  23.871  25.194  1.00  0.00     0.022 A 
ATOM     17  O   UNL A   1      32.334  23.646  25.076  1.00  0.00    -0.474 OA
ATOM     18  C   UNL A   1      34.607  25.325  25.240  1.00  0.00     0.027 C 
ATOM     19  C   UNL A   1      32.155  25.074  24.918  1.00  0.00     0.316 C 
BRANCH  19  20
ATOM     20  C   UNL A   1      31.501  25.355  23.556  1.00  0.00     0.430 C 
ATOM     21  F   UNL A   1      30.948  24.235  23.031  1.00  0.00    -0.167 F 
ATOM     22  F   UNL A   1      30.497  26.260  23.663  1.00  0.00    -0.167 F 
ATOM     23  F   UNL A   1      32.382  25.835  22.650  1.00  0.00    -0.167 F 
ENDBRANCH  19  20
ENDBRANCH   4   6
ENDBRANCH   3   4
ENDBRANCH   2   3
ENDBRANCH   1   2
BRANCH   1  24
ATOM     24  O   UNL A   1      32.737  30.071  26.979  1.00  0.00    -0.458 OA
BRANCH  24  25
ATOM     25  C   UNL A   1      33.369  31.234  27.262  1.00  0.00     0.338 C 
ATOM     26  O   UNL A   1      32.885  32.352  27.271  1.00  0.00    -0.246 OA
BRANCH  25  27
ATOM     27  C   UNL A   1      34.761  30.971  27.659  1.00  0.00     0.060 A 
ATOM     28  C   UNL A   1      35.132  29.663  27.936  1.00  0.00     0.016 A 
ATOM     29  C   UNL A   1      35.630  32.018  27.955  1.00  0.00     0.016 A 
ATOM     30  C   UNL A   1      36.293  29.410  28.658  1.00  0.00     0.010 A 
ATOM     31  C   UNL A   1      36.872  31.740  28.549  1.00  0.00     0.010 A 
ATOM     32  C   UNL A   1      37.199  30.435  28.964  1.00  0.00    -0.014 A 
BRANCH  32  33
ATOM     33  C   UNL A   1      38.444  30.141  29.742  1.00  0.00     0.031 A 
ATOM     34  C   UNL A   1      39.541  29.290  29.139  1.00  0.00     0.074 A 
ATOM     35  C   UNL A   1      38.632  30.670  30.972  1.00  0.00     0.049 A 
ATOM     36  N   UNL A   1      40.581  28.748  29.723  1.00  0.00    -0.248 NA
ATOM     37  C   UNL A   1      39.454  29.001  27.698  1.00  0.00     0.031 C 
ATOM     38  C   UNL A   1      37.707  31.574  31.661  1.00  0.00     0.029 A 
ATOM     39  N   UNL A   1      39.676  30.546  31.859  1.00  0.00    -0.354 N 
ATOM     40  C   UNL A   1      41.232  28.008  28.740  1.00  0.00     0.074 A 
ATOM     41  C   UNL A   1      40.471  28.167  27.521  1.00  0.00     0.031 C 
ATOM     42  C   UNL A   1      38.258  31.987  32.810  1.00  0.00     0.029 A 
ATOM     43  C   UNL A   1      39.503  31.264  33.021  1.00  0.00     0.049 A 
ATOM     44  H   UNL A   1      40.473  29.997  31.679  1.00  0.00     0.167 HD
ATOM     45  C   UNL A   1      42.360  27.262  28.850  1.00  0.00     0.034 A 
ATOM     46  C   UNL A   1      40.219  31.295  34.165  1.00  0.00     0.034 A 
ATOM     47  C   UNL A   1      43.145  27.163  30.057  1.00  0.00     0.049 A 
ATOM     48  C   UNL A   1      41.419  30.400  34.290  1.00  0.00     0.074 A 
ATOM     49  C   UNL A   1      44.294  26.422  30.277  1.00  0.00     0.029 A 
ATOM     50  N   UNL A   1      42.881  27.842  31.237  1.00  0.00    -0.354 N 
ATOM     51  N   UNL A   1      41.939  29.592  33.396  1.00  0.00    -0.248 NA
ATOM     52  C   UNL A   1      42.109  30.394  35.586  1.00  0.00     0.031 C 
ATOM     53  C   UNL A   1      44.692  26.609  31.603  1.00  0.00     0.029 A 
ATOM     54  C   UNL A   1      43.834  27.524  32.191  1.00  0.00     0.049 A 
ATOM     55  H   UNL A   1      42.127  28.460  31.377  1.00  0.00     0.167 HD
ATOM     56  C   UNL A   1      43.028  28.992  34.019  1.00  0.00     0.074 A 
ATOM     57  C   UNL A   1      43.097  29.539  35.358  1.00  0.00     0.031 C 
ATOM     58  C   UNL A   1      43.889  28.070  33.525  1.00  0.00     0.034 A 
BRANCH  45  59
ATOM     59  C   UNL A   1      42.799  26.448  27.658  1.00  0.00     0.023 A 
ATOM     60  C   UNL A   1      42.366  25.129  27.452  1.00  0.00     0.031 A 
ATOM     61  C   UNL A   1      43.624  27.035  26.679  1.00  0.00     0.131 A 
ATOM     62  C   UNL A   1      42.780  24.430  26.305  1.00  0.00     0.055 A 
ATOM     63  C   UNL A   1      43.981  26.357  25.513  1.00  0.00     0.041 A 
ATOM     64  F   UNL A   1      44.080  28.288  26.834  1.00  0.00    -0.206 F 
ATOM     65  C   UNL A   1      43.562  25.044  25.323  1.00  0.00     0.022 A 
BRANCH  62  66
ATOM     66  S   UNL A   1      42.331  22.681  26.136  1.00  0.00     0.124 S 
ATOM     67  O   UNL A   1      43.056  22.082  27.254  1.00  0.00    -0.237 OA
ATOM     68  O   UNL A   1      40.878  22.711  26.260  1.00  0.00    -0.237 OA
ATOM     69  O   UNL A   1      42.835  22.323  24.811  1.00  0.00    -0.744 OA
ENDBRANCH  62  66
ENDBRANCH  45  59
BRANCH  46  70
ATOM     70  C   UNL A   1      39.765  32.138  35.309  1.00  0.00     0.023 A 
ATOM     71  C   UNL A   1      38.934  31.613  36.310  1.00  0.00     0.031 A 
ATOM     72  C   UNL A   1      40.157  33.486  35.417  1.00  0.00     0.131 A 
ATOM     73  C   UNL A   1      38.512  32.435  37.368  1.00  0.00     0.055 A 
ATOM     74  C   UNL A   1      39.780  34.282  36.499  1.00  0.00     0.041 A 
ATOM     75  F   UNL A   1      40.947  34.040  34.483  1.00  0.00    -0.206 F 
ATOM     76  C   UNL A   1      38.946  33.758  37.480  1.00  0.00     0.022 A 
BRANCH  73  77
ATOM     77  S   UNL A   1      37.342  31.762  38.581  1.00  0.00     0.124 S 
ATOM     78  O   UNL A   1      36.221  32.686  38.453  1.00  0.00    -0.237 OA
ATOM     79  O   UNL A   1      37.124  30.411  38.077  1.00  0.00    -0.237 OA
ATOM     80  O   UNL A   1      38.077  31.842  39.841  1.00  0.00    -0.744 OA
ENDBRANCH  73  77
ENDBRANCH  46  70
BRANCH  58  81
ATOM     81  C   UNL A   1      45.013  27.626  34.421  1.00  0.00     0.023 A 
ATOM     82  C   UNL A   1      44.902  26.482  35.228  1.00  0.00     0.031 A 
ATOM     83  C   UNL A   1      46.221  28.345  34.446  1.00  0.00     0.131 A 
ATOM     84  C   UNL A   1      45.971  26.107  36.055  1.00  0.00     0.055 A 
ATOM     85  C   UNL A   1      47.299  27.939  35.230  1.00  0.00     0.041 A 
ATOM     86  F   UNL A   1      46.375  29.445  33.691  1.00  0.00    -0.206 F 
ATOM     87  C   UNL A   1      47.176  26.818  36.047  1.00  0.00     0.022 A 
BRANCH  84  88
ATOM     88  S   UNL A   1      45.751  24.703  37.180  1.00  0.00     0.124 S 
ATOM     89  O   UNL A   1      45.263  25.359  38.389  1.00  0.00    -0.237 OA
ATOM     90  O   UNL A   1      44.782  23.877  36.468  1.00  0.00    -0.237 OA
ATOM     91  O   UNL A   1      47.093  24.133  37.283  1.00  0.00    -0.744 OA
ENDBRANCH  84  88
ENDBRANCH  58  81
ENDBRANCH  32  33
ENDBRANCH  25  27
ENDBRANCH  24  25
ENDBRANCH   1  24
TORSDOF 15
ENDMDL
MODEL 3
REMARK VINA RESULT:     -12.0      4.601      6.872
REMARK SMILES Cc1c(Br)c(C)c2c(c1Br)O[C@H](C(F)(F)F)C(C(=O)OCCOC(=O)c1ccc(-c3c4nc(c(-c5cc(S(=O)(=O)[O-])ccc5F)c5ccc([nH]5)c(-c5cc(S(=O)(=O)[O-])ccc5F)c5nc(c(-c6cc(S(=O)(=O)[O-])ccc6F)c6ccc3[nH]6)C=C5)C=C4)cc1)=C2
REMARK SMILES IDX 22 1 21 2 20 3 18 4 19 5 17 6 1 7 2 8 3 9 9 10 4 11 5 12
REMARK SMILES IDX 8 13 10 14 6 15 7 16 11 17 89 18 12 19 13 20 14 21 15 22
REMARK SMILES IDX 16 23 23 24 24 25 25 26 26 27 27 28 88 29 28 30 87 31 29 32
REMARK SMILES IDX 30 33 31 34 81 35 32 36 86 37 80 38 82 39 33 40 85 41 79 42
REMARK SMILES IDX 78 43 34 45 66 46 46 47 65 48 47 49 50 50 64 51 83 52 48 53
REMARK SMILES IDX 49 54 63 56 84 57 51 58 35 59 36 60 44 61 37 62 43 63 45 64
REMARK SMILES IDX 42 65 38 66 39 67 40 68 41 69 67 70 68 71 76 72 69 73 75 74
REMARK SMILES IDX 77 75 74 76 70 77 71 78 72 79 73 80 52 81 53 82 61 83 54 84
REMARK SMILES IDX 60 85 62 86 59 87 55 88 56 89 57 90 58 91
REMARK H PARENT 82 44 50 55
REMARK Flexibility Score: inf
ROOT
ATOM      1  C   UNL A   1      39.950  20.003  26.119  1.00  0.00     0.275 C 
ENDROOT
BRANCH   1   2
ATOM      2  C   UNL A   1      41.456  19.739  26.099  1.00  0.00     0.275 C 
BRANCH   2   3
ATOM      3  O   UNL A   1      42.205  20.960  25.914  1.00  0.00    -0.459 OA
BRANCH   3   4
ATOM      4  C   UNL A   1      43.469  20.802  25.454  1.00  0.00     0.338 C 
ATOM      5  O   UNL A   1      43.830  20.034  24.576  1.00  0.00    -0.246 OA
BRANCH   4   6
ATOM      6  C   UNL A   1      44.400  21.698  26.167  1.00  0.00     0.087 C 
ATOM      7  C   UNL A   1      47.261  26.317  29.814  1.00  0.00     0.047 C 
ATOM      8  C   UNL A   1      46.441  25.200  29.212  1.00  0.00    -0.019 A 
ATOM      9  C   UNL A   1      45.308  24.690  29.891  1.00  0.00     0.025 A 
ATOM     10  C   UNL A   1      46.812  24.598  27.990  1.00  0.00     0.064 A 
ATOM     11  Br  UNL A   1      44.894  25.370  31.640  1.00  0.00    -0.050 Br
ATOM     12  C   UNL A   1      44.499  23.678  29.321  1.00  0.00    -0.026 A 
ATOM     13  C   UNL A   1      46.029  23.582  27.412  1.00  0.00     0.142 A 
ATOM     14  Br  UNL A   1      48.407  25.134  27.071  1.00  0.00    -0.046 Br
ATOM     15  C   UNL A   1      43.271  23.143  30.027  1.00  0.00     0.046 C 
ATOM     16  C   UNL A   1      44.868  23.140  28.058  1.00  0.00     0.022 A 
ATOM     17  O   UNL A   1      46.474  23.044  26.230  1.00  0.00    -0.474 OA
ATOM     18  C   UNL A   1      44.056  22.128  27.384  1.00  0.00     0.027 C 
ATOM     19  C   UNL A   1      45.605  22.196  25.441  1.00  0.00     0.316 C 
BRANCH  19  20
ATOM     20  C   UNL A   1      45.222  22.929  24.146  1.00  0.00     0.430 C 
ATOM     21  F   UNL A   1      44.159  23.748  24.335  1.00  0.00    -0.167 F 
ATOM     22  F   UNL A   1      46.233  23.716  23.701  1.00  0.00    -0.167 F 
ATOM     23  F   UNL A   1      44.903  22.077  23.146  1.00  0.00    -0.167 F 
ENDBRANCH  19  20
ENDBRANCH   4   6
ENDBRANCH   3   4
ENDBRANCH   2   3
ENDBRANCH   1   2
BRANCH   1  24
ATOM     24  O   UNL A   1      39.652  21.153  26.929  1.00  0.00    -0.458 OA
BRANCH  24  25
ATOM     25  C   UNL A   1      39.121  22.203  26.258  1.00  0.00     0.338 C 
ATOM     26  O   UNL A   1      38.390  22.160  25.284  1.00  0.00    -0.246 OA
BRANCH  25  27
ATOM     27  C   UNL A   1      39.480  23.464  26.924  1.00  0.00     0.060 A 
ATOM     28  C   UNL A   1      39.015  24.653  26.380  1.00  0.00     0.016 A 
ATOM     29  C   UNL A   1      40.428  23.490  27.944  1.00  0.00     0.016 A 
ATOM     30  C   UNL A   1      39.613  25.857  26.733  1.00  0.00     0.010 A 
ATOM     31  C   UNL A   1      40.918  24.723  28.401  1.00  0.00     0.010 A 
ATOM     32  C   UNL A   1      40.562  25.925  27.762  1.00  0.00    -0.014 A 
BRANCH  32  33
ATOM     33  C   UNL A   1      41.194  27.234  28.127  1.00  0.00     0.031 A 
ATOM     34  C   UNL A   1      40.413  28.271  28.905  1.00  0.00     0.074 A 
ATOM     35  C   UNL A   1      42.483  27.489  27.813  1.00  0.00     0.049 A 
ATOM     36  N   UNL A   1      40.702  29.530  29.123  1.00  0.00    -0.248 NA
ATOM     37  C   UNL A   1      39.138  27.844  29.506  1.00  0.00     0.031 C 
ATOM     38  C   UNL A   1      43.395  26.563  27.136  1.00  0.00     0.029 A 
ATOM     39  N   UNL A   1      43.266  28.597  28.042  1.00  0.00    -0.354 N 
ATOM     40  C   UNL A   1      39.623  30.057  29.828  1.00  0.00     0.074 A 
ATOM     41  C   UNL A   1      38.670  28.983  30.001  1.00  0.00     0.031 C 
ATOM     42  C   UNL A   1      44.621  27.101  27.084  1.00  0.00     0.029 A 
ATOM     43  C   UNL A   1      44.557  28.468  27.579  1.00  0.00     0.049 A 
ATOM     44  H   UNL A   1      42.935  29.405  28.495  1.00  0.00     0.167 HD
ATOM     45  C   UNL A   1      39.446  31.322  30.284  1.00  0.00     0.034 A 
ATOM     46  C   UNL A   1      45.566  29.359  27.492  1.00  0.00     0.034 A 
ATOM     47  C   UNL A   1      40.433  32.367  30.159  1.00  0.00     0.049 A 
ATOM     48  C   UNL A   1      45.319  30.775  27.931  1.00  0.00     0.074 A 
ATOM     49  C   UNL A   1      40.345  33.686  30.573  1.00  0.00     0.029 A 
ATOM     50  N   UNL A   1      41.695  32.210  29.604  1.00  0.00    -0.354 N 
ATOM     51  N   UNL A   1      44.238  31.293  28.464  1.00  0.00    -0.248 NA
ATOM     52  C   UNL A   1      46.414  31.733  27.728  1.00  0.00     0.031 C 
ATOM     53  C   UNL A   1      41.528  34.338  30.219  1.00  0.00     0.029 A 
ATOM     54  C   UNL A   1      42.385  33.411  29.650  1.00  0.00     0.049 A 
ATOM     55  H   UNL A   1      42.048  31.370  29.233  1.00  0.00     0.167 HD
ATOM     56  C   UNL A   1      44.528  32.637  28.672  1.00  0.00     0.074 A 
ATOM     57  C   UNL A   1      45.888  32.846  28.220  1.00  0.00     0.031 C 
ATOM     58  C   UNL A   1      43.738  33.609  29.190  1.00  0.00     0.034 A 
BRANCH  45  59
ATOM     59  C   UNL A   1      38.123  31.676  30.917  1.00  0.00     0.023 A 
ATOM     60  C   UNL A   1      37.078  32.265  30.188  1.00  0.00     0.031 A 
ATOM     61  C   UNL A   1      37.891  31.359  32.269  1.00  0.00     0.131 A 
ATOM     62  C   UNL A   1      35.855  32.541  30.822  1.00  0.00     0.055 A 
ATOM     63  C   UNL A   1      36.655  31.580  32.877  1.00  0.00     0.041 A 
ATOM     64  F   UNL A   1      38.861  30.810  33.017  1.00  0.00    -0.206 F 
ATOM     65  C   UNL A   1      35.629  32.179  32.152  1.00  0.00     0.022 A 
BRANCH  62  66
ATOM     66  S   UNL A   1      34.575  33.438  29.902  1.00  0.00     0.124 S 
ATOM     67  O   UNL A   1      33.742  33.954  30.985  1.00  0.00    -0.237 OA
ATOM     68  O   UNL A   1      35.349  34.429  29.163  1.00  0.00    -0.237 OA
ATOM     69  O   UNL A   1      33.950  32.400  29.083  1.00  0.00    -0.744 OA
ENDBRANCH  62  66
ENDBRANCH  45  59
BRANCH  46  70
ATOM     70  C   UNL A   1      46.869  28.958  26.886  1.00  0.00     0.023 A 
ATOM     71  C   UNL A   1      46.947  28.538  25.550  1.00  0.00     0.031 A 
ATOM     72  C   UNL A   1      48.059  28.988  27.638  1.00  0.00     0.131 A 
ATOM     73  C   UNL A   1      48.185  28.153  25.011  1.00  0.00     0.055 A 
ATOM     74  C   UNL A   1      49.294  28.658  27.082  1.00  0.00     0.041 A 
ATOM     75  F   UNL A   1      48.040  29.377  28.924  1.00  0.00    -0.206 F 
ATOM     76  C   UNL A   1      49.362  28.230  25.761  1.00  0.00     0.022 A 
BRANCH  73  77
ATOM     77  S   UNL A   1      48.234  27.500  23.319  1.00  0.00     0.124 S 
ATOM     78  O   UNL A   1      47.120  28.207  22.698  1.00  0.00    -0.237 OA
ATOM     79  O   UNL A   1      49.569  27.891  22.881  1.00  0.00    -0.237 OA
ATOM     80  O   UNL A   1      48.038  26.064  23.503  1.00  0.00    -0.744 OA
ENDBRANCH  73  77
ENDBRANCH  46  70
BRANCH  58  81
ATOM     81  C   UNL A   1      44.339  34.980  29.340  1.00  0.00     0.023 A 
ATOM     82  C   UNL A   1      44.107  35.991  28.393  1.00  0.00     0.031 A 
ATOM     83  C   UNL A   1      45.131  35.284  30.460  1.00  0.00     0.131 A 
ATOM     84  C   UNL A   1      44.692  37.254  28.567  1.00  0.00     0.055 A 
ATOM     85  C   UNL A   1      45.668  36.555  30.654  1.00  0.00     0.041 A 
ATOM     86  F   UNL A   1      45.380  34.350  31.393  1.00  0.00    -0.206 F 
ATOM     87  C   UNL A   1      45.456  37.548  29.701  1.00  0.00     0.022 A 
BRANCH  84  88
ATOM     88  S   UNL A   1      44.482  38.498  27.265  1.00  0.00     0.124 S 
ATOM     89  O   UNL A   1      43.205  38.107  26.678  1.00  0.00    -0.237 OA
ATOM     90  O   UNL A   1      44.481  39.747  28.019  1.00  0.00    -0.237 OA
ATOM     91  O   UNL A   1      45.648  38.295  26.406  1.00  0.00    -0.744 OA
ENDBRANCH  84  88
ENDBRANCH  58  81
ENDBRANCH  32  33
ENDBRANCH  25  27
ENDBRANCH  24  25
ENDBRANCH   1  24
TORSDOF 15
ENDMDL
