MODEL 1
REMARK VINA RESULT:     -10.8      0.000      0.000
REMARK SMILES O=C(NCC(=O)OCCOC(=O)c1ccc(-c2c3nc(c(-c4cc(S(=O)(=O)[O-])ccc4F)c4ccc([nH]4)c(-c4cc(S(=O)(=O)[O-])ccc4F)c4nc(c(-c5cc(S(=O)(=O)[O-])ccc5F)c5ccc2[nH]5)C=C4)C=C3)cc1)Nc1cccc2c1CCCC2
REMARK SMILES IDX 9 1 8 2 7 3 5 4 6 5 4 6 3 7 1 8 2 9 76 10 77 13 78 14 82 15
REMARK SMILES IDX 79 16 81 17 83 18 80 19 86 20 84 21 85 22 10 23 11 24 12 25
REMARK SMILES IDX 13 26 14 27 75 28 15 29 74 30 16 31 17 32 18 33 68 34 19 35
REMARK SMILES IDX 73 36 67 37 69 38 20 39 72 40 66 41 65 42 21 44 53 45 33 46
REMARK SMILES IDX 52 47 34 48 37 49 51 50 70 51 35 52 36 53 50 55 71 56 38 57
REMARK SMILES IDX 22 58 23 59 31 60 24 61 30 62 32 63 29 64 25 65 26 66 27 67
REMARK SMILES IDX 28 68 54 69 55 70 63 71 56 72 62 73 64 74 61 75 57 76 58 77
REMARK SMILES IDX 59 78 60 79 39 80 40 81 48 82 41 83 47 84 49 85 46 86 42 87
REMARK SMILES IDX 43 88 44 89 45 90
REMARK H PARENT 3 11 76 12 69 43 37 54
REMARK Flexibility Score: inf
ROOT
ATOM      1  C   UNL A   1      33.253  32.687  28.008  1.00  0.00     0.275 C 
ENDROOT
BRANCH   1   2
ATOM      2  C   UNL A   1      33.477  34.203  28.001  1.00  0.00     0.274 C 
BRANCH   2   3
ATOM      3  O   UNL A   1      32.636  34.868  28.960  1.00  0.00    -0.461 OA
BRANCH   3   4
ATOM      4  C   UNL A   1      33.050  36.095  29.383  1.00  0.00     0.325 C 
ATOM      5  O   UNL A   1      33.274  37.049  28.647  1.00  0.00    -0.250 OA
BRANCH   4   6
ATOM      6  C   UNL A   1      33.154  36.192  30.904  1.00  0.00     0.240 C 
BRANCH   6   7
ATOM      7  N   UNL A   1      33.320  34.914  31.576  1.00  0.00    -0.327 N 
ATOM      8  O   UNL A   1      34.090  32.905  32.085  1.00  0.00    -0.248 OA
ATOM      9  C   UNL A   1      34.278  33.954  31.474  1.00  0.00     0.319 C 
ATOM     10  N   UNL A   1      35.410  34.294  30.758  1.00  0.00    -0.308 N 
ATOM     11  H   UNL A   1      32.609  34.704  32.223  1.00  0.00     0.166 HD
ATOM     12  H   UNL A   1      35.371  35.063  30.143  1.00  0.00     0.171 HD
BRANCH  10  13
ATOM     13  C   UNL A   1      36.632  33.571  30.881  1.00  0.00     0.046 A 
ATOM     14  C   UNL A   1      37.294  33.395  29.671  1.00  0.00     0.026 A 
ATOM     15  C   UNL A   1      37.404  33.630  32.040  1.00  0.00    -0.021 A 
ATOM     16  C   UNL A   1      38.645  33.739  29.604  1.00  0.00     0.002 A 
ATOM     17  C   UNL A   1      38.666  34.225  31.970  1.00  0.00    -0.043 A 
ATOM     18  C   UNL A   1      37.412  32.415  32.976  1.00  0.00     0.038 C 
ATOM     19  C   UNL A   1      39.294  34.269  30.728  1.00  0.00     0.004 A 
ATOM     20  C   UNL A   1      39.312  34.671  33.254  1.00  0.00     0.036 C 
ATOM     21  C   UNL A   1      38.177  32.644  34.287  1.00  0.00     0.005 C 
ATOM     22  C   UNL A   1      38.596  34.098  34.490  1.00  0.00     0.005 C 
ENDBRANCH  10  13
ENDBRANCH   6   7
ENDBRANCH   4   6
ENDBRANCH   3   4
ENDBRANCH   2   3
ENDBRANCH   1   2
BRANCH   1  23
ATOM     23  O   UNL A   1      34.411  31.956  28.451  1.00  0.00    -0.458 OA
BRANCH  23  24
ATOM     24  C   UNL A   1      34.615  30.769  27.828  1.00  0.00     0.338 C 
ATOM     25  O   UNL A   1      33.889  30.240  27.005  1.00  0.00    -0.246 OA
BRANCH  24  26
ATOM     26  C   UNL A   1      35.946  30.240  28.177  1.00  0.00     0.060 A 
ATOM     27  C   UNL A   1      36.116  29.711  29.457  1.00  0.00     0.016 A 
ATOM     28  C   UNL A   1      37.026  30.328  27.296  1.00  0.00     0.016 A 
ATOM     29  C   UNL A   1      37.372  29.279  29.873  1.00  0.00     0.010 A 
ATOM     30  C   UNL A   1      38.285  29.874  27.709  1.00  0.00     0.010 A 
ATOM     31  C   UNL A   1      38.468  29.351  29.002  1.00  0.00    -0.014 A 
BRANCH  31  32
ATOM     32  C   UNL A   1      39.796  28.862  29.455  1.00  0.00     0.031 A 
ATOM     33  C   UNL A   1      40.520  29.549  30.578  1.00  0.00     0.074 A 
ATOM     34  C   UNL A   1      40.334  27.779  28.863  1.00  0.00     0.049 A 
ATOM     35  N   UNL A   1      41.705  29.298  31.073  1.00  0.00    -0.248 NA
ATOM     36  C   UNL A   1      39.820  30.668  31.224  1.00  0.00     0.031 C 
ATOM     37  C   UNL A   1      39.704  27.009  27.789  1.00  0.00     0.029 A 
ATOM     38  N   UNL A   1      41.527  27.136  29.076  1.00  0.00    -0.354 N 
ATOM     39  C   UNL A   1      41.900  30.233  32.085  1.00  0.00     0.074 A 
ATOM     40  C   UNL A   1      40.722  31.075  32.107  1.00  0.00     0.031 C 
ATOM     41  C   UNL A   1      40.511  25.994  27.445  1.00  0.00     0.029 A 
ATOM     42  C   UNL A   1      41.742  26.077  28.225  1.00  0.00     0.049 A 
ATOM     43  H   UNL A   1      42.169  27.407  29.772  1.00  0.00     0.167 HD
ATOM     44  C   UNL A   1      42.964  30.367  32.918  1.00  0.00     0.034 A 
ATOM     45  C   UNL A   1      42.821  25.285  28.064  1.00  0.00     0.034 A 
ATOM     46  C   UNL A   1      44.132  29.519  32.873  1.00  0.00     0.049 A 
ATOM     47  C   UNL A   1      44.026  25.515  28.940  1.00  0.00     0.074 A 
ATOM     48  C   UNL A   1      45.253  29.552  33.685  1.00  0.00     0.029 A 
ATOM     49  N   UNL A   1      44.342  28.494  31.957  1.00  0.00    -0.354 N 
ATOM     50  N   UNL A   1      44.195  26.397  29.898  1.00  0.00    -0.248 NA
ATOM     51  C   UNL A   1      45.184  24.643  28.712  1.00  0.00     0.031 C 
ATOM     52  C   UNL A   1      46.171  28.609  33.210  1.00  0.00     0.029 A 
ATOM     53  C   UNL A   1      45.591  27.922  32.156  1.00  0.00     0.049 A 
ATOM     54  H   UNL A   1      43.698  28.216  31.267  1.00  0.00     0.167 HD
ATOM     55  C   UNL A   1      45.473  26.169  30.402  1.00  0.00     0.074 A 
ATOM     56  C   UNL A   1      46.018  25.052  29.658  1.00  0.00     0.031 C 
ATOM     57  C   UNL A   1      46.135  26.822  31.391  1.00  0.00     0.034 A 
BRANCH  44  58
ATOM     58  C   UNL A   1      42.936  31.507  33.910  1.00  0.00     0.023 A 
ATOM     59  C   UNL A   1      42.335  31.380  35.174  1.00  0.00     0.031 A 
ATOM     60  C   UNL A   1      43.509  32.748  33.577  1.00  0.00     0.131 A 
ATOM     61  C   UNL A   1      42.263  32.490  36.031  1.00  0.00     0.055 A 
ATOM     62  C   UNL A   1      43.505  33.826  34.467  1.00  0.00     0.041 A 
ATOM     63  F   UNL A   1      44.078  32.940  32.377  1.00  0.00    -0.206 F 
ATOM     64  C   UNL A   1      42.866  33.705  35.697  1.00  0.00     0.022 A 
BRANCH  61  65
ATOM     65  S   UNL A   1      41.246  32.366  37.528  1.00  0.00     0.124 S 
ATOM     66  O   UNL A   1      41.032  33.774  37.857  1.00  0.00    -0.237 OA
ATOM     67  O   UNL A   1      40.077  31.634  37.055  1.00  0.00    -0.237 OA
ATOM     68  O   UNL A   1      42.101  31.640  38.465  1.00  0.00    -0.744 OA
ENDBRANCH  61  65
ENDBRANCH  44  58
BRANCH  45  69
ATOM     69  C   UNL A   1      42.837  24.240  27.000  1.00  0.00     0.023 A 
ATOM     70  C   UNL A   1      42.184  23.012  27.178  1.00  0.00     0.031 A 
ATOM     71  C   UNL A   1      43.548  24.442  25.803  1.00  0.00     0.131 A 
ATOM     72  C   UNL A   1      42.291  22.015  26.195  1.00  0.00     0.055 A 
ATOM     73  C   UNL A   1      43.601  23.471  24.802  1.00  0.00     0.041 A 
ATOM     74  F   UNL A   1      44.195  25.597  25.582  1.00  0.00    -0.206 F 
ATOM     75  C   UNL A   1      42.981  22.242  25.001  1.00  0.00     0.022 A 
BRANCH  72  76
ATOM     76  S   UNL A   1      41.593  20.377  26.540  1.00  0.00     0.124 S 
ATOM     77  O   UNL A   1      42.237  20.041  27.805  1.00  0.00    -0.237 OA
ATOM     78  O   UNL A   1      40.164  20.665  26.604  1.00  0.00    -0.237 OA
ATOM     79  O   UNL A   1      42.016  19.578  25.392  1.00  0.00    -0.744 OA
ENDBRANCH  72  76
ENDBRANCH  45  69
BRANCH  57  80
ATOM     80  C   UNL A   1      47.514  26.315  31.740  1.00  0.00     0.023 A 
ATOM     81  C   UNL A   1      48.649  26.685  30.997  1.00  0.00     0.031 A 
ATOM     82  C   UNL A   1      47.693  25.431  32.821  1.00  0.00     0.131 A 
ATOM     83  C   UNL A   1      49.900  26.128  31.303  1.00  0.00     0.055 A 
ATOM     84  C   UNL A   1      48.951  24.933  33.163  1.00  0.00     0.041 A 
ATOM     85  F   UNL A   1      46.646  25.038  33.563  1.00  0.00    -0.206 F 
ATOM     86  C   UNL A   1      50.062  25.269  32.393  1.00  0.00     0.022 A 
BRANCH  83  87
ATOM     87  S   UNL A   1      51.295  26.457  30.193  1.00  0.00     0.124 S 
ATOM     88  O   UNL A   1      52.416  25.894  30.939  1.00  0.00    -0.237 OA
ATOM     89  O   UNL A   1      50.910  25.739  28.984  1.00  0.00    -0.237 OA
ATOM     90  O   UNL A   1      51.301  27.915  30.073  1.00  0.00    -0.744 OA
ENDBRANCH  83  87
ENDBRANCH  57  80
ENDBRANCH  31  32
ENDBRANCH  24  26
ENDBRANCH  23  24
ENDBRANCH   1  23
TORSDOF 16
ENDMDL
MODEL 2
REMARK VINA RESULT:     -10.7      1.474      1.811
REMARK SMILES O=C(NCC(=O)OCCOC(=O)c1ccc(-c2c3nc(c(-c4cc(S(=O)(=O)[O-])ccc4F)c4ccc([nH]4)c(-c4cc(S(=O)(=O)[O-])ccc4F)c4nc(c(-c5cc(S(=O)(=O)[O-])ccc5F)c5ccc2[nH]5)C=C4)C=C3)cc1)Nc1cccc2c1CCCC2
REMARK SMILES IDX 9 1 8 2 7 3 5 4 6 5 4 6 3 7 1 8 2 9 76 10 77 13 78 14 82 15
REMARK SMILES IDX 79 16 81 17 83 18 80 19 86 20 84 21 85 22 10 23 11 24 12 25
REMARK SMILES IDX 13 26 14 27 75 28 15 29 74 30 16 31 17 32 18 33 68 34 19 35
REMARK SMILES IDX 73 36 67 37 69 38 20 39 72 40 66 41 65 42 21 44 53 45 33 46
REMARK SMILES IDX 52 47 34 48 37 49 51 50 70 51 35 52 36 53 50 55 71 56 38 57
REMARK SMILES IDX 22 58 23 59 31 60 24 61 30 62 32 63 29 64 25 65 26 66 27 67
REMARK SMILES IDX 28 68 54 69 55 70 63 71 56 72 62 73 64 74 61 75 57 76 58 77
REMARK SMILES IDX 59 78 60 79 39 80 40 81 48 82 41 83 47 84 49 85 46 86 42 87
REMARK SMILES IDX 43 88 44 89 45 90
REMARK H PARENT 3 11 76 12 69 43 37 54
REMARK Flexibility Score: inf
ROOT
ATOM      1  C   UNL A   1      34.022  33.189  28.864  1.00  0.00     0.275 C 
ENDROOT
BRANCH   1   2
ATOM      2  C   UNL A   1      33.299  34.508  28.569  1.00  0.00     0.274 C 
BRANCH   2   3
ATOM      3  O   UNL A   1      32.619  35.012  29.732  1.00  0.00    -0.461 OA
BRANCH   3   4
ATOM      4  C   UNL A   1      32.981  36.253  30.157  1.00  0.00     0.325 C 
ATOM      5  O   UNL A   1      33.178  37.215  29.423  1.00  0.00    -0.250 OA
BRANCH   4   6
ATOM      6  C   UNL A   1      33.065  36.355  31.679  1.00  0.00     0.240 C 
BRANCH   6   7
ATOM      7  N   UNL A   1      33.212  35.079  32.358  1.00  0.00    -0.327 N 
ATOM      8  O   UNL A   1      33.977  33.078  32.904  1.00  0.00    -0.248 OA
ATOM      9  C   UNL A   1      34.184  34.129  32.302  1.00  0.00     0.319 C 
ATOM     10  N   UNL A   1      35.345  34.482  31.641  1.00  0.00    -0.308 N 
ATOM     11  H   UNL A   1      32.473  34.862  32.971  1.00  0.00     0.166 HD
ATOM     12  H   UNL A   1      35.327  35.250  31.025  1.00  0.00     0.171 HD
BRANCH  10  13
ATOM     13  C   UNL A   1      36.567  33.771  31.822  1.00  0.00     0.046 A 
ATOM     14  C   UNL A   1      37.293  33.611  30.647  1.00  0.00     0.026 A 
ATOM     15  C   UNL A   1      37.278  33.829  33.020  1.00  0.00    -0.021 A 
ATOM     16  C   UNL A   1      38.642  33.971  30.653  1.00  0.00     0.002 A 
ATOM     17  C   UNL A   1      38.535  34.439  33.020  1.00  0.00    -0.043 A 
ATOM     18  C   UNL A   1      37.250  32.607  33.946  1.00  0.00     0.038 C 
ATOM     19  C   UNL A   1      39.226  34.499  31.812  1.00  0.00     0.004 A 
ATOM     20  C   UNL A   1      39.108  34.882  34.338  1.00  0.00     0.036 C 
ATOM     21  C   UNL A   1      37.944  32.834  35.297  1.00  0.00     0.005 C 
ATOM     22  C   UNL A   1      38.335  34.292  35.532  1.00  0.00     0.005 C 
ENDBRANCH  10  13
ENDBRANCH   6   7
ENDBRANCH   4   6
ENDBRANCH   3   4
ENDBRANCH   2   3
ENDBRANCH   1   2
BRANCH   1  23
ATOM     23  O   UNL A   1      34.478  32.526  27.670  1.00  0.00    -0.458 OA
BRANCH  23  24
ATOM     24  C   UNL A   1      34.388  31.174  27.693  1.00  0.00     0.338 C 
ATOM     25  O   UNL A   1      33.457  30.496  27.295  1.00  0.00    -0.246 OA
BRANCH  24  26
ATOM     26  C   UNL A   1      35.663  30.592  28.144  1.00  0.00     0.060 A 
ATOM     27  C   UNL A   1      35.624  29.711  29.227  1.00  0.00     0.016 A 
ATOM     28  C   UNL A   1      36.883  30.956  27.571  1.00  0.00     0.016 A 
ATOM     29  C   UNL A   1      36.806  29.199  29.754  1.00  0.00     0.010 A 
ATOM     30  C   UNL A   1      38.071  30.425  28.090  1.00  0.00     0.010 A 
ATOM     31  C   UNL A   1      38.041  29.547  29.187  1.00  0.00    -0.014 A 
BRANCH  31  32
ATOM     32  C   UNL A   1      39.291  28.971  29.749  1.00  0.00     0.031 A 
ATOM     33  C   UNL A   1      39.925  29.569  30.972  1.00  0.00     0.074 A 
ATOM     34  C   UNL A   1      39.838  27.890  29.161  1.00  0.00     0.049 A 
ATOM     35  N   UNL A   1      41.039  29.236  31.573  1.00  0.00    -0.248 NA
ATOM     36  C   UNL A   1      39.213  30.692  31.599  1.00  0.00     0.031 C 
ATOM     37  C   UNL A   1      39.288  27.202  27.991  1.00  0.00     0.029 A 
ATOM     38  N   UNL A   1      40.972  27.179  29.462  1.00  0.00    -0.354 N 
ATOM     39  C   UNL A   1      41.171  30.113  32.645  1.00  0.00     0.074 A 
ATOM     40  C   UNL A   1      40.036  31.012  32.589  1.00  0.00     0.031 C 
ATOM     41  C   UNL A   1      40.080  26.164  27.680  1.00  0.00     0.029 A 
ATOM     42  C   UNL A   1      41.225  26.149  28.585  1.00  0.00     0.049 A 
ATOM     43  H   UNL A   1      41.549  27.385  30.231  1.00  0.00     0.167 HD
ATOM     44  C   UNL A   1      42.147  30.156  33.587  1.00  0.00     0.034 A 
ATOM     45  C   UNL A   1      42.278  25.312  28.494  1.00  0.00     0.034 A 
ATOM     46  C   UNL A   1      43.274  29.251  33.619  1.00  0.00     0.049 A 
ATOM     47  C   UNL A   1      43.394  25.441  29.499  1.00  0.00     0.074 A 
ATOM     48  C   UNL A   1      44.304  29.191  34.541  1.00  0.00     0.029 A 
ATOM     49  N   UNL A   1      43.531  28.260  32.678  1.00  0.00    -0.354 N 
ATOM     50  N   UNL A   1      43.503  26.269  30.512  1.00  0.00    -0.248 NA
ATOM     51  C   UNL A   1      44.528  24.523  29.347  1.00  0.00     0.031 C 
ATOM     52  C   UNL A   1      45.223  28.225  34.115  1.00  0.00     0.029 A 
ATOM     53  C   UNL A   1      44.724  27.617  32.974  1.00  0.00     0.049 A 
ATOM     54  H   UNL A   1      42.950  28.046  31.913  1.00  0.00     0.167 HD
ATOM     55  C   UNL A   1      44.709  25.953  31.132  1.00  0.00     0.074 A 
ATOM     56  C   UNL A   1      45.277  24.845  30.392  1.00  0.00     0.031 C 
ATOM     57  C   UNL A   1      45.294  26.527  32.215  1.00  0.00     0.034 A 
BRANCH  44  58
ATOM     58  C   UNL A   1      42.068  31.249  34.627  1.00  0.00     0.023 A 
ATOM     59  C   UNL A   1      42.534  32.551  34.375  1.00  0.00     0.031 A 
ATOM     60  C   UNL A   1      41.528  30.979  35.898  1.00  0.00     0.131 A 
ATOM     61  C   UNL A   1      42.512  33.513  35.397  1.00  0.00     0.055 A 
ATOM     62  C   UNL A   1      41.435  31.964  36.885  1.00  0.00     0.041 A 
ATOM     63  F   UNL A   1      41.086  29.750  36.207  1.00  0.00    -0.206 F 
ATOM     64  C   UNL A   1      41.942  33.236  36.643  1.00  0.00     0.022 A 
BRANCH  61  65
ATOM     65  S   UNL A   1      43.368  35.090  35.125  1.00  0.00     0.124 S 
ATOM     66  O   UNL A   1      42.604  35.652  34.013  1.00  0.00    -0.237 OA
ATOM     67  O   UNL A   1      43.213  35.759  36.411  1.00  0.00    -0.237 OA
ATOM     68  O   UNL A   1      44.732  34.686  34.791  1.00  0.00    -0.744 OA
ENDBRANCH  61  65
ENDBRANCH  44  58
BRANCH  45  69
ATOM     69  C   UNL A   1      42.356  24.317  27.386  1.00  0.00     0.023 A 
ATOM     70  C   UNL A   1      41.611  23.130  27.421  1.00  0.00     0.031 A 
ATOM     71  C   UNL A   1      43.219  24.523  26.293  1.00  0.00     0.131 A 
ATOM     72  C   UNL A   1      41.774  22.173  26.407  1.00  0.00     0.055 A 
ATOM     73  C   UNL A   1      43.331  23.596  25.256  1.00  0.00     0.041 A 
ATOM     74  F   UNL A   1      43.959  25.640  26.211  1.00  0.00    -0.206 F 
ATOM     75  C   UNL A   1      42.615  22.405  25.316  1.00  0.00     0.022 A 
BRANCH  72  76
ATOM     76  S   UNL A   1      40.937  20.572  26.581  1.00  0.00     0.124 S 
ATOM     77  O   UNL A   1      39.646  20.843  25.960  1.00  0.00    -0.237 OA
ATOM     78  O   UNL A   1      41.831  19.683  25.846  1.00  0.00    -0.237 OA
ATOM     79  O   UNL A   1      40.903  20.362  28.027  1.00  0.00    -0.744 OA
ENDBRANCH  72  76
ENDBRANCH  45  69
BRANCH  57  80
ATOM     80  C   UNL A   1      46.605  25.935  32.676  1.00  0.00     0.023 A 
ATOM     81  C   UNL A   1      47.832  26.326  32.112  1.00  0.00     0.031 A 
ATOM     82  C   UNL A   1      46.624  24.950  33.681  1.00  0.00     0.131 A 
ATOM     83  C   UNL A   1      49.020  25.693  32.512  1.00  0.00     0.055 A 
ATOM     84  C   UNL A   1      47.816  24.373  34.122  1.00  0.00     0.041 A 
ATOM     85  F   UNL A   1      45.483  24.533  34.252  1.00  0.00    -0.206 F 
ATOM     86  C   UNL A   1      49.022  24.733  33.526  1.00  0.00     0.022 A 
BRANCH  83  87
ATOM     87  S   UNL A   1      50.550  26.066  31.613  1.00  0.00     0.124 S 
ATOM     88  O   UNL A   1      50.154  27.216  30.806  1.00  0.00    -0.237 OA
ATOM     89  O   UNL A   1      51.490  26.340  32.694  1.00  0.00    -0.237 OA
ATOM     90  O   UNL A   1      50.812  24.841  30.859  1.00  0.00    -0.744 OA
ENDBRANCH  83  87
ENDBRANCH  57  80
ENDBRANCH  31  32
ENDBRANCH  24  26
ENDBRANCH  23  24
ENDBRANCH   1  23
TORSDOF 16
ENDMDL
MODEL 3
REMARK VINA RESULT:     -10.6      3.940     11.574
REMARK SMILES O=C(NCC(=O)OCCOC(=O)c1ccc(-c2c3nc(c(-c4cc(S(=O)(=O)[O-])ccc4F)c4ccc([nH]4)c(-c4cc(S(=O)(=O)[O-])ccc4F)c4nc(c(-c5cc(S(=O)(=O)[O-])ccc5F)c5ccc2[nH]5)C=C4)C=C3)cc1)Nc1cccc2c1CCCC2
REMARK SMILES IDX 9 1 8 2 7 3 5 4 6 5 4 6 3 7 1 8 2 9 76 10 77 13 78 14 82 15
REMARK SMILES IDX 79 16 81 17 83 18 80 19 86 20 84 21 85 22 10 23 11 24 12 25
REMARK SMILES IDX 13 26 14 27 75 28 15 29 74 30 16 31 17 32 18 33 68 34 19 35
REMARK SMILES IDX 73 36 67 37 69 38 20 39 72 40 66 41 65 42 21 44 53 45 33 46
REMARK SMILES IDX 52 47 34 48 37 49 51 50 70 51 35 52 36 53 50 55 71 56 38 57
REMARK SMILES IDX 22 58 23 59 31 60 24 61 30 62 32 63 29 64 25 65 26 66 27 67
REMARK SMILES IDX 28 68 54 69 55 70 63 71 56 72 62 73 64 74 61 75 57 76 58 77
REMARK SMILES IDX 59 78 60 79 39 80 40 81 48 82 41 83 47 84 49 85 46 86 42 87
REMARK SMILES IDX 43 88 44 89 45 90
REMARK H PARENT 3 11 76 12 69 43 37 54
REMARK Flexibility Score: inf
ROOT
ATOM      1  C   UNL A   1      40.542  21.048  26.071  1.00  0.00     0.275 C 
ENDROOT
BRANCH   1   2
ATOM      2  C   UNL A   1      40.978  19.687  26.625  1.00  0.00     0.274 C 
BRANCH   2   3
ATOM      3  O   UNL A   1      42.406  19.605  26.769  1.00  0.00    -0.461 OA
BRANCH   3   4
ATOM      4  C   UNL A   1      43.045  18.699  25.978  1.00  0.00     0.325 C 
ATOM      5  O   UNL A   1      42.620  17.582  25.709  1.00  0.00    -0.250 OA
BRANCH   4   6
ATOM      6  C   UNL A   1      44.349  19.241  25.394  1.00  0.00     0.240 C 
BRANCH   6   7
ATOM      7  N   UNL A   1      44.198  20.461  24.620  1.00  0.00    -0.327 N 
ATOM      8  O   UNL A   1      43.710  22.550  24.084  1.00  0.00    -0.248 OA
ATOM      9  C   UNL A   1      43.894  21.735  24.985  1.00  0.00     0.319 C 
ATOM     10  N   UNL A   1      43.910  22.001  26.341  1.00  0.00    -0.308 N 
ATOM     11  H   UNL A   1      44.341  20.344  23.653  1.00  0.00     0.166 HD
ATOM     12  H   UNL A   1      43.861  21.249  26.974  1.00  0.00     0.171 HD
BRANCH  10  13
ATOM     13  C   UNL A   1      43.996  23.328  26.853  1.00  0.00     0.046 A 
ATOM     14  C   UNL A   1      43.104  23.581  27.890  1.00  0.00     0.026 A 
ATOM     15  C   UNL A   1      45.194  24.042  26.841  1.00  0.00    -0.021 A 
ATOM     16  C   UNL A   1      43.603  24.145  29.065  1.00  0.00     0.002 A 
ATOM     17  C   UNL A   1      45.791  24.362  28.063  1.00  0.00    -0.043 A 
ATOM     18  C   UNL A   1      45.358  25.178  25.825  1.00  0.00     0.038 C 
ATOM     19  C   UNL A   1      44.972  24.421  29.189  1.00  0.00     0.004 A 
ATOM     20  C   UNL A   1      47.248  24.738  28.064  1.00  0.00     0.036 C 
ATOM     21  C   UNL A   1      46.764  25.796  25.803  1.00  0.00     0.005 C 
ATOM     22  C   UNL A   1      47.773  25.018  26.645  1.00  0.00     0.005 C 
ENDBRANCH  10  13
ENDBRANCH   6   7
ENDBRANCH   4   6
ENDBRANCH   3   4
ENDBRANCH   2   3
ENDBRANCH   1   2
BRANCH   1  23
ATOM     23  O   UNL A   1      39.742  21.797  27.005  1.00  0.00    -0.458 OA
BRANCH  23  24
ATOM     24  C   UNL A   1      39.000  22.792  26.459  1.00  0.00     0.338 C 
ATOM     25  O   UNL A   1      37.974  22.669  25.813  1.00  0.00    -0.246 OA
BRANCH  24  26
ATOM     26  C   UNL A   1      39.528  24.102  26.879  1.00  0.00     0.060 A 
ATOM     27  C   UNL A   1      39.400  24.448  28.225  1.00  0.00     0.016 A 
ATOM     28  C   UNL A   1      40.069  25.005  25.962  1.00  0.00     0.016 A 
ATOM     29  C   UNL A   1      39.799  25.708  28.662  1.00  0.00     0.010 A 
ATOM     30  C   UNL A   1      40.488  26.265  26.408  1.00  0.00     0.010 A 
ATOM     31  C   UNL A   1      40.352  26.627  27.760  1.00  0.00    -0.014 A 
BRANCH  31  32
ATOM     32  C   UNL A   1      40.795  27.958  28.251  1.00  0.00     0.031 A 
ATOM     33  C   UNL A   1      42.252  28.323  28.256  1.00  0.00     0.074 A 
ATOM     34  C   UNL A   1      39.872  28.843  28.671  1.00  0.00     0.049 A 
ATOM     35  N   UNL A   1      42.829  29.413  28.694  1.00  0.00    -0.248 NA
ATOM     36  C   UNL A   1      43.181  27.330  27.699  1.00  0.00     0.031 C 
ATOM     37  C   UNL A   1      38.426  28.611  28.676  1.00  0.00     0.029 A 
ATOM     38  N   UNL A   1      40.005  30.113  29.173  1.00  0.00    -0.354 N 
ATOM     39  C   UNL A   1      44.192  29.237  28.475  1.00  0.00     0.074 A 
ATOM     40  C   UNL A   1      44.352  27.920  27.895  1.00  0.00     0.031 C 
ATOM     41  C   UNL A   1      37.807  29.704  29.147  1.00  0.00     0.029 A 
ATOM     42  C   UNL A   1      38.810  30.690  29.539  1.00  0.00     0.049 A 
ATOM     43  H   UNL A   1      40.873  30.568  29.264  1.00  0.00     0.167 HD
ATOM     44  C   UNL A   1      45.208  30.100  28.731  1.00  0.00     0.034 A 
ATOM     45  C   UNL A   1      38.553  31.860  30.154  1.00  0.00     0.034 A 
ATOM     46  C   UNL A   1      45.023  31.408  29.318  1.00  0.00     0.049 A 
ATOM     47  C   UNL A   1      39.708  32.761  30.513  1.00  0.00     0.074 A 
ATOM     48  C   UNL A   1      45.979  32.370  29.596  1.00  0.00     0.029 A 
ATOM     49  N   UNL A   1      43.805  31.934  29.732  1.00  0.00    -0.354 N 
ATOM     50  N   UNL A   1      40.990  32.585  30.293  1.00  0.00    -0.248 NA
ATOM     51  C   UNL A   1      39.380  34.014  31.201  1.00  0.00     0.031 C 
ATOM     52  C   UNL A   1      45.354  33.436  30.252  1.00  0.00     0.029 A 
ATOM     53  C   UNL A   1      43.993  33.184  30.304  1.00  0.00     0.049 A 
ATOM     54  H   UNL A   1      42.935  31.484  29.634  1.00  0.00     0.167 HD
ATOM     55  C   UNL A   1      41.620  33.721  30.798  1.00  0.00     0.074 A 
ATOM     56  C   UNL A   1      40.573  34.581  31.309  1.00  0.00     0.031 C 
ATOM     57  C   UNL A   1      42.942  34.025  30.834  1.00  0.00     0.034 A 
BRANCH  44  58
ATOM     58  C   UNL A   1      46.614  29.634  28.432  1.00  0.00     0.023 A 
ATOM     59  C   UNL A   1      47.386  28.940  29.380  1.00  0.00     0.031 A 
ATOM     60  C   UNL A   1      47.196  29.900  27.179  1.00  0.00     0.131 A 
ATOM     61  C   UNL A   1      48.714  28.595  29.084  1.00  0.00     0.055 A 
ATOM     62  C   UNL A   1      48.491  29.484  26.863  1.00  0.00     0.041 A 
ATOM     63  F   UNL A   1      46.517  30.578  26.240  1.00  0.00    -0.206 F 
ATOM     64  C   UNL A   1      49.264  28.840  27.823  1.00  0.00     0.022 A 
BRANCH  61  65
ATOM     65  S   UNL A   1      49.762  27.952  30.419  1.00  0.00     0.124 S 
ATOM     66  O   UNL A   1      49.170  28.590  31.593  1.00  0.00    -0.237 OA
ATOM     67  O   UNL A   1      49.566  26.512  30.306  1.00  0.00    -0.237 OA
ATOM     68  O   UNL A   1      51.097  28.430  30.068  1.00  0.00    -0.744 OA
ENDBRANCH  61  65
ENDBRANCH  44  58
BRANCH  45  69
ATOM     69  C   UNL A   1      37.155  32.228  30.521  1.00  0.00     0.023 A 
ATOM     70  C   UNL A   1      36.282  32.795  29.581  1.00  0.00     0.031 A 
ATOM     71  C   UNL A   1      36.686  32.057  31.837  1.00  0.00     0.131 A 
ATOM     72  C   UNL A   1      35.001  33.211  29.979  1.00  0.00     0.055 A 
ATOM     73  C   UNL A   1      35.391  32.416  32.213  1.00  0.00     0.041 A 
ATOM     74  F   UNL A   1      37.481  31.523  32.778  1.00  0.00    -0.206 F 
ATOM     75  C   UNL A   1      34.544  33.010  31.284  1.00  0.00     0.022 A 
BRANCH  72  76
ATOM     76  S   UNL A   1      33.971  34.109  28.786  1.00  0.00     0.124 S 
ATOM     77  O   UNL A   1      33.643  33.059  27.829  1.00  0.00    -0.237 OA
ATOM     78  O   UNL A   1      32.874  34.578  29.628  1.00  0.00    -0.237 OA
ATOM     79  O   UNL A   1      34.861  35.155  28.287  1.00  0.00    -0.744 OA
ENDBRANCH  72  76
ENDBRANCH  45  69
BRANCH  57  80
ATOM     80  C   UNL A   1      43.319  35.364  31.422  1.00  0.00     0.023 A 
ATOM     81  C   UNL A   1      43.568  36.485  30.611  1.00  0.00     0.031 A 
ATOM     82  C   UNL A   1      43.452  35.516  32.815  1.00  0.00     0.131 A 
ATOM     83  C   UNL A   1      43.995  37.689  31.191  1.00  0.00     0.055 A 
ATOM     84  C   UNL A   1      43.811  36.734  33.391  1.00  0.00     0.041 A 
ATOM     85  F   UNL A   1      43.234  34.479  33.640  1.00  0.00    -0.206 F 
ATOM     86  C   UNL A   1      44.100  37.827  32.577  1.00  0.00     0.022 A 
BRANCH  83  87
ATOM     87  S   UNL A   1      44.513  39.045  30.103  1.00  0.00     0.124 S 
ATOM     88  O   UNL A   1      45.326  38.344  29.114  1.00  0.00    -0.237 OA
ATOM     89  O   UNL A   1      43.239  39.568  29.625  1.00  0.00    -0.237 OA
ATOM     90  O   UNL A   1      45.254  39.936  30.995  1.00  0.00    -0.744 OA
ENDBRANCH  83  87
ENDBRANCH  57  80
ENDBRANCH  31  32
ENDBRANCH  24  26
ENDBRANCH  23  24
ENDBRANCH   1  23
TORSDOF 16
ENDMDL
