MODEL 1
REMARK VINA RESULT:     -11.1      0.000      0.000
REMARK SMILES Cc1nc(C[N@@H+]2CCC[C@H]2C(=O)OCCOC(=O)c2ccc(-c3c4nc(c(-c5cc(S(=O)(=O)[O-])ccc5F)c5ccc([nH]5)c(-c5cc(S(=O)(=O)[O-])ccc5F)c5nc(c(-c6cc(S(=O)(=O)[O-])ccc6F)c6ccc3[nH]6)C=C5)C=C4)cc2)cs1
REMARK SMILES IDX 15 1 14 2 13 3 11 4 12 5 10 6 6 7 7 8 8 10 9 11 5 12 4 13
REMARK SMILES IDX 1 14 2 15 3 16 83 17 82 18 16 19 17 20 18 21 19 22 20 23
REMARK SMILES IDX 81 24 21 25 80 26 22 27 23 28 24 29 74 30 25 31 79 32 73 33
REMARK SMILES IDX 75 34 26 35 78 36 72 37 71 38 27 40 59 41 39 42 58 43 40 44
REMARK SMILES IDX 43 45 57 46 76 47 41 48 42 49 56 51 77 52 44 53 28 54 29 55
REMARK SMILES IDX 37 56 30 57 36 58 38 59 35 60 31 61 32 62 33 63 34 64 60 65
REMARK SMILES IDX 61 66 69 67 62 68 68 69 70 70 67 71 63 72 64 73 65 74 66 75
REMARK SMILES IDX 45 76 46 77 54 78 47 79 53 80 55 81 52 82 48 83 49 84 50 85
REMARK SMILES IDX 51 86
REMARK H PARENT 6 9 75 39 43 50
REMARK Flexibility Score: inf
ROOT
ATOM      1  C   UNL A   1      31.844  30.392  26.285  1.00  0.00     0.275 C 
ENDROOT
BRANCH   1   2
ATOM      2  C   UNL A   1      31.532  28.979  26.771  1.00  0.00     0.274 C 
BRANCH   2   3
ATOM      3  O   UNL A   1      31.940  28.037  25.764  1.00  0.00    -0.458 OA
BRANCH   3   4
ATOM      4  C   UNL A   1      31.231  26.869  25.706  1.00  0.00     0.365 C 
ATOM      5  O   UNL A   1      30.927  26.189  26.678  1.00  0.00    -0.245 OA
BRANCH   4   6
ATOM      6  C   UNL A   1      30.824  26.569  24.253  1.00  0.00     0.295 C 
ATOM      7  N   UNL A   1      31.272  27.661  23.370  1.00  0.00    -0.318 N 
ATOM      8  C   UNL A   1      32.600  27.289  22.890  1.00  0.00     0.263 C 
ATOM      9  H   UNL A   1      31.347  28.544  23.873  1.00  0.00     0.349 HD
ATOM     10  C   UNL A   1      32.689  25.772  22.916  1.00  0.00     0.068 C 
ATOM     11  C   UNL A   1      31.500  25.298  23.737  1.00  0.00     0.083 C 
BRANCH   7  12
ATOM     12  C   UNL A   1      30.287  28.009  22.334  1.00  0.00     0.321 C 
BRANCH  12  13
ATOM     13  C   UNL A   1      29.688  29.387  22.428  1.00  0.00     0.106 A 
ATOM     14  C   UNL A   1      28.033  32.074  20.563  1.00  0.00     0.079 C 
ATOM     15  C   UNL A   1      28.675  31.167  21.556  1.00  0.00     0.090 A 
ATOM     16  N   UNL A   1      29.213  29.998  21.272  1.00  0.00    -0.241 NA
ATOM     17  S   UNL A   1      28.748  31.622  23.213  1.00  0.00    -0.127 S 
ATOM     18  C   UNL A   1      29.499  30.129  23.579  1.00  0.00     0.096 A 
ENDBRANCH  12  13
ENDBRANCH   7  12
ENDBRANCH   4   6
ENDBRANCH   3   4
ENDBRANCH   2   3
ENDBRANCH   1   2
BRANCH   1  19
ATOM     19  O   UNL A   1      33.258  30.637  26.402  1.00  0.00    -0.458 OA
BRANCH  19  20
ATOM     20  C   UNL A   1      33.615  31.657  27.219  1.00  0.00     0.338 C 
ATOM     21  O   UNL A   1      33.029  32.706  27.404  1.00  0.00    -0.246 OA
BRANCH  20  22
ATOM     22  C   UNL A   1      34.865  31.288  27.903  1.00  0.00     0.060 A 
ATOM     23  C   UNL A   1      35.870  32.243  28.042  1.00  0.00     0.016 A 
ATOM     24  C   UNL A   1      35.058  29.987  28.360  1.00  0.00     0.016 A 
ATOM     25  C   UNL A   1      37.086  31.905  28.629  1.00  0.00     0.010 A 
ATOM     26  C   UNL A   1      36.260  29.660  28.997  1.00  0.00     0.010 A 
ATOM     27  C   UNL A   1      37.284  30.617  29.136  1.00  0.00    -0.014 A 
BRANCH  27  28
ATOM     28  C   UNL A   1      38.554  30.268  29.820  1.00  0.00     0.031 A 
ATOM     29  C   UNL A   1      39.508  29.299  29.183  1.00  0.00     0.074 A 
ATOM     30  C   UNL A   1      38.840  30.815  31.018  1.00  0.00     0.049 A 
ATOM     31  N   UNL A   1      40.571  28.732  29.691  1.00  0.00    -0.248 NA
ATOM     32  C   UNL A   1      39.223  28.915  27.793  1.00  0.00     0.031 C 
ATOM     33  C   UNL A   1      38.025  31.820  31.705  1.00  0.00     0.029 A 
ATOM     34  N   UNL A   1      39.889  30.598  31.876  1.00  0.00    -0.354 N 
ATOM     35  C   UNL A   1      41.067  27.898  28.696  1.00  0.00     0.074 A 
ATOM     36  C   UNL A   1      40.182  28.030  27.558  1.00  0.00     0.031 C 
ATOM     37  C   UNL A   1      38.606  32.135  32.872  1.00  0.00     0.029 A 
ATOM     38  C   UNL A   1      39.785  31.297  33.057  1.00  0.00     0.049 A 
ATOM     39  H   UNL A   1      40.643  30.000  31.667  1.00  0.00     0.167 HD
ATOM     40  C   UNL A   1      42.159  27.095  28.738  1.00  0.00     0.034 A 
ATOM     41  C   UNL A   1      40.520  31.226  34.185  1.00  0.00     0.034 A 
ATOM     42  C   UNL A   1      43.037  26.992  29.878  1.00  0.00     0.049 A 
ATOM     43  C   UNL A   1      41.657  30.240  34.246  1.00  0.00     0.074 A 
ATOM     44  C   UNL A   1      44.194  26.243  30.012  1.00  0.00     0.029 A 
ATOM     45  N   UNL A   1      42.848  27.647  31.088  1.00  0.00    -0.354 N 
ATOM     46  N   UNL A   1      42.100  29.432  33.311  1.00  0.00    -0.248 NA
ATOM     47  C   UNL A   1      42.375  30.136  35.523  1.00  0.00     0.031 C 
ATOM     48  C   UNL A   1      44.666  26.394  31.321  1.00  0.00     0.029 A 
ATOM     49  C   UNL A   1      43.839  27.285  31.987  1.00  0.00     0.049 A 
ATOM     50  H   UNL A   1      42.116  28.278  31.279  1.00  0.00     0.167 HD
ATOM     51  C   UNL A   1      43.154  28.730  33.886  1.00  0.00     0.074 A 
ATOM     52  C   UNL A   1      43.294  29.224  35.241  1.00  0.00     0.031 C 
ATOM     53  C   UNL A   1      43.939  27.764  33.344  1.00  0.00     0.034 A 
BRANCH  40  54
ATOM     54  C   UNL A   1      42.422  26.217  27.540  1.00  0.00     0.023 A 
ATOM     55  C   UNL A   1      41.946  24.897  27.463  1.00  0.00     0.031 A 
ATOM     56  C   UNL A   1      43.180  26.711  26.464  1.00  0.00     0.131 A 
ATOM     57  C   UNL A   1      42.280  24.098  26.358  1.00  0.00     0.055 A 
ATOM     58  C   UNL A   1      43.455  25.933  25.339  1.00  0.00     0.041 A 
ATOM     59  F   UNL A   1      43.677  27.957  26.494  1.00  0.00    -0.206 F 
ATOM     60  C   UNL A   1      43.014  24.613  25.287  1.00  0.00     0.022 A 
BRANCH  57  61
ATOM     61  S   UNL A   1      41.843  22.338  26.394  1.00  0.00     0.124 S 
ATOM     62  O   UNL A   1      40.384  22.392  26.342  1.00  0.00    -0.237 OA
ATOM     63  O   UNL A   1      42.504  21.824  25.200  1.00  0.00    -0.237 OA
ATOM     64  O   UNL A   1      42.398  21.871  27.663  1.00  0.00    -0.744 OA
ENDBRANCH  57  61
ENDBRANCH  40  54
BRANCH  41  65
ATOM     65  C   UNL A   1      40.154  32.040  35.379  1.00  0.00     0.023 A 
ATOM     66  C   UNL A   1      39.191  31.590  36.295  1.00  0.00     0.031 A 
ATOM     67  C   UNL A   1      40.729  33.306  35.594  1.00  0.00     0.131 A 
ATOM     68  C   UNL A   1      38.808  32.414  37.366  1.00  0.00     0.055 A 
ATOM     69  C   UNL A   1      40.384  34.098  36.688  1.00  0.00     0.041 A 
ATOM     70  F   UNL A   1      41.650  33.787  34.743  1.00  0.00    -0.206 F 
ATOM     71  C   UNL A   1      39.408  33.658  37.577  1.00  0.00     0.022 A 
BRANCH  68  72
ATOM     72  S   UNL A   1      37.452  31.869  38.439  1.00  0.00     0.124 S 
ATOM     73  O   UNL A   1      36.425  32.863  38.150  1.00  0.00    -0.237 OA
ATOM     74  O   UNL A   1      37.197  30.520  37.944  1.00  0.00    -0.237 OA
ATOM     75  O   UNL A   1      38.028  31.939  39.780  1.00  0.00    -0.744 OA
ENDBRANCH  68  72
ENDBRANCH  41  65
BRANCH  53  76
ATOM     76  C   UNL A   1      45.022  27.199  34.226  1.00  0.00     0.023 A 
ATOM     77  C   UNL A   1      44.786  26.085  35.049  1.00  0.00     0.031 A 
ATOM     78  C   UNL A   1      46.295  27.793  34.257  1.00  0.00     0.131 A 
ATOM     79  C   UNL A   1      45.798  25.623  35.904  1.00  0.00     0.055 A 
ATOM     80  C   UNL A   1      47.314  27.300  35.072  1.00  0.00     0.041 A 
ATOM     81  F   UNL A   1      46.568  28.863  33.493  1.00  0.00    -0.206 F 
ATOM     82  C   UNL A   1      47.065  26.215  35.910  1.00  0.00     0.022 A 
BRANCH  79  83
ATOM     83  S   UNL A   1      45.419  24.278  37.060  1.00  0.00     0.124 S 
ATOM     84  O   UNL A   1      45.031  23.202  36.153  1.00  0.00    -0.237 OA
ATOM     85  O   UNL A   1      46.688  24.097  37.758  1.00  0.00    -0.237 OA
ATOM     86  O   UNL A   1      44.336  24.822  37.876  1.00  0.00    -0.744 OA
ENDBRANCH  79  83
ENDBRANCH  53  76
ENDBRANCH  27  28
ENDBRANCH  20  22
ENDBRANCH  19  20
ENDBRANCH   1  19
TORSDOF 16
ENDMDL
MODEL 2
REMARK VINA RESULT:     -11.0      1.512      1.872
REMARK SMILES Cc1nc(C[N@@H+]2CCC[C@H]2C(=O)OCCOC(=O)c2ccc(-c3c4nc(c(-c5cc(S(=O)(=O)[O-])ccc5F)c5ccc([nH]5)c(-c5cc(S(=O)(=O)[O-])ccc5F)c5nc(c(-c6cc(S(=O)(=O)[O-])ccc6F)c6ccc3[nH]6)C=C5)C=C4)cc2)cs1
REMARK SMILES IDX 15 1 14 2 13 3 11 4 12 5 10 6 6 7 7 8 8 10 9 11 5 12 4 13
REMARK SMILES IDX 1 14 2 15 3 16 83 17 82 18 16 19 17 20 18 21 19 22 20 23
REMARK SMILES IDX 81 24 21 25 80 26 22 27 23 28 24 29 74 30 25 31 79 32 73 33
REMARK SMILES IDX 75 34 26 35 78 36 72 37 71 38 27 40 59 41 39 42 58 43 40 44
REMARK SMILES IDX 43 45 57 46 76 47 41 48 42 49 56 51 77 52 44 53 28 54 29 55
REMARK SMILES IDX 37 56 30 57 36 58 38 59 35 60 31 61 32 62 33 63 34 64 60 65
REMARK SMILES IDX 61 66 69 67 62 68 68 69 70 70 67 71 63 72 64 73 65 74 66 75
REMARK SMILES IDX 45 76 46 77 54 78 47 79 53 80 55 81 52 82 48 83 49 84 50 85
REMARK SMILES IDX 51 86
REMARK H PARENT 6 9 75 39 43 50
REMARK Flexibility Score: inf
ROOT
ATOM      1  C   UNL A   1      31.970  29.702  26.788  1.00  0.00     0.275 C 
ENDROOT
BRANCH   1   2
ATOM      2  C   UNL A   1      31.947  28.224  27.167  1.00  0.00     0.274 C 
BRANCH   2   3
ATOM      3  O   UNL A   1      31.482  27.459  26.041  1.00  0.00    -0.458 OA
BRANCH   3   4
ATOM      4  C   UNL A   1      32.445  26.842  25.292  1.00  0.00     0.365 C 
ATOM      5  O   UNL A   1      33.424  26.268  25.750  1.00  0.00    -0.245 OA
BRANCH   4   6
ATOM      6  C   UNL A   1      32.084  26.924  23.798  1.00  0.00     0.295 C 
ATOM      7  N   UNL A   1      31.682  28.299  23.452  1.00  0.00    -0.318 N 
ATOM      8  C   UNL A   1      32.893  28.990  23.019  1.00  0.00     0.263 C 
ATOM      9  H   UNL A   1      31.300  28.792  24.259  1.00  0.00     0.349 HD
ATOM     10  C   UNL A   1      33.851  27.941  22.476  1.00  0.00     0.068 C 
ATOM     11  C   UNL A   1      33.292  26.598  22.916  1.00  0.00     0.083 C 
BRANCH   7  12
ATOM     12  C   UNL A   1      30.542  28.352  22.524  1.00  0.00     0.321 C 
BRANCH  12  13
ATOM     13  C   UNL A   1      29.766  29.642  22.504  1.00  0.00     0.106 A 
ATOM     14  C   UNL A   1      27.951  32.020  20.386  1.00  0.00     0.079 C 
ATOM     15  C   UNL A   1      28.614  31.241  21.470  1.00  0.00     0.090 A 
ATOM     16  N   UNL A   1      29.320  30.144  21.285  1.00  0.00    -0.241 NA
ATOM     17  S   UNL A   1      28.482  31.759  23.104  1.00  0.00    -0.127 S 
ATOM     18  C   UNL A   1      29.383  30.392  23.600  1.00  0.00     0.096 A 
ENDBRANCH  12  13
ENDBRANCH   7  12
ENDBRANCH   4   6
ENDBRANCH   3   4
ENDBRANCH   2   3
ENDBRANCH   1   2
BRANCH   1  19
ATOM     19  O   UNL A   1      33.332  30.124  26.585  1.00  0.00    -0.458 OA
BRANCH  19  20
ATOM     20  C   UNL A   1      33.726  31.208  27.297  1.00  0.00     0.338 C 
ATOM     21  O   UNL A   1      33.139  32.264  27.437  1.00  0.00    -0.246 OA
BRANCH  20  22
ATOM     22  C   UNL A   1      35.021  30.903  27.925  1.00  0.00     0.060 A 
ATOM     23  C   UNL A   1      35.176  29.701  28.614  1.00  0.00     0.016 A 
ATOM     24  C   UNL A   1      36.062  31.827  27.874  1.00  0.00     0.016 A 
ATOM     25  C   UNL A   1      36.369  29.414  29.269  1.00  0.00     0.010 A 
ATOM     26  C   UNL A   1      37.279  31.516  28.488  1.00  0.00     0.010 A 
ATOM     27  C   UNL A   1      37.443  30.307  29.191  1.00  0.00    -0.014 A 
BRANCH  27  28
ATOM     28  C   UNL A   1      38.740  29.978  29.835  1.00  0.00     0.031 A 
ATOM     29  C   UNL A   1      39.674  29.000  29.184  1.00  0.00     0.074 A 
ATOM     30  C   UNL A   1      39.067  30.552  31.009  1.00  0.00     0.049 A 
ATOM     31  N   UNL A   1      40.758  28.450  29.664  1.00  0.00    -0.248 NA
ATOM     32  C   UNL A   1      39.340  28.585  27.813  1.00  0.00     0.031 C 
ATOM     33  C   UNL A   1      38.272  31.569  31.704  1.00  0.00     0.029 A 
ATOM     34  N   UNL A   1      40.148  30.359  31.831  1.00  0.00    -0.354 N 
ATOM     35  C   UNL A   1      41.222  27.596  28.669  1.00  0.00     0.074 A 
ATOM     36  C   UNL A   1      40.294  27.700  27.562  1.00  0.00     0.031 C 
ATOM     37  C   UNL A   1      38.895  31.911  32.842  1.00  0.00     0.029 A 
ATOM     38  C   UNL A   1      40.085  31.082  33.001  1.00  0.00     0.049 A 
ATOM     39  H   UNL A   1      40.897  29.760  31.608  1.00  0.00     0.167 HD
ATOM     40  C   UNL A   1      42.319  26.799  28.687  1.00  0.00     0.034 A 
ATOM     41  C   UNL A   1      40.861  31.039  34.102  1.00  0.00     0.034 A 
ATOM     42  C   UNL A   1      43.239  26.724  29.796  1.00  0.00     0.049 A 
ATOM     43  C   UNL A   1      42.005  30.060  34.142  1.00  0.00     0.074 A 
ATOM     44  C   UNL A   1      44.404  25.984  29.903  1.00  0.00     0.029 A 
ATOM     45  N   UNL A   1      43.091  27.405  30.997  1.00  0.00    -0.354 N 
ATOM     46  N   UNL A   1      42.417  29.234  33.208  1.00  0.00    -0.248 NA
ATOM     47  C   UNL A   1      42.770  29.987  35.393  1.00  0.00     0.031 C 
ATOM     48  C   UNL A   1      44.923  26.165  31.190  1.00  0.00     0.029 A 
ATOM     49  C   UNL A   1      44.117  27.067  31.866  1.00  0.00     0.049 A 
ATOM     50  H   UNL A   1      42.364  28.037  31.202  1.00  0.00     0.167 HD
ATOM     51  C   UNL A   1      43.495  28.549  33.759  1.00  0.00     0.074 A 
ATOM     52  C   UNL A   1      43.682  29.073  35.096  1.00  0.00     0.031 C 
ATOM     53  C   UNL A   1      44.264  27.576  33.209  1.00  0.00     0.034 A 
BRANCH  40  54
ATOM     54  C   UNL A   1      42.542  25.896  27.500  1.00  0.00     0.023 A 
ATOM     55  C   UNL A   1      42.065  24.575  27.467  1.00  0.00     0.031 A 
ATOM     56  C   UNL A   1      43.261  26.369  26.388  1.00  0.00     0.131 A 
ATOM     57  C   UNL A   1      42.363  23.754  26.368  1.00  0.00     0.055 A 
ATOM     58  C   UNL A   1      43.498  25.568  25.270  1.00  0.00     0.041 A 
ATOM     59  F   UNL A   1      43.757  27.616  26.375  1.00  0.00    -0.206 F 
ATOM     60  C   UNL A   1      43.058  24.247  25.261  1.00  0.00     0.022 A 
BRANCH  57  61
ATOM     61  S   UNL A   1      41.930  21.994  26.455  1.00  0.00     0.124 S 
ATOM     62  O   UNL A   1      40.530  22.011  26.038  1.00  0.00    -0.237 OA
ATOM     63  O   UNL A   1      42.868  21.391  25.515  1.00  0.00    -0.237 OA
ATOM     64  O   UNL A   1      42.150  21.655  27.859  1.00  0.00    -0.744 OA
ENDBRANCH  57  61
ENDBRANCH  40  54
BRANCH  41  65
ATOM     65  C   UNL A   1      40.535  31.877  35.291  1.00  0.00     0.023 A 
ATOM     66  C   UNL A   1      39.490  31.527  36.160  1.00  0.00     0.031 A 
ATOM     67  C   UNL A   1      41.235  33.071  35.547  1.00  0.00     0.131 A 
ATOM     68  C   UNL A   1      39.154  32.378  37.226  1.00  0.00     0.055 A 
ATOM     69  C   UNL A   1      40.932  33.886  36.637  1.00  0.00     0.041 A 
ATOM     70  F   UNL A   1      42.238  33.456  34.742  1.00  0.00    -0.206 F 
ATOM     71  C   UNL A   1      39.877  33.547  37.478  1.00  0.00     0.022 A 
BRANCH  68  72
ATOM     72  S   UNL A   1      37.702  31.974  38.234  1.00  0.00     0.124 S 
ATOM     73  O   UNL A   1      37.426  30.602  37.825  1.00  0.00    -0.237 OA
ATOM     74  O   UNL A   1      38.216  32.150  39.589  1.00  0.00    -0.237 OA
ATOM     75  O   UNL A   1      36.710  32.962  37.814  1.00  0.00    -0.744 OA
ENDBRANCH  68  72
ENDBRANCH  41  65
BRANCH  53  76
ATOM     76  C   UNL A   1      45.382  27.035  34.062  1.00  0.00     0.023 A 
ATOM     77  C   UNL A   1      46.672  27.592  34.014  1.00  0.00     0.031 A 
ATOM     78  C   UNL A   1      45.161  25.940  34.914  1.00  0.00     0.131 A 
ATOM     79  C   UNL A   1      47.705  27.024  34.774  1.00  0.00     0.055 A 
ATOM     80  C   UNL A   1      46.179  25.410  35.706  1.00  0.00     0.041 A 
ATOM     81  F   UNL A   1      43.948  25.370  34.991  1.00  0.00    -0.206 F 
ATOM     82  C   UNL A   1      47.463  25.946  35.631  1.00  0.00     0.022 A 
BRANCH  79  83
ATOM     83  S   UNL A   1      49.388  27.671  34.582  1.00  0.00     0.124 S 
ATOM     84  O   UNL A   1      49.512  27.763  33.131  1.00  0.00    -0.237 OA
ATOM     85  O   UNL A   1      49.321  28.940  35.299  1.00  0.00    -0.237 OA
ATOM     86  O   UNL A   1      50.222  26.649  35.212  1.00  0.00    -0.744 OA
ENDBRANCH  79  83
ENDBRANCH  53  76
ENDBRANCH  27  28
ENDBRANCH  20  22
ENDBRANCH  19  20
ENDBRANCH   1  19
TORSDOF 16
ENDMDL
MODEL 3
REMARK VINA RESULT:     -10.8      2.241      3.416
REMARK SMILES Cc1nc(C[N@@H+]2CCC[C@H]2C(=O)OCCOC(=O)c2ccc(-c3c4nc(c(-c5cc(S(=O)(=O)[O-])ccc5F)c5ccc([nH]5)c(-c5cc(S(=O)(=O)[O-])ccc5F)c5nc(c(-c6cc(S(=O)(=O)[O-])ccc6F)c6ccc3[nH]6)C=C5)C=C4)cc2)cs1
REMARK SMILES IDX 15 1 14 2 13 3 11 4 12 5 10 6 6 7 7 8 8 10 9 11 5 12 4 13
REMARK SMILES IDX 1 14 2 15 3 16 83 17 82 18 16 19 17 20 18 21 19 22 20 23
REMARK SMILES IDX 81 24 21 25 80 26 22 27 23 28 24 29 74 30 25 31 79 32 73 33
REMARK SMILES IDX 75 34 26 35 78 36 72 37 71 38 27 40 59 41 39 42 58 43 40 44
REMARK SMILES IDX 43 45 57 46 76 47 41 48 42 49 56 51 77 52 44 53 28 54 29 55
REMARK SMILES IDX 37 56 30 57 36 58 38 59 35 60 31 61 32 62 33 63 34 64 60 65
REMARK SMILES IDX 61 66 69 67 62 68 68 69 70 70 67 71 63 72 64 73 65 74 66 75
REMARK SMILES IDX 45 76 46 77 54 78 47 79 53 80 55 81 52 82 48 83 49 84 50 85
REMARK SMILES IDX 51 86
REMARK H PARENT 6 9 75 39 43 50
REMARK Flexibility Score: inf
ROOT
ATOM      1  C   UNL A   1      31.780  29.349  25.888  1.00  0.00     0.275 C 
ENDROOT
BRANCH   1   2
ATOM      2  C   UNL A   1      31.031  29.536  24.571  1.00  0.00     0.274 C 
BRANCH   2   3
ATOM      3  O   UNL A   1      31.859  29.073  23.491  1.00  0.00    -0.458 OA
BRANCH   3   4
ATOM      4  C   UNL A   1      31.346  28.061  22.728  1.00  0.00     0.365 C 
ATOM      5  O   UNL A   1      30.282  28.113  22.124  1.00  0.00    -0.245 OA
BRANCH   4   6
ATOM      6  C   UNL A   1      32.327  26.876  22.693  1.00  0.00     0.295 C 
ATOM      7  N   UNL A   1      32.541  26.360  24.057  1.00  0.00    -0.318 N 
ATOM      8  C   UNL A   1      31.549  25.307  24.262  1.00  0.00     0.263 C 
ATOM      9  H   UNL A   1      32.393  27.083  24.759  1.00  0.00     0.349 HD
ATOM     10  C   UNL A   1      31.198  24.735  22.898  1.00  0.00     0.068 C 
ATOM     11  C   UNL A   1      31.762  25.711  21.878  1.00  0.00     0.083 C 
BRANCH   7  12
ATOM     12  C   UNL A   1      33.939  25.989  24.323  1.00  0.00     0.321 C 
BRANCH  12  13
ATOM     13  C   UNL A   1      34.172  24.573  24.775  1.00  0.00     0.106 A 
ATOM     14  C   UNL A   1      34.021  22.267  27.621  1.00  0.00     0.079 C 
ATOM     15  C   UNL A   1      34.177  22.962  26.311  1.00  0.00     0.090 A 
ATOM     16  N   UNL A   1      33.985  24.251  26.116  1.00  0.00    -0.241 NA
ATOM     17  S   UNL A   1      34.635  22.071  24.915  1.00  0.00    -0.127 S 
ATOM     18  C   UNL A   1      34.514  23.496  23.977  1.00  0.00     0.096 A 
ENDBRANCH  12  13
ENDBRANCH   7  12
ENDBRANCH   4   6
ENDBRANCH   3   4
ENDBRANCH   2   3
ENDBRANCH   1   2
BRANCH   1  19
ATOM     19  O   UNL A   1      33.013  30.092  25.846  1.00  0.00    -0.458 OA
BRANCH  19  20
ATOM     20  C   UNL A   1      33.146  31.065  26.780  1.00  0.00     0.338 C 
ATOM     21  O   UNL A   1      32.379  31.976  27.026  1.00  0.00    -0.246 OA
BRANCH  20  22
ATOM     22  C   UNL A   1      34.407  30.840  27.506  1.00  0.00     0.060 A 
ATOM     23  C   UNL A   1      34.688  29.568  28.001  1.00  0.00     0.016 A 
ATOM     24  C   UNL A   1      35.282  31.897  27.739  1.00  0.00     0.016 A 
ATOM     25  C   UNL A   1      35.842  29.340  28.743  1.00  0.00     0.010 A 
ATOM     26  C   UNL A   1      36.468  31.658  28.440  1.00  0.00     0.010 A 
ATOM     27  C   UNL A   1      36.758  30.377  28.949  1.00  0.00    -0.014 A 
BRANCH  27  28
ATOM     28  C   UNL A   1      38.022  30.126  29.686  1.00  0.00     0.031 A 
ATOM     29  C   UNL A   1      39.055  29.201  29.111  1.00  0.00     0.074 A 
ATOM     30  C   UNL A   1      38.230  30.722  30.876  1.00  0.00     0.049 A 
ATOM     31  N   UNL A   1      40.132  28.717  29.671  1.00  0.00    -0.248 NA
ATOM     32  C   UNL A   1      38.845  28.764  27.723  1.00  0.00     0.031 C 
ATOM     33  C   UNL A   1      37.330  31.693  31.505  1.00  0.00     0.029 A 
ATOM     34  N   UNL A   1      39.259  30.594  31.775  1.00  0.00    -0.354 N 
ATOM     35  C   UNL A   1      40.714  27.888  28.718  1.00  0.00     0.074 A 
ATOM     36  C   UNL A   1      39.864  27.934  27.546  1.00  0.00     0.031 C 
ATOM     37  C   UNL A   1      37.849  32.074  32.682  1.00  0.00     0.029 A 
ATOM     38  C   UNL A   1      39.070  31.317  32.931  1.00  0.00     0.049 A 
ATOM     39  H   UNL A   1      40.055  30.039  31.610  1.00  0.00     0.167 HD
ATOM     40  C   UNL A   1      41.851  27.156  28.820  1.00  0.00     0.034 A 
ATOM     41  C   UNL A   1      39.767  31.322  34.086  1.00  0.00     0.034 A 
ATOM     42  C   UNL A   1      42.692  27.139  29.993  1.00  0.00     0.049 A 
ATOM     43  C   UNL A   1      40.959  30.411  34.215  1.00  0.00     0.074 A 
ATOM     44  C   UNL A   1      43.887  26.468  30.188  1.00  0.00     0.029 A 
ATOM     45  N   UNL A   1      42.419  27.813  31.176  1.00  0.00    -0.354 N 
ATOM     46  N   UNL A   1      41.484  29.607  33.319  1.00  0.00    -0.248 NA
ATOM     47  C   UNL A   1      41.635  30.387  35.518  1.00  0.00     0.031 C 
ATOM     48  C   UNL A   1      44.301  26.682  31.508  1.00  0.00     0.029 A 
ATOM     49  C   UNL A   1      43.398  27.538  32.118  1.00  0.00     0.049 A 
ATOM     50  H   UNL A   1      41.644  28.402  31.323  1.00  0.00     0.167 HD
ATOM     51  C   UNL A   1      42.557  28.988  33.951  1.00  0.00     0.074 A 
ATOM     52  C   UNL A   1      42.617  29.526  35.294  1.00  0.00     0.031 C 
ATOM     53  C   UNL A   1      43.419  28.059  33.464  1.00  0.00     0.034 A 
BRANCH  40  54
ATOM     54  C   UNL A   1      42.211  26.264  27.659  1.00  0.00     0.023 A 
ATOM     55  C   UNL A   1      41.780  24.929  27.582  1.00  0.00     0.031 A 
ATOM     56  C   UNL A   1      43.015  26.762  26.618  1.00  0.00     0.131 A 
ATOM     57  C   UNL A   1      42.203  24.120  26.515  1.00  0.00     0.055 A 
ATOM     58  C   UNL A   1      43.378  25.971  25.527  1.00  0.00     0.041 A 
ATOM     59  F   UNL A   1      43.471  28.024  26.651  1.00  0.00    -0.206 F 
ATOM     60  C   UNL A   1      42.982  24.638  25.477  1.00  0.00     0.022 A 
BRANCH  57  61
ATOM     61  S   UNL A   1      41.819  22.348  26.562  1.00  0.00     0.124 S 
ATOM     62  O   UNL A   1      40.359  22.358  26.508  1.00  0.00    -0.237 OA
ATOM     63  O   UNL A   1      42.497  21.846  25.373  1.00  0.00    -0.237 OA
ATOM     64  O   UNL A   1      42.385  21.907  27.835  1.00  0.00    -0.744 OA
ENDBRANCH  57  61
ENDBRANCH  40  54
BRANCH  41  65
ATOM     65  C   UNL A   1      39.308  32.143  35.242  1.00  0.00     0.023 A 
ATOM     66  C   UNL A   1      39.812  33.435  35.460  1.00  0.00     0.031 A 
ATOM     67  C   UNL A   1      38.394  31.625  36.178  1.00  0.00     0.131 A 
ATOM     68  C   UNL A   1      39.423  34.153  36.602  1.00  0.00     0.055 A 
ATOM     69  C   UNL A   1      37.971  32.363  37.284  1.00  0.00     0.041 A 
ATOM     70  F   UNL A   1      37.888  30.392  36.022  1.00  0.00    -0.206 F 
ATOM     71  C   UNL A   1      38.495  33.632  37.507  1.00  0.00     0.022 A 
BRANCH  68  72
ATOM     72  S   UNL A   1      40.211  35.753  36.932  1.00  0.00     0.124 S 
ATOM     73  O   UNL A   1      41.625  35.421  36.803  1.00  0.00    -0.237 OA
ATOM     74  O   UNL A   1      39.650  36.591  35.878  1.00  0.00    -0.237 OA
ATOM     75  O   UNL A   1      39.767  36.078  38.286  1.00  0.00    -0.744 OA
ENDBRANCH  68  72
ENDBRANCH  41  65
BRANCH  53  76
ATOM     76  C   UNL A   1      44.502  27.587  34.399  1.00  0.00     0.023 A 
ATOM     77  C   UNL A   1      44.346  26.420  35.167  1.00  0.00     0.031 A 
ATOM     78  C   UNL A   1      45.692  28.321  34.536  1.00  0.00     0.131 A 
ATOM     79  C   UNL A   1      45.348  26.043  36.073  1.00  0.00     0.055 A 
ATOM     80  C   UNL A   1      46.708  27.915  35.402  1.00  0.00     0.041 A 
ATOM     81  F   UNL A   1      45.887  29.445  33.828  1.00  0.00    -0.206 F 
ATOM     82  C   UNL A   1      46.535  26.775  36.185  1.00  0.00     0.022 A 
BRANCH  79  83
ATOM     83  S   UNL A   1      45.057  24.618  37.155  1.00  0.00     0.124 S 
ATOM     84  O   UNL A   1      44.240  25.204  38.213  1.00  0.00    -0.237 OA
ATOM     85  O   UNL A   1      44.373  23.683  36.267  1.00  0.00    -0.237 OA
ATOM     86  O   UNL A   1      46.401  24.214  37.562  1.00  0.00    -0.744 OA
ENDBRANCH  79  83
ENDBRANCH  53  76
ENDBRANCH  27  28
ENDBRANCH  20  22
ENDBRANCH  19  20
ENDBRANCH   1  19
TORSDOF 16
ENDMDL
