MODEL 1
REMARK VINA RESULT:     -11.0      0.000      0.000
REMARK SMILES CCn1c(=O)n(CC)c2cc(C(=O)OCCOC(=O)c3ccc(-c4c5nc(c(-c6cc(S(=O)(=O)[O-])ccc6F)c6ccc([nH]6)c(-c6cc(S(=O)(=O)[O-])ccc6F)c6nc(c(-c7cc(S(=O)(=O)[O-])ccc7F)c7ccc4[nH]7)C=C6)C=C5)cc3)ccc21
REMARK SMILES IDX 16 1 15 2 14 3 12 4 13 5 11 6 3 7 4 8 85 9 5 10 6 11 9 12
REMARK SMILES IDX 84 13 10 14 83 15 2 16 1 17 7 18 8 19 17 20 18 21 19 22
REMARK SMILES IDX 20 23 21 24 82 25 22 26 81 27 23 28 24 29 25 30 75 31 26 32
REMARK SMILES IDX 80 33 74 34 76 35 27 36 79 37 73 38 72 39 28 41 60 42 40 43
REMARK SMILES IDX 59 44 41 45 44 46 58 47 77 48 42 49 43 50 57 52 78 53 45 54
REMARK SMILES IDX 29 55 30 56 38 57 31 58 37 59 39 60 36 61 32 62 33 63 34 64
REMARK SMILES IDX 35 65 61 66 62 67 70 68 63 69 69 70 71 71 68 72 64 73 65 74
REMARK SMILES IDX 66 75 67 76 46 77 47 78 55 79 48 80 54 81 56 82 53 83 49 84
REMARK SMILES IDX 50 85 51 86 52 87
REMARK H PARENT 76 40 44 51
REMARK Flexibility Score: inf
ROOT
ATOM      1  C   UNL A   1      32.934  30.445  26.999  1.00  0.00     0.275 C 
ENDROOT
BRANCH   1   2
ATOM      2  C   UNL A   1      32.421  29.011  27.178  1.00  0.00     0.275 C 
BRANCH   2   3
ATOM      3  O   UNL A   1      32.035  28.412  25.913  1.00  0.00    -0.458 OA
BRANCH   3   4
ATOM      4  C   UNL A   1      33.050  27.772  25.271  1.00  0.00     0.338 C 
ATOM      5  O   UNL A   1      33.802  28.272  24.448  1.00  0.00    -0.246 OA
BRANCH   4   6
ATOM      6  C   UNL A   1      33.112  26.319  25.573  1.00  0.00     0.062 A 
ATOM      7  N   UNL A   1      33.498  22.183  25.539  1.00  0.00    -0.292 N 
ATOM      8  C   UNL A   1      34.900  22.057  25.414  1.00  0.00     0.329 A 
ATOM      9  C   UNL A   1      33.159  23.544  25.587  1.00  0.00     0.069 A 
ATOM     10  O   UNL A   1      35.547  21.040  25.290  1.00  0.00    -0.248 OA
ATOM     11  N   UNL A   1      35.413  23.375  25.434  1.00  0.00    -0.292 N 
ATOM     12  C   UNL A   1      34.346  24.276  25.583  1.00  0.00     0.070 A 
ATOM     13  C   UNL A   1      31.930  24.175  25.572  1.00  0.00     0.029 A 
ATOM     14  C   UNL A   1      34.338  25.654  25.656  1.00  0.00     0.044 A 
ATOM     15  C   UNL A   1      31.913  25.580  25.528  1.00  0.00     0.018 A 
BRANCH   7  16
ATOM     16  C   UNL A   1      32.592  21.075  25.378  1.00  0.00     0.124 C 
ATOM     17  C   UNL A   1      32.374  20.737  23.908  1.00  0.00     0.028 C 
ENDBRANCH   7  16
BRANCH  11  18
ATOM     18  C   UNL A   1      36.747  23.647  24.964  1.00  0.00     0.124 C 
ATOM     19  C   UNL A   1      37.736  23.728  26.127  1.00  0.00     0.028 C 
ENDBRANCH  11  18
ENDBRANCH   4   6
ENDBRANCH   3   4
ENDBRANCH   2   3
ENDBRANCH   1   2
BRANCH   1  20
ATOM     20  O   UNL A   1      34.370  30.428  27.073  1.00  0.00    -0.458 OA
BRANCH  20  21
ATOM     21  C   UNL A   1      34.913  31.363  27.886  1.00  0.00     0.338 C 
ATOM     22  O   UNL A   1      34.359  32.342  28.353  1.00  0.00    -0.246 OA
BRANCH  21  23
ATOM     23  C   UNL A   1      36.120  30.725  28.440  1.00  0.00     0.060 A 
ATOM     24  C   UNL A   1      37.239  31.437  28.885  1.00  0.00     0.016 A 
ATOM     25  C   UNL A   1      36.181  29.351  28.258  1.00  0.00     0.016 A 
ATOM     26  C   UNL A   1      38.449  30.760  29.081  1.00  0.00     0.010 A 
ATOM     27  C   UNL A   1      37.403  28.710  28.377  1.00  0.00     0.010 A 
ATOM     28  C   UNL A   1      38.542  29.398  28.778  1.00  0.00    -0.014 A 
BRANCH  28  29
ATOM     29  C   UNL A   1      39.749  28.610  29.048  1.00  0.00     0.031 A 
ATOM     30  C   UNL A   1      40.111  28.471  30.495  1.00  0.00     0.074 A 
ATOM     31  C   UNL A   1      40.382  27.808  28.160  1.00  0.00     0.049 A 
ATOM     32  N   UNL A   1      41.255  28.705  31.044  1.00  0.00    -0.248 NA
ATOM     33  C   UNL A   1      39.088  28.025  31.457  1.00  0.00     0.031 C 
ATOM     34  C   UNL A   1      39.966  27.434  26.806  1.00  0.00     0.029 A 
ATOM     35  N   UNL A   1      41.521  27.065  28.343  1.00  0.00    -0.354 N 
ATOM     36  C   UNL A   1      41.148  28.306  32.376  1.00  0.00     0.074 A 
ATOM     37  C   UNL A   1      39.784  27.911  32.586  1.00  0.00     0.031 C 
ATOM     38  C   UNL A   1      40.749  26.423  26.353  1.00  0.00     0.029 A 
ATOM     39  C   UNL A   1      41.810  26.168  27.318  1.00  0.00     0.049 A 
ATOM     40  H   UNL A   1      42.092  27.160  29.140  1.00  0.00     0.167 HD
ATOM     41  C   UNL A   1      42.223  28.240  33.202  1.00  0.00     0.034 A 
ATOM     42  C   UNL A   1      42.839  25.283  27.261  1.00  0.00     0.034 A 
ATOM     43  C   UNL A   1      43.307  29.029  32.697  1.00  0.00     0.049 A 
ATOM     44  C   UNL A   1      43.855  25.691  28.258  1.00  0.00     0.074 A 
ATOM     45  C   UNL A   1      43.440  30.368  32.394  1.00  0.00     0.029 A 
ATOM     46  N   UNL A   1      44.344  28.386  32.073  1.00  0.00    -0.354 N 
ATOM     47  N   UNL A   1      44.674  26.693  28.124  1.00  0.00    -0.248 NA
ATOM     48  C   UNL A   1      43.805  25.100  29.585  1.00  0.00     0.031 C 
ATOM     49  C   UNL A   1      44.258  30.399  31.234  1.00  0.00     0.029 A 
ATOM     50  C   UNL A   1      44.629  29.086  30.928  1.00  0.00     0.049 A 
ATOM     51  H   UNL A   1      44.800  27.572  32.389  1.00  0.00     0.167 HD
ATOM     52  C   UNL A   1      44.872  27.147  29.412  1.00  0.00     0.074 A 
ATOM     53  C   UNL A   1      44.482  26.028  30.262  1.00  0.00     0.031 C 
ATOM     54  C   UNL A   1      45.040  28.477  29.673  1.00  0.00     0.034 A 
BRANCH  41  55
ATOM     55  C   UNL A   1      42.360  27.291  34.357  1.00  0.00     0.023 A 
ATOM     56  C   UNL A   1      43.153  26.128  34.291  1.00  0.00     0.031 A 
ATOM     57  C   UNL A   1      41.890  27.655  35.635  1.00  0.00     0.131 A 
ATOM     58  C   UNL A   1      43.437  25.380  35.441  1.00  0.00     0.055 A 
ATOM     59  C   UNL A   1      42.223  26.940  36.790  1.00  0.00     0.041 A 
ATOM     60  F   UNL A   1      41.137  28.752  35.807  1.00  0.00    -0.206 F 
ATOM     61  C   UNL A   1      43.003  25.795  36.698  1.00  0.00     0.022 A 
BRANCH  58  62
ATOM     62  S   UNL A   1      44.400  23.846  35.334  1.00  0.00     0.124 S 
ATOM     63  O   UNL A   1      45.575  24.283  34.590  1.00  0.00    -0.237 OA
ATOM     64  O   UNL A   1      44.620  23.535  36.744  1.00  0.00    -0.237 OA
ATOM     65  O   UNL A   1      43.501  22.933  34.632  1.00  0.00    -0.744 OA
ENDBRANCH  58  62
ENDBRANCH  41  55
BRANCH  42  66
ATOM     66  C   UNL A   1      43.034  24.018  26.509  1.00  0.00     0.023 A 
ATOM     67  C   UNL A   1      42.198  22.910  26.739  1.00  0.00     0.031 A 
ATOM     68  C   UNL A   1      44.232  23.784  25.798  1.00  0.00     0.131 A 
ATOM     69  C   UNL A   1      42.600  21.625  26.331  1.00  0.00     0.055 A 
ATOM     70  C   UNL A   1      44.624  22.505  25.389  1.00  0.00     0.041 A 
ATOM     71  F   UNL A   1      45.086  24.786  25.541  1.00  0.00    -0.206 F 
ATOM     72  C   UNL A   1      43.814  21.415  25.672  1.00  0.00     0.022 A 
BRANCH  69  73
ATOM     73  S   UNL A   1      41.572  20.176  26.704  1.00  0.00     0.124 S 
ATOM     74  O   UNL A   1      42.324  19.518  27.771  1.00  0.00    -0.237 OA
ATOM     75  O   UNL A   1      40.318  20.794  27.116  1.00  0.00    -0.237 OA
ATOM     76  O   UNL A   1      41.537  19.444  25.441  1.00  0.00    -0.744 OA
ENDBRANCH  69  73
ENDBRANCH  42  66
BRANCH  54  77
ATOM     77  C   UNL A   1      45.379  29.439  28.542  1.00  0.00     0.023 A 
ATOM     78  C   UNL A   1      46.715  29.886  28.469  1.00  0.00     0.031 A 
ATOM     79  C   UNL A   1      44.447  30.085  27.706  1.00  0.00     0.131 A 
ATOM     80  C   UNL A   1      47.068  30.968  27.653  1.00  0.00     0.055 A 
ATOM     81  C   UNL A   1      44.827  31.094  26.810  1.00  0.00     0.041 A 
ATOM     82  F   UNL A   1      43.131  29.850  27.785  1.00  0.00    -0.206 F 
ATOM     83  C   UNL A   1      46.136  31.558  26.800  1.00  0.00     0.022 A 
BRANCH  80  84
ATOM     84  S   UNL A   1      48.684  31.769  27.849  1.00  0.00     0.124 S 
ATOM     85  O   UNL A   1      49.464  30.733  28.518  1.00  0.00    -0.237 OA
ATOM     86  O   UNL A   1      49.068  32.047  26.466  1.00  0.00    -0.237 OA
ATOM     87  O   UNL A   1      48.394  32.954  28.651  1.00  0.00    -0.744 OA
ENDBRANCH  80  84
ENDBRANCH  54  77
ENDBRANCH  28  29
ENDBRANCH  21  23
ENDBRANCH  20  21
ENDBRANCH   1  20
TORSDOF 16
ENDMDL
MODEL 2
REMARK VINA RESULT:     -11.0      3.646      9.343
REMARK SMILES CCn1c(=O)n(CC)c2cc(C(=O)OCCOC(=O)c3ccc(-c4c5nc(c(-c6cc(S(=O)(=O)[O-])ccc6F)c6ccc([nH]6)c(-c6cc(S(=O)(=O)[O-])ccc6F)c6nc(c(-c7cc(S(=O)(=O)[O-])ccc7F)c7ccc4[nH]7)C=C6)C=C5)cc3)ccc21
REMARK SMILES IDX 16 1 15 2 14 3 12 4 13 5 11 6 3 7 4 8 85 9 5 10 6 11 9 12
REMARK SMILES IDX 84 13 10 14 83 15 2 16 1 17 7 18 8 19 17 20 18 21 19 22
REMARK SMILES IDX 20 23 21 24 82 25 22 26 81 27 23 28 24 29 25 30 75 31 26 32
REMARK SMILES IDX 80 33 74 34 76 35 27 36 79 37 73 38 72 39 28 41 60 42 40 43
REMARK SMILES IDX 59 44 41 45 44 46 58 47 77 48 42 49 43 50 57 52 78 53 45 54
REMARK SMILES IDX 29 55 30 56 38 57 31 58 37 59 39 60 36 61 32 62 33 63 34 64
REMARK SMILES IDX 35 65 61 66 62 67 70 68 63 69 69 70 71 71 68 72 64 73 65 74
REMARK SMILES IDX 66 75 67 76 46 77 47 78 55 79 48 80 54 81 56 82 53 83 49 84
REMARK SMILES IDX 50 85 51 86 52 87
REMARK H PARENT 76 40 44 51
REMARK Flexibility Score: inf
ROOT
ATOM      1  C   UNL A   1      39.305  21.458  26.329  1.00  0.00     0.275 C 
ENDROOT
BRANCH   1   2
ATOM      2  C   UNL A   1      38.108  21.388  25.373  1.00  0.00     0.275 C 
BRANCH   2   3
ATOM      3  O   UNL A   1      37.164  22.467  25.607  1.00  0.00    -0.458 OA
BRANCH   3   4
ATOM      4  C   UNL A   1      35.868  22.060  25.693  1.00  0.00     0.338 C 
ATOM      5  O   UNL A   1      35.462  20.925  25.498  1.00  0.00    -0.246 OA
BRANCH   4   6
ATOM      6  C   UNL A   1      34.920  23.175  25.945  1.00  0.00     0.062 A 
ATOM      7  N   UNL A   1      31.907  26.034  25.856  1.00  0.00    -0.292 N 
ATOM      8  C   UNL A   1      30.776  25.223  26.105  1.00  0.00     0.329 A 
ATOM      9  C   UNL A   1      33.059  25.233  25.865  1.00  0.00     0.069 A 
ATOM     10  O   UNL A   1      29.611  25.556  26.119  1.00  0.00    -0.248 OA
ATOM     11  N   UNL A   1      31.273  23.915  26.312  1.00  0.00    -0.292 N 
ATOM     12  C   UNL A   1      32.673  23.938  26.205  1.00  0.00     0.070 A 
ATOM     13  C   UNL A   1      34.372  25.528  25.548  1.00  0.00     0.029 A 
ATOM     14  C   UNL A   1      33.599  22.922  26.326  1.00  0.00     0.044 A 
ATOM     15  C   UNL A   1      35.302  24.474  25.554  1.00  0.00     0.018 A 
BRANCH   7  16
ATOM     16  C   UNL A   1      31.811  27.402  25.418  1.00  0.00     0.124 C 
ATOM     17  C   UNL A   1      32.071  28.377  26.561  1.00  0.00     0.028 C 
ENDBRANCH   7  16
BRANCH  11  18
ATOM     18  C   UNL A   1      30.393  22.778  26.225  1.00  0.00     0.124 C 
ATOM     19  C   UNL A   1      29.540  22.643  27.486  1.00  0.00     0.028 C 
ENDBRANCH  11  18
ENDBRANCH   4   6
ENDBRANCH   3   4
ENDBRANCH   2   3
ENDBRANCH   1   2
BRANCH   1  20
ATOM     20  O   UNL A   1      39.777  22.816  26.371  1.00  0.00    -0.458 OA
BRANCH  20  21
ATOM     21  C   UNL A   1      41.117  22.952  26.492  1.00  0.00     0.338 C 
ATOM     22  O   UNL A   1      41.976  22.273  25.960  1.00  0.00    -0.246 OA
BRANCH  21  23
ATOM     23  C   UNL A   1      41.311  24.321  27.003  1.00  0.00     0.060 A 
ATOM     24  C   UNL A   1      42.086  24.627  28.127  1.00  0.00     0.016 A 
ATOM     25  C   UNL A   1      40.466  25.270  26.445  1.00  0.00     0.016 A 
ATOM     26  C   UNL A   1      41.951  25.883  28.731  1.00  0.00     0.010 A 
ATOM     27  C   UNL A   1      40.283  26.476  27.101  1.00  0.00     0.010 A 
ATOM     28  C   UNL A   1      41.009  26.793  28.243  1.00  0.00    -0.014 A 
BRANCH  28  29
ATOM     29  C   UNL A   1      40.882  28.156  28.769  1.00  0.00     0.031 A 
ATOM     30  C   UNL A   1      41.917  29.126  28.288  1.00  0.00     0.074 A 
ATOM     31  C   UNL A   1      39.799  28.657  29.409  1.00  0.00     0.049 A 
ATOM     32  N   UNL A   1      42.657  29.905  29.004  1.00  0.00    -0.248 NA
ATOM     33  C   UNL A   1      42.177  29.249  26.843  1.00  0.00     0.031 C 
ATOM     34  C   UNL A   1      38.487  28.036  29.612  1.00  0.00     0.029 A 
ATOM     35  N   UNL A   1      39.628  29.910  29.941  1.00  0.00    -0.354 N 
ATOM     36  C   UNL A   1      43.364  30.713  28.114  1.00  0.00     0.074 A 
ATOM     37  C   UNL A   1      43.046  30.256  26.791  1.00  0.00     0.031 C 
ATOM     38  C   UNL A   1      37.614  28.963  30.079  1.00  0.00     0.029 A 
ATOM     39  C   UNL A   1      38.328  30.205  30.343  1.00  0.00     0.049 A 
ATOM     40  H   UNL A   1      40.368  30.553  30.032  1.00  0.00     0.167 HD
ATOM     41  C   UNL A   1      44.100  31.776  28.528  1.00  0.00     0.034 A 
ATOM     42  C   UNL A   1      37.868  31.377  30.855  1.00  0.00     0.034 A 
ATOM     43  C   UNL A   1      44.413  31.670  29.922  1.00  0.00     0.049 A 
ATOM     44  C   UNL A   1      39.031  32.170  31.313  1.00  0.00     0.074 A 
ATOM     45  C   UNL A   1      45.086  30.727  30.672  1.00  0.00     0.029 A 
ATOM     46  N   UNL A   1      43.694  32.428  30.809  1.00  0.00    -0.354 N 
ATOM     47  N   UNL A   1      39.717  31.936  32.394  1.00  0.00    -0.248 NA
ATOM     48  C   UNL A   1      39.618  33.137  30.400  1.00  0.00     0.031 C 
ATOM     49  C   UNL A   1      44.377  30.665  31.900  1.00  0.00     0.029 A 
ATOM     50  C   UNL A   1      43.350  31.612  31.857  1.00  0.00     0.049 A 
ATOM     51  H   UNL A   1      43.466  33.381  30.711  1.00  0.00     0.167 HD
ATOM     52  C   UNL A   1      40.998  32.344  32.082  1.00  0.00     0.074 A 
ATOM     53  C   UNL A   1      40.833  33.238  30.941  1.00  0.00     0.031 C 
ATOM     54  C   UNL A   1      42.088  31.686  32.576  1.00  0.00     0.034 A 
BRANCH  41  55
ATOM     55  C   UNL A   1      44.355  33.012  27.715  1.00  0.00     0.023 A 
ATOM     56  C   UNL A   1      43.709  34.235  27.977  1.00  0.00     0.031 A 
ATOM     57  C   UNL A   1      45.433  33.055  26.807  1.00  0.00     0.131 A 
ATOM     58  C   UNL A   1      44.121  35.420  27.350  1.00  0.00     0.055 A 
ATOM     59  C   UNL A   1      45.879  34.247  26.227  1.00  0.00     0.041 A 
ATOM     60  F   UNL A   1      46.121  31.945  26.499  1.00  0.00    -0.206 F 
ATOM     61  C   UNL A   1      45.223  35.440  26.498  1.00  0.00     0.022 A 
BRANCH  58  62
ATOM     62  S   UNL A   1      43.237  36.977  27.640  1.00  0.00     0.124 S 
ATOM     63  O   UNL A   1      41.863  36.603  27.325  1.00  0.00    -0.237 OA
ATOM     64  O   UNL A   1      43.520  37.220  29.052  1.00  0.00    -0.237 OA
ATOM     65  O   UNL A   1      43.877  37.906  26.713  1.00  0.00    -0.744 OA
ENDBRANCH  58  62
ENDBRANCH  41  55
BRANCH  42  66
ATOM     66  C   UNL A   1      36.514  31.985  30.912  1.00  0.00     0.023 A 
ATOM     67  C   UNL A   1      35.814  32.290  29.732  1.00  0.00     0.031 A 
ATOM     68  C   UNL A   1      36.037  32.559  32.111  1.00  0.00     0.131 A 
ATOM     69  C   UNL A   1      34.734  33.191  29.764  1.00  0.00     0.055 A 
ATOM     70  C   UNL A   1      34.958  33.449  32.139  1.00  0.00     0.041 A 
ATOM     71  F   UNL A   1      36.650  32.321  33.280  1.00  0.00    -0.206 F 
ATOM     72  C   UNL A   1      34.312  33.783  30.957  1.00  0.00     0.022 A 
BRANCH  69  73
ATOM     73  S   UNL A   1      33.881  33.664  28.232  1.00  0.00     0.124 S 
ATOM     74  O   UNL A   1      33.400  32.379  27.726  1.00  0.00    -0.237 OA
ATOM     75  O   UNL A   1      32.848  34.564  28.728  1.00  0.00    -0.237 OA
ATOM     76  O   UNL A   1      34.932  34.281  27.428  1.00  0.00    -0.744 OA
ENDBRANCH  69  73
ENDBRANCH  42  66
BRANCH  54  77
ATOM     77  C   UNL A   1      41.934  30.736  33.756  1.00  0.00     0.023 A 
ATOM     78  C   UNL A   1      42.425  31.186  35.000  1.00  0.00     0.031 A 
ATOM     79  C   UNL A   1      41.550  29.382  33.678  1.00  0.00     0.131 A 
ATOM     80  C   UNL A   1      42.584  30.301  36.074  1.00  0.00     0.055 A 
ATOM     81  C   UNL A   1      41.609  28.529  34.787  1.00  0.00     0.041 A 
ATOM     82  F   UNL A   1      41.203  28.803  32.522  1.00  0.00    -0.206 F 
ATOM     83  C   UNL A   1      42.152  28.979  35.984  1.00  0.00     0.022 A 
BRANCH  80  84
ATOM     84  S   UNL A   1      43.557  30.793  37.524  1.00  0.00     0.124 S 
ATOM     85  O   UNL A   1      44.200  29.539  37.904  1.00  0.00    -0.237 OA
ATOM     86  O   UNL A   1      44.450  31.812  36.974  1.00  0.00    -0.237 OA
ATOM     87  O   UNL A   1      42.559  31.298  38.462  1.00  0.00    -0.744 OA
ENDBRANCH  80  84
ENDBRANCH  54  77
ENDBRANCH  28  29
ENDBRANCH  21  23
ENDBRANCH  20  21
ENDBRANCH   1  20
TORSDOF 16
ENDMDL
MODEL 3
REMARK VINA RESULT:     -10.9      3.336      7.458
REMARK SMILES CCn1c(=O)n(CC)c2cc(C(=O)OCCOC(=O)c3ccc(-c4c5nc(c(-c6cc(S(=O)(=O)[O-])ccc6F)c6ccc([nH]6)c(-c6cc(S(=O)(=O)[O-])ccc6F)c6nc(c(-c7cc(S(=O)(=O)[O-])ccc7F)c7ccc4[nH]7)C=C6)C=C5)cc3)ccc21
REMARK SMILES IDX 16 1 15 2 14 3 12 4 13 5 11 6 3 7 4 8 85 9 5 10 6 11 9 12
REMARK SMILES IDX 84 13 10 14 83 15 2 16 1 17 7 18 8 19 17 20 18 21 19 22
REMARK SMILES IDX 20 23 21 24 82 25 22 26 81 27 23 28 24 29 25 30 75 31 26 32
REMARK SMILES IDX 80 33 74 34 76 35 27 36 79 37 73 38 72 39 28 41 60 42 40 43
REMARK SMILES IDX 59 44 41 45 44 46 58 47 77 48 42 49 43 50 57 52 78 53 45 54
REMARK SMILES IDX 29 55 30 56 38 57 31 58 37 59 39 60 36 61 32 62 33 63 34 64
REMARK SMILES IDX 35 65 61 66 62 67 70 68 63 69 69 70 71 71 68 72 64 73 65 74
REMARK SMILES IDX 66 75 67 76 46 77 47 78 55 79 48 80 54 81 56 82 53 83 49 84
REMARK SMILES IDX 50 85 51 86 52 87
REMARK H PARENT 76 40 44 51
REMARK Flexibility Score: inf
ROOT
ATOM      1  C   UNL A   1      35.071  20.651  25.372  1.00  0.00     0.275 C 
ENDROOT
BRANCH   1   2
ATOM      2  C   UNL A   1      34.014  21.043  24.331  1.00  0.00     0.275 C 
BRANCH   2   3
ATOM      3  O   UNL A   1      33.279  22.232  24.726  1.00  0.00    -0.458 OA
BRANCH   3   4
ATOM      4  C   UNL A   1      33.386  23.266  23.848  1.00  0.00     0.338 C 
ATOM      5  O   UNL A   1      33.749  23.181  22.685  1.00  0.00    -0.246 OA
BRANCH   4   6
ATOM      6  C   UNL A   1      33.124  24.590  24.467  1.00  0.00     0.062 A 
ATOM      7  N   UNL A   1      32.546  28.606  25.362  1.00  0.00    -0.292 N 
ATOM      8  C   UNL A   1      31.308  28.836  24.719  1.00  0.00     0.329 A 
ATOM      9  C   UNL A   1      32.914  27.263  25.185  1.00  0.00     0.069 A 
ATOM     10  O   UNL A   1      30.708  29.884  24.615  1.00  0.00    -0.248 OA
ATOM     11  N   UNL A   1      30.908  27.588  24.186  1.00  0.00    -0.292 N 
ATOM     12  C   UNL A   1      31.875  26.623  24.512  1.00  0.00     0.070 A 
ATOM     13  C   UNL A   1      34.080  26.592  25.504  1.00  0.00     0.029 A 
ATOM     14  C   UNL A   1      31.932  25.277  24.219  1.00  0.00     0.044 A 
ATOM     15  C   UNL A   1      34.194  25.249  25.105  1.00  0.00     0.018 A 
BRANCH   7  16
ATOM     16  C   UNL A   1      33.373  29.666  25.876  1.00  0.00     0.124 C 
ATOM     17  C   UNL A   1      33.615  29.514  27.373  1.00  0.00     0.028 C 
ENDBRANCH   7  16
BRANCH  11  18
ATOM     18  C   UNL A   1      29.894  27.523  23.165  1.00  0.00     0.124 C 
ATOM     19  C   UNL A   1      28.624  26.855  23.690  1.00  0.00     0.028 C 
ENDBRANCH  11  18
ENDBRANCH   4   6
ENDBRANCH   3   4
ENDBRANCH   2   3
ENDBRANCH   1   2
BRANCH   1  20
ATOM     20  O   UNL A   1      36.310  21.295  25.029  1.00  0.00    -0.458 OA
BRANCH  20  21
ATOM     21  C   UNL A   1      37.413  20.525  25.174  1.00  0.00     0.338 C 
ATOM     22  O   UNL A   1      37.618  19.432  24.679  1.00  0.00    -0.246 OA
BRANCH  21  23
ATOM     23  C   UNL A   1      38.456  21.450  25.652  1.00  0.00     0.060 A 
ATOM     24  C   UNL A   1      39.682  21.031  26.179  1.00  0.00     0.016 A 
ATOM     25  C   UNL A   1      38.043  22.768  25.783  1.00  0.00     0.016 A 
ATOM     26  C   UNL A   1      40.464  21.939  26.904  1.00  0.00     0.010 A 
ATOM     27  C   UNL A   1      38.786  23.632  26.571  1.00  0.00     0.010 A 
ATOM     28  C   UNL A   1      39.988  23.232  27.142  1.00  0.00    -0.014 A 
BRANCH  28  29
ATOM     29  C   UNL A   1      40.794  24.259  27.811  1.00  0.00     0.031 A 
ATOM     30  C   UNL A   1      40.120  25.584  27.990  1.00  0.00     0.074 A 
ATOM     31  C   UNL A   1      41.944  24.039  28.492  1.00  0.00     0.049 A 
ATOM     32  N   UNL A   1      40.576  26.747  27.665  1.00  0.00    -0.248 NA
ATOM     33  C   UNL A   1      38.777  25.637  28.592  1.00  0.00     0.031 C 
ATOM     34  C   UNL A   1      42.575  22.762  28.834  1.00  0.00     0.029 A 
ATOM     35  N   UNL A   1      42.751  24.955  29.119  1.00  0.00    -0.354 N 
ATOM     36  C   UNL A   1      39.660  27.683  28.145  1.00  0.00     0.074 A 
ATOM     37  C   UNL A   1      38.557  26.946  28.694  1.00  0.00     0.031 C 
ATOM     38  C   UNL A   1      43.572  22.974  29.730  1.00  0.00     0.029 A 
ATOM     39  C   UNL A   1      43.747  24.407  29.923  1.00  0.00     0.049 A 
ATOM     40  H   UNL A   1      42.635  25.926  29.007  1.00  0.00     0.167 HD
ATOM     41  C   UNL A   1      39.917  29.016  28.141  1.00  0.00     0.034 A 
ATOM     42  C   UNL A   1      44.649  25.074  30.689  1.00  0.00     0.034 A 
ATOM     43  C   UNL A   1      40.963  29.334  27.215  1.00  0.00     0.049 A 
ATOM     44  C   UNL A   1      44.694  26.481  30.231  1.00  0.00     0.074 A 
ATOM     45  C   UNL A   1      41.108  29.156  25.855  1.00  0.00     0.029 A 
ATOM     46  N   UNL A   1      42.218  29.576  27.710  1.00  0.00    -0.354 N 
ATOM     47  N   UNL A   1      45.273  26.895  29.142  1.00  0.00    -0.248 NA
ATOM     48  C   UNL A   1      43.846  27.458  30.895  1.00  0.00     0.031 C 
ATOM     49  C   UNL A   1      42.478  28.832  25.675  1.00  0.00     0.029 A 
ATOM     50  C   UNL A   1      43.106  28.889  26.923  1.00  0.00     0.049 A 
ATOM     51  H   UNL A   1      42.440  30.139  28.487  1.00  0.00     0.167 HD
ATOM     52  C   UNL A   1      44.514  27.976  28.740  1.00  0.00     0.074 A 
ATOM     53  C   UNL A   1      43.791  28.386  29.939  1.00  0.00     0.031 C 
ATOM     54  C   UNL A   1      44.313  28.242  27.415  1.00  0.00     0.034 A 
BRANCH  41  55
ATOM     55  C   UNL A   1      39.363  29.999  29.132  1.00  0.00     0.023 A 
ATOM     56  C   UNL A   1      38.247  30.811  28.849  1.00  0.00     0.031 A 
ATOM     57  C   UNL A   1      39.794  29.974  30.474  1.00  0.00     0.131 A 
ATOM     58  C   UNL A   1      37.620  31.556  29.857  1.00  0.00     0.055 A 
ATOM     59  C   UNL A   1      39.131  30.673  31.489  1.00  0.00     0.041 A 
ATOM     60  F   UNL A   1      40.841  29.224  30.849  1.00  0.00    -0.206 F 
ATOM     61  C   UNL A   1      38.036  31.469  31.184  1.00  0.00     0.022 A 
BRANCH  58  62
ATOM     62  S   UNL A   1      36.228  32.652  29.468  1.00  0.00     0.124 S 
ATOM     63  O   UNL A   1      35.085  31.780  29.709  1.00  0.00    -0.237 OA
ATOM     64  O   UNL A   1      36.419  33.729  30.436  1.00  0.00    -0.237 OA
ATOM     65  O   UNL A   1      36.470  33.022  28.076  1.00  0.00    -0.744 OA
ENDBRANCH  58  62
ENDBRANCH  41  55
BRANCH  42  66
ATOM     66  C   UNL A   1      45.437  24.681  31.885  1.00  0.00     0.023 A 
ATOM     67  C   UNL A   1      44.854  23.913  32.908  1.00  0.00     0.031 A 
ATOM     68  C   UNL A   1      46.663  25.319  32.177  1.00  0.00     0.131 A 
ATOM     69  C   UNL A   1      45.450  23.864  34.182  1.00  0.00     0.055 A 
ATOM     70  C   UNL A   1      47.255  25.262  33.443  1.00  0.00     0.041 A 
ATOM     71  F   UNL A   1      47.283  26.073  31.257  1.00  0.00    -0.206 F 
ATOM     72  C   UNL A   1      46.638  24.545  34.458  1.00  0.00     0.022 A 
BRANCH  69  73
ATOM     73  S   UNL A   1      44.657  22.952  35.537  1.00  0.00     0.124 S 
ATOM     74  O   UNL A   1      44.877  21.558  35.154  1.00  0.00    -0.237 OA
ATOM     75  O   UNL A   1      45.419  23.407  36.693  1.00  0.00    -0.237 OA
ATOM     76  O   UNL A   1      43.265  23.388  35.478  1.00  0.00    -0.744 OA
ENDBRANCH  69  73
ENDBRANCH  42  66
BRANCH  54  77
ATOM     77  C   UNL A   1      45.201  27.593  26.363  1.00  0.00     0.023 A 
ATOM     78  C   UNL A   1      44.943  26.239  26.064  1.00  0.00     0.031 A 
ATOM     79  C   UNL A   1      46.380  28.148  25.827  1.00  0.00     0.131 A 
ATOM     80  C   UNL A   1      45.860  25.477  25.329  1.00  0.00     0.055 A 
ATOM     81  C   UNL A   1      47.239  27.411  25.000  1.00  0.00     0.041 A 
ATOM     82  F   UNL A   1      46.807  29.375  26.153  1.00  0.00    -0.206 F 
ATOM     83  C   UNL A   1      46.995  26.063  24.769  1.00  0.00     0.022 A 
BRANCH  80  84
ATOM     84  S   UNL A   1      45.708  23.670  25.274  1.00  0.00     0.124 S 
ATOM     85  O   UNL A   1      45.977  23.379  23.870  1.00  0.00    -0.237 OA
ATOM     86  O   UNL A   1      46.744  23.239  26.212  1.00  0.00    -0.237 OA
ATOM     87  O   UNL A   1      44.341  23.418  25.719  1.00  0.00    -0.744 OA
ENDBRANCH  80  84
ENDBRANCH  54  77
ENDBRANCH  28  29
ENDBRANCH  21  23
ENDBRANCH  20  21
ENDBRANCH   1  20
TORSDOF 16
ENDMDL
