MODEL 1
REMARK VINA RESULT:     -12.9      0.000      0.000
REMARK SMILES O=C(OCCOC(=O)[C@]12CCC[NH2+][C@@H]1CCN(C(=O)Cc1c(F)cccc1Cl)C2)c1ccc(-c2c3nc(c(-c4cc(S(=O)(=O)[O-])ccc4F)c4ccc([nH]4)c(-c4cc(S(=O)(=O)[O-])ccc4F)c4nc(c(-c5cc(S(=O)(=O)[O-])ccc5F)c5ccc2[nH]5)C=C4)C=C3)cc1
REMARK SMILES IDX 4 1 3 2 2 3 1 4 30 5 31 6 92 7 32 8 91 9 33 10 34 11 35 12
REMARK SMILES IDX 85 13 36 14 90 15 84 16 86 17 37 18 89 19 83 20 82 21 38 23
REMARK SMILES IDX 70 24 50 25 69 26 51 27 54 28 68 29 87 30 52 31 53 32 67 34
REMARK SMILES IDX 88 35 55 36 39 37 40 38 48 39 41 40 47 41 49 42 46 43 42 44
REMARK SMILES IDX 43 45 44 46 45 47 71 48 72 49 80 50 73 51 79 52 81 53 78 54
REMARK SMILES IDX 74 55 75 56 76 57 77 58 56 59 57 60 65 61 58 62 64 63 66 64
REMARK SMILES IDX 63 65 59 66 60 67 61 68 62 69 5 70 6 71 7 72 8 73 9 74 10 75
REMARK SMILES IDX 14 76 29 77 11 78 13 79 15 80 17 81 12 82 16 85 18 86 19 87
REMARK SMILES IDX 20 88 21 89 22 90 27 91 23 92 24 93 26 94 28 95 25 96
REMARK H PARENT 86 22 54 33 13 83 13 84
REMARK Flexibility Score: inf
ROOT
ATOM      1  C   UNL A   1      37.707  21.015  24.912  1.00  0.00     0.275 C 
ENDROOT
BRANCH   1   2
ATOM      2  O   UNL A   1      38.542  22.115  25.506  1.00  0.00    -0.458 OA
BRANCH   2   3
ATOM      3  C   UNL A   1      39.581  22.321  26.393  1.00  0.00     0.338 C 
ATOM      4  O   UNL A   1      40.020  21.350  27.011  1.00  0.00    -0.246 OA
BRANCH   3   5
ATOM      5  C   UNL A   1      39.983  23.674  26.932  1.00  0.00     0.060 A 
ATOM      6  C   UNL A   1      39.353  24.853  26.540  1.00  0.00     0.016 A 
ATOM      7  C   UNL A   1      40.934  23.747  27.986  1.00  0.00     0.016 A 
ATOM      8  C   UNL A   1      39.536  26.025  27.305  1.00  0.00     0.010 A 
ATOM      9  C   UNL A   1      41.116  24.929  28.749  1.00  0.00     0.010 A 
ATOM     10  C   UNL A   1      40.377  26.076  28.442  1.00  0.00    -0.014 A 
BRANCH  10  11
ATOM     11  C   UNL A   1      40.673  27.443  28.993  1.00  0.00     0.031 A 
ATOM     12  C   UNL A   1      42.090  27.880  28.781  1.00  0.00     0.074 A 
ATOM     13  C   UNL A   1      39.766  28.342  29.441  1.00  0.00     0.049 A 
ATOM     14  N   UNL A   1      42.587  29.079  28.678  1.00  0.00    -0.248 NA
ATOM     15  C   UNL A   1      43.051  26.789  28.557  1.00  0.00     0.031 C 
ATOM     16  C   UNL A   1      38.360  28.064  29.701  1.00  0.00     0.029 A 
ATOM     17  N   UNL A   1      39.876  29.695  29.711  1.00  0.00    -0.354 N 
ATOM     18  C   UNL A   1      43.898  28.886  28.269  1.00  0.00     0.074 A 
ATOM     19  C   UNL A   1      44.118  27.460  28.169  1.00  0.00     0.031 C 
ATOM     20  C   UNL A   1      37.722  29.209  30.016  1.00  0.00     0.029 A 
ATOM     21  C   UNL A   1      38.676  30.318  30.014  1.00  0.00     0.049 A 
ATOM     22  H   UNL A   1      40.736  30.174  29.688  1.00  0.00     0.167 HD
ATOM     23  C   UNL A   1      44.848  29.813  28.011  1.00  0.00     0.034 A 
ATOM     24  C   UNL A   1      38.392  31.624  30.254  1.00  0.00     0.034 A 
ATOM     25  C   UNL A   1      44.686  31.202  28.331  1.00  0.00     0.049 A 
ATOM     26  C   UNL A   1      39.537  32.620  30.184  1.00  0.00     0.074 A 
ATOM     27  C   UNL A   1      45.635  32.204  28.329  1.00  0.00     0.029 A 
ATOM     28  N   UNL A   1      43.502  31.769  28.794  1.00  0.00    -0.354 N 
ATOM     29  N   UNL A   1      40.776  32.429  29.785  1.00  0.00    -0.248 NA
ATOM     30  C   UNL A   1      39.255  34.001  30.606  1.00  0.00     0.031 C 
ATOM     31  C   UNL A   1      45.053  33.350  28.883  1.00  0.00     0.029 A 
ATOM     32  C   UNL A   1      43.711  33.095  29.125  1.00  0.00     0.049 A 
ATOM     33  H   UNL A   1      42.643  31.295  28.873  1.00  0.00     0.167 HD
ATOM     34  C   UNL A   1      41.408  33.668  29.883  1.00  0.00     0.074 A 
ATOM     35  C   UNL A   1      40.410  34.602  30.360  1.00  0.00     0.031 C 
ATOM     36  C   UNL A   1      42.695  34.005  29.605  1.00  0.00     0.034 A 
BRANCH  23  37
ATOM     37  C   UNL A   1      46.167  29.260  27.546  1.00  0.00     0.023 A 
ATOM     38  C   UNL A   1      46.400  28.990  26.182  1.00  0.00     0.031 A 
ATOM     39  C   UNL A   1      47.096  28.791  28.487  1.00  0.00     0.131 A 
ATOM     40  C   UNL A   1      47.482  28.175  25.816  1.00  0.00     0.055 A 
ATOM     41  C   UNL A   1      48.217  28.057  28.104  1.00  0.00     0.041 A 
ATOM     42  F   UNL A   1      46.885  28.971  29.801  1.00  0.00    -0.206 F 
ATOM     43  C   UNL A   1      48.403  27.726  26.765  1.00  0.00     0.022 A 
BRANCH  40  44
ATOM     44  S   UNL A   1      47.540  27.530  24.118  1.00  0.00     0.124 S 
ATOM     45  O   UNL A   1      48.981  27.532  23.854  1.00  0.00    -0.237 OA
ATOM     46  O   UNL A   1      46.914  26.231  24.246  1.00  0.00    -0.237 OA
ATOM     47  O   UNL A   1      46.779  28.524  23.351  1.00  0.00    -0.744 OA
ENDBRANCH  40  44
ENDBRANCH  23  37
BRANCH  24  48
ATOM     48  C   UNL A   1      37.012  32.102  30.643  1.00  0.00     0.023 A 
ATOM     49  C   UNL A   1      36.114  32.667  29.710  1.00  0.00     0.031 A 
ATOM     50  C   UNL A   1      36.617  32.117  31.994  1.00  0.00     0.131 A 
ATOM     51  C   UNL A   1      34.903  33.249  30.145  1.00  0.00     0.055 A 
ATOM     52  C   UNL A   1      35.391  32.645  32.413  1.00  0.00     0.041 A 
ATOM     53  F   UNL A   1      37.431  31.632  32.943  1.00  0.00    -0.206 F 
ATOM     54  C   UNL A   1      34.531  33.227  31.488  1.00  0.00     0.022 A 
BRANCH  51  55
ATOM     55  S   UNL A   1      33.855  34.136  28.948  1.00  0.00     0.124 S 
ATOM     56  O   UNL A   1      33.478  33.068  28.030  1.00  0.00    -0.237 OA
ATOM     57  O   UNL A   1      32.792  34.657  29.802  1.00  0.00    -0.237 OA
ATOM     58  O   UNL A   1      34.752  35.148  28.391  1.00  0.00    -0.744 OA
ENDBRANCH  51  55
ENDBRANCH  24  48
BRANCH  36  59
ATOM     59  C   UNL A   1      43.081  35.457  29.757  1.00  0.00     0.023 A 
ATOM     60  C   UNL A   1      42.912  36.391  28.721  1.00  0.00     0.031 A 
ATOM     61  C   UNL A   1      43.613  35.911  30.978  1.00  0.00     0.131 A 
ATOM     62  C   UNL A   1      43.326  37.718  28.906  1.00  0.00     0.055 A 
ATOM     63  C   UNL A   1      43.956  37.247  31.179  1.00  0.00     0.041 A 
ATOM     64  F   UNL A   1      43.797  35.062  32.002  1.00  0.00    -0.206 F 
ATOM     65  C   UNL A   1      43.826  38.157  30.135  1.00  0.00     0.022 A 
BRANCH  62  66
ATOM     66  S   UNL A   1      43.301  38.845  27.484  1.00  0.00     0.124 S 
ATOM     67  O   UNL A   1      41.932  38.693  27.001  1.00  0.00    -0.237 OA
ATOM     68  O   UNL A   1      43.621  40.129  28.099  1.00  0.00    -0.237 OA
ATOM     69  O   UNL A   1      44.334  38.307  26.603  1.00  0.00    -0.744 OA
ENDBRANCH  62  66
ENDBRANCH  36  59
ENDBRANCH  10  11
ENDBRANCH   3   5
ENDBRANCH   2   3
ENDBRANCH   1   2
BRANCH   1  70
ATOM     70  C   UNL A   1      36.148  20.993  25.319  1.00  0.00     0.274 C 
BRANCH  70  71
ATOM     71  O   UNL A   1      35.418  22.280  25.316  1.00  0.00    -0.461 OA
BRANCH  71  72
ATOM     72  C   UNL A   1      34.793  22.813  24.196  1.00  0.00     0.320 C 
ATOM     73  O   UNL A   1      35.342  22.853  23.101  1.00  0.00    -0.251 OA
BRANCH  72  74
ATOM     74  C   UNL A   1      33.329  23.330  24.479  1.00  0.00     0.137 C 
ATOM     75  C   UNL A   1      32.374  22.236  25.007  1.00  0.00     0.033 C 
ATOM     76  C   UNL A   1      32.797  23.848  23.168  1.00  0.00     0.203 C 
ATOM     77  C   UNL A   1      33.182  24.528  25.463  1.00  0.00     0.144 C 
ATOM     78  C   UNL A   1      32.157  21.055  24.079  1.00  0.00     0.063 C 
ATOM     79  N   UNL A   1      32.661  22.732  22.277  1.00  0.00    -0.343 N 
ATOM     80  C   UNL A   1      33.752  25.000  22.734  1.00  0.00     0.088 C 
ATOM     81  N   UNL A   1      33.553  25.881  25.016  1.00  0.00    -0.341 N 
ATOM     82  C   UNL A   1      32.190  21.412  22.609  1.00  0.00     0.260 C 
ATOM     83  H   UNL A   1      32.035  23.058  21.541  1.00  0.00     0.346 HD
ATOM     84  H   UNL A   1      33.648  22.521  22.125  1.00  0.00     0.346 HD
ATOM     85  C   UNL A   1      33.534  26.206  23.606  1.00  0.00     0.125 C 
BRANCH  81  86
ATOM     86  C   UNL A   1      33.345  26.921  25.934  1.00  0.00     0.227 C 
ATOM     87  O   UNL A   1      34.265  27.625  26.350  1.00  0.00    -0.275 OA
BRANCH  86  88
ATOM     88  C   UNL A   1      31.910  27.170  26.388  1.00  0.00     0.140 C 
BRANCH  88  89
ATOM     89  C   UNL A   1      31.006  27.676  25.285  1.00  0.00     0.016 A 
ATOM     90  C   UNL A   1      30.135  26.772  24.665  1.00  0.00     0.128 A 
ATOM     91  C   UNL A   1      31.029  28.993  24.797  1.00  0.00     0.047 A 
ATOM     92  F   UNL A   1      30.018  25.523  25.141  1.00  0.00    -0.207 F 
ATOM     93  C   UNL A   1      29.402  27.117  23.533  1.00  0.00     0.039 A 
ATOM     94  C   UNL A   1      30.338  29.329  23.628  1.00  0.00     0.021 A 
ATOM     95  Cl  UNL A   1      31.854  30.281  25.600  1.00  0.00    -0.084 Cl
ATOM     96  C   UNL A   1      29.534  28.389  22.988  1.00  0.00     0.005 A 
ENDBRANCH  88  89
ENDBRANCH  86  88
ENDBRANCH  81  86
ENDBRANCH  72  74
ENDBRANCH  71  72
ENDBRANCH  70  71
ENDBRANCH   1  70
TORSDOF 17
ENDMDL
MODEL 2
REMARK VINA RESULT:     -12.8      1.350      2.041
REMARK SMILES O=C(OCCOC(=O)[C@]12CCC[NH2+][C@@H]1CCN(C(=O)Cc1c(F)cccc1Cl)C2)c1ccc(-c2c3nc(c(-c4cc(S(=O)(=O)[O-])ccc4F)c4ccc([nH]4)c(-c4cc(S(=O)(=O)[O-])ccc4F)c4nc(c(-c5cc(S(=O)(=O)[O-])ccc5F)c5ccc2[nH]5)C=C4)C=C3)cc1
REMARK SMILES IDX 4 1 3 2 2 3 1 4 30 5 31 6 92 7 32 8 91 9 33 10 34 11 35 12
REMARK SMILES IDX 85 13 36 14 90 15 84 16 86 17 37 18 89 19 83 20 82 21 38 23
REMARK SMILES IDX 70 24 50 25 69 26 51 27 54 28 68 29 87 30 52 31 53 32 67 34
REMARK SMILES IDX 88 35 55 36 39 37 40 38 48 39 41 40 47 41 49 42 46 43 42 44
REMARK SMILES IDX 43 45 44 46 45 47 71 48 72 49 80 50 73 51 79 52 81 53 78 54
REMARK SMILES IDX 74 55 75 56 76 57 77 58 56 59 57 60 65 61 58 62 64 63 66 64
REMARK SMILES IDX 63 65 59 66 60 67 61 68 62 69 5 70 6 71 7 72 8 73 9 74 10 75
REMARK SMILES IDX 14 76 29 77 11 78 13 79 15 80 17 81 12 82 16 85 18 86 19 87
REMARK SMILES IDX 20 88 21 89 22 90 27 91 23 92 24 93 26 94 28 95 25 96
REMARK H PARENT 86 22 54 33 13 83 13 84
REMARK Flexibility Score: inf
ROOT
ATOM      1  C   UNL A   1      37.287  21.598  25.169  1.00  0.00     0.275 C 
ENDROOT
BRANCH   1   2
ATOM      2  O   UNL A   1      38.770  21.684  25.399  1.00  0.00    -0.458 OA
BRANCH   2   3
ATOM      3  C   UNL A   1      39.694  21.918  26.400  1.00  0.00     0.338 C 
ATOM      4  O   UNL A   1      40.187  20.947  26.977  1.00  0.00    -0.246 OA
BRANCH   3   5
ATOM      5  C   UNL A   1      39.884  23.251  27.086  1.00  0.00     0.060 A 
ATOM      6  C   UNL A   1      40.759  23.425  28.155  1.00  0.00     0.016 A 
ATOM      7  C   UNL A   1      39.266  24.408  26.537  1.00  0.00     0.016 A 
ATOM      8  C   UNL A   1      41.141  24.729  28.535  1.00  0.00     0.010 A 
ATOM      9  C   UNL A   1      39.652  25.717  26.924  1.00  0.00     0.010 A 
ATOM     10  C   UNL A   1      40.637  25.891  27.903  1.00  0.00    -0.014 A 
BRANCH  10  11
ATOM     11  C   UNL A   1      40.931  27.201  28.580  1.00  0.00     0.031 A 
ATOM     12  C   UNL A   1      42.349  27.653  28.418  1.00  0.00     0.074 A 
ATOM     13  C   UNL A   1      40.021  28.056  29.103  1.00  0.00     0.049 A 
ATOM     14  N   UNL A   1      42.848  28.856  28.431  1.00  0.00    -0.248 NA
ATOM     15  C   UNL A   1      43.311  26.586  28.102  1.00  0.00     0.031 C 
ATOM     16  C   UNL A   1      38.613  27.758  29.326  1.00  0.00     0.029 A 
ATOM     17  N   UNL A   1      40.130  29.378  29.496  1.00  0.00    -0.354 N 
ATOM     18  C   UNL A   1      44.162  28.700  28.014  1.00  0.00     0.074 A 
ATOM     19  C   UNL A   1      44.381  27.289  27.785  1.00  0.00     0.031 C 
ATOM     20  C   UNL A   1      37.973  28.869  29.740  1.00  0.00     0.029 A 
ATOM     21  C   UNL A   1      38.928  29.972  29.848  1.00  0.00     0.049 A 
ATOM     22  H   UNL A   1      40.991  29.856  29.524  1.00  0.00     0.167 HD
ATOM     23  C   UNL A   1      45.114  29.645  27.850  1.00  0.00     0.034 A 
ATOM     24  C   UNL A   1      38.643  31.251  30.205  1.00  0.00     0.034 A 
ATOM     25  C   UNL A   1      44.951  30.999  28.296  1.00  0.00     0.049 A 
ATOM     26  C   UNL A   1      39.790  32.248  30.235  1.00  0.00     0.074 A 
ATOM     27  C   UNL A   1      45.901  31.996  28.393  1.00  0.00     0.029 A 
ATOM     28  N   UNL A   1      43.764  31.523  28.800  1.00  0.00    -0.354 N 
ATOM     29  N   UNL A   1      41.032  32.093  29.829  1.00  0.00    -0.248 NA
ATOM     30  C   UNL A   1      39.506  33.584  30.781  1.00  0.00     0.031 C 
ATOM     31  C   UNL A   1      45.316  33.087  29.045  1.00  0.00     0.029 A 
ATOM     32  C   UNL A   1      43.972  32.813  29.254  1.00  0.00     0.049 A 
ATOM     33  H   UNL A   1      42.905  31.045  28.830  1.00  0.00     0.167 HD
ATOM     34  C   UNL A   1      41.664  33.316  30.045  1.00  0.00     0.074 A 
ATOM     35  C   UNL A   1      40.664  34.204  30.599  1.00  0.00     0.031 C 
ATOM     36  C   UNL A   1      42.953  33.676  29.809  1.00  0.00     0.034 A 
BRANCH  23  37
ATOM     37  C   UNL A   1      46.435  29.135  27.345  1.00  0.00     0.023 A 
ATOM     38  C   UNL A   1      46.655  28.929  25.968  1.00  0.00     0.031 A 
ATOM     39  C   UNL A   1      47.385  28.643  28.253  1.00  0.00     0.131 A 
ATOM     40  C   UNL A   1      47.745  28.149  25.553  1.00  0.00     0.055 A 
ATOM     41  C   UNL A   1      48.513  27.945  27.825  1.00  0.00     0.041 A 
ATOM     42  F   UNL A   1      47.189  28.763  29.576  1.00  0.00    -0.206 F 
ATOM     43  C   UNL A   1      48.686  27.676  26.470  1.00  0.00     0.022 A 
BRANCH  40  44
ATOM     44  S   UNL A   1      47.791  27.578  23.829  1.00  0.00     0.124 S 
ATOM     45  O   UNL A   1      46.778  28.437  23.210  1.00  0.00    -0.237 OA
ATOM     46  O   UNL A   1      49.164  27.828  23.443  1.00  0.00    -0.237 OA
ATOM     47  O   UNL A   1      47.412  26.163  23.930  1.00  0.00    -0.744 OA
ENDBRANCH  40  44
ENDBRANCH  23  37
BRANCH  24  48
ATOM     48  C   UNL A   1      37.261  31.693  30.627  1.00  0.00     0.023 A 
ATOM     49  C   UNL A   1      36.394  32.400  29.764  1.00  0.00     0.031 A 
ATOM     50  C   UNL A   1      36.834  31.524  31.957  1.00  0.00     0.131 A 
ATOM     51  C   UNL A   1      35.182  32.936  30.249  1.00  0.00     0.055 A 
ATOM     52  C   UNL A   1      35.605  32.009  32.420  1.00  0.00     0.041 A 
ATOM     53  F   UNL A   1      37.618  30.896  32.847  1.00  0.00    -0.206 F 
ATOM     54  C   UNL A   1      34.777  32.730  31.567  1.00  0.00     0.022 A 
BRANCH  51  55
ATOM     55  S   UNL A   1      34.175  34.001  29.167  1.00  0.00     0.124 S 
ATOM     56  O   UNL A   1      33.226  34.577  30.113  1.00  0.00    -0.237 OA
ATOM     57  O   UNL A   1      35.176  34.912  28.623  1.00  0.00    -0.237 OA
ATOM     58  O   UNL A   1      33.602  33.064  28.202  1.00  0.00    -0.744 OA
ENDBRANCH  51  55
ENDBRANCH  24  48
BRANCH  36  59
ATOM     59  C   UNL A   1      43.340  35.107  30.097  1.00  0.00     0.023 A 
ATOM     60  C   UNL A   1      43.202  36.128  29.142  1.00  0.00     0.031 A 
ATOM     61  C   UNL A   1      43.839  35.451  31.366  1.00  0.00     0.131 A 
ATOM     62  C   UNL A   1      43.614  37.432  29.452  1.00  0.00     0.055 A 
ATOM     63  C   UNL A   1      44.180  36.762  31.693  1.00  0.00     0.041 A 
ATOM     64  F   UNL A   1      43.992  34.514  32.318  1.00  0.00    -0.206 F 
ATOM     65  C   UNL A   1      44.082  37.759  30.728  1.00  0.00     0.022 A 
BRANCH  62  66
ATOM     66  S   UNL A   1      43.632  38.678  28.134  1.00  0.00     0.124 S 
ATOM     67  O   UNL A   1      43.460  37.858  26.940  1.00  0.00    -0.237 OA
ATOM     68  O   UNL A   1      42.500  39.527  28.494  1.00  0.00    -0.237 OA
ATOM     69  O   UNL A   1      44.944  39.305  28.273  1.00  0.00    -0.744 OA
ENDBRANCH  62  66
ENDBRANCH  36  59
ENDBRANCH  10  11
ENDBRANCH   3   5
ENDBRANCH   2   3
ENDBRANCH   1   2
BRANCH   1  70
ATOM     70  C   UNL A   1      36.698  22.455  23.938  1.00  0.00     0.274 C 
BRANCH  70  71
ATOM     71  O   UNL A   1      35.288  22.224  23.553  1.00  0.00    -0.461 OA
BRANCH  71  72
ATOM     72  C   UNL A   1      34.259  22.027  24.465  1.00  0.00     0.320 C 
ATOM     73  O   UNL A   1      33.858  20.909  24.764  1.00  0.00    -0.251 OA
BRANCH  72  74
ATOM     74  C   UNL A   1      33.690  23.370  25.071  1.00  0.00     0.137 C 
ATOM     75  C   UNL A   1      34.384  23.803  26.382  1.00  0.00     0.033 C 
ATOM     76  C   UNL A   1      32.229  23.128  25.351  1.00  0.00     0.203 C 
ATOM     77  C   UNL A   1      33.711  24.624  24.149  1.00  0.00     0.144 C 
ATOM     78  C   UNL A   1      34.273  22.823  27.535  1.00  0.00     0.063 C 
ATOM     79  N   UNL A   1      32.138  22.148  26.394  1.00  0.00    -0.343 N 
ATOM     80  C   UNL A   1      31.574  22.779  23.980  1.00  0.00     0.088 C 
ATOM     81  N   UNL A   1      32.737  24.730  23.050  1.00  0.00    -0.341 N 
ATOM     82  C   UNL A   1      32.973  22.049  27.564  1.00  0.00     0.260 C 
ATOM     83  H   UNL A   1      31.188  22.236  26.755  1.00  0.00     0.346 HD
ATOM     84  H   UNL A   1      32.474  21.331  25.884  1.00  0.00     0.346 HD
ATOM     85  C   UNL A   1      31.482  24.012  23.125  1.00  0.00     0.125 C 
BRANCH  81  86
ATOM     86  C   UNL A   1      32.776  25.910  22.293  1.00  0.00     0.227 C 
ATOM     87  O   UNL A   1      33.653  26.127  21.456  1.00  0.00    -0.275 OA
BRANCH  86  88
ATOM     88  C   UNL A   1      31.660  26.924  22.528  1.00  0.00     0.140 C 
BRANCH  88  89
ATOM     89  C   UNL A   1      31.784  27.664  23.842  1.00  0.00     0.016 A 
ATOM     90  C   UNL A   1      32.708  28.713  23.935  1.00  0.00     0.128 A 
ATOM     91  C   UNL A   1      31.070  27.324  25.003  1.00  0.00     0.047 A 
ATOM     92  F   UNL A   1      33.361  29.128  22.839  1.00  0.00    -0.207 F 
ATOM     93  C   UNL A   1      33.004  29.325  25.150  1.00  0.00     0.039 A 
ATOM     94  C   UNL A   1      31.403  27.896  26.234  1.00  0.00     0.021 A 
ATOM     95  Cl  UNL A   1      29.731  26.233  24.999  1.00  0.00    -0.084 Cl
ATOM     96  C   UNL A   1      32.378  28.888  26.312  1.00  0.00     0.005 A 
ENDBRANCH  88  89
ENDBRANCH  86  88
ENDBRANCH  81  86
ENDBRANCH  72  74
ENDBRANCH  71  72
ENDBRANCH  70  71
ENDBRANCH   1  70
TORSDOF 17
ENDMDL
MODEL 3
REMARK VINA RESULT:     -12.7      4.766     10.283
REMARK SMILES O=C(OCCOC(=O)[C@]12CCC[NH2+][C@@H]1CCN(C(=O)Cc1c(F)cccc1Cl)C2)c1ccc(-c2c3nc(c(-c4cc(S(=O)(=O)[O-])ccc4F)c4ccc([nH]4)c(-c4cc(S(=O)(=O)[O-])ccc4F)c4nc(c(-c5cc(S(=O)(=O)[O-])ccc5F)c5ccc2[nH]5)C=C4)C=C3)cc1
REMARK SMILES IDX 4 1 3 2 2 3 1 4 30 5 31 6 92 7 32 8 91 9 33 10 34 11 35 12
REMARK SMILES IDX 85 13 36 14 90 15 84 16 86 17 37 18 89 19 83 20 82 21 38 23
REMARK SMILES IDX 70 24 50 25 69 26 51 27 54 28 68 29 87 30 52 31 53 32 67 34
REMARK SMILES IDX 88 35 55 36 39 37 40 38 48 39 41 40 47 41 49 42 46 43 42 44
REMARK SMILES IDX 43 45 44 46 45 47 71 48 72 49 80 50 73 51 79 52 81 53 78 54
REMARK SMILES IDX 74 55 75 56 76 57 77 58 56 59 57 60 65 61 58 62 64 63 66 64
REMARK SMILES IDX 63 65 59 66 60 67 61 68 62 69 5 70 6 71 7 72 8 73 9 74 10 75
REMARK SMILES IDX 14 76 29 77 11 78 13 79 15 80 17 81 12 82 16 85 18 86 19 87
REMARK SMILES IDX 20 88 21 89 22 90 27 91 23 92 24 93 26 94 28 95 25 96
REMARK H PARENT 86 22 54 33 13 83 13 84
REMARK Flexibility Score: inf
ROOT
ATOM      1  C   UNL A   1      32.450  30.714  26.916  1.00  0.00     0.275 C 
ENDROOT
BRANCH   1   2
ATOM      2  O   UNL A   1      33.631  31.576  27.267  1.00  0.00    -0.458 OA
BRANCH   2   3
ATOM      3  C   UNL A   1      34.350  32.027  28.357  1.00  0.00     0.338 C 
ATOM      4  O   UNL A   1      34.056  33.124  28.835  1.00  0.00    -0.246 OA
BRANCH   3   5
ATOM      5  C   UNL A   1      35.684  31.463  28.787  1.00  0.00     0.060 A 
ATOM      6  C   UNL A   1      35.876  30.108  29.046  1.00  0.00     0.016 A 
ATOM      7  C   UNL A   1      36.827  32.309  28.788  1.00  0.00     0.016 A 
ATOM      8  C   UNL A   1      37.189  29.594  29.117  1.00  0.00     0.010 A 
ATOM      9  C   UNL A   1      38.144  31.787  28.863  1.00  0.00     0.010 A 
ATOM     10  C   UNL A   1      38.340  30.407  28.982  1.00  0.00    -0.014 A 
BRANCH  10  11
ATOM     11  C   UNL A   1      39.654  29.769  29.338  1.00  0.00     0.031 A 
ATOM     12  C   UNL A   1      40.167  30.170  30.686  1.00  0.00     0.074 A 
ATOM     13  C   UNL A   1      40.261  28.758  28.674  1.00  0.00     0.049 A 
ATOM     14  N   UNL A   1      40.951  29.528  31.505  1.00  0.00    -0.248 NA
ATOM     15  C   UNL A   1      39.629  31.436  31.208  1.00  0.00     0.031 C 
ATOM     16  C   UNL A   1      39.880  28.264  27.358  1.00  0.00     0.029 A 
ATOM     17  N   UNL A   1      41.302  27.922  29.037  1.00  0.00    -0.354 N 
ATOM     18  C   UNL A   1      40.911  30.261  32.682  1.00  0.00     0.074 A 
ATOM     19  C   UNL A   1      40.050  31.400  32.457  1.00  0.00     0.031 C 
ATOM     20  C   UNL A   1      40.613  27.175  27.053  1.00  0.00     0.029 A 
ATOM     21  C   UNL A   1      41.551  26.895  28.140  1.00  0.00     0.049 A 
ATOM     22  H   UNL A   1      41.821  28.045  29.865  1.00  0.00     0.167 HD
ATOM     23  C   UNL A   1      41.548  30.019  33.850  1.00  0.00     0.034 A 
ATOM     24  C   UNL A   1      42.427  25.859  28.201  1.00  0.00     0.034 A 
ATOM     25  C   UNL A   1      42.569  29.020  33.987  1.00  0.00     0.049 A 
ATOM     26  C   UNL A   1      43.302  25.745  29.437  1.00  0.00     0.074 A 
ATOM     27  C   UNL A   1      43.442  28.817  35.037  1.00  0.00     0.029 A 
ATOM     28  N   UNL A   1      42.908  28.103  32.996  1.00  0.00    -0.354 N 
ATOM     29  N   UNL A   1      43.250  26.440  30.554  1.00  0.00    -0.248 NA
ATOM     30  C   UNL A   1      44.359  24.723  29.422  1.00  0.00     0.031 C 
ATOM     31  C   UNL A   1      44.370  27.846  34.644  1.00  0.00     0.029 A 
ATOM     32  C   UNL A   1      44.008  27.364  33.393  1.00  0.00     0.049 A 
ATOM     33  H   UNL A   1      42.435  27.997  32.140  1.00  0.00     0.167 HD
ATOM     34  C   UNL A   1      44.246  25.919  31.378  1.00  0.00     0.074 A 
ATOM     35  C   UNL A   1      44.870  24.841  30.640  1.00  0.00     0.031 C 
ATOM     36  C   UNL A   1      44.614  26.295  32.631  1.00  0.00     0.034 A 
BRANCH  23  37
ATOM     37  C   UNL A   1      41.254  31.001  34.950  1.00  0.00     0.023 A 
ATOM     38  C   UNL A   1      40.120  30.850  35.774  1.00  0.00     0.031 A 
ATOM     39  C   UNL A   1      41.975  32.203  35.022  1.00  0.00     0.131 A 
ATOM     40  C   UNL A   1      39.683  31.933  36.552  1.00  0.00     0.055 A 
ATOM     41  C   UNL A   1      41.583  33.241  35.865  1.00  0.00     0.041 A 
ATOM     42  F   UNL A   1      43.025  32.416  34.213  1.00  0.00    -0.206 F 
ATOM     43  C   UNL A   1      40.419  33.118  36.619  1.00  0.00     0.022 A 
BRANCH  40  44
ATOM     44  S   UNL A   1      38.028  31.849  37.296  1.00  0.00     0.124 S 
ATOM     45  O   UNL A   1      38.306  32.258  38.675  1.00  0.00    -0.237 OA
ATOM     46  O   UNL A   1      37.266  32.782  36.493  1.00  0.00    -0.237 OA
ATOM     47  O   UNL A   1      37.659  30.436  37.142  1.00  0.00    -0.744 OA
ENDBRANCH  40  44
ENDBRANCH  23  37
BRANCH  24  48
ATOM     48  C   UNL A   1      42.601  24.869  27.072  1.00  0.00     0.023 A 
ATOM     49  C   UNL A   1      42.051  23.569  27.111  1.00  0.00     0.031 A 
ATOM     50  C   UNL A   1      43.439  25.172  25.982  1.00  0.00     0.131 A 
ATOM     51  C   UNL A   1      42.375  22.624  26.113  1.00  0.00     0.055 A 
ATOM     52  C   UNL A   1      43.713  24.250  24.965  1.00  0.00     0.041 A 
ATOM     53  F   UNL A   1      44.029  26.373  25.893  1.00  0.00    -0.206 F 
ATOM     54  C   UNL A   1      43.190  22.963  25.034  1.00  0.00     0.022 A 
BRANCH  51  55
ATOM     55  S   UNL A   1      41.805  20.903  26.288  1.00  0.00     0.124 S 
ATOM     56  O   UNL A   1      40.385  21.025  25.977  1.00  0.00    -0.237 OA
ATOM     57  O   UNL A   1      42.624  20.209  25.301  1.00  0.00    -0.237 OA
ATOM     58  O   UNL A   1      42.111  20.582  27.682  1.00  0.00    -0.744 OA
ENDBRANCH  51  55
ENDBRANCH  24  48
BRANCH  36  59
ATOM     59  C   UNL A   1      45.706  25.499  33.304  1.00  0.00     0.023 A 
ATOM     60  C   UNL A   1      45.436  24.354  34.072  1.00  0.00     0.031 A 
ATOM     61  C   UNL A   1      47.049  25.891  33.150  1.00  0.00     0.131 A 
ATOM     62  C   UNL A   1      46.488  23.677  34.707  1.00  0.00     0.055 A 
ATOM     63  C   UNL A   1      48.096  25.171  33.724  1.00  0.00     0.041 A 
ATOM     64  F   UNL A   1      47.366  26.977  32.426  1.00  0.00    -0.206 F 
ATOM     65  C   UNL A   1      47.817  24.065  34.520  1.00  0.00     0.022 A 
BRANCH  62  66
ATOM     66  S   UNL A   1      46.089  22.340  35.867  1.00  0.00     0.124 S 
ATOM     67  O   UNL A   1      45.706  23.082  37.064  1.00  0.00    -0.237 OA
ATOM     68  O   UNL A   1      45.010  21.641  35.178  1.00  0.00    -0.237 OA
ATOM     69  O   UNL A   1      47.341  21.594  35.973  1.00  0.00    -0.744 OA
ENDBRANCH  62  66
ENDBRANCH  36  59
ENDBRANCH  10  11
ENDBRANCH   3   5
ENDBRANCH   2   3
ENDBRANCH   1   2
BRANCH   1  70
ATOM     70  C   UNL A   1      32.747  29.420  26.002  1.00  0.00     0.274 C 
BRANCH  70  71
ATOM     71  O   UNL A   1      31.588  28.626  25.538  1.00  0.00    -0.461 OA
BRANCH  71  72
ATOM     72  C   UNL A   1      31.319  27.330  25.961  1.00  0.00     0.320 C 
ATOM     73  O   UNL A   1      30.951  27.080  27.102  1.00  0.00    -0.251 OA
BRANCH  72  74
ATOM     74  C   UNL A   1      31.520  26.246  24.830  1.00  0.00     0.137 C 
ATOM     75  C   UNL A   1      31.297  26.791  23.401  1.00  0.00     0.033 C 
ATOM     76  C   UNL A   1      30.512  25.158  25.097  1.00  0.00     0.203 C 
ATOM     77  C   UNL A   1      32.892  25.511  24.792  1.00  0.00     0.144 C 
ATOM     78  C   UNL A   1      29.912  27.341  23.119  1.00  0.00     0.063 C 
ATOM     79  N   UNL A   1      29.204  25.710  24.895  1.00  0.00    -0.343 N 
ATOM     80  C   UNL A   1      30.842  24.596  26.513  1.00  0.00     0.088 C 
ATOM     81  N   UNL A   1      33.189  24.483  25.803  1.00  0.00    -0.341 N 
ATOM     82  C   UNL A   1      28.802  26.625  23.857  1.00  0.00     0.260 C 
ATOM     83  H   UNL A   1      28.592  24.902  24.785  1.00  0.00     0.346 HD
ATOM     84  H   UNL A   1      29.166  26.342  25.695  1.00  0.00     0.346 HD
ATOM     85  C   UNL A   1      32.107  23.784  26.463  1.00  0.00     0.125 C 
BRANCH  81  86
ATOM     86  C   UNL A   1      34.420  23.823  25.679  1.00  0.00     0.227 C 
ATOM     87  O   UNL A   1      35.216  23.731  26.615  1.00  0.00    -0.275 OA
BRANCH  86  88
ATOM     88  C   UNL A   1      34.735  23.188  24.328  1.00  0.00     0.140 C 
BRANCH  88  89
ATOM     89  C   UNL A   1      34.170  21.792  24.170  1.00  0.00     0.016 A 
ATOM     90  C   UNL A   1      32.925  21.641  23.547  1.00  0.00     0.128 A 
ATOM     91  C   UNL A   1      34.792  20.635  24.667  1.00  0.00     0.047 A 
ATOM     92  F   UNL A   1      32.323  22.702  22.988  1.00  0.00    -0.207 F 
ATOM     93  C   UNL A   1      32.262  20.417  23.519  1.00  0.00     0.039 A 
ATOM     94  C   UNL A   1      34.107  19.417  24.692  1.00  0.00     0.021 A 
ATOM     95  Cl  UNL A   1      36.423  20.613  25.235  1.00  0.00    -0.084 Cl
ATOM     96  C   UNL A   1      32.838  19.308  24.129  1.00  0.00     0.005 A 
ENDBRANCH  88  89
ENDBRANCH  86  88
ENDBRANCH  81  86
ENDBRANCH  72  74
ENDBRANCH  71  72
ENDBRANCH  70  71
ENDBRANCH   1  70
TORSDOF 17
ENDMDL
