MODEL 1
REMARK VINA RESULT:     -12.1      0.000      0.000
REMARK SMILES C[C@@H]1OCC[C@@H]1C(=O)Nc1ccc(C(=O)OCCOC(=O)c2ccc(-c3c4nc(c(-c5cc(S(=O)(=O)[O-])ccc5F)c5ccc([nH]5)c(-c5cc(S(=O)(=O)[O-])ccc5F)c5nc(c(-c6cc(S(=O)(=O)[O-])ccc6F)c6ccc3[nH]6)C=C5)C=C4)cc2)cc1F
REMARK SMILES IDX 18 1 17 2 16 3 14 4 15 5 13 6 10 7 11 8 86 9 12 10 85 11
REMARK SMILES IDX 87 12 9 13 7 14 8 15 6 17 1 18 2 19 3 20 4 21 5 22 19 23
REMARK SMILES IDX 20 24 21 25 22 26 23 27 84 28 24 29 83 30 25 31 26 32 27 33
REMARK SMILES IDX 77 34 28 35 82 36 76 37 78 38 29 39 81 40 75 41 74 42 30 44
REMARK SMILES IDX 62 45 42 46 61 47 43 48 46 49 60 50 79 51 44 52 45 53 59 55
REMARK SMILES IDX 80 56 47 57 31 58 32 59 40 60 33 61 39 62 41 63 38 64 34 65
REMARK SMILES IDX 35 66 36 67 37 68 63 69 64 70 72 71 65 72 71 73 73 74 70 75
REMARK SMILES IDX 66 76 67 77 68 78 69 79 48 80 49 81 57 82 50 83 56 84 58 85
REMARK SMILES IDX 55 86 51 87 52 88 53 89 54 90
REMARK H PARENT 9 16 78 43 46 54
REMARK Flexibility Score: inf
ROOT
ATOM      1  C   UNL A   1      31.530  30.423  25.788  1.00  0.00     0.275 C 
ENDROOT
BRANCH   1   2
ATOM      2  C   UNL A   1      31.620  29.449  24.616  1.00  0.00     0.275 C 
BRANCH   2   3
ATOM      3  O   UNL A   1      30.315  29.162  24.082  1.00  0.00    -0.458 OA
BRANCH   3   4
ATOM      4  C   UNL A   1      30.294  28.717  22.805  1.00  0.00     0.338 C 
ATOM      5  O   UNL A   1      30.052  29.361  21.796  1.00  0.00    -0.246 OA
BRANCH   4   6
ATOM      6  C   UNL A   1      30.532  27.270  22.789  1.00  0.00     0.063 A 
ATOM      7  C   UNL A   1      31.296  24.542  22.855  1.00  0.00     0.077 A 
ATOM      8  C   UNL A   1      30.249  25.019  23.655  1.00  0.00     0.030 A 
ATOM      9  C   UNL A   1      31.945  25.491  22.044  1.00  0.00     0.147 A 
ATOM     10  C   UNL A   1      29.879  26.370  23.631  1.00  0.00     0.018 A 
ATOM     11  C   UNL A   1      31.561  26.823  21.987  1.00  0.00     0.057 A 
ATOM     12  F   UNL A   1      33.014  25.235  21.293  1.00  0.00    -0.205 F 
BRANCH   7  13
ATOM     13  N   UNL A   1      31.558  23.155  22.998  1.00  0.00    -0.323 N 
ATOM     14  C   UNL A   1      32.279  22.389  23.871  1.00  0.00     0.230 C 
ATOM     15  O   UNL A   1      32.257  21.164  23.738  1.00  0.00    -0.274 OA
ATOM     16  H   UNL A   1      31.114  22.616  22.303  1.00  0.00     0.170 HD
BRANCH  14  17
ATOM     17  C   UNL A   1      33.095  23.035  24.944  1.00  0.00     0.110 C 
ATOM     18  C   UNL A   1      35.126  22.984  23.347  1.00  0.00     0.039 C 
ATOM     19  C   UNL A   1      34.353  23.740  24.427  1.00  0.00     0.127 C 
ATOM     20  O   UNL A   1      35.224  23.876  25.575  1.00  0.00    -0.378 OA
ATOM     21  C   UNL A   1      34.591  23.212  26.678  1.00  0.00     0.161 C 
ATOM     22  C   UNL A   1      33.659  22.187  26.059  1.00  0.00     0.044 C 
ENDBRANCH  14  17
ENDBRANCH   7  13
ENDBRANCH   4   6
ENDBRANCH   3   4
ENDBRANCH   2   3
ENDBRANCH   1   2
BRANCH   1  23
ATOM     23  O   UNL A   1      32.630  30.217  26.693  1.00  0.00    -0.458 OA
BRANCH  23  24
ATOM     24  C   UNL A   1      33.197  31.350  27.173  1.00  0.00     0.338 C 
ATOM     25  O   UNL A   1      32.659  32.428  27.346  1.00  0.00    -0.246 OA
BRANCH  24  26
ATOM     26  C   UNL A   1      34.588  31.092  27.583  1.00  0.00     0.060 A 
ATOM     27  C   UNL A   1      34.944  29.790  27.898  1.00  0.00     0.016 A 
ATOM     28  C   UNL A   1      35.460  32.134  27.879  1.00  0.00     0.016 A 
ATOM     29  C   UNL A   1      36.071  29.536  28.669  1.00  0.00     0.010 A 
ATOM     30  C   UNL A   1      36.688  31.849  28.499  1.00  0.00     0.010 A 
ATOM     31  C   UNL A   1      36.990  30.550  28.952  1.00  0.00    -0.014 A 
BRANCH  31  32
ATOM     32  C   UNL A   1      38.222  30.243  29.743  1.00  0.00     0.031 A 
ATOM     33  C   UNL A   1      39.326  29.409  29.139  1.00  0.00     0.074 A 
ATOM     34  C   UNL A   1      38.390  30.745  30.988  1.00  0.00     0.049 A 
ATOM     35  N   UNL A   1      40.345  28.839  29.729  1.00  0.00    -0.248 NA
ATOM     36  C   UNL A   1      39.271  29.171  27.687  1.00  0.00     0.031 C 
ATOM     37  C   UNL A   1      37.456  31.635  31.684  1.00  0.00     0.029 A 
ATOM     38  N   UNL A   1      39.421  30.602  31.888  1.00  0.00    -0.354 N 
ATOM     39  C   UNL A   1      41.004  28.114  28.740  1.00  0.00     0.074 A 
ATOM     40  C   UNL A   1      40.275  28.323  27.509  1.00  0.00     0.031 C 
ATOM     41  C   UNL A   1      37.989  32.024  32.850  1.00  0.00     0.029 A 
ATOM     42  C   UNL A   1      39.230  31.292  33.066  1.00  0.00     0.049 A 
ATOM     43  H   UNL A   1      40.221  30.057  31.708  1.00  0.00     0.167 HD
ATOM     44  C   UNL A   1      42.112  27.341  28.858  1.00  0.00     0.034 A 
ATOM     45  C   UNL A   1      39.922  31.291  34.222  1.00  0.00     0.034 A 
ATOM     46  C   UNL A   1      42.870  27.204  30.076  1.00  0.00     0.049 A 
ATOM     47  C   UNL A   1      41.108  30.379  34.350  1.00  0.00     0.074 A 
ATOM     48  C   UNL A   1      44.003  26.442  30.302  1.00  0.00     0.029 A 
ATOM     49  N   UNL A   1      42.588  27.861  31.266  1.00  0.00    -0.354 N 
ATOM     50  N   UNL A   1      41.632  29.584  33.449  1.00  0.00    -0.248 NA
ATOM     51  C   UNL A   1      41.773  30.332  35.659  1.00  0.00     0.031 C 
ATOM     52  C   UNL A   1      44.376  26.598  31.640  1.00  0.00     0.029 A 
ATOM     53  C   UNL A   1      43.517  27.509  32.231  1.00  0.00     0.049 A 
ATOM     54  H   UNL A   1      41.839  28.485  31.403  1.00  0.00     0.167 HD
ATOM     55  C   UNL A   1      42.694  28.947  34.079  1.00  0.00     0.074 A 
ATOM     56  C   UNL A   1      42.743  29.457  35.434  1.00  0.00     0.031 C 
ATOM     57  C   UNL A   1      43.549  28.021  33.579  1.00  0.00     0.034 A 
BRANCH  44  58
ATOM     58  C   UNL A   1      42.545  26.535  27.660  1.00  0.00     0.023 A 
ATOM     59  C   UNL A   1      42.163  25.196  27.478  1.00  0.00     0.031 A 
ATOM     60  C   UNL A   1      43.330  27.142  26.662  1.00  0.00     0.131 A 
ATOM     61  C   UNL A   1      42.596  24.499  26.339  1.00  0.00     0.055 A 
ATOM     62  C   UNL A   1      43.704  26.463  25.502  1.00  0.00     0.041 A 
ATOM     63  F   UNL A   1      43.738  28.415  26.796  1.00  0.00    -0.206 F 
ATOM     64  C   UNL A   1      43.340  25.130  25.338  1.00  0.00     0.022 A 
BRANCH  61  65
ATOM     65  S   UNL A   1      42.229  22.728  26.208  1.00  0.00     0.124 S 
ATOM     66  O   UNL A   1      42.959  22.193  27.355  1.00  0.00    -0.237 OA
ATOM     67  O   UNL A   1      40.774  22.696  26.308  1.00  0.00    -0.237 OA
ATOM     68  O   UNL A   1      42.772  22.360  24.902  1.00  0.00    -0.744 OA
ENDBRANCH  61  65
ENDBRANCH  44  58
BRANCH  45  69
ATOM     69  C   UNL A   1      39.447  32.107  35.377  1.00  0.00     0.023 A 
ATOM     70  C   UNL A   1      39.887  33.426  35.564  1.00  0.00     0.031 A 
ATOM     71  C   UNL A   1      38.528  31.578  36.304  1.00  0.00     0.131 A 
ATOM     72  C   UNL A   1      39.414  34.169  36.658  1.00  0.00     0.055 A 
ATOM     73  C   UNL A   1      38.023  32.339  37.359  1.00  0.00     0.041 A 
ATOM     74  F   UNL A   1      38.075  30.321  36.171  1.00  0.00    -0.206 F 
ATOM     75  C   UNL A   1      38.471  33.641  37.544  1.00  0.00     0.022 A 
BRANCH  72  76
ATOM     76  S   UNL A   1      40.073  35.836  36.930  1.00  0.00     0.124 S 
ATOM     77  O   UNL A   1      39.674  36.516  35.704  1.00  0.00    -0.237 OA
ATOM     78  O   UNL A   1      39.379  36.245  38.148  1.00  0.00    -0.237 OA
ATOM     79  O   UNL A   1      41.509  35.614  37.082  1.00  0.00    -0.744 OA
ENDBRANCH  72  76
ENDBRANCH  45  69
BRANCH  57  80
ATOM     80  C   UNL A   1      44.643  27.531  34.484  1.00  0.00     0.023 A 
ATOM     81  C   UNL A   1      44.486  26.375  35.266  1.00  0.00     0.031 A 
ATOM     82  C   UNL A   1      45.876  28.205  34.523  1.00  0.00     0.131 A 
ATOM     83  C   UNL A   1      45.546  25.936  36.072  1.00  0.00     0.055 A 
ATOM     84  C   UNL A   1      46.940  27.739  35.293  1.00  0.00     0.041 A 
ATOM     85  F   UNL A   1      46.070  29.314  33.790  1.00  0.00    -0.206 F 
ATOM     86  C   UNL A   1      46.776  26.599  36.077  1.00  0.00     0.022 A 
BRANCH  83  87
ATOM     87  S   UNL A   1      45.292  24.490  37.136  1.00  0.00     0.124 S 
ATOM     88  O   UNL A   1      44.143  24.903  37.935  1.00  0.00    -0.237 OA
ATOM     89  O   UNL A   1      45.046  23.424  36.170  1.00  0.00    -0.237 OA
ATOM     90  O   UNL A   1      46.551  24.379  37.871  1.00  0.00    -0.744 OA
ENDBRANCH  83  87
ENDBRANCH  57  80
ENDBRANCH  31  32
ENDBRANCH  24  26
ENDBRANCH  23  24
ENDBRANCH   1  23
TORSDOF 16
ENDMDL
MODEL 2
REMARK VINA RESULT:     -12.0      5.140     10.178
REMARK SMILES C[C@@H]1OCC[C@@H]1C(=O)Nc1ccc(C(=O)OCCOC(=O)c2ccc(-c3c4nc(c(-c5cc(S(=O)(=O)[O-])ccc5F)c5ccc([nH]5)c(-c5cc(S(=O)(=O)[O-])ccc5F)c5nc(c(-c6cc(S(=O)(=O)[O-])ccc6F)c6ccc3[nH]6)C=C5)C=C4)cc2)cc1F
REMARK SMILES IDX 18 1 17 2 16 3 14 4 15 5 13 6 10 7 11 8 86 9 12 10 85 11
REMARK SMILES IDX 87 12 9 13 7 14 8 15 6 17 1 18 2 19 3 20 4 21 5 22 19 23
REMARK SMILES IDX 20 24 21 25 22 26 23 27 84 28 24 29 83 30 25 31 26 32 27 33
REMARK SMILES IDX 77 34 28 35 82 36 76 37 78 38 29 39 81 40 75 41 74 42 30 44
REMARK SMILES IDX 62 45 42 46 61 47 43 48 46 49 60 50 79 51 44 52 45 53 59 55
REMARK SMILES IDX 80 56 47 57 31 58 32 59 40 60 33 61 39 62 41 63 38 64 34 65
REMARK SMILES IDX 35 66 36 67 37 68 63 69 64 70 72 71 65 72 71 73 73 74 70 75
REMARK SMILES IDX 66 76 67 77 68 78 69 79 48 80 49 81 57 82 50 83 56 84 58 85
REMARK SMILES IDX 55 86 51 87 52 88 53 89 54 90
REMARK H PARENT 9 16 78 43 46 54
REMARK Flexibility Score: inf
ROOT
ATOM      1  C   UNL A   1      35.872  21.355  25.051  1.00  0.00     0.275 C 
ENDROOT
BRANCH   1   2
ATOM      2  C   UNL A   1      34.805  22.049  24.208  1.00  0.00     0.275 C 
BRANCH   2   3
ATOM      3  O   UNL A   1      33.527  22.019  24.868  1.00  0.00    -0.458 OA
BRANCH   3   4
ATOM      4  C   UNL A   1      33.493  22.580  26.097  1.00  0.00     0.338 C 
ATOM      5  O   UNL A   1      33.570  22.015  27.177  1.00  0.00    -0.246 OA
BRANCH   4   6
ATOM      6  C   UNL A   1      33.260  24.023  25.968  1.00  0.00     0.063 A 
ATOM      7  C   UNL A   1      32.713  26.802  26.028  1.00  0.00     0.077 A 
ATOM      8  C   UNL A   1      34.000  26.325  25.749  1.00  0.00     0.030 A 
ATOM      9  C   UNL A   1      31.729  25.830  26.290  1.00  0.00     0.147 A 
ATOM     10  C   UNL A   1      34.273  24.951  25.731  1.00  0.00     0.018 A 
ATOM     11  C   UNL A   1      31.983  24.467  26.237  1.00  0.00     0.057 A 
ATOM     12  F   UNL A   1      30.480  26.104  26.661  1.00  0.00    -0.205 F 
BRANCH   7  13
ATOM     13  N   UNL A   1      32.596  28.216  26.020  1.00  0.00    -0.323 N 
ATOM     14  C   UNL A   1      31.825  29.123  25.347  1.00  0.00     0.230 C 
ATOM     15  O   UNL A   1      31.945  30.318  25.622  1.00  0.00    -0.274 OA
ATOM     16  H   UNL A   1      33.219  28.647  26.650  1.00  0.00     0.170 HD
BRANCH  14  17
ATOM     17  C   UNL A   1      30.879  28.664  24.284  1.00  0.00     0.110 C 
ATOM     18  C   UNL A   1      32.815  28.823  22.579  1.00  0.00     0.039 C 
ATOM     19  C   UNL A   1      31.571  28.072  23.052  1.00  0.00     0.127 C 
ATOM     20  O   UNL A   1      30.593  28.131  21.988  1.00  0.00    -0.378 OA
ATOM     21  C   UNL A   1      29.435  28.804  22.504  1.00  0.00     0.161 C 
ATOM     22  C   UNL A   1      29.936  29.660  23.651  1.00  0.00     0.044 C 
ENDBRANCH  14  17
ENDBRANCH   7  13
ENDBRANCH   4   6
ENDBRANCH   3   4
ENDBRANCH   2   3
ENDBRANCH   1   2
BRANCH   1  23
ATOM     23  O   UNL A   1      37.178  21.858  24.714  1.00  0.00    -0.458 OA
BRANCH  23  24
ATOM     24  C   UNL A   1      38.194  21.366  25.464  1.00  0.00     0.338 C 
ATOM     25  O   UNL A   1      38.622  20.226  25.467  1.00  0.00    -0.246 OA
BRANCH  24  26
ATOM     26  C   UNL A   1      38.826  22.444  26.243  1.00  0.00     0.060 A 
ATOM     27  C   UNL A   1      38.335  23.732  26.090  1.00  0.00     0.016 A 
ATOM     28  C   UNL A   1      40.020  22.240  26.925  1.00  0.00     0.016 A 
ATOM     29  C   UNL A   1      39.111  24.827  26.445  1.00  0.00     0.010 A 
ATOM     30  C   UNL A   1      40.713  23.346  27.445  1.00  0.00     0.010 A 
ATOM     31  C   UNL A   1      40.296  24.662  27.167  1.00  0.00    -0.014 A 
BRANCH  31  32
ATOM     32  C   UNL A   1      41.092  25.860  27.582  1.00  0.00     0.031 A 
ATOM     33  C   UNL A   1      40.488  26.894  28.500  1.00  0.00     0.074 A 
ATOM     34  C   UNL A   1      42.376  26.011  27.184  1.00  0.00     0.049 A 
ATOM     35  N   UNL A   1      40.914  28.100  28.777  1.00  0.00    -0.248 NA
ATOM     36  C   UNL A   1      39.233  26.535  29.182  1.00  0.00     0.031 C 
ATOM     37  C   UNL A   1      43.135  25.061  26.364  1.00  0.00     0.029 A 
ATOM     38  N   UNL A   1      43.288  27.010  27.437  1.00  0.00    -0.354 N 
ATOM     39  C   UNL A   1      39.946  28.668  29.600  1.00  0.00     0.074 A 
ATOM     40  C   UNL A   1      38.912  27.673  29.784  1.00  0.00     0.031 C 
ATOM     41  C   UNL A   1      44.404  25.475  26.255  1.00  0.00     0.029 A 
ATOM     42  C   UNL A   1      44.521  26.795  26.859  1.00  0.00     0.049 A 
ATOM     43  H   UNL A   1      43.079  27.805  27.978  1.00  0.00     0.167 HD
ATOM     44  C   UNL A   1      39.924  29.910  30.142  1.00  0.00     0.034 A 
ATOM     45  C   UNL A   1      45.606  27.587  26.754  1.00  0.00     0.034 A 
ATOM     46  C   UNL A   1      40.997  30.863  30.010  1.00  0.00     0.049 A 
ATOM     47  C   UNL A   1      45.536  28.982  27.306  1.00  0.00     0.074 A 
ATOM     48  C   UNL A   1      41.071  32.150  30.515  1.00  0.00     0.029 A 
ATOM     49  N   UNL A   1      42.192  30.627  29.346  1.00  0.00    -0.354 N 
ATOM     50  N   UNL A   1      44.552  29.558  27.953  1.00  0.00    -0.248 NA
ATOM     51  C   UNL A   1      46.702  29.846  27.081  1.00  0.00     0.031 C 
ATOM     52  C   UNL A   1      42.288  32.709  30.114  1.00  0.00     0.029 A 
ATOM     53  C   UNL A   1      43.002  31.748  29.417  1.00  0.00     0.049 A 
ATOM     54  H   UNL A   1      42.430  29.786  28.892  1.00  0.00     0.167 HD
ATOM     55  C   UNL A   1      44.983  30.852  28.221  1.00  0.00     0.074 A 
ATOM     56  C   UNL A   1      46.320  30.969  27.674  1.00  0.00     0.031 C 
ATOM     57  C   UNL A   1      44.329  31.852  28.861  1.00  0.00     0.034 A 
BRANCH  44  58
ATOM     58  C   UNL A   1      38.681  30.341  30.880  1.00  0.00     0.023 A 
ATOM     59  C   UNL A   1      37.649  31.060  30.257  1.00  0.00     0.031 A 
ATOM     60  C   UNL A   1      38.520  29.986  32.232  1.00  0.00     0.131 A 
ATOM     61  C   UNL A   1      36.515  31.429  30.996  1.00  0.00     0.055 A 
ATOM     62  C   UNL A   1      37.362  30.301  32.945  1.00  0.00     0.041 A 
ATOM     63  F   UNL A   1      39.486  29.314  32.881  1.00  0.00    -0.206 F 
ATOM     64  C   UNL A   1      36.353  31.032  32.328  1.00  0.00     0.022 A 
BRANCH  61  65
ATOM     65  S   UNL A   1      35.274  32.497  30.217  1.00  0.00     0.124 S 
ATOM     66  O   UNL A   1      34.335  32.706  31.317  1.00  0.00    -0.237 OA
ATOM     67  O   UNL A   1      36.060  33.660  29.820  1.00  0.00    -0.237 OA
ATOM     68  O   UNL A   1      34.765  31.684  29.114  1.00  0.00    -0.744 OA
ENDBRANCH  61  65
ENDBRANCH  44  58
BRANCH  45  69
ATOM     69  C   UNL A   1      46.808  27.111  26.010  1.00  0.00     0.023 A 
ATOM     70  C   UNL A   1      47.070  27.543  24.702  1.00  0.00     0.031 A 
ATOM     71  C   UNL A   1      47.723  26.224  26.609  1.00  0.00     0.131 A 
ATOM     72  C   UNL A   1      48.215  27.081  24.031  1.00  0.00     0.055 A 
ATOM     73  C   UNL A   1      48.885  25.809  25.958  1.00  0.00     0.041 A 
ATOM     74  F   UNL A   1      47.520  25.779  27.860  1.00  0.00    -0.206 F 
ATOM     75  C   UNL A   1      49.133  26.234  24.657  1.00  0.00     0.022 A 
BRANCH  72  76
ATOM     76  S   UNL A   1      48.478  27.580  22.308  1.00  0.00     0.124 S 
ATOM     77  O   UNL A   1      47.276  28.360  22.039  1.00  0.00    -0.237 OA
ATOM     78  O   UNL A   1      49.726  28.333  22.394  1.00  0.00    -0.237 OA
ATOM     79  O   UNL A   1      48.570  26.308  21.596  1.00  0.00    -0.744 OA
ENDBRANCH  72  76
ENDBRANCH  45  69
BRANCH  57  80
ATOM     80  C   UNL A   1      45.063  33.149  29.048  1.00  0.00     0.023 A 
ATOM     81  C   UNL A   1      44.884  34.228  28.167  1.00  0.00     0.031 A 
ATOM     82  C   UNL A   1      45.913  33.321  30.154  1.00  0.00     0.131 A 
ATOM     83  C   UNL A   1      45.565  35.431  28.399  1.00  0.00     0.055 A 
ATOM     84  C   UNL A   1      46.554  34.534  30.403  1.00  0.00     0.041 A 
ATOM     85  F   UNL A   1      46.112  32.316  31.024  1.00  0.00    -0.206 F 
ATOM     86  C   UNL A   1      46.384  35.596  29.519  1.00  0.00     0.022 A 
BRANCH  83  87
ATOM     87  S   UNL A   1      45.385  36.780  27.201  1.00  0.00     0.124 S 
ATOM     88  O   UNL A   1      45.748  37.945  28.003  1.00  0.00    -0.237 OA
ATOM     89  O   UNL A   1      46.333  36.406  26.156  1.00  0.00    -0.237 OA
ATOM     90  O   UNL A   1      43.978  36.709  26.813  1.00  0.00    -0.744 OA
ENDBRANCH  83  87
ENDBRANCH  57  80
ENDBRANCH  31  32
ENDBRANCH  24  26
ENDBRANCH  23  24
ENDBRANCH   1  23
TORSDOF 16
ENDMDL
MODEL 3
REMARK VINA RESULT:     -11.9      5.131     10.088
REMARK SMILES C[C@@H]1OCC[C@@H]1C(=O)Nc1ccc(C(=O)OCCOC(=O)c2ccc(-c3c4nc(c(-c5cc(S(=O)(=O)[O-])ccc5F)c5ccc([nH]5)c(-c5cc(S(=O)(=O)[O-])ccc5F)c5nc(c(-c6cc(S(=O)(=O)[O-])ccc6F)c6ccc3[nH]6)C=C5)C=C4)cc2)cc1F
REMARK SMILES IDX 18 1 17 2 16 3 14 4 15 5 13 6 10 7 11 8 86 9 12 10 85 11
REMARK SMILES IDX 87 12 9 13 7 14 8 15 6 17 1 18 2 19 3 20 4 21 5 22 19 23
REMARK SMILES IDX 20 24 21 25 22 26 23 27 84 28 24 29 83 30 25 31 26 32 27 33
REMARK SMILES IDX 77 34 28 35 82 36 76 37 78 38 29 39 81 40 75 41 74 42 30 44
REMARK SMILES IDX 62 45 42 46 61 47 43 48 46 49 60 50 79 51 44 52 45 53 59 55
REMARK SMILES IDX 80 56 47 57 31 58 32 59 40 60 33 61 39 62 41 63 38 64 34 65
REMARK SMILES IDX 35 66 36 67 37 68 63 69 64 70 72 71 65 72 71 73 73 74 70 75
REMARK SMILES IDX 66 76 67 77 68 78 69 79 48 80 49 81 57 82 50 83 56 84 58 85
REMARK SMILES IDX 55 86 51 87 52 88 53 89 54 90
REMARK H PARENT 9 16 78 43 46 54
REMARK Flexibility Score: inf
ROOT
ATOM      1  C   UNL A   1      35.923  21.550  25.708  1.00  0.00     0.275 C 
ENDROOT
BRANCH   1   2
ATOM      2  C   UNL A   1      35.023  20.542  24.998  1.00  0.00     0.275 C 
BRANCH   2   3
ATOM      3  O   UNL A   1      33.891  20.194  25.815  1.00  0.00    -0.458 OA
BRANCH   3   4
ATOM      4  C   UNL A   1      32.756  19.899  25.142  1.00  0.00     0.338 C 
ATOM      5  O   UNL A   1      32.323  18.793  24.859  1.00  0.00    -0.246 OA
BRANCH   4   6
ATOM      6  C   UNL A   1      32.116  21.143  24.699  1.00  0.00     0.063 A 
ATOM      7  C   UNL A   1      31.066  23.697  24.064  1.00  0.00     0.077 A 
ATOM      8  C   UNL A   1      31.722  22.924  23.097  1.00  0.00     0.030 A 
ATOM      9  C   UNL A   1      30.980  23.142  25.354  1.00  0.00     0.147 A 
ATOM     10  C   UNL A   1      32.251  21.666  23.413  1.00  0.00     0.018 A 
ATOM     11  C   UNL A   1      31.469  21.882  25.667  1.00  0.00     0.057 A 
ATOM     12  F   UNL A   1      30.475  23.772  26.413  1.00  0.00    -0.205 F 
BRANCH   7  13
ATOM     13  N   UNL A   1      30.595  24.950  23.594  1.00  0.00    -0.323 N 
ATOM     14  C   UNL A   1      31.079  26.229  23.588  1.00  0.00     0.230 C 
ATOM     15  O   UNL A   1      30.416  27.108  23.035  1.00  0.00    -0.274 OA
ATOM     16  H   UNL A   1      29.709  24.882  23.169  1.00  0.00     0.170 HD
BRANCH  14  17
ATOM     17  C   UNL A   1      32.373  26.547  24.265  1.00  0.00     0.110 C 
ATOM     18  C   UNL A   1      31.042  27.141  26.399  1.00  0.00     0.039 C 
ATOM     19  C   UNL A   1      32.298  26.514  25.795  1.00  0.00     0.127 C 
ATOM     20  O   UNL A   1      33.435  27.278  26.259  1.00  0.00    -0.378 OA
ATOM     21  C   UNL A   1      34.090  27.822  25.104  1.00  0.00     0.161 C 
ATOM     22  C   UNL A   1      33.027  27.887  24.023  1.00  0.00     0.044 C 
ENDBRANCH  14  17
ENDBRANCH   7  13
ENDBRANCH   4   6
ENDBRANCH   3   4
ENDBRANCH   2   3
ENDBRANCH   1   2
BRANCH   1  23
ATOM     23  O   UNL A   1      37.124  21.771  24.947  1.00  0.00    -0.458 OA
BRANCH  23  24
ATOM     24  C   UNL A   1      38.266  21.350  25.542  1.00  0.00     0.338 C 
ATOM     25  O   UNL A   1      38.804  20.264  25.421  1.00  0.00    -0.246 OA
BRANCH  24  26
ATOM     26  C   UNL A   1      38.876  22.446  26.313  1.00  0.00     0.060 A 
ATOM     27  C   UNL A   1      38.418  23.735  26.088  1.00  0.00     0.016 A 
ATOM     28  C   UNL A   1      40.030  22.249  27.064  1.00  0.00     0.016 A 
ATOM     29  C   UNL A   1      39.193  24.830  26.444  1.00  0.00     0.010 A 
ATOM     30  C   UNL A   1      40.715  23.362  27.579  1.00  0.00     0.010 A 
ATOM     31  C   UNL A   1      40.336  24.673  27.232  1.00  0.00    -0.014 A 
BRANCH  31  32
ATOM     32  C   UNL A   1      41.131  25.872  27.645  1.00  0.00     0.031 A 
ATOM     33  C   UNL A   1      40.521  26.914  28.551  1.00  0.00     0.074 A 
ATOM     34  C   UNL A   1      42.418  26.019  27.255  1.00  0.00     0.049 A 
ATOM     35  N   UNL A   1      40.947  28.121  28.824  1.00  0.00    -0.248 NA
ATOM     36  C   UNL A   1      39.261  26.562  29.227  1.00  0.00     0.031 C 
ATOM     37  C   UNL A   1      43.181  25.063  26.447  1.00  0.00     0.029 A 
ATOM     38  N   UNL A   1      43.329  27.019  27.508  1.00  0.00    -0.354 N 
ATOM     39  C   UNL A   1      39.974  28.696  29.636  1.00  0.00     0.074 A 
ATOM     40  C   UNL A   1      38.938  27.704  29.819  1.00  0.00     0.031 C 
ATOM     41  C   UNL A   1      44.452  25.474  26.345  1.00  0.00     0.029 A 
ATOM     42  C   UNL A   1      44.566  26.798  26.940  1.00  0.00     0.049 A 
ATOM     43  H   UNL A   1      43.118  27.817  28.042  1.00  0.00     0.167 HD
ATOM     44  C   UNL A   1      39.950  29.942  30.169  1.00  0.00     0.034 A 
ATOM     45  C   UNL A   1      45.653  27.588  26.838  1.00  0.00     0.034 A 
ATOM     46  C   UNL A   1      41.026  30.893  30.038  1.00  0.00     0.049 A 
ATOM     47  C   UNL A   1      45.581  28.987  27.380  1.00  0.00     0.074 A 
ATOM     48  C   UNL A   1      41.098  32.182  30.535  1.00  0.00     0.029 A 
ATOM     49  N   UNL A   1      42.225  30.650  29.384  1.00  0.00    -0.354 N 
ATOM     50  N   UNL A   1      44.593  29.569  28.016  1.00  0.00    -0.248 NA
ATOM     51  C   UNL A   1      46.750  29.847  27.158  1.00  0.00     0.031 C 
ATOM     52  C   UNL A   1      42.318  32.737  30.139  1.00  0.00     0.029 A 
ATOM     53  C   UNL A   1      43.036  31.771  29.453  1.00  0.00     0.049 A 
ATOM     54  H   UNL A   1      42.465  29.806  28.938  1.00  0.00     0.167 HD
ATOM     55  C   UNL A   1      45.025  30.864  28.278  1.00  0.00     0.074 A 
ATOM     56  C   UNL A   1      46.365  30.975  27.740  1.00  0.00     0.031 C 
ATOM     57  C   UNL A   1      44.367  31.869  28.906  1.00  0.00     0.034 A 
BRANCH  44  58
ATOM     58  C   UNL A   1      38.703  30.380  30.895  1.00  0.00     0.023 A 
ATOM     59  C   UNL A   1      37.661  31.065  30.251  1.00  0.00     0.031 A 
ATOM     60  C   UNL A   1      38.548  30.066  32.258  1.00  0.00     0.131 A 
ATOM     61  C   UNL A   1      36.522  31.442  30.980  1.00  0.00     0.055 A 
ATOM     62  C   UNL A   1      37.387  30.388  32.962  1.00  0.00     0.041 A 
ATOM     63  F   UNL A   1      39.523  29.427  32.926  1.00  0.00    -0.206 F 
ATOM     64  C   UNL A   1      36.367  31.086  32.324  1.00  0.00     0.022 A 
BRANCH  61  65
ATOM     65  S   UNL A   1      35.267  32.469  30.169  1.00  0.00     0.124 S 
ATOM     66  O   UNL A   1      34.830  31.593  29.084  1.00  0.00    -0.237 OA
ATOM     67  O   UNL A   1      34.298  32.691  31.237  1.00  0.00    -0.237 OA
ATOM     68  O   UNL A   1      36.012  33.653  29.747  1.00  0.00    -0.744 OA
ENDBRANCH  61  65
ENDBRANCH  44  58
BRANCH  45  69
ATOM     69  C   UNL A   1      46.860  27.105  26.106  1.00  0.00     0.023 A 
ATOM     70  C   UNL A   1      47.121  27.511  24.789  1.00  0.00     0.031 A 
ATOM     71  C   UNL A   1      47.781  26.237  26.725  1.00  0.00     0.131 A 
ATOM     72  C   UNL A   1      48.270  27.044  24.130  1.00  0.00     0.055 A 
ATOM     73  C   UNL A   1      48.947  25.818  26.084  1.00  0.00     0.041 A 
ATOM     74  F   UNL A   1      47.579  25.819  27.984  1.00  0.00    -0.206 F 
ATOM     75  C   UNL A   1      49.193  26.217  24.775  1.00  0.00     0.022 A 
BRANCH  72  76
ATOM     76  S   UNL A   1      48.532  27.507  22.397  1.00  0.00     0.124 S 
ATOM     77  O   UNL A   1      49.779  28.259  22.476  1.00  0.00    -0.237 OA
ATOM     78  O   UNL A   1      48.607  26.205  21.740  1.00  0.00    -0.237 OA
ATOM     79  O   UNL A   1      47.346  28.297  22.073  1.00  0.00    -0.744 OA
ENDBRANCH  72  76
ENDBRANCH  45  69
BRANCH  57  80
ATOM     80  C   UNL A   1      45.102  33.166  29.089  1.00  0.00     0.023 A 
ATOM     81  C   UNL A   1      45.034  34.190  28.131  1.00  0.00     0.031 A 
ATOM     82  C   UNL A   1      45.836  33.396  30.266  1.00  0.00     0.131 A 
ATOM     83  C   UNL A   1      45.710  35.397  28.359  1.00  0.00     0.055 A 
ATOM     84  C   UNL A   1      46.470  34.614  30.506  1.00  0.00     0.041 A 
ATOM     85  F   UNL A   1      45.926  32.445  31.211  1.00  0.00    -0.206 F 
ATOM     86  C   UNL A   1      46.412  35.622  29.547  1.00  0.00     0.022 A 
BRANCH  83  87
ATOM     87  S   UNL A   1      45.679  36.672  27.070  1.00  0.00     0.124 S 
ATOM     88  O   UNL A   1      46.214  35.950  25.920  1.00  0.00    -0.237 OA
ATOM     89  O   UNL A   1      44.263  37.019  27.002  1.00  0.00    -0.237 OA
ATOM     90  O   UNL A   1      46.546  37.720  27.603  1.00  0.00    -0.744 OA
ENDBRANCH  83  87
ENDBRANCH  57  80
ENDBRANCH  31  32
ENDBRANCH  24  26
ENDBRANCH  23  24
ENDBRANCH   1  23
TORSDOF 16
ENDMDL
