MODEL 1
REMARK VINA RESULT:     -11.1      0.000      0.000
REMARK SMILES C[C@@](NC(=O)CSCc1ccccc1)(C(=O)OCCOC(=O)c1ccc(-c2c3nc(c(-c4cc(S(=O)(=O)[O-])ccc4F)c4ccc([nH]4)c(-c4cc(S(=O)(=O)[O-])ccc4F)c4nc(c(-c5cc(S(=O)(=O)[O-])ccc5F)c5ccc2[nH]5)C=C4)C=C3)cc1)C1CC1
REMARK SMILES IDX 18 1 17 2 15 3 16 4 2 5 1 6 3 7 4 8 5 10 6 11 7 12 8 13 9 14
REMARK SMILES IDX 10 15 14 16 11 17 13 18 12 19 86 20 87 21 88 22 19 23 20 24
REMARK SMILES IDX 21 25 22 26 23 27 24 28 85 29 25 30 84 31 26 32 27 33 28 34
REMARK SMILES IDX 78 35 29 36 83 37 77 38 79 39 30 40 82 41 76 42 75 43 31 45
REMARK SMILES IDX 63 46 43 47 62 48 44 49 47 50 61 51 80 52 45 53 46 54 60 56
REMARK SMILES IDX 81 57 48 58 32 59 33 60 41 61 34 62 40 63 42 64 39 65 35 66
REMARK SMILES IDX 36 67 37 68 38 69 64 70 65 71 73 72 66 73 72 74 74 75 71 76
REMARK SMILES IDX 67 77 68 78 69 79 70 80 49 81 50 82 58 83 51 84 57 85 59 86
REMARK SMILES IDX 56 87 52 88 53 89 54 90 55 91
REMARK H PARENT 3 9 79 44 47 55
REMARK Flexibility Score: inf
ROOT
ATOM      1  C   UNL A   1      35.984  22.731  23.578  1.00  0.00     0.274 C 
ENDROOT
BRANCH   1   2
ATOM      2  O   UNL A   1      34.796  23.330  24.153  1.00  0.00    -0.460 OA
BRANCH   2   3
ATOM      3  C   UNL A   1      33.849  23.825  23.295  1.00  0.00     0.331 C 
ATOM      4  O   UNL A   1      33.770  23.487  22.117  1.00  0.00    -0.249 OA
BRANCH   3   5
ATOM      5  C   UNL A   1      33.004  24.989  23.941  1.00  0.00     0.138 C 
ATOM      6  C   UNL A   1      31.705  25.277  23.153  1.00  0.00     0.048 C 
BRANCH   5   7
ATOM      7  N   UNL A   1      32.660  24.722  25.368  1.00  0.00    -0.340 N 
ATOM      8  C   UNL A   1      31.855  23.837  26.003  1.00  0.00     0.230 C 
ATOM      9  H   UNL A   1      33.124  25.328  25.990  1.00  0.00     0.164 HD
ATOM     10  O   UNL A   1      31.601  24.047  27.194  1.00  0.00    -0.274 OA
BRANCH   8  11
ATOM     11  C   UNL A   1      31.363  22.581  25.330  1.00  0.00     0.169 C 
BRANCH  11  12
ATOM     12  S   UNL A   1      32.356  21.137  25.811  1.00  0.00    -0.147 SA
BRANCH  12  13
ATOM     13  C   UNL A   1      32.515  20.308  24.229  1.00  0.00     0.105 C 
BRANCH  13  14
ATOM     14  C   UNL A   1      32.814  18.829  24.263  1.00  0.00    -0.038 A 
ATOM     15  C   UNL A   1      33.219  18.063  23.157  1.00  0.00     0.004 A 
ATOM     16  C   UNL A   1      32.695  18.187  25.504  1.00  0.00     0.004 A 
ATOM     17  C   UNL A   1      33.565  16.720  23.303  1.00  0.00     0.000 A 
ATOM     18  C   UNL A   1      33.016  16.839  25.645  1.00  0.00     0.000 A 
ATOM     19  C   UNL A   1      33.468  16.110  24.548  1.00  0.00     0.000 A 
ENDBRANCH  13  14
ENDBRANCH  12  13
ENDBRANCH  11  12
ENDBRANCH   8  11
ENDBRANCH   5   7
BRANCH   5  20
ATOM     20  C   UNL A   1      33.784  26.335  24.009  1.00  0.00     0.026 C 
ATOM     21  C   UNL A   1      33.012  27.653  23.980  1.00  0.00     0.007 C 
ATOM     22  C   UNL A   1      33.837  27.307  25.171  1.00  0.00     0.007 C 
ENDBRANCH   5  20
ENDBRANCH   3   5
ENDBRANCH   2   3
ENDBRANCH   1   2
BRANCH   1  23
ATOM     23  C   UNL A   1      36.397  21.471  24.346  1.00  0.00     0.275 C 
BRANCH  23  24
ATOM     24  O   UNL A   1      36.975  21.859  25.598  1.00  0.00    -0.458 OA
BRANCH  24  25
ATOM     25  C   UNL A   1      38.224  21.382  25.789  1.00  0.00     0.338 C 
ATOM     26  O   UNL A   1      38.709  20.358  25.329  1.00  0.00    -0.246 OA
BRANCH  25  27
ATOM     27  C   UNL A   1      39.013  22.474  26.363  1.00  0.00     0.060 A 
ATOM     28  C   UNL A   1      38.576  23.767  26.083  1.00  0.00     0.016 A 
ATOM     29  C   UNL A   1      40.132  22.250  27.168  1.00  0.00     0.016 A 
ATOM     30  C   UNL A   1      39.256  24.852  26.610  1.00  0.00     0.010 A 
ATOM     31  C   UNL A   1      40.822  23.349  27.687  1.00  0.00     0.010 A 
ATOM     32  C   UNL A   1      40.383  24.654  27.406  1.00  0.00    -0.014 A 
BRANCH  32  33
ATOM     33  C   UNL A   1      41.193  25.840  27.750  1.00  0.00     0.031 A 
ATOM     34  C   UNL A   1      40.549  26.900  28.589  1.00  0.00     0.074 A 
ATOM     35  C   UNL A   1      42.502  25.903  27.444  1.00  0.00     0.049 A 
ATOM     36  N   UNL A   1      40.987  28.086  28.908  1.00  0.00    -0.248 NA
ATOM     37  C   UNL A   1      39.232  26.564  29.152  1.00  0.00     0.031 C 
ATOM     38  C   UNL A   1      43.272  24.838  26.799  1.00  0.00     0.029 A 
ATOM     39  N   UNL A   1      43.418  26.903  27.650  1.00  0.00    -0.354 N 
ATOM     40  C   UNL A   1      39.982  28.656  29.682  1.00  0.00     0.074 A 
ATOM     41  C   UNL A   1      38.916  27.684  29.780  1.00  0.00     0.031 C 
ATOM     42  C   UNL A   1      44.543  25.250  26.653  1.00  0.00     0.029 A 
ATOM     43  C   UNL A   1      44.655  26.630  27.116  1.00  0.00     0.049 A 
ATOM     44  H   UNL A   1      43.209  27.734  28.134  1.00  0.00     0.167 HD
ATOM     45  C   UNL A   1      39.956  29.889  30.241  1.00  0.00     0.034 A 
ATOM     46  C   UNL A   1      45.728  27.434  26.965  1.00  0.00     0.034 A 
ATOM     47  C   UNL A   1      41.041  30.831  30.112  1.00  0.00     0.049 A 
ATOM     48  C   UNL A   1      45.621  28.861  27.452  1.00  0.00     0.074 A 
ATOM     49  C   UNL A   1      41.115  32.132  30.574  1.00  0.00     0.029 A 
ATOM     50  N   UNL A   1      42.244  30.568  29.466  1.00  0.00    -0.354 N 
ATOM     51  N   UNL A   1      44.627  29.447  28.084  1.00  0.00    -0.248 NA
ATOM     52  C   UNL A   1      46.767  29.739  27.193  1.00  0.00     0.031 C 
ATOM     53  C   UNL A   1      42.327  32.678  30.138  1.00  0.00     0.029 A 
ATOM     54  C   UNL A   1      43.051  31.693  29.485  1.00  0.00     0.049 A 
ATOM     55  H   UNL A   1      42.486  29.707  29.054  1.00  0.00     0.167 HD
ATOM     56  C   UNL A   1      45.043  30.755  28.320  1.00  0.00     0.074 A 
ATOM     57  C   UNL A   1      46.383  30.864  27.778  1.00  0.00     0.031 C 
ATOM     58  C   UNL A   1      44.383  31.775  28.929  1.00  0.00     0.034 A 
BRANCH  45  59
ATOM     59  C   UNL A   1      38.679  30.305  30.924  1.00  0.00     0.023 A 
ATOM     60  C   UNL A   1      37.620  30.916  30.229  1.00  0.00     0.031 A 
ATOM     61  C   UNL A   1      38.555  30.159  32.317  1.00  0.00     0.131 A 
ATOM     62  C   UNL A   1      36.524  31.430  30.940  1.00  0.00     0.055 A 
ATOM     63  C   UNL A   1      37.423  30.594  33.007  1.00  0.00     0.041 A 
ATOM     64  F   UNL A   1      39.549  29.616  33.038  1.00  0.00    -0.206 F 
ATOM     65  C   UNL A   1      36.406  31.249  32.320  1.00  0.00     0.022 A 
BRANCH  62  66
ATOM     66  S   UNL A   1      35.340  32.490  30.063  1.00  0.00     0.124 S 
ATOM     67  O   UNL A   1      34.907  31.613  28.979  1.00  0.00    -0.237 OA
ATOM     68  O   UNL A   1      34.346  32.771  31.093  1.00  0.00    -0.237 OA
ATOM     69  O   UNL A   1      36.148  33.634  29.645  1.00  0.00    -0.744 OA
ENDBRANCH  62  66
ENDBRANCH  45  59
BRANCH  46  70
ATOM     70  C   UNL A   1      46.945  26.961  26.239  1.00  0.00     0.023 A 
ATOM     71  C   UNL A   1      47.996  26.316  26.912  1.00  0.00     0.031 A 
ATOM     72  C   UNL A   1      47.110  27.218  24.865  1.00  0.00     0.131 A 
ATOM     73  C   UNL A   1      49.177  25.992  26.221  1.00  0.00     0.055 A 
ATOM     74  C   UNL A   1      48.259  26.837  24.169  1.00  0.00     0.041 A 
ATOM     75  F   UNL A   1      46.150  27.850  24.170  1.00  0.00    -0.206 F 
ATOM     76  C   UNL A   1      49.308  26.232  24.851  1.00  0.00     0.022 A 
BRANCH  73  77
ATOM     77  S   UNL A   1      50.588  25.348  27.163  1.00  0.00     0.124 S 
ATOM     78  O   UNL A   1      50.953  26.504  27.976  1.00  0.00    -0.237 OA
ATOM     79  O   UNL A   1      49.989  24.226  27.877  1.00  0.00    -0.237 OA
ATOM     80  O   UNL A   1      51.552  24.984  26.127  1.00  0.00    -0.744 OA
ENDBRANCH  73  77
ENDBRANCH  46  70
BRANCH  58  81
ATOM     81  C   UNL A   1      45.129  33.078  29.083  1.00  0.00     0.023 A 
ATOM     82  C   UNL A   1      45.960  33.332  30.187  1.00  0.00     0.031 A 
ATOM     83  C   UNL A   1      45.007  34.080  28.103  1.00  0.00     0.131 A 
ATOM     84  C   UNL A   1      46.590  34.578  30.315  1.00  0.00     0.055 A 
ATOM     85  C   UNL A   1      45.691  35.291  28.200  1.00  0.00     0.041 A 
ATOM     86  F   UNL A   1      44.223  33.892  27.029  1.00  0.00    -0.206 F 
ATOM     87  C   UNL A   1      46.478  35.551  29.318  1.00  0.00     0.022 A 
BRANCH  84  88
ATOM     88  S   UNL A   1      47.477  34.953  31.851  1.00  0.00     0.124 S 
ATOM     89  O   UNL A   1      48.372  33.806  31.970  1.00  0.00    -0.237 OA
ATOM     90  O   UNL A   1      48.114  36.229  31.540  1.00  0.00    -0.237 OA
ATOM     91  O   UNL A   1      46.416  35.018  32.854  1.00  0.00    -0.744 OA
ENDBRANCH  84  88
ENDBRANCH  58  81
ENDBRANCH  32  33
ENDBRANCH  25  27
ENDBRANCH  24  25
ENDBRANCH  23  24
ENDBRANCH   1  23
TORSDOF 20
ENDMDL
MODEL 2
REMARK VINA RESULT:     -11.1      1.711      3.953
REMARK SMILES C[C@@](NC(=O)CSCc1ccccc1)(C(=O)OCCOC(=O)c1ccc(-c2c3nc(c(-c4cc(S(=O)(=O)[O-])ccc4F)c4ccc([nH]4)c(-c4cc(S(=O)(=O)[O-])ccc4F)c4nc(c(-c5cc(S(=O)(=O)[O-])ccc5F)c5ccc2[nH]5)C=C4)C=C3)cc1)C1CC1
REMARK SMILES IDX 18 1 17 2 15 3 16 4 2 5 1 6 3 7 4 8 5 10 6 11 7 12 8 13 9 14
REMARK SMILES IDX 10 15 14 16 11 17 13 18 12 19 86 20 87 21 88 22 19 23 20 24
REMARK SMILES IDX 21 25 22 26 23 27 24 28 85 29 25 30 84 31 26 32 27 33 28 34
REMARK SMILES IDX 78 35 29 36 83 37 77 38 79 39 30 40 82 41 76 42 75 43 31 45
REMARK SMILES IDX 63 46 43 47 62 48 44 49 47 50 61 51 80 52 45 53 46 54 60 56
REMARK SMILES IDX 81 57 48 58 32 59 33 60 41 61 34 62 40 63 42 64 39 65 35 66
REMARK SMILES IDX 36 67 37 68 38 69 64 70 65 71 73 72 66 73 72 74 74 75 71 76
REMARK SMILES IDX 67 77 68 78 69 79 70 80 49 81 50 82 58 83 51 84 57 85 59 86
REMARK SMILES IDX 56 87 52 88 53 89 54 90 55 91
REMARK H PARENT 3 9 79 44 47 55
REMARK Flexibility Score: inf
ROOT
ATOM      1  C   UNL A   1      35.912  22.436  23.863  1.00  0.00     0.274 C 
ENDROOT
BRANCH   1   2
ATOM      2  O   UNL A   1      34.690  22.693  24.599  1.00  0.00    -0.460 OA
BRANCH   2   3
ATOM      3  C   UNL A   1      33.600  21.909  24.325  1.00  0.00     0.331 C 
ATOM      4  O   UNL A   1      33.036  21.903  23.234  1.00  0.00    -0.249 OA
BRANCH   3   5
ATOM      5  C   UNL A   1      33.060  21.164  25.606  1.00  0.00     0.138 C 
ATOM      6  C   UNL A   1      33.945  21.419  26.848  1.00  0.00     0.048 C 
BRANCH   5   7
ATOM      7  N   UNL A   1      31.650  21.529  25.928  1.00  0.00    -0.340 N 
ATOM      8  C   UNL A   1      30.990  22.695  26.124  1.00  0.00     0.230 C 
ATOM      9  H   UNL A   1      31.066  20.742  26.020  1.00  0.00     0.164 HD
ATOM     10  O   UNL A   1      29.864  22.638  26.627  1.00  0.00    -0.274 OA
BRANCH   8  11
ATOM     11  C   UNL A   1      31.548  24.015  25.656  1.00  0.00     0.169 C 
BRANCH  11  12
ATOM     12  S   UNL A   1      30.357  25.366  25.906  1.00  0.00    -0.147 SA
BRANCH  12  13
ATOM     13  C   UNL A   1      31.095  26.645  24.889  1.00  0.00     0.105 C 
BRANCH  13  14
ATOM     14  C   UNL A   1      31.918  27.691  25.602  1.00  0.00    -0.038 A 
ATOM     15  C   UNL A   1      33.102  27.436  26.315  1.00  0.00     0.004 A 
ATOM     16  C   UNL A   1      31.467  29.015  25.520  1.00  0.00     0.004 A 
ATOM     17  C   UNL A   1      33.848  28.481  26.862  1.00  0.00     0.000 A 
ATOM     18  C   UNL A   1      32.198  30.056  26.089  1.00  0.00     0.000 A 
ATOM     19  C   UNL A   1      33.398  29.790  26.744  1.00  0.00     0.000 A 
ENDBRANCH  13  14
ENDBRANCH  12  13
ENDBRANCH  11  12
ENDBRANCH   8  11
ENDBRANCH   5   7
BRANCH   5  20
ATOM     20  C   UNL A   1      32.995  19.619  25.422  1.00  0.00     0.026 C 
ATOM     21  C   UNL A   1      32.560  19.040  24.078  1.00  0.00     0.007 C 
ATOM     22  C   UNL A   1      33.926  18.753  24.596  1.00  0.00     0.007 C 
ENDBRANCH   5  20
ENDBRANCH   3   5
ENDBRANCH   2   3
ENDBRANCH   1   2
BRANCH   1  23
ATOM     23  C   UNL A   1      36.700  21.278  24.484  1.00  0.00     0.275 C 
BRANCH  23  24
ATOM     24  O   UNL A   1      37.270  21.716  25.723  1.00  0.00    -0.458 OA
BRANCH  24  25
ATOM     25  C   UNL A   1      38.539  21.292  25.915  1.00  0.00     0.338 C 
ATOM     26  O   UNL A   1      39.065  20.286  25.461  1.00  0.00    -0.246 OA
BRANCH  25  27
ATOM     27  C   UNL A   1      39.283  22.420  26.480  1.00  0.00     0.060 A 
ATOM     28  C   UNL A   1      38.879  23.692  26.080  1.00  0.00     0.016 A 
ATOM     29  C   UNL A   1      40.328  22.249  27.390  1.00  0.00     0.016 A 
ATOM     30  C   UNL A   1      39.517  24.809  26.590  1.00  0.00     0.010 A 
ATOM     31  C   UNL A   1      40.979  23.380  27.892  1.00  0.00     0.010 A 
ATOM     32  C   UNL A   1      40.573  24.663  27.489  1.00  0.00    -0.014 A 
BRANCH  32  33
ATOM     33  C   UNL A   1      41.358  25.870  27.821  1.00  0.00     0.031 A 
ATOM     34  C   UNL A   1      40.703  26.909  28.677  1.00  0.00     0.074 A 
ATOM     35  C   UNL A   1      42.657  25.968  27.490  1.00  0.00     0.049 A 
ATOM     36  N   UNL A   1      41.115  28.106  28.993  1.00  0.00    -0.248 NA
ATOM     37  C   UNL A   1      39.406  26.536  29.265  1.00  0.00     0.031 C 
ATOM     38  C   UNL A   1      43.443  24.927  26.825  1.00  0.00     0.029 A 
ATOM     39  N   UNL A   1      43.551  26.991  27.681  1.00  0.00    -0.354 N 
ATOM     40  C   UNL A   1      40.111  28.646  29.788  1.00  0.00     0.074 A 
ATOM     41  C   UNL A   1      39.073  27.645  29.904  1.00  0.00     0.031 C 
ATOM     42  C   UNL A   1      44.699  25.373  26.656  1.00  0.00     0.029 A 
ATOM     43  C   UNL A   1      44.784  26.754  27.121  1.00  0.00     0.049 A 
ATOM     44  H   UNL A   1      43.330  27.815  28.172  1.00  0.00     0.167 HD
ATOM     45  C   UNL A   1      40.064  29.876  30.352  1.00  0.00     0.034 A 
ATOM     46  C   UNL A   1      45.832  27.586  26.952  1.00  0.00     0.034 A 
ATOM     47  C   UNL A   1      41.120  30.846  30.206  1.00  0.00     0.049 A 
ATOM     48  C   UNL A   1      45.696  29.009  27.446  1.00  0.00     0.074 A 
ATOM     49  C   UNL A   1      41.169  32.147  30.671  1.00  0.00     0.029 A 
ATOM     50  N   UNL A   1      42.317  30.618  29.534  1.00  0.00    -0.354 N 
ATOM     51  N   UNL A   1      44.700  29.566  28.101  1.00  0.00    -0.248 NA
ATOM     52  C   UNL A   1      46.814  29.918  27.168  1.00  0.00     0.031 C 
ATOM     53  C   UNL A   1      42.357  32.728  30.213  1.00  0.00     0.029 A 
ATOM     54  C   UNL A   1      43.094  31.764  29.542  1.00  0.00     0.049 A 
ATOM     55  H   UNL A   1      42.573  29.765  29.115  1.00  0.00     0.167 HD
ATOM     56  C   UNL A   1      45.086  30.883  28.333  1.00  0.00     0.074 A 
ATOM     57  C   UNL A   1      46.411  31.030  27.765  1.00  0.00     0.031 C 
ATOM     58  C   UNL A   1      44.411  31.884  28.960  1.00  0.00     0.034 A 
BRANCH  45  59
ATOM     59  C   UNL A   1      38.790  30.255  31.062  1.00  0.00     0.023 A 
ATOM     60  C   UNL A   1      37.728  30.903  30.406  1.00  0.00     0.031 A 
ATOM     61  C   UNL A   1      38.672  30.036  32.446  1.00  0.00     0.131 A 
ATOM     62  C   UNL A   1      36.636  31.379  31.148  1.00  0.00     0.055 A 
ATOM     63  C   UNL A   1      37.544  30.433  33.164  1.00  0.00     0.041 A 
ATOM     64  F   UNL A   1      39.669  29.455  33.133  1.00  0.00    -0.206 F 
ATOM     65  C   UNL A   1      36.524  31.124  32.518  1.00  0.00     0.022 A 
BRANCH  62  66
ATOM     66  S   UNL A   1      35.448  32.483  30.335  1.00  0.00     0.124 S 
ATOM     67  O   UNL A   1      35.199  31.776  29.081  1.00  0.00    -0.237 OA
ATOM     68  O   UNL A   1      34.341  32.510  31.284  1.00  0.00    -0.237 OA
ATOM     69  O   UNL A   1      36.185  33.738  30.198  1.00  0.00    -0.744 OA
ENDBRANCH  62  66
ENDBRANCH  45  59
BRANCH  46  70
ATOM     70  C   UNL A   1      47.046  27.149  26.200  1.00  0.00     0.023 A 
ATOM     71  C   UNL A   1      48.098  26.471  26.837  1.00  0.00     0.031 A 
ATOM     72  C   UNL A   1      47.207  27.473  24.839  1.00  0.00     0.131 A 
ATOM     73  C   UNL A   1      49.277  26.179  26.128  1.00  0.00     0.055 A 
ATOM     74  C   UNL A   1      48.354  27.125  24.122  1.00  0.00     0.041 A 
ATOM     75  F   UNL A   1      46.246  28.139  24.180  1.00  0.00    -0.206 F 
ATOM     76  C   UNL A   1      49.404  26.487  24.771  1.00  0.00     0.022 A 
BRANCH  73  77
ATOM     77  S   UNL A   1      50.690  25.489  27.033  1.00  0.00     0.124 S 
ATOM     78  O   UNL A   1      51.615  25.183  25.948  1.00  0.00    -0.237 OA
ATOM     79  O   UNL A   1      51.065  26.599  27.902  1.00  0.00    -0.237 OA
ATOM     80  O   UNL A   1      50.123  24.328  27.716  1.00  0.00    -0.744 OA
ENDBRANCH  73  77
ENDBRANCH  46  70
BRANCH  58  81
ATOM     81  C   UNL A   1      45.126  33.206  29.104  1.00  0.00     0.023 A 
ATOM     82  C   UNL A   1      44.857  34.291  28.253  1.00  0.00     0.031 A 
ATOM     83  C   UNL A   1      46.090  33.378  30.114  1.00  0.00     0.131 A 
ATOM     84  C   UNL A   1      45.585  35.482  28.391  1.00  0.00     0.055 A 
ATOM     85  C   UNL A   1      46.761  34.588  30.290  1.00  0.00     0.041 A 
ATOM     86  F   UNL A   1      46.389  32.373  30.952  1.00  0.00    -0.206 F 
ATOM     87  C   UNL A   1      46.520  35.645  29.417  1.00  0.00     0.022 A 
BRANCH  84  88
ATOM     88  S   UNL A   1      45.370  36.783  27.147  1.00  0.00     0.124 S 
ATOM     89  O   UNL A   1      45.519  37.994  27.948  1.00  0.00    -0.237 OA
ATOM     90  O   UNL A   1      46.452  36.502  26.209  1.00  0.00    -0.237 OA
ATOM     91  O   UNL A   1      44.024  36.544  26.629  1.00  0.00    -0.744 OA
ENDBRANCH  84  88
ENDBRANCH  58  81
ENDBRANCH  32  33
ENDBRANCH  25  27
ENDBRANCH  24  25
ENDBRANCH  23  24
ENDBRANCH   1  23
TORSDOF 20
ENDMDL
MODEL 3
REMARK VINA RESULT:     -11.0      4.951      9.611
REMARK SMILES C[C@@](NC(=O)CSCc1ccccc1)(C(=O)OCCOC(=O)c1ccc(-c2c3nc(c(-c4cc(S(=O)(=O)[O-])ccc4F)c4ccc([nH]4)c(-c4cc(S(=O)(=O)[O-])ccc4F)c4nc(c(-c5cc(S(=O)(=O)[O-])ccc5F)c5ccc2[nH]5)C=C4)C=C3)cc1)C1CC1
REMARK SMILES IDX 18 1 17 2 15 3 16 4 2 5 1 6 3 7 4 8 5 10 6 11 7 12 8 13 9 14
REMARK SMILES IDX 10 15 14 16 11 17 13 18 12 19 86 20 87 21 88 22 19 23 20 24
REMARK SMILES IDX 21 25 22 26 23 27 24 28 85 29 25 30 84 31 26 32 27 33 28 34
REMARK SMILES IDX 78 35 29 36 83 37 77 38 79 39 30 40 82 41 76 42 75 43 31 45
REMARK SMILES IDX 63 46 43 47 62 48 44 49 47 50 61 51 80 52 45 53 46 54 60 56
REMARK SMILES IDX 81 57 48 58 32 59 33 60 41 61 34 62 40 63 42 64 39 65 35 66
REMARK SMILES IDX 36 67 37 68 38 69 64 70 65 71 73 72 66 73 72 74 74 75 71 76
REMARK SMILES IDX 67 77 68 78 69 79 70 80 49 81 50 82 58 83 51 84 57 85 59 86
REMARK SMILES IDX 56 87 52 88 53 89 54 90 55 91
REMARK H PARENT 3 9 79 44 47 55
REMARK Flexibility Score: inf
ROOT
ATOM      1  C   UNL A   1      31.788  28.894  26.256  1.00  0.00     0.274 C 
ENDROOT
BRANCH   1   2
ATOM      2  O   UNL A   1      32.172  27.937  25.238  1.00  0.00    -0.460 OA
BRANCH   2   3
ATOM      3  C   UNL A   1      31.231  27.577  24.309  1.00  0.00     0.331 C 
ATOM      4  O   UNL A   1      30.326  26.781  24.545  1.00  0.00    -0.249 OA
BRANCH   3   5
ATOM      5  C   UNL A   1      31.549  28.158  22.878  1.00  0.00     0.138 C 
ATOM      6  C   UNL A   1      32.917  28.876  22.828  1.00  0.00     0.048 C 
BRANCH   5   7
ATOM      7  N   UNL A   1      31.506  27.115  21.813  1.00  0.00    -0.340 N 
ATOM      8  C   UNL A   1      32.234  26.006  21.538  1.00  0.00     0.230 C 
ATOM      9  H   UNL A   1      30.784  27.266  21.162  1.00  0.00     0.164 HD
ATOM     10  O   UNL A   1      32.093  25.490  20.425  1.00  0.00    -0.274 OA
BRANCH   8  11
ATOM     11  C   UNL A   1      33.111  25.350  22.575  1.00  0.00     0.169 C 
BRANCH  11  12
ATOM     12  S   UNL A   1      33.292  23.569  22.260  1.00  0.00    -0.147 SA
BRANCH  12  13
ATOM     13  C   UNL A   1      34.758  23.214  23.229  1.00  0.00     0.105 C 
BRANCH  13  14
ATOM     14  C   UNL A   1      34.538  22.719  24.639  1.00  0.00    -0.038 A 
ATOM     15  C   UNL A   1      34.807  23.458  25.803  1.00  0.00     0.004 A 
ATOM     16  C   UNL A   1      34.005  21.430  24.781  1.00  0.00     0.004 A 
ATOM     17  C   UNL A   1      34.483  22.953  27.063  1.00  0.00     0.000 A 
ATOM     18  C   UNL A   1      33.704  20.916  26.041  1.00  0.00     0.000 A 
ATOM     19  C   UNL A   1      33.927  21.685  27.180  1.00  0.00     0.000 A 
ENDBRANCH  13  14
ENDBRANCH  12  13
ENDBRANCH  11  12
ENDBRANCH   8  11
ENDBRANCH   5   7
BRANCH   5  20
ATOM     20  C   UNL A   1      30.490  29.197  22.401  1.00  0.00     0.026 C 
ATOM     21  C   UNL A   1      29.005  28.887  22.568  1.00  0.00     0.007 C 
ATOM     22  C   UNL A   1      29.596  30.060  23.268  1.00  0.00     0.007 C 
ENDBRANCH   5  20
ENDBRANCH   3   5
ENDBRANCH   2   3
ENDBRANCH   1   2
BRANCH   1  23
ATOM     23  C   UNL A   1      32.673  30.144  26.204  1.00  0.00     0.275 C 
BRANCH  23  24
ATOM     24  O   UNL A   1      32.940  30.579  27.543  1.00  0.00    -0.458 OA
BRANCH  24  25
ATOM     25  C   UNL A   1      33.650  31.727  27.608  1.00  0.00     0.338 C 
ATOM     26  O   UNL A   1      33.226  32.871  27.525  1.00  0.00    -0.246 OA
BRANCH  25  27
ATOM     27  C   UNL A   1      34.971  31.381  28.137  1.00  0.00     0.060 A 
ATOM     28  C   UNL A   1      35.095  30.117  28.712  1.00  0.00     0.016 A 
ATOM     29  C   UNL A   1      36.062  32.247  28.059  1.00  0.00     0.016 A 
ATOM     30  C   UNL A   1      36.319  29.708  29.213  1.00  0.00     0.010 A 
ATOM     31  C   UNL A   1      37.292  31.834  28.579  1.00  0.00     0.010 A 
ATOM     32  C   UNL A   1      37.420  30.561  29.159  1.00  0.00    -0.014 A 
BRANCH  32  33
ATOM     33  C   UNL A   1      38.630  30.163  29.906  1.00  0.00     0.031 A 
ATOM     34  C   UNL A   1      39.572  29.206  29.242  1.00  0.00     0.074 A 
ATOM     35  C   UNL A   1      38.950  30.744  31.076  1.00  0.00     0.049 A 
ATOM     36  N   UNL A   1      40.617  28.597  29.728  1.00  0.00    -0.248 NA
ATOM     37  C   UNL A   1      39.295  28.906  27.828  1.00  0.00     0.031 C 
ATOM     38  C   UNL A   1      38.201  31.827  31.715  1.00  0.00     0.029 A 
ATOM     39  N   UNL A   1      39.999  30.513  31.929  1.00  0.00    -0.354 N 
ATOM     40  C   UNL A   1      41.106  27.811  28.690  1.00  0.00     0.074 A 
ATOM     41  C   UNL A   1      40.240  28.024  27.551  1.00  0.00     0.031 C 
ATOM     42  C   UNL A   1      38.811  32.157  32.866  1.00  0.00     0.029 A 
ATOM     43  C   UNL A   1      39.940  31.257  33.084  1.00  0.00     0.049 A 
ATOM     44  H   UNL A   1      40.723  29.876  31.732  1.00  0.00     0.167 HD
ATOM     45  C   UNL A   1      42.173  26.979  28.704  1.00  0.00     0.034 A 
ATOM     46  C   UNL A   1      40.679  31.167  34.209  1.00  0.00     0.034 A 
ATOM     47  C   UNL A   1      43.007  26.793  29.866  1.00  0.00     0.049 A 
ATOM     48  C   UNL A   1      41.764  30.116  34.264  1.00  0.00     0.074 A 
ATOM     49  C   UNL A   1      44.077  25.934  30.033  1.00  0.00     0.029 A 
ATOM     50  N   UNL A   1      42.856  27.480  31.066  1.00  0.00    -0.354 N 
ATOM     51  N   UNL A   1      42.159  29.285  33.324  1.00  0.00    -0.248 NA
ATOM     52  C   UNL A   1      42.491  29.978  35.531  1.00  0.00     0.031 C 
ATOM     53  C   UNL A   1      44.521  26.045  31.355  1.00  0.00     0.029 A 
ATOM     54  C   UNL A   1      43.789  27.038  31.989  1.00  0.00     0.049 A 
ATOM     55  H   UNL A   1      42.182  28.178  31.235  1.00  0.00     0.167 HD
ATOM     56  C   UNL A   1      43.199  28.545  33.882  1.00  0.00     0.074 A 
ATOM     57  C   UNL A   1      43.379  29.041  35.231  1.00  0.00     0.031 C 
ATOM     58  C   UNL A   1      43.941  27.547  33.333  1.00  0.00     0.034 A 
BRANCH  45  59
ATOM     59  C   UNL A   1      42.404  26.141  27.473  1.00  0.00     0.023 A 
ATOM     60  C   UNL A   1      41.907  24.831  27.352  1.00  0.00     0.031 A 
ATOM     61  C   UNL A   1      43.210  26.638  26.434  1.00  0.00     0.131 A 
ATOM     62  C   UNL A   1      42.289  24.039  26.257  1.00  0.00     0.055 A 
ATOM     63  C   UNL A   1      43.514  25.876  25.306  1.00  0.00     0.041 A 
ATOM     64  F   UNL A   1      43.743  27.869  26.511  1.00  0.00    -0.206 F 
ATOM     65  C   UNL A   1      43.066  24.562  25.220  1.00  0.00     0.022 A 
BRANCH  62  66
ATOM     66  S   UNL A   1      41.900  22.267  26.290  1.00  0.00     0.124 S 
ATOM     67  O   UNL A   1      42.743  21.761  25.210  1.00  0.00    -0.237 OA
ATOM     68  O   UNL A   1      42.293  21.883  27.641  1.00  0.00    -0.237 OA
ATOM     69  O   UNL A   1      40.464  22.226  26.022  1.00  0.00    -0.744 OA
ENDBRANCH  62  66
ENDBRANCH  45  59
BRANCH  46  70
ATOM     70  C   UNL A   1      40.361  32.005  35.404  1.00  0.00     0.023 A 
ATOM     71  C   UNL A   1      39.307  31.676  36.271  1.00  0.00     0.031 A 
ATOM     72  C   UNL A   1      41.066  33.198  35.655  1.00  0.00     0.131 A 
ATOM     73  C   UNL A   1      38.960  32.549  37.317  1.00  0.00     0.055 A 
ATOM     74  C   UNL A   1      40.759  34.031  36.734  1.00  0.00     0.041 A 
ATOM     75  F   UNL A   1      42.071  33.578  34.850  1.00  0.00    -0.206 F 
ATOM     76  C   UNL A   1      39.690  33.715  37.564  1.00  0.00     0.022 A 
BRANCH  73  77
ATOM     77  S   UNL A   1      37.468  32.196  38.288  1.00  0.00     0.124 S 
ATOM     78  O   UNL A   1      37.320  30.759  38.091  1.00  0.00    -0.237 OA
ATOM     79  O   UNL A   1      37.868  32.624  39.625  1.00  0.00    -0.237 OA
ATOM     80  O   UNL A   1      36.444  33.022  37.652  1.00  0.00    -0.744 OA
ENDBRANCH  73  77
ENDBRANCH  46  70
BRANCH  58  81
ATOM     81  C   UNL A   1      45.046  26.969  34.183  1.00  0.00     0.023 A 
ATOM     82  C   UNL A   1      44.831  25.875  35.038  1.00  0.00     0.031 A 
ATOM     83  C   UNL A   1      46.338  27.523  34.130  1.00  0.00     0.131 A 
ATOM     84  C   UNL A   1      45.875  25.408  35.849  1.00  0.00     0.055 A 
ATOM     85  C   UNL A   1      47.390  27.010  34.886  1.00  0.00     0.041 A 
ATOM     86  F   UNL A   1      46.600  28.572  33.333  1.00  0.00    -0.206 F 
ATOM     87  C   UNL A   1      47.159  25.953  35.763  1.00  0.00     0.022 A 
BRANCH  84  88
ATOM     88  S   UNL A   1      45.510  24.141  37.094  1.00  0.00     0.124 S 
ATOM     89  O   UNL A   1      44.440  24.771  37.862  1.00  0.00    -0.237 OA
ATOM     90  O   UNL A   1      45.120  22.999  36.273  1.00  0.00    -0.237 OA
ATOM     91  O   UNL A   1      46.777  23.987  37.808  1.00  0.00    -0.744 OA
ENDBRANCH  84  88
ENDBRANCH  58  81
ENDBRANCH  32  33
ENDBRANCH  25  27
ENDBRANCH  24  25
ENDBRANCH  23  24
ENDBRANCH   1  23
TORSDOF 20
ENDMDL
