MODEL 1
REMARK VINA RESULT:     -12.5      0.000      0.000
REMARK SMILES O=C(OCCOC(=O)c1cc(OC[C@@H]2Cc3cc(F)ccc3O2)cs1)c1ccc(-c2c3nc(c(-c4cc(S(=O)(=O)[O-])ccc4F)c4ccc([nH]4)c(-c4cc(S(=O)(=O)[O-])ccc4F)c4nc(c(-c5cc(S(=O)(=O)[O-])ccc5F)c5ccc2[nH]5)C=C4)C=C3)cc1
REMARK SMILES IDX 4 1 3 2 2 3 1 4 26 5 27 6 88 7 28 8 87 9 29 10 30 11 31 12
REMARK SMILES IDX 81 13 32 14 86 15 80 16 82 17 33 18 85 19 79 20 78 21 34 23
REMARK SMILES IDX 66 24 46 25 65 26 47 27 50 28 64 29 83 30 48 31 49 32 63 34
REMARK SMILES IDX 84 35 51 36 35 37 36 38 44 39 37 40 43 41 45 42 42 43 38 44
REMARK SMILES IDX 39 45 40 46 41 47 67 48 68 49 76 50 69 51 75 52 77 53 74 54
REMARK SMILES IDX 70 55 71 56 72 57 73 58 52 59 53 60 61 61 54 62 60 63 62 64
REMARK SMILES IDX 59 65 55 66 56 67 57 68 58 69 5 70 6 71 7 72 8 73 9 74 10 75
REMARK SMILES IDX 25 76 11 77 24 78 12 79 13 80 14 81 15 82 23 83 16 84 22 85
REMARK SMILES IDX 17 86 21 87 18 88 20 89 19 90
REMARK H PARENT 82 22 50 33
REMARK Flexibility Score: inf
ROOT
ATOM      1  C   UNL A   1      38.536  19.916  25.026  1.00  0.00     0.275 C 
ENDROOT
BRANCH   1   2
ATOM      2  O   UNL A   1      39.530  19.470  25.972  1.00  0.00    -0.458 OA
BRANCH   2   3
ATOM      3  C   UNL A   1      40.856  19.750  26.080  1.00  0.00     0.338 C 
ATOM      4  O   UNL A   1      41.658  18.836  25.895  1.00  0.00    -0.246 OA
BRANCH   3   5
ATOM      5  C   UNL A   1      41.400  21.074  26.526  1.00  0.00     0.060 A 
ATOM      6  C   UNL A   1      41.326  21.419  27.890  1.00  0.00     0.016 A 
ATOM      7  C   UNL A   1      41.855  22.053  25.666  1.00  0.00     0.016 A 
ATOM      8  C   UNL A   1      41.615  22.729  28.333  1.00  0.00     0.010 A 
ATOM      9  C   UNL A   1      42.056  23.349  26.097  1.00  0.00     0.010 A 
ATOM     10  C   UNL A   1      41.967  23.726  27.416  1.00  0.00    -0.014 A 
BRANCH  10  11
ATOM     11  C   UNL A   1      42.304  25.132  27.717  1.00  0.00     0.031 A 
ATOM     12  C   UNL A   1      41.249  26.179  28.042  1.00  0.00     0.074 A 
ATOM     13  C   UNL A   1      43.561  25.582  27.534  1.00  0.00     0.049 A 
ATOM     14  N   UNL A   1      41.608  27.668  28.682  1.00  0.00    -0.248 NA
ATOM     15  C   UNL A   1      39.209  26.034  28.041  1.00  0.00     0.031 C 
ATOM     16  C   UNL A   1      44.640  24.772  26.982  1.00  0.00     0.029 A 
ATOM     17  N   UNL A   1      44.118  26.840  27.674  1.00  0.00    -0.354 N 
ATOM     18  C   UNL A   1      40.107  28.526  29.230  1.00  0.00     0.074 A 
ATOM     19  C   UNL A   1      38.631  27.426  28.734  1.00  0.00     0.031 C 
ATOM     20  C   UNL A   1      45.701  25.555  26.763  1.00  0.00     0.029 A 
ATOM     21  C   UNL A   1      45.391  26.932  27.160  1.00  0.00     0.049 A 
ATOM     22  H   UNL A   1      43.650  27.595  28.100  1.00  0.00     0.167 HD
ATOM     23  C   UNL A   1      39.980  29.737  29.809  1.00  0.00     0.034 A 
ATOM     24  C   UNL A   1      46.235  27.973  26.978  1.00  0.00     0.034 A 
ATOM     25  C   UNL A   1      41.046  30.682  29.955  1.00  0.00     0.049 A 
ATOM     26  C   UNL A   1      45.929  29.348  27.525  1.00  0.00     0.074 A 
ATOM     27  C   UNL A   1      40.979  31.924  30.561  1.00  0.00     0.029 A 
ATOM     28  N   UNL A   1      42.323  30.554  29.427  1.00  0.00    -0.354 N 
ATOM     29  N   UNL A   1      44.869  29.784  28.163  1.00  0.00    -0.248 NA
ATOM     30  C   UNL A   1      46.980  30.370  27.365  1.00  0.00     0.031 C 
ATOM     31  C   UNL A   1      42.165  32.599  30.291  1.00  0.00     0.029 A 
ATOM     32  C   UNL A   1      43.022  31.734  29.627  1.00  0.00     0.049 A 
ATOM     33  H   UNL A   1      42.678  29.750  28.981  1.00  0.00     0.167 HD
ATOM     34  C   UNL A   1      45.146  31.106  28.515  1.00  0.00     0.074 A 
ATOM     35  C   UNL A   1      46.475  31.399  28.033  1.00  0.00     0.031 C 
ATOM     36  C   UNL A   1      44.372  31.997  29.181  1.00  0.00     0.034 A 
BRANCH  23  37
ATOM     37  C   UNL A   1      38.638  30.082  30.363  1.00  0.00     0.023 A 
ATOM     38  C   UNL A   1      37.772  30.955  29.686  1.00  0.00     0.031 A 
ATOM     39  C   UNL A   1      38.328  29.709  31.681  1.00  0.00     0.131 A 
ATOM     40  C   UNL A   1      36.649  31.458  30.354  1.00  0.00     0.055 A 
ATOM     41  C   UNL A   1      37.193  30.187  32.329  1.00  0.00     0.041 A 
ATOM     42  F   UNL A   1      39.151  28.900  32.367  1.00  0.00    -0.206 F 
ATOM     43  C   UNL A   1      36.352  31.076  31.668  1.00  0.00     0.022 A 
BRANCH  40  44
ATOM     44  S   UNL A   1      35.564  32.679  29.566  1.00  0.00     0.124 S 
ATOM     45  O   UNL A   1      35.302  32.053  28.271  1.00  0.00    -0.237 OA
ATOM     46  O   UNL A   1      34.431  32.716  30.484  1.00  0.00    -0.237 OA
ATOM     47  O   UNL A   1      36.383  33.885  29.513  1.00  0.00    -0.744 OA
ENDBRANCH  40  44
ENDBRANCH  23  37
BRANCH  24  48
ATOM     48  C   UNL A   1      47.516  27.698  26.255  1.00  0.00     0.023 A 
ATOM     49  C   UNL A   1      47.610  27.929  24.868  1.00  0.00     0.031 A 
ATOM     50  C   UNL A   1      48.600  27.076  26.896  1.00  0.00     0.131 A 
ATOM     51  C   UNL A   1      48.721  27.460  24.157  1.00  0.00     0.055 A 
ATOM     52  C   UNL A   1      49.746  26.694  26.197  1.00  0.00     0.041 A 
ATOM     53  F   UNL A   1      48.549  26.819  28.212  1.00  0.00    -0.206 F 
ATOM     54  C   UNL A   1      49.799  26.863  24.817  1.00  0.00     0.022 A 
BRANCH  51  55
ATOM     55  S   UNL A   1      48.718  27.440  22.342  1.00  0.00     0.124 S 
ATOM     56  O   UNL A   1      48.693  26.009  22.053  1.00  0.00    -0.237 OA
ATOM     57  O   UNL A   1      47.488  28.167  22.037  1.00  0.00    -0.237 OA
ATOM     58  O   UNL A   1      49.950  28.135  21.986  1.00  0.00    -0.744 OA
ENDBRANCH  51  55
ENDBRANCH  24  48
BRANCH  36  59
ATOM     59  C   UNL A   1      44.902  33.384  29.484  1.00  0.00     0.023 A 
ATOM     60  C   UNL A   1      44.723  34.405  28.529  1.00  0.00     0.031 A 
ATOM     61  C   UNL A   1      45.798  33.611  30.541  1.00  0.00     0.131 A 
ATOM     62  C   UNL A   1      45.521  35.554  28.581  1.00  0.00     0.055 A 
ATOM     63  C   UNL A   1      46.532  34.796  30.632  1.00  0.00     0.041 A 
ATOM     64  F   UNL A   1      46.011  32.667  31.472  1.00  0.00    -0.206 F 
ATOM     65  C   UNL A   1      46.419  35.759  29.631  1.00  0.00     0.022 A 
BRANCH  62  66
ATOM     66  S   UNL A   1      45.554  36.723  27.191  1.00  0.00     0.124 S 
ATOM     67  O   UNL A   1      46.140  35.911  26.127  1.00  0.00    -0.237 OA
ATOM     68  O   UNL A   1      44.139  37.042  27.028  1.00  0.00    -0.237 OA
ATOM     69  O   UNL A   1      46.393  37.817  27.671  1.00  0.00    -0.744 OA
ENDBRANCH  62  66
ENDBRANCH  36  59
ENDBRANCH  10  11
ENDBRANCH   3   5
ENDBRANCH   2   3
ENDBRANCH   1   2
BRANCH   1  70
ATOM     70  C   UNL A   1      37.879  21.257  25.414  1.00  0.00     0.275 C 
BRANCH  70  71
ATOM     71  O   UNL A   1      36.871  21.718  24.486  1.00  0.00    -0.458 OA
BRANCH  71  72
ATOM     72  C   UNL A   1      35.537  21.614  24.818  1.00  0.00     0.348 C 
ATOM     73  O   UNL A   1      35.065  20.650  25.405  1.00  0.00    -0.245 OA
BRANCH  72  74
ATOM     74  C   UNL A   1      34.840  22.839  24.411  1.00  0.00     0.116 A 
ATOM     75  C   UNL A   1      34.283  23.106  23.171  1.00  0.00     0.074 A 
ATOM     76  S   UNL A   1      34.738  24.236  25.374  1.00  0.00    -0.133 S 
ATOM     77  C   UNL A   1      33.850  24.450  22.911  1.00  0.00     0.131 A 
ATOM     78  C   UNL A   1      34.115  25.177  24.061  1.00  0.00     0.112 A 
BRANCH  77  79
ATOM     79  O   UNL A   1      33.659  25.159  21.734  1.00  0.00    -0.489 OA
BRANCH  79  80
ATOM     80  C   UNL A   1      32.526  26.337  21.382  1.00  0.00     0.275 C 
BRANCH  80  81
ATOM     81  C   UNL A   1      30.905  27.099  22.802  1.00  0.00     0.215 C 
ATOM     82  C   UNL A   1      30.550  28.775  23.332  1.00  0.00     0.088 C 
ATOM     83  O   UNL A   1      30.679  26.532  24.364  1.00  0.00    -0.486 OA
ATOM     84  C   UNL A   1      31.052  28.800  24.734  1.00  0.00     0.001 A 
ATOM     85  C   UNL A   1      30.988  27.528  25.268  1.00  0.00     0.123 A 
ATOM     86  C   UNL A   1      31.614  29.850  25.457  1.00  0.00     0.047 A 
ATOM     87  C   UNL A   1      31.403  27.270  26.572  1.00  0.00     0.050 A 
ATOM     88  C   UNL A   1      32.104  29.585  26.738  1.00  0.00     0.123 A 
ATOM     89  C   UNL A   1      31.986  28.312  27.309  1.00  0.00     0.043 A 
ATOM     90  F   UNL A   1      32.785  30.539  27.393  1.00  0.00    -0.207 F 
ENDBRANCH  80  81
ENDBRANCH  79  80
ENDBRANCH  77  79
ENDBRANCH  72  74
ENDBRANCH  71  72
ENDBRANCH  70  71
ENDBRANCH   1  70
TORSDOF 17
ENDMDL
MODEL 2
REMARK VINA RESULT:     -12.2      5.214     10.737
REMARK SMILES O=C(OCCOC(=O)c1cc(OC[C@@H]2Cc3cc(F)ccc3O2)cs1)c1ccc(-c2c3nc(c(-c4cc(S(=O)(=O)[O-])ccc4F)c4ccc([nH]4)c(-c4cc(S(=O)(=O)[O-])ccc4F)c4nc(c(-c5cc(S(=O)(=O)[O-])ccc5F)c5ccc2[nH]5)C=C4)C=C3)cc1
REMARK SMILES IDX 4 1 3 2 2 3 1 4 26 5 27 6 88 7 28 8 87 9 29 10 30 11 31 12
REMARK SMILES IDX 81 13 32 14 86 15 80 16 82 17 33 18 85 19 79 20 78 21 34 23
REMARK SMILES IDX 66 24 46 25 65 26 47 27 50 28 64 29 83 30 48 31 49 32 63 34
REMARK SMILES IDX 84 35 51 36 35 37 36 38 44 39 37 40 43 41 45 42 42 43 38 44
REMARK SMILES IDX 39 45 40 46 41 47 67 48 68 49 76 50 69 51 75 52 77 53 74 54
REMARK SMILES IDX 70 55 71 56 72 57 73 58 52 59 53 60 61 61 54 62 60 63 62 64
REMARK SMILES IDX 59 65 55 66 56 67 57 68 58 69 5 70 6 71 7 72 8 73 9 74 10 75
REMARK SMILES IDX 25 76 11 77 24 78 12 79 13 80 14 81 15 82 23 83 16 84 22 85
REMARK SMILES IDX 17 86 21 87 18 88 20 89 19 90
REMARK H PARENT 82 22 50 33
REMARK Flexibility Score: inf
ROOT
ATOM      1  C   UNL A   1      31.444  32.310  26.867  1.00  0.00     0.275 C 
ENDROOT
BRANCH   1   2
ATOM      2  O   UNL A   1      32.614  33.147  26.971  1.00  0.00    -0.458 OA
BRANCH   2   3
ATOM      3  C   UNL A   1      33.182  33.768  28.039  1.00  0.00     0.338 C 
ATOM      4  O   UNL A   1      32.706  34.841  28.407  1.00  0.00    -0.246 OA
BRANCH   3   5
ATOM      5  C   UNL A   1      34.426  33.286  28.725  1.00  0.00     0.060 A 
ATOM      6  C   UNL A   1      35.677  33.755  28.278  1.00  0.00     0.016 A 
ATOM      7  C   UNL A   1      34.444  32.299  29.690  1.00  0.00     0.016 A 
ATOM      8  C   UNL A   1      36.882  33.174  28.732  1.00  0.00     0.010 A 
ATOM      9  C   UNL A   1      35.622  31.685  30.064  1.00  0.00     0.010 A 
ATOM     10  C   UNL A   1      36.858  32.099  29.628  1.00  0.00    -0.014 A 
BRANCH  10  11
ATOM     11  C   UNL A   1      38.022  31.392  30.200  1.00  0.00     0.031 A 
ATOM     12  C   UNL A   1      38.554  30.087  29.626  1.00  0.00     0.074 A 
ATOM     13  C   UNL A   1      38.549  31.790  31.375  1.00  0.00     0.049 A 
ATOM     14  N   UNL A   1      40.025  29.439  30.042  1.00  0.00    -0.248 NA
ATOM     15  C   UNL A   1      37.827  28.926  28.107  1.00  0.00     0.031 C 
ATOM     16  C   UNL A   1      37.996  32.868  32.186  1.00  0.00     0.029 A 
ATOM     17  N   UNL A   1      39.573  31.275  32.147  1.00  0.00    -0.354 N 
ATOM     18  C   UNL A   1      40.469  28.063  28.947  1.00  0.00     0.074 A 
ATOM     19  C   UNL A   1      38.986  27.784  27.783  1.00  0.00     0.031 C 
ATOM     20  C   UNL A   1      38.632  32.895  33.362  1.00  0.00     0.029 A 
ATOM     21  C   UNL A   1      39.646  31.837  33.401  1.00  0.00     0.049 A 
ATOM     22  H   UNL A   1      40.191  30.576  31.830  1.00  0.00     0.167 HD
ATOM     23  C   UNL A   1      41.577  27.296  28.949  1.00  0.00     0.034 A 
ATOM     24  C   UNL A   1      40.395  31.554  34.491  1.00  0.00     0.034 A 
ATOM     25  C   UNL A   1      42.581  27.323  29.970  1.00  0.00     0.049 A 
ATOM     26  C   UNL A   1      41.521  30.548  34.443  1.00  0.00     0.074 A 
ATOM     27  C   UNL A   1      43.747  26.579  30.011  1.00  0.00     0.029 A 
ATOM     28  N   UNL A   1      42.515  28.041  31.156  1.00  0.00    -0.354 N 
ATOM     29  N   UNL A   1      41.920  29.777  33.459  1.00  0.00    -0.248 NA
ATOM     30  C   UNL A   1      42.338  30.415  35.663  1.00  0.00     0.031 C 
ATOM     31  C   UNL A   1      44.319  26.744  31.268  1.00  0.00     0.029 A 
ATOM     32  C   UNL A   1      43.583  27.689  31.966  1.00  0.00     0.049 A 
ATOM     33  H   UNL A   1      41.819  28.699  31.385  1.00  0.00     0.167 HD
ATOM     34  C   UNL A   1      43.052  29.108  33.926  1.00  0.00     0.074 A 
ATOM     35  C   UNL A   1      43.286  29.571  35.275  1.00  0.00     0.031 C 
ATOM     36  C   UNL A   1      43.832  28.196  33.296  1.00  0.00     0.034 A 
BRANCH  23  37
ATOM     37  C   UNL A   1      41.772  26.389  27.780  1.00  0.00     0.023 A 
ATOM     38  C   UNL A   1      41.465  25.022  27.858  1.00  0.00     0.031 A 
ATOM     39  C   UNL A   1      42.479  26.861  26.661  1.00  0.00     0.131 A 
ATOM     40  C   UNL A   1      41.904  24.163  26.842  1.00  0.00     0.055 A 
ATOM     41  C   UNL A   1      42.886  26.008  25.639  1.00  0.00     0.041 A 
ATOM     42  F   UNL A   1      42.815  28.158  26.570  1.00  0.00    -0.206 F 
ATOM     43  C   UNL A   1      42.607  24.648  25.733  1.00  0.00     0.022 A 
BRANCH  40  44
ATOM     44  S   UNL A   1      41.635  22.373  26.953  1.00  0.00     0.124 S 
ATOM     45  O   UNL A   1      41.909  21.945  25.582  1.00  0.00    -0.237 OA
ATOM     46  O   UNL A   1      42.631  21.978  27.943  1.00  0.00    -0.237 OA
ATOM     47  O   UNL A   1      40.241  22.259  27.369  1.00  0.00    -0.744 OA
ENDBRANCH  40  44
ENDBRANCH  23  37
BRANCH  24  48
ATOM     48  C   UNL A   1      40.098  32.319  35.743  1.00  0.00     0.023 A 
ATOM     49  C   UNL A   1      39.142  31.835  36.659  1.00  0.00     0.031 A 
ATOM     50  C   UNL A   1      40.644  33.593  35.969  1.00  0.00     0.131 A 
ATOM     51  C   UNL A   1      38.701  32.656  37.703  1.00  0.00     0.055 A 
ATOM     52  C   UNL A   1      40.268  34.370  37.066  1.00  0.00     0.041 A 
ATOM     53  F   UNL A   1      41.544  34.104  35.115  1.00  0.00    -0.206 F 
ATOM     54  C   UNL A   1      39.273  33.912  37.925  1.00  0.00     0.022 A 
BRANCH  51  55
ATOM     55  S   UNL A   1      37.246  32.199  38.687  1.00  0.00     0.124 S 
ATOM     56  O   UNL A   1      37.164  30.759  38.461  1.00  0.00    -0.237 OA
ATOM     57  O   UNL A   1      37.655  32.604  40.031  1.00  0.00    -0.237 OA
ATOM     58  O   UNL A   1      36.170  32.994  38.105  1.00  0.00    -0.744 OA
ENDBRANCH  51  55
ENDBRANCH  24  48
BRANCH  36  59
ATOM     59  C   UNL A   1      45.046  27.623  33.998  1.00  0.00     0.023 A 
ATOM     60  C   UNL A   1      44.883  26.497  34.830  1.00  0.00     0.031 A 
ATOM     61  C   UNL A   1      46.255  28.334  34.070  1.00  0.00     0.131 A 
ATOM     62  C   UNL A   1      45.860  26.190  35.785  1.00  0.00     0.055 A 
ATOM     63  C   UNL A   1      47.261  27.972  34.970  1.00  0.00     0.041 A 
ATOM     64  F   UNL A   1      46.457  29.419  33.304  1.00  0.00    -0.206 F 
ATOM     65  C   UNL A   1      47.051  26.917  35.854  1.00  0.00     0.022 A 
BRANCH  62  66
ATOM     66  S   UNL A   1      45.532  24.965  37.085  1.00  0.00     0.124 S 
ATOM     67  O   UNL A   1      44.195  25.348  37.531  1.00  0.00    -0.237 OA
ATOM     68  O   UNL A   1      45.609  23.709  36.346  1.00  0.00    -0.237 OA
ATOM     69  O   UNL A   1      46.599  25.189  38.057  1.00  0.00    -0.744 OA
ENDBRANCH  62  66
ENDBRANCH  36  59
ENDBRANCH  10  11
ENDBRANCH   3   5
ENDBRANCH   2   3
ENDBRANCH   1   2
BRANCH   1  70
ATOM     70  C   UNL A   1      31.771  30.839  26.535  1.00  0.00     0.275 C 
BRANCH  70  71
ATOM     71  O   UNL A   1      33.173  30.577  26.300  1.00  0.00    -0.458 OA
BRANCH  71  72
ATOM     72  C   UNL A   1      33.718  29.374  26.694  1.00  0.00     0.348 C 
ATOM     73  O   UNL A   1      34.474  29.260  27.649  1.00  0.00    -0.245 OA
BRANCH  72  74
ATOM     74  C   UNL A   1      33.201  28.303  25.834  1.00  0.00     0.116 A 
ATOM     75  C   UNL A   1      33.440  28.135  24.480  1.00  0.00     0.074 A 
ATOM     76  S   UNL A   1      32.060  27.149  26.341  1.00  0.00    -0.133 S 
ATOM     77  C   UNL A   1      32.657  27.155  23.782  1.00  0.00     0.131 A 
ATOM     78  C   UNL A   1      31.811  26.588  24.721  1.00  0.00     0.112 A 
BRANCH  77  79
ATOM     79  O   UNL A   1      32.319  27.010  22.445  1.00  0.00    -0.489 OA
BRANCH  79  80
ATOM     80  C   UNL A   1      32.452  25.663  21.462  1.00  0.00     0.275 C 
BRANCH  80  81
ATOM     81  C   UNL A   1      33.355  23.653  22.066  1.00  0.00     0.215 C 
ATOM     82  C   UNL A   1      32.806  22.484  23.312  1.00  0.00     0.088 C 
ATOM     83  O   UNL A   1      34.951  23.440  22.537  1.00  0.00    -0.486 OA
ATOM     84  C   UNL A   1      33.800  22.665  24.406  1.00  0.00     0.001 A 
ATOM     85  C   UNL A   1      34.999  23.096  23.872  1.00  0.00     0.123 A 
ATOM     86  C   UNL A   1      33.634  22.548  25.784  1.00  0.00     0.047 A 
ATOM     87  C   UNL A   1      36.102  23.346  24.683  1.00  0.00     0.050 A 
ATOM     88  C   UNL A   1      34.712  22.873  26.612  1.00  0.00     0.123 A 
ATOM     89  C   UNL A   1      35.948  23.251  26.075  1.00  0.00     0.043 A 
ATOM     90  F   UNL A   1      34.531  22.916  27.941  1.00  0.00    -0.207 F 
ENDBRANCH  80  81
ENDBRANCH  79  80
ENDBRANCH  77  79
ENDBRANCH  72  74
ENDBRANCH  71  72
ENDBRANCH  70  71
ENDBRANCH   1  70
TORSDOF 17
ENDMDL
MODEL 3
REMARK VINA RESULT:     -12.1      2.032      7.965
REMARK SMILES O=C(OCCOC(=O)c1cc(OC[C@@H]2Cc3cc(F)ccc3O2)cs1)c1ccc(-c2c3nc(c(-c4cc(S(=O)(=O)[O-])ccc4F)c4ccc([nH]4)c(-c4cc(S(=O)(=O)[O-])ccc4F)c4nc(c(-c5cc(S(=O)(=O)[O-])ccc5F)c5ccc2[nH]5)C=C4)C=C3)cc1
REMARK SMILES IDX 4 1 3 2 2 3 1 4 26 5 27 6 88 7 28 8 87 9 29 10 30 11 31 12
REMARK SMILES IDX 81 13 32 14 86 15 80 16 82 17 33 18 85 19 79 20 78 21 34 23
REMARK SMILES IDX 66 24 46 25 65 26 47 27 50 28 64 29 83 30 48 31 49 32 63 34
REMARK SMILES IDX 84 35 51 36 35 37 36 38 44 39 37 40 43 41 45 42 42 43 38 44
REMARK SMILES IDX 39 45 40 46 41 47 67 48 68 49 76 50 69 51 75 52 77 53 74 54
REMARK SMILES IDX 70 55 71 56 72 57 73 58 52 59 53 60 61 61 54 62 60 63 62 64
REMARK SMILES IDX 59 65 55 66 56 67 57 68 58 69 5 70 6 71 7 72 8 73 9 74 10 75
REMARK SMILES IDX 25 76 11 77 24 78 12 79 13 80 14 81 15 82 23 83 16 84 22 85
REMARK SMILES IDX 17 86 21 87 18 88 20 89 19 90
REMARK H PARENT 82 22 50 33
REMARK Flexibility Score: inf
ROOT
ATOM      1  C   UNL A   1      36.134  18.897  24.926  1.00  0.00     0.275 C 
ENDROOT
BRANCH   1   2
ATOM      2  O   UNL A   1      36.967  20.068  25.049  1.00  0.00    -0.458 OA
BRANCH   2   3
ATOM      3  C   UNL A   1      38.281  20.205  25.369  1.00  0.00     0.338 C 
ATOM      4  O   UNL A   1      39.006  19.216  25.283  1.00  0.00    -0.246 OA
BRANCH   3   5
ATOM      5  C   UNL A   1      38.880  21.460  25.932  1.00  0.00     0.060 A 
ATOM      6  C   UNL A   1      38.187  22.677  25.775  1.00  0.00     0.016 A 
ATOM      7  C   UNL A   1      40.142  21.535  26.485  1.00  0.00     0.016 A 
ATOM      8  C   UNL A   1      38.796  23.913  26.085  1.00  0.00     0.010 A 
ATOM      9  C   UNL A   1      40.757  22.751  26.706  1.00  0.00     0.010 A 
ATOM     10  C   UNL A   1      40.119  23.958  26.539  1.00  0.00    -0.014 A 
BRANCH  10  11
ATOM     11  C   UNL A   1      40.892  25.161  26.910  1.00  0.00     0.031 A 
ATOM     12  C   UNL A   1      42.410  25.222  26.824  1.00  0.00     0.074 A 
ATOM     13  C   UNL A   1      40.282  26.198  27.518  1.00  0.00     0.049 A 
ATOM     14  N   UNL A   1      43.273  26.635  26.931  1.00  0.00    -0.248 NA
ATOM     15  C   UNL A   1      43.758  23.762  26.339  1.00  0.00     0.031 C 
ATOM     16  C   UNL A   1      38.877  26.197  27.907  1.00  0.00     0.029 A 
ATOM     17  N   UNL A   1      40.773  27.389  28.018  1.00  0.00    -0.354 N 
ATOM     18  C   UNL A   1      45.011  26.379  26.477  1.00  0.00     0.074 A 
ATOM     19  C   UNL A   1      45.229  24.511  26.164  1.00  0.00     0.031 C 
ATOM     20  C   UNL A   1      38.631  27.287  28.641  1.00  0.00     0.029 A 
ATOM     21  C   UNL A   1      39.857  28.078  28.780  1.00  0.00     0.049 A 
ATOM     22  H   UNL A   1      41.687  27.713  27.847  1.00  0.00     0.167 HD
ATOM     23  C   UNL A   1      46.019  27.272  26.424  1.00  0.00     0.034 A 
ATOM     24  C   UNL A   1      39.949  29.194  29.539  1.00  0.00     0.034 A 
ATOM     25  C   UNL A   1      45.934  28.620  26.899  1.00  0.00     0.049 A 
ATOM     26  C   UNL A   1      41.193  30.053  29.544  1.00  0.00     0.074 A 
ATOM     27  C   UNL A   1      46.925  29.584  26.848  1.00  0.00     0.029 A 
ATOM     28  N   UNL A   1      44.862  29.174  27.585  1.00  0.00    -0.354 N 
ATOM     29  N   UNL A   1      42.339  29.877  28.930  1.00  0.00    -0.248 NA
ATOM     30  C   UNL A   1      41.126  31.304  30.320  1.00  0.00     0.031 C 
ATOM     31  C   UNL A   1      46.508  30.671  27.610  1.00  0.00     0.029 A 
ATOM     32  C   UNL A   1      45.207  30.440  28.030  1.00  0.00     0.049 A 
ATOM     33  H   UNL A   1      43.992  28.736  27.730  1.00  0.00     0.167 HD
ATOM     34  C   UNL A   1      43.104  31.010  29.210  1.00  0.00     0.074 A 
ATOM     35  C   UNL A   1      42.291  31.872  30.036  1.00  0.00     0.031 C 
ATOM     36  C   UNL A   1      44.365  31.313  28.816  1.00  0.00     0.034 A 
BRANCH  23  37
ATOM     37  C   UNL A   1      47.290  26.816  25.790  1.00  0.00     0.023 A 
ATOM     38  C   UNL A   1      48.302  26.200  26.544  1.00  0.00     0.031 A 
ATOM     39  C   UNL A   1      47.575  27.210  24.471  1.00  0.00     0.131 A 
ATOM     40  C   UNL A   1      49.571  26.029  25.976  1.00  0.00     0.055 A 
ATOM     41  C   UNL A   1      48.829  27.009  23.902  1.00  0.00     0.041 A 
ATOM     42  F   UNL A   1      46.639  27.829  23.734  1.00  0.00    -0.206 F 
ATOM     43  C   UNL A   1      49.838  26.425  24.660  1.00  0.00     0.022 A 
BRANCH  40  44
ATOM     44  S   UNL A   1      50.942  25.345  26.946  1.00  0.00     0.124 S 
ATOM     45  O   UNL A   1      51.418  26.527  27.663  1.00  0.00    -0.237 OA
ATOM     46  O   UNL A   1      50.266  24.346  27.765  1.00  0.00    -0.237 OA
ATOM     47  O   UNL A   1      51.856  24.829  25.933  1.00  0.00    -0.744 OA
ENDBRANCH  40  44
ENDBRANCH  23  37
BRANCH  24  48
ATOM     48  C   UNL A   1      38.744  29.578  30.340  1.00  0.00     0.023 A 
ATOM     49  C   UNL A   1      37.877  30.588  29.874  1.00  0.00     0.031 A 
ATOM     50  C   UNL A   1      38.522  29.058  31.625  1.00  0.00     0.131 A 
ATOM     51  C   UNL A   1      36.890  31.103  30.723  1.00  0.00     0.055 A 
ATOM     52  C   UNL A   1      37.477  29.511  32.431  1.00  0.00     0.041 A 
ATOM     53  F   UNL A   1      39.332  28.108  32.118  1.00  0.00    -0.206 F 
ATOM     54  C   UNL A   1      36.670  30.556  31.990  1.00  0.00     0.022 A 
BRANCH  51  55
ATOM     55  S   UNL A   1      35.989  32.616  30.283  1.00  0.00     0.124 S 
ATOM     56  O   UNL A   1      36.708  33.632  31.046  1.00  0.00    -0.237 OA
ATOM     57  O   UNL A   1      36.177  32.666  28.834  1.00  0.00    -0.237 OA
ATOM     58  O   UNL A   1      34.623  32.346  30.719  1.00  0.00    -0.744 OA
ENDBRANCH  51  55
ENDBRANCH  24  48
BRANCH  36  59
ATOM     59  C   UNL A   1      44.988  32.634  29.218  1.00  0.00     0.023 A 
ATOM     60  C   UNL A   1      44.995  33.695  28.289  1.00  0.00     0.031 A 
ATOM     61  C   UNL A   1      45.796  32.747  30.361  1.00  0.00     0.131 A 
ATOM     62  C   UNL A   1      45.885  34.761  28.457  1.00  0.00     0.055 A 
ATOM     63  C   UNL A   1      46.623  33.855  30.563  1.00  0.00     0.041 A 
ATOM     64  F   UNL A   1      45.831  31.761  31.272  1.00  0.00    -0.206 F 
ATOM     65  C   UNL A   1      46.694  34.851  29.593  1.00  0.00     0.022 A 
BRANCH  62  66
ATOM     66  S   UNL A   1      46.158  35.961  27.120  1.00  0.00     0.124 S 
ATOM     67  O   UNL A   1      47.448  36.539  27.491  1.00  0.00    -0.237 OA
ATOM     68  O   UNL A   1      46.174  35.102  25.940  1.00  0.00    -0.237 OA
ATOM     69  O   UNL A   1      45.019  36.868  27.222  1.00  0.00    -0.744 OA
ENDBRANCH  62  66
ENDBRANCH  36  59
ENDBRANCH  10  11
ENDBRANCH   3   5
ENDBRANCH   2   3
ENDBRANCH   1   2
BRANCH   1  70
ATOM     70  C   UNL A   1      34.656  19.225  24.627  1.00  0.00     0.275 C 
BRANCH  70  71
ATOM     71  O   UNL A   1      34.344  20.636  24.638  1.00  0.00    -0.458 OA
BRANCH  71  72
ATOM     72  C   UNL A   1      33.064  21.055  24.341  1.00  0.00     0.348 C 
ATOM     73  O   UNL A   1      32.446  20.677  23.355  1.00  0.00    -0.245 OA
BRANCH  72  74
ATOM     74  C   UNL A   1      32.587  21.945  25.406  1.00  0.00     0.116 A 
ATOM     75  C   UNL A   1      31.280  22.342  25.634  1.00  0.00     0.074 A 
ATOM     76  S   UNL A   1      33.613  22.787  26.468  1.00  0.00    -0.133 S 
ATOM     77  C   UNL A   1      31.060  23.394  26.586  1.00  0.00     0.131 A 
ATOM     78  C   UNL A   1      32.309  23.755  27.067  1.00  0.00     0.112 A 
BRANCH  77  79
ATOM     79  O   UNL A   1      30.022  24.298  26.755  1.00  0.00    -0.489 OA
BRANCH  79  80
ATOM     80  C   UNL A   1      29.643  25.653  25.851  1.00  0.00     0.275 C 
BRANCH  80  81
ATOM     81  C   UNL A   1      31.144  27.026  24.808  1.00  0.00     0.215 C 
ATOM     82  C   UNL A   1      32.937  27.014  24.875  1.00  0.00     0.088 C 
ATOM     83  O   UNL A   1      31.128  28.699  24.922  1.00  0.00    -0.486 OA
ATOM     84  C   UNL A   1      33.251  28.191  25.730  1.00  0.00     0.001 A 
ATOM     85  C   UNL A   1      32.243  29.128  25.612  1.00  0.00     0.123 A 
ATOM     86  C   UNL A   1      34.305  28.385  26.621  1.00  0.00     0.047 A 
ATOM     87  C   UNL A   1      32.287  30.329  26.314  1.00  0.00     0.050 A 
ATOM     88  C   UNL A   1      34.317  29.553  27.388  1.00  0.00     0.123 A 
ATOM     89  C   UNL A   1      33.332  30.534  27.230  1.00  0.00     0.043 A 
ATOM     90  F   UNL A   1      35.233  29.692  28.360  1.00  0.00    -0.207 F 
ENDBRANCH  80  81
ENDBRANCH  79  80
ENDBRANCH  77  79
ENDBRANCH  72  74
ENDBRANCH  71  72
ENDBRANCH  70  71
ENDBRANCH   1  70
TORSDOF 17
ENDMDL
