MODEL 1
REMARK VINA RESULT:     -11.8      0.000      0.000
REMARK SMILES O=C(NCc1ccc(C(=O)OCCOC(=O)c2ccc(-c3c4nc(c(-c5cc(S(=O)(=O)[O-])ccc5F)c5ccc([nH]5)c(-c5cc(S(=O)(=O)[O-])ccc5F)c5nc(c(-c6cc(S(=O)(=O)[O-])ccc6F)c6ccc3[nH]6)C=C5)C=C4)cc2)cc1)Nc1ccccc1Br
REMARK SMILES IDX 12 1 11 2 9 3 10 4 8 5 5 6 6 7 81 8 7 9 80 10 4 11 3 12 1 13
REMARK SMILES IDX 2 14 82 15 83 18 84 19 88 20 85 21 87 22 89 23 86 24 13 25
REMARK SMILES IDX 14 26 15 27 16 28 17 29 18 30 79 31 19 32 78 33 20 34 21 35
REMARK SMILES IDX 22 36 72 37 23 38 77 39 71 40 73 41 24 42 76 43 70 44 69 45
REMARK SMILES IDX 25 47 57 48 37 49 56 50 38 51 41 52 55 53 74 54 39 55 40 56
REMARK SMILES IDX 54 58 75 59 42 60 26 61 27 62 35 63 28 64 34 65 36 66 33 67
REMARK SMILES IDX 29 68 30 69 31 70 32 71 58 72 59 73 67 74 60 75 66 76 68 77
REMARK SMILES IDX 65 78 61 79 62 80 63 81 64 82 43 83 44 84 52 85 45 86 51 87
REMARK SMILES IDX 53 88 50 89 46 90 47 91 48 92 49 93
REMARK H PARENT 3 16 82 17 73 46 41 57
REMARK Flexibility Score: inf
ROOT
ATOM      1  C   UNL A   1      37.530  19.856  24.928  1.00  0.00     0.275 C 
ENDROOT
BRANCH   1   2
ATOM      2  O   UNL A   1      37.038  21.024  25.615  1.00  0.00    -0.458 OA
BRANCH   2   3
ATOM      3  C   UNL A   1      36.419  21.939  24.824  1.00  0.00     0.338 C 
ATOM      4  O   UNL A   1      36.909  22.512  23.864  1.00  0.00    -0.246 OA
BRANCH   3   5
ATOM      5  C   UNL A   1      35.005  22.125  25.229  1.00  0.00     0.060 A 
ATOM      6  C   UNL A   1      32.303  22.570  25.868  1.00  0.00    -0.029 A 
ATOM      7  C   UNL A   1      32.678  22.268  24.553  1.00  0.00     0.006 A 
ATOM      8  C   UNL A   1      33.295  22.643  26.861  1.00  0.00     0.006 A 
ATOM      9  C   UNL A   1      34.019  22.064  24.235  1.00  0.00     0.016 A 
ATOM     10  C   UNL A   1      34.639  22.411  26.547  1.00  0.00     0.016 A 
BRANCH   6  11
ATOM     11  C   UNL A   1      30.865  22.885  26.183  1.00  0.00     0.153 C 
BRANCH  11  12
ATOM     12  N   UNL A   1      30.752  24.214  26.746  1.00  0.00    -0.334 N 
ATOM     13  O   UNL A   1      30.685  26.421  26.894  1.00  0.00    -0.248 OA
ATOM     14  C   UNL A   1      30.703  25.438  26.157  1.00  0.00     0.319 C 
ATOM     15  N   UNL A   1      30.603  25.461  24.796  1.00  0.00    -0.307 N 
ATOM     16  H   UNL A   1      30.702  24.235  27.729  1.00  0.00     0.165 HD
ATOM     17  H   UNL A   1      30.476  24.600  24.335  1.00  0.00     0.171 HD
BRANCH  15  18
ATOM     18  C   UNL A   1      30.667  26.627  23.994  1.00  0.00     0.057 A 
ATOM     19  C   UNL A   1      29.429  27.165  23.602  1.00  0.00     0.027 A 
ATOM     20  C   UNL A   1      31.843  27.261  23.554  1.00  0.00     0.041 A 
ATOM     21  C   UNL A   1      29.359  28.353  22.871  1.00  0.00     0.002 A 
ATOM     22  C   UNL A   1      31.764  28.454  22.819  1.00  0.00     0.018 A 
ATOM     23  Br  UNL A   1      33.579  26.488  23.690  1.00  0.00    -0.049 Br
ATOM     24  C   UNL A   1      30.526  29.006  22.493  1.00  0.00     0.001 A 
ENDBRANCH  15  18
ENDBRANCH  11  12
ENDBRANCH   6  11
ENDBRANCH   3   5
ENDBRANCH   2   3
ENDBRANCH   1   2
BRANCH   1  25
ATOM     25  C   UNL A   1      38.772  19.297  25.621  1.00  0.00     0.275 C 
BRANCH  25  26
ATOM     26  O   UNL A   1      39.774  20.322  25.719  1.00  0.00    -0.458 OA
BRANCH  26  27
ATOM     27  C   UNL A   1      40.399  20.423  26.916  1.00  0.00     0.338 C 
ATOM     28  O   UNL A   1      40.723  19.509  27.654  1.00  0.00    -0.246 OA
BRANCH  27  29
ATOM     29  C   UNL A   1      40.626  21.846  27.236  1.00  0.00     0.060 A 
ATOM     30  C   UNL A   1      39.918  22.840  26.563  1.00  0.00     0.016 A 
ATOM     31  C   UNL A   1      41.625  22.195  28.144  1.00  0.00     0.016 A 
ATOM     32  C   UNL A   1      40.256  24.184  26.737  1.00  0.00     0.010 A 
ATOM     33  C   UNL A   1      41.901  23.547  28.382  1.00  0.00     0.010 A 
ATOM     34  C   UNL A   1      41.247  24.559  27.655  1.00  0.00    -0.014 A 
BRANCH  34  35
ATOM     35  C   UNL A   1      41.655  25.989  27.809  1.00  0.00     0.031 A 
ATOM     36  C   UNL A   1      42.955  26.468  27.211  1.00  0.00     0.074 A 
ATOM     37  C   UNL A   1      40.875  26.868  28.472  1.00  0.00     0.049 A 
ATOM     38  N   UNL A   1      43.594  27.596  27.398  1.00  0.00    -0.248 NA
ATOM     39  C   UNL A   1      43.636  25.540  26.295  1.00  0.00     0.031 C 
ATOM     40  C   UNL A   1      39.571  26.567  29.064  1.00  0.00     0.029 A 
ATOM     41  N   UNL A   1      41.066  28.199  28.757  1.00  0.00    -0.354 N 
ATOM     42  C   UNL A   1      44.782  27.486  26.681  1.00  0.00     0.074 A 
ATOM     43  C   UNL A   1      44.773  26.177  26.060  1.00  0.00     0.031 C 
ATOM     44  C   UNL A   1      39.065  27.686  29.608  1.00  0.00     0.029 A 
ATOM     45  C   UNL A   1      40.043  28.761  29.487  1.00  0.00     0.049 A 
ATOM     46  H   UNL A   1      41.860  28.703  28.467  1.00  0.00     0.167 HD
ATOM     47  C   UNL A   1      45.786  28.390  26.554  1.00  0.00     0.034 A 
ATOM     48  C   UNL A   1      39.921  29.984  30.041  1.00  0.00     0.034 A 
ATOM     49  C   UNL A   1      45.757  29.714  27.128  1.00  0.00     0.049 A 
ATOM     50  C   UNL A   1      41.054  30.969  29.903  1.00  0.00     0.074 A 
ATOM     51  C   UNL A   1      46.712  30.714  27.045  1.00  0.00     0.029 A 
ATOM     52  N   UNL A   1      44.711  30.231  27.883  1.00  0.00    -0.354 N 
ATOM     53  N   UNL A   1      42.205  30.821  29.291  1.00  0.00    -0.248 NA
ATOM     54  C   UNL A   1      40.875  32.276  30.547  1.00  0.00     0.031 C 
ATOM     55  C   UNL A   1      46.266  31.815  27.787  1.00  0.00     0.029 A 
ATOM     56  C   UNL A   1      45.005  31.527  28.282  1.00  0.00     0.049 A 
ATOM     57  H   UNL A   1      43.882  29.749  28.102  1.00  0.00     0.167 HD
ATOM     58  C   UNL A   1      42.886  32.021  29.473  1.00  0.00     0.074 A 
ATOM     59  C   UNL A   1      42.007  32.888  30.230  1.00  0.00     0.031 C 
ATOM     60  C   UNL A   1      44.128  32.374  29.054  1.00  0.00     0.034 A 
BRANCH  47  61
ATOM     61  C   UNL A   1      47.028  27.948  25.815  1.00  0.00     0.023 A 
ATOM     62  C   UNL A   1      47.192  28.154  24.435  1.00  0.00     0.031 A 
ATOM     63  C   UNL A   1      48.051  27.274  26.506  1.00  0.00     0.131 A 
ATOM     64  C   UNL A   1      48.314  27.624  23.778  1.00  0.00     0.055 A 
ATOM     65  C   UNL A   1      49.202  26.818  25.860  1.00  0.00     0.041 A 
ATOM     66  F   UNL A   1      47.943  27.032  27.822  1.00  0.00    -0.206 F 
ATOM     67  C   UNL A   1      49.331  26.978  24.484  1.00  0.00     0.022 A 
BRANCH  64  68
ATOM     68  S   UNL A   1      48.355  27.665  21.964  1.00  0.00     0.124 S 
ATOM     69  O   UNL A   1      48.606  26.263  21.641  1.00  0.00    -0.237 OA
ATOM     70  O   UNL A   1      47.030  28.170  21.629  1.00  0.00    -0.237 OA
ATOM     71  O   UNL A   1      49.463  28.572  21.666  1.00  0.00    -0.744 OA
ENDBRANCH  64  68
ENDBRANCH  47  61
BRANCH  48  72
ATOM     72  C   UNL A   1      38.712  30.327  30.842  1.00  0.00     0.023 A 
ATOM     73  C   UNL A   1      37.649  31.053  30.281  1.00  0.00     0.031 A 
ATOM     74  C   UNL A   1      38.616  29.952  32.195  1.00  0.00     0.131 A 
ATOM     75  C   UNL A   1      36.546  31.403  31.078  1.00  0.00     0.055 A 
ATOM     76  C   UNL A   1      37.496  30.259  32.968  1.00  0.00     0.041 A 
ATOM     77  F   UNL A   1      39.607  29.260  32.780  1.00  0.00    -0.206 F 
ATOM     78  C   UNL A   1      36.456  30.996  32.411  1.00  0.00     0.022 A 
BRANCH  75  79
ATOM     79  S   UNL A   1      35.254  32.454  30.361  1.00  0.00     0.124 S 
ATOM     80  O   UNL A   1      34.812  31.651  29.227  1.00  0.00    -0.237 OA
ATOM     81  O   UNL A   1      34.311  32.576  31.468  1.00  0.00    -0.237 OA
ATOM     82  O   UNL A   1      35.968  33.683  30.016  1.00  0.00    -0.744 OA
ENDBRANCH  75  79
ENDBRANCH  48  72
BRANCH  60  83
ATOM     83  C   UNL A   1      44.584  33.772  29.383  1.00  0.00     0.023 A 
ATOM     84  C   UNL A   1      44.246  34.867  28.570  1.00  0.00     0.031 A 
ATOM     85  C   UNL A   1      45.390  34.004  30.511  1.00  0.00     0.131 A 
ATOM     86  C   UNL A   1      44.754  36.141  28.868  1.00  0.00     0.055 A 
ATOM     87  C   UNL A   1      45.852  35.282  30.830  1.00  0.00     0.041 A 
ATOM     88  F   UNL A   1      45.742  32.992  31.319  1.00  0.00    -0.206 F 
ATOM     89  C   UNL A   1      45.545  36.357  30.000  1.00  0.00     0.022 A 
BRANCH  86  90
ATOM     90  S   UNL A   1      44.434  37.502  27.713  1.00  0.00     0.124 S 
ATOM     91  O   UNL A   1      43.327  36.974  26.921  1.00  0.00    -0.237 OA
ATOM     92  O   UNL A   1      44.107  38.605  28.610  1.00  0.00    -0.237 OA
ATOM     93  O   UNL A   1      45.697  37.645  26.992  1.00  0.00    -0.744 OA
ENDBRANCH  86  90
ENDBRANCH  60  83
ENDBRANCH  34  35
ENDBRANCH  27  29
ENDBRANCH  26  27
ENDBRANCH  25  26
ENDBRANCH   1  25
TORSDOF 17
ENDMDL
MODEL 2
REMARK VINA RESULT:     -11.8      5.081      8.219
REMARK SMILES O=C(NCc1ccc(C(=O)OCCOC(=O)c2ccc(-c3c4nc(c(-c5cc(S(=O)(=O)[O-])ccc5F)c5ccc([nH]5)c(-c5cc(S(=O)(=O)[O-])ccc5F)c5nc(c(-c6cc(S(=O)(=O)[O-])ccc6F)c6ccc3[nH]6)C=C5)C=C4)cc2)cc1)Nc1ccccc1Br
REMARK SMILES IDX 12 1 11 2 9 3 10 4 8 5 5 6 6 7 81 8 7 9 80 10 4 11 3 12 1 13
REMARK SMILES IDX 2 14 82 15 83 18 84 19 88 20 85 21 87 22 89 23 86 24 13 25
REMARK SMILES IDX 14 26 15 27 16 28 17 29 18 30 79 31 19 32 78 33 20 34 21 35
REMARK SMILES IDX 22 36 72 37 23 38 77 39 71 40 73 41 24 42 76 43 70 44 69 45
REMARK SMILES IDX 25 47 57 48 37 49 56 50 38 51 41 52 55 53 74 54 39 55 40 56
REMARK SMILES IDX 54 58 75 59 42 60 26 61 27 62 35 63 28 64 34 65 36 66 33 67
REMARK SMILES IDX 29 68 30 69 31 70 32 71 58 72 59 73 67 74 60 75 66 76 68 77
REMARK SMILES IDX 65 78 61 79 62 80 63 81 64 82 43 83 44 84 52 85 45 86 51 87
REMARK SMILES IDX 53 88 50 89 46 90 47 91 48 92 49 93
REMARK H PARENT 3 16 82 17 73 46 41 57
REMARK Flexibility Score: inf
ROOT
ATOM      1  C   UNL A   1      31.627  29.424  24.421  1.00  0.00     0.275 C 
ENDROOT
BRANCH   1   2
ATOM      2  O   UNL A   1      30.418  28.667  24.208  1.00  0.00    -0.458 OA
BRANCH   2   3
ATOM      3  C   UNL A   1      30.515  27.677  23.284  1.00  0.00     0.338 C 
ATOM      4  O   UNL A   1      30.633  27.823  22.078  1.00  0.00    -0.246 OA
BRANCH   3   5
ATOM      5  C   UNL A   1      30.527  26.343  23.931  1.00  0.00     0.060 A 
ATOM      6  C   UNL A   1      30.631  23.878  25.281  1.00  0.00    -0.029 A 
ATOM      7  C   UNL A   1      30.311  25.051  25.975  1.00  0.00     0.006 A 
ATOM      8  C   UNL A   1      30.895  23.951  23.903  1.00  0.00     0.006 A 
ATOM      9  C   UNL A   1      30.276  26.274  25.308  1.00  0.00     0.016 A 
ATOM     10  C   UNL A   1      30.833  25.175  23.227  1.00  0.00     0.016 A 
BRANCH   6  11
ATOM     11  C   UNL A   1      30.762  22.577  26.028  1.00  0.00     0.153 C 
BRANCH  11  12
ATOM     12  N   UNL A   1      31.801  22.676  27.032  1.00  0.00    -0.334 N 
ATOM     13  O   UNL A   1      33.788  22.564  28.000  1.00  0.00    -0.248 OA
ATOM     14  C   UNL A   1      33.145  22.490  26.956  1.00  0.00     0.319 C 
ATOM     15  N   UNL A   1      33.671  22.310  25.709  1.00  0.00    -0.307 N 
ATOM     16  H   UNL A   1      31.476  22.921  27.928  1.00  0.00     0.165 HD
ATOM     17  H   UNL A   1      33.065  22.421  24.941  1.00  0.00     0.171 HD
BRANCH  15  18
ATOM     18  C   UNL A   1      35.019  21.975  25.433  1.00  0.00     0.057 A 
ATOM     19  C   UNL A   1      35.935  23.040  25.494  1.00  0.00     0.027 A 
ATOM     20  C   UNL A   1      35.498  20.698  25.093  1.00  0.00     0.041 A 
ATOM     21  C   UNL A   1      37.303  22.825  25.313  1.00  0.00     0.002 A 
ATOM     22  C   UNL A   1      36.875  20.490  24.913  1.00  0.00     0.018 A 
ATOM     23  Br  UNL A   1      34.373  19.233  24.626  1.00  0.00    -0.049 Br
ATOM     24  C   UNL A   1      37.775  21.547  25.039  1.00  0.00     0.001 A 
ENDBRANCH  15  18
ENDBRANCH  11  12
ENDBRANCH   6  11
ENDBRANCH   3   5
ENDBRANCH   2   3
ENDBRANCH   1   2
BRANCH   1  25
ATOM     25  C   UNL A   1      31.445  30.438  25.549  1.00  0.00     0.275 C 
BRANCH  25  26
ATOM     26  O   UNL A   1      32.453  30.232  26.552  1.00  0.00    -0.458 OA
BRANCH  26  27
ATOM     27  C   UNL A   1      32.996  31.354  27.082  1.00  0.00     0.338 C 
ATOM     28  O   UNL A   1      32.512  32.472  27.086  1.00  0.00    -0.246 OA
BRANCH  27  29
ATOM     29  C   UNL A   1      34.317  31.038  27.658  1.00  0.00     0.060 A 
ATOM     30  C   UNL A   1      34.661  29.720  27.953  1.00  0.00     0.016 A 
ATOM     31  C   UNL A   1      35.183  32.076  28.001  1.00  0.00     0.016 A 
ATOM     32  C   UNL A   1      35.833  29.439  28.657  1.00  0.00     0.010 A 
ATOM     33  C   UNL A   1      36.400  31.783  28.629  1.00  0.00     0.010 A 
ATOM     34  C   UNL A   1      36.725  30.465  28.999  1.00  0.00    -0.014 A 
BRANCH  34  35
ATOM     35  C   UNL A   1      37.955  30.183  29.801  1.00  0.00     0.031 A 
ATOM     36  C   UNL A   1      39.038  29.300  29.229  1.00  0.00     0.074 A 
ATOM     37  C   UNL A   1      38.120  30.710  31.032  1.00  0.00     0.049 A 
ATOM     38  N   UNL A   1      40.075  28.763  29.821  1.00  0.00    -0.248 NA
ATOM     39  C   UNL A   1      38.922  28.962  27.803  1.00  0.00     0.031 C 
ATOM     40  C   UNL A   1      37.186  31.617  31.699  1.00  0.00     0.029 A 
ATOM     41  N   UNL A   1      39.139  30.559  31.943  1.00  0.00    -0.354 N 
ATOM     42  C   UNL A   1      40.695  27.969  28.861  1.00  0.00     0.074 A 
ATOM     43  C   UNL A   1      39.911  28.095  27.649  1.00  0.00     0.031 C 
ATOM     44  C   UNL A   1      37.690  31.969  32.893  1.00  0.00     0.029 A 
ATOM     45  C   UNL A   1      38.936  31.245  33.118  1.00  0.00     0.049 A 
ATOM     46  H   UNL A   1      39.938  30.011  31.770  1.00  0.00     0.167 HD
ATOM     47  C   UNL A   1      41.811  27.206  28.978  1.00  0.00     0.034 A 
ATOM     48  C   UNL A   1      39.641  31.257  34.268  1.00  0.00     0.034 A 
ATOM     49  C   UNL A   1      42.618  27.136  30.173  1.00  0.00     0.049 A 
ATOM     50  C   UNL A   1      40.868  30.390  34.385  1.00  0.00     0.074 A 
ATOM     51  C   UNL A   1      43.777  26.409  30.392  1.00  0.00     0.029 A 
ATOM     52  N   UNL A   1      42.359  27.828  31.349  1.00  0.00    -0.354 N 
ATOM     53  N   UNL A   1      41.395  29.583  33.495  1.00  0.00    -0.248 NA
ATOM     54  C   UNL A   1      41.582  30.425  35.668  1.00  0.00     0.031 C 
ATOM     55  C   UNL A   1      44.191  26.625  31.713  1.00  0.00     0.029 A 
ATOM     56  C   UNL A   1      43.326  27.534  32.299  1.00  0.00     0.049 A 
ATOM     57  H   UNL A   1      41.600  28.439  31.489  1.00  0.00     0.167 HD
ATOM     58  C   UNL A   1      42.508  29.017  34.112  1.00  0.00     0.074 A 
ATOM     59  C   UNL A   1      42.587  29.594  35.438  1.00  0.00     0.031 C 
ATOM     60  C   UNL A   1      43.383  28.100  33.626  1.00  0.00     0.034 A 
BRANCH  47  61
ATOM     61  C   UNL A   1      42.185  26.338  27.800  1.00  0.00     0.023 A 
ATOM     62  C   UNL A   1      41.789  24.993  27.703  1.00  0.00     0.031 A 
ATOM     63  C   UNL A   1      42.986  26.863  26.769  1.00  0.00     0.131 A 
ATOM     64  C   UNL A   1      42.258  24.200  26.644  1.00  0.00     0.055 A 
ATOM     65  C   UNL A   1      43.385  26.090  25.677  1.00  0.00     0.041 A 
ATOM     66  F   UNL A   1      43.410  28.136  26.814  1.00  0.00    -0.206 F 
ATOM     67  C   UNL A   1      43.034  24.745  25.618  1.00  0.00     0.022 A 
BRANCH  64  68
ATOM     68  S   UNL A   1      41.959  22.411  26.702  1.00  0.00     0.124 S 
ATOM     69  O   UNL A   1      42.325  22.006  25.348  1.00  0.00    -0.237 OA
ATOM     70  O   UNL A   1      42.857  21.975  27.764  1.00  0.00    -0.237 OA
ATOM     71  O   UNL A   1      40.533  22.312  27.010  1.00  0.00    -0.744 OA
ENDBRANCH  64  68
ENDBRANCH  47  61
BRANCH  48  72
ATOM     72  C   UNL A   1      39.166  32.060  35.431  1.00  0.00     0.023 A 
ATOM     73  C   UNL A   1      38.491  31.458  36.503  1.00  0.00     0.031 A 
ATOM     74  C   UNL A   1      39.362  33.453  35.469  1.00  0.00     0.131 A 
ATOM     75  C   UNL A   1      38.012  32.251  37.560  1.00  0.00     0.055 A 
ATOM     76  C   UNL A   1      38.928  34.229  36.545  1.00  0.00     0.041 A 
ATOM     77  F   UNL A   1      39.998  34.077  34.466  1.00  0.00    -0.206 F 
ATOM     78  C   UNL A   1      38.242  33.628  37.595  1.00  0.00     0.022 A 
BRANCH  75  79
ATOM     79  S   UNL A   1      37.028  31.462  38.863  1.00  0.00     0.124 S 
ATOM     80  O   UNL A   1      37.907  31.591  40.019  1.00  0.00    -0.237 OA
ATOM     81  O   UNL A   1      35.824  32.287  38.876  1.00  0.00    -0.237 OA
ATOM     82  O   UNL A   1      36.840  30.098  38.369  1.00  0.00    -0.744 OA
ENDBRANCH  75  79
ENDBRANCH  48  72
BRANCH  60  83
ATOM     83  C   UNL A   1      44.519  27.698  34.532  1.00  0.00     0.023 A 
ATOM     84  C   UNL A   1      44.412  26.600  35.403  1.00  0.00     0.031 A 
ATOM     85  C   UNL A   1      45.711  28.442  34.540  1.00  0.00     0.131 A 
ATOM     86  C   UNL A   1      45.463  26.306  36.285  1.00  0.00     0.055 A 
ATOM     87  C   UNL A   1      46.773  28.114  35.386  1.00  0.00     0.041 A 
ATOM     88  F   UNL A   1      45.863  29.500  33.729  1.00  0.00    -0.206 F 
ATOM     89  C   UNL A   1      46.647  27.048  36.273  1.00  0.00     0.022 A 
BRANCH  86  90
ATOM     90  S   UNL A   1      45.233  24.985  37.507  1.00  0.00     0.124 S 
ATOM     91  O   UNL A   1      46.404  25.154  38.361  1.00  0.00    -0.237 OA
ATOM     92  O   UNL A   1      43.949  25.333  38.107  1.00  0.00    -0.237 OA
ATOM     93  O   UNL A   1      45.227  23.767  36.699  1.00  0.00    -0.744 OA
ENDBRANCH  86  90
ENDBRANCH  60  83
ENDBRANCH  34  35
ENDBRANCH  27  29
ENDBRANCH  26  27
ENDBRANCH  25  26
ENDBRANCH   1  25
TORSDOF 17
ENDMDL
MODEL 3
REMARK VINA RESULT:     -11.7      1.472      7.731
REMARK SMILES O=C(NCc1ccc(C(=O)OCCOC(=O)c2ccc(-c3c4nc(c(-c5cc(S(=O)(=O)[O-])ccc5F)c5ccc([nH]5)c(-c5cc(S(=O)(=O)[O-])ccc5F)c5nc(c(-c6cc(S(=O)(=O)[O-])ccc6F)c6ccc3[nH]6)C=C5)C=C4)cc2)cc1)Nc1ccccc1Br
REMARK SMILES IDX 12 1 11 2 9 3 10 4 8 5 5 6 6 7 81 8 7 9 80 10 4 11 3 12 1 13
REMARK SMILES IDX 2 14 82 15 83 18 84 19 88 20 85 21 87 22 89 23 86 24 13 25
REMARK SMILES IDX 14 26 15 27 16 28 17 29 18 30 79 31 19 32 78 33 20 34 21 35
REMARK SMILES IDX 22 36 72 37 23 38 77 39 71 40 73 41 24 42 76 43 70 44 69 45
REMARK SMILES IDX 25 47 57 48 37 49 56 50 38 51 41 52 55 53 74 54 39 55 40 56
REMARK SMILES IDX 54 58 75 59 42 60 26 61 27 62 35 63 28 64 34 65 36 66 33 67
REMARK SMILES IDX 29 68 30 69 31 70 32 71 58 72 59 73 67 74 60 75 66 76 68 77
REMARK SMILES IDX 65 78 61 79 62 80 63 81 64 82 43 83 44 84 52 85 45 86 51 87
REMARK SMILES IDX 53 88 50 89 46 90 47 91 48 92 49 93
REMARK H PARENT 3 16 82 17 73 46 41 57
REMARK Flexibility Score: inf
ROOT
ATOM      1  C   UNL A   1      35.473  20.425  25.054  1.00  0.00     0.275 C 
ENDROOT
BRANCH   1   2
ATOM      2  O   UNL A   1      34.732  19.258  24.645  1.00  0.00    -0.458 OA
BRANCH   2   3
ATOM      3  C   UNL A   1      33.415  19.267  24.976  1.00  0.00     0.338 C 
ATOM      4  O   UNL A   1      32.823  18.406  25.606  1.00  0.00    -0.246 OA
BRANCH   3   5
ATOM      5  C   UNL A   1      32.761  20.519  24.525  1.00  0.00     0.060 A 
ATOM      6  C   UNL A   1      31.406  22.868  23.781  1.00  0.00    -0.029 A 
ATOM      7  C   UNL A   1      31.586  22.555  25.133  1.00  0.00     0.006 A 
ATOM      8  C   UNL A   1      31.915  21.995  22.805  1.00  0.00     0.006 A 
ATOM      9  C   UNL A   1      32.243  21.382  25.501  1.00  0.00     0.016 A 
ATOM     10  C   UNL A   1      32.599  20.831  23.173  1.00  0.00     0.016 A 
BRANCH   6  11
ATOM     11  C   UNL A   1      30.610  24.087  23.394  1.00  0.00     0.153 C 
BRANCH  11  12
ATOM     12  N   UNL A   1      30.002  24.684  24.564  1.00  0.00    -0.334 N 
ATOM     13  O   UNL A   1      29.670  26.031  26.288  1.00  0.00    -0.248 OA
ATOM     14  C   UNL A   1      30.322  25.798  25.274  1.00  0.00     0.319 C 
ATOM     15  N   UNL A   1      31.296  26.600  24.752  1.00  0.00    -0.307 N 
ATOM     16  H   UNL A   1      29.218  24.197  24.905  1.00  0.00     0.165 HD
ATOM     17  H   UNL A   1      31.636  26.377  23.855  1.00  0.00     0.171 HD
BRANCH  15  18
ATOM     18  C   UNL A   1      31.857  27.727  25.400  1.00  0.00     0.057 A 
ATOM     19  C   UNL A   1      32.700  27.446  26.490  1.00  0.00     0.027 A 
ATOM     20  C   UNL A   1      31.628  29.072  25.060  1.00  0.00     0.041 A 
ATOM     21  C   UNL A   1      33.370  28.468  27.165  1.00  0.00     0.002 A 
ATOM     22  C   UNL A   1      32.306  30.094  25.744  1.00  0.00     0.018 A 
ATOM     23  Br  UNL A   1      30.265  29.644  23.859  1.00  0.00    -0.049 Br
ATOM     24  C   UNL A   1      33.185  29.791  26.782  1.00  0.00     0.001 A 
ENDBRANCH  15  18
ENDBRANCH  11  12
ENDBRANCH   6  11
ENDBRANCH   3   5
ENDBRANCH   2   3
ENDBRANCH   1   2
BRANCH   1  25
ATOM     25  C   UNL A   1      36.974  20.211  24.872  1.00  0.00     0.275 C 
BRANCH  25  26
ATOM     26  O   UNL A   1      37.691  21.348  25.379  1.00  0.00    -0.458 OA
BRANCH  26  27
ATOM     27  C   UNL A   1      38.906  21.087  25.919  1.00  0.00     0.338 C 
ATOM     28  O   UNL A   1      39.474  20.010  25.962  1.00  0.00    -0.246 OA
BRANCH  27  29
ATOM     29  C   UNL A   1      39.466  22.325  26.495  1.00  0.00     0.060 A 
ATOM     30  C   UNL A   1      38.953  23.567  26.128  1.00  0.00     0.016 A 
ATOM     31  C   UNL A   1      40.581  22.251  27.330  1.00  0.00     0.016 A 
ATOM     32  C   UNL A   1      39.593  24.740  26.533  1.00  0.00     0.010 A 
ATOM     33  C   UNL A   1      41.167  23.430  27.806  1.00  0.00     0.010 A 
ATOM     34  C   UNL A   1      40.706  24.690  27.384  1.00  0.00    -0.014 A 
BRANCH  34  35
ATOM     35  C   UNL A   1      41.432  25.936  27.779  1.00  0.00     0.031 A 
ATOM     36  C   UNL A   1      40.732  26.981  28.613  1.00  0.00     0.074 A 
ATOM     37  C   UNL A   1      42.712  26.144  27.405  1.00  0.00     0.049 A 
ATOM     38  N   UNL A   1      41.095  28.209  28.889  1.00  0.00    -0.248 NA
ATOM     39  C   UNL A   1      39.439  26.595  29.196  1.00  0.00     0.031 C 
ATOM     40  C   UNL A   1      43.536  25.208  26.639  1.00  0.00     0.029 A 
ATOM     41  N   UNL A   1      43.548  27.214  27.624  1.00  0.00    -0.354 N 
ATOM     42  C   UNL A   1      40.047  28.763  29.618  1.00  0.00     0.074 A 
ATOM     43  C   UNL A   1      39.033  27.735  29.734  1.00  0.00     0.031 C 
ATOM     44  C   UNL A   1      44.764  25.726  26.484  1.00  0.00     0.029 A 
ATOM     45  C   UNL A   1      44.793  27.068  27.057  1.00  0.00     0.049 A 
ATOM     46  H   UNL A   1      43.280  28.009  28.138  1.00  0.00     0.167 HD
ATOM     47  C   UNL A   1      39.939  30.011  30.138  1.00  0.00     0.034 A 
ATOM     48  C   UNL A   1      45.827  27.928  26.961  1.00  0.00     0.034 A 
ATOM     49  C   UNL A   1      40.982  31.008  30.067  1.00  0.00     0.049 A 
ATOM     50  C   UNL A   1      45.682  29.315  27.531  1.00  0.00     0.074 A 
ATOM     51  C   UNL A   1      40.982  32.297  30.576  1.00  0.00     0.029 A 
ATOM     52  N   UNL A   1      42.217  30.825  29.459  1.00  0.00    -0.354 N 
ATOM     53  N   UNL A   1      44.654  29.852  28.145  1.00  0.00    -0.248 NA
ATOM     54  C   UNL A   1      46.831  30.217  27.376  1.00  0.00     0.031 C 
ATOM     55  C   UNL A   1      42.195  32.906  30.235  1.00  0.00     0.029 A 
ATOM     56  C   UNL A   1      42.978  31.979  29.567  1.00  0.00     0.049 A 
ATOM     57  H   UNL A   1      42.510  29.997  29.015  1.00  0.00     0.167 HD
ATOM     58  C   UNL A   1      45.036  31.154  28.455  1.00  0.00     0.074 A 
ATOM     59  C   UNL A   1      46.396  31.312  27.981  1.00  0.00     0.031 C 
ATOM     60  C   UNL A   1      44.326  32.131  29.073  1.00  0.00     0.034 A 
BRANCH  47  61
ATOM     61  C   UNL A   1      38.621  30.386  30.774  1.00  0.00     0.023 A 
ATOM     62  C   UNL A   1      37.645  31.133  30.094  1.00  0.00     0.031 A 
ATOM     63  C   UNL A   1      38.356  30.016  32.105  1.00  0.00     0.131 A 
ATOM     64  C   UNL A   1      36.487  31.551  30.768  1.00  0.00     0.055 A 
ATOM     65  C   UNL A   1      37.166  30.367  32.746  1.00  0.00     0.041 A 
ATOM     66  F   UNL A   1      39.257  29.317  32.813  1.00  0.00    -0.206 F 
ATOM     67  C   UNL A   1      36.230  31.154  32.082  1.00  0.00     0.022 A 
BRANCH  64  68
ATOM     68  S   UNL A   1      35.389  32.741  29.950  1.00  0.00     0.124 S 
ATOM     69  O   UNL A   1      34.687  33.328  31.088  1.00  0.00    -0.237 OA
ATOM     70  O   UNL A   1      36.328  33.615  29.259  1.00  0.00    -0.237 OA
ATOM     71  O   UNL A   1      34.561  31.904  29.082  1.00  0.00    -0.744 OA
ENDBRANCH  64  68
ENDBRANCH  47  61
BRANCH  48  72
ATOM     72  C   UNL A   1      47.067  27.532  26.235  1.00  0.00     0.023 A 
ATOM     73  C   UNL A   1      47.227  27.803  24.867  1.00  0.00     0.031 A 
ATOM     74  C   UNL A   1      48.103  26.852  26.900  1.00  0.00     0.131 A 
ATOM     75  C   UNL A   1      48.386  27.372  24.201  1.00  0.00     0.055 A 
ATOM     76  C   UNL A   1      49.275  26.470  26.245  1.00  0.00     0.041 A 
ATOM     77  F   UNL A   1      47.998  26.565  28.208  1.00  0.00    -0.206 F 
ATOM     78  C   UNL A   1      49.417  26.723  24.885  1.00  0.00     0.022 A 
BRANCH  75  79
ATOM     79  S   UNL A   1      48.502  27.618  22.408  1.00  0.00     0.124 S 
ATOM     80  O   UNL A   1      47.254  28.318  22.123  1.00  0.00    -0.237 OA
ATOM     81  O   UNL A   1      49.722  28.409  22.287  1.00  0.00    -0.237 OA
ATOM     82  O   UNL A   1      48.590  26.257  21.882  1.00  0.00    -0.744 OA
ENDBRANCH  75  79
ENDBRANCH  48  72
BRANCH  60  83
ATOM     83  C   UNL A   1      45.030  33.445  29.297  1.00  0.00     0.023 A 
ATOM     84  C   UNL A   1      45.066  34.440  28.304  1.00  0.00     0.031 A 
ATOM     85  C   UNL A   1      45.696  33.691  30.510  1.00  0.00     0.131 A 
ATOM     86  C   UNL A   1      45.798  35.617  28.523  1.00  0.00     0.055 A 
ATOM     87  C   UNL A   1      46.381  34.885  30.741  1.00  0.00     0.041 A 
ATOM     88  F   UNL A   1      45.693  32.773  31.489  1.00  0.00    -0.206 F 
ATOM     89  C   UNL A   1      46.445  35.851  29.740  1.00  0.00     0.022 A 
BRANCH  86  90
ATOM     90  S   UNL A   1      45.960  36.810  27.166  1.00  0.00     0.124 S 
ATOM     91  O   UNL A   1      47.176  37.527  27.536  1.00  0.00    -0.237 OA
ATOM     92  O   UNL A   1      46.061  35.942  25.997  1.00  0.00    -0.237 OA
ATOM     93  O   UNL A   1      44.729  37.593  27.249  1.00  0.00    -0.744 OA
ENDBRANCH  86  90
ENDBRANCH  60  83
ENDBRANCH  34  35
ENDBRANCH  27  29
ENDBRANCH  26  27
ENDBRANCH  25  26
ENDBRANCH   1  25
TORSDOF 17
ENDMDL
