MODEL 1
REMARK VINA RESULT:     -14.0      0.000      0.000
REMARK SMILES COc1ccc(-c2[nH]nc3nc(-c4ccc(C(F)(F)F)cc4)cc(C(=O)OCCOC(=O)c4ccc(-c5c6nc(c(-c7cc(S(=O)(=O)[O-])ccc7F)c7ccc([nH]7)c(-c7cc(S(=O)(=O)[O-])ccc7F)c7nc(c(-c8cc(S(=O)(=O)[O-])ccc8F)c8ccc5[nH]8)C=C7)C=C6)cc4)c23)cc1
REMARK SMILES IDX 29 1 28 2 27 3 25 4 26 5 24 6 7 7 8 8 96 9 9 10 10 12 11 13
REMARK SMILES IDX 23 14 12 15 6 16 3 17 4 18 98 19 5 20 97 21 2 22 1 23 13 24
REMARK SMILES IDX 14 25 22 26 15 27 21 28 16 29 17 30 18 31 19 32 20 33 30 34
REMARK SMILES IDX 31 35 32 36 33 37 34 38 95 39 35 40 94 41 36 42 37 43 38 44
REMARK SMILES IDX 88 45 39 46 93 47 87 48 89 49 40 50 92 51 86 52 85 53 41 55
REMARK SMILES IDX 73 56 53 57 72 58 54 59 57 60 71 61 90 62 55 63 56 64 70 66
REMARK SMILES IDX 91 67 58 68 42 69 43 70 51 71 44 72 50 73 52 74 49 75 45 76
REMARK SMILES IDX 46 77 47 78 48 79 74 80 75 81 83 82 76 83 82 84 84 85 81 86
REMARK SMILES IDX 77 87 78 88 79 89 80 90 59 91 60 92 68 93 61 94 67 95 69 96
REMARK SMILES IDX 66 97 62 98 63 99 64 100 65 101
REMARK H PARENT 8 11 89 54 57 65
REMARK Flexibility Score: inf
ROOT
ATOM      1  C   UNL A   1      34.218  29.448  27.509  1.00  0.00     0.275 C 
ENDROOT
BRANCH   1   2
ATOM      2  C   UNL A   1      33.565  28.814  26.293  1.00  0.00     0.275 C 
BRANCH   2   3
ATOM      3  O   UNL A   1      34.058  27.472  26.191  1.00  0.00    -0.458 OA
BRANCH   3   4
ATOM      4  C   UNL A   1      33.157  26.495  25.934  1.00  0.00     0.339 C 
ATOM      5  O   UNL A   1      32.043  26.390  26.408  1.00  0.00    -0.246 OA
BRANCH   4   6
ATOM      6  C   UNL A   1      33.776  25.572  24.979  1.00  0.00     0.075 A 
ATOM      7  C   UNL A   1      32.205  25.597  22.982  1.00  0.00     0.075 A 
ATOM      8  N   UNL A   1      32.274  24.840  21.830  1.00  0.00    -0.275 N 
ATOM      9  C   UNL A   1      33.294  25.159  23.729  1.00  0.00     0.061 A 
ATOM     10  N   UNL A   1      33.273  23.946  21.783  1.00  0.00    -0.154 NA
ATOM     11  H   UNL A   1      31.633  24.950  21.090  1.00  0.00     0.190 HD
ATOM     12  C   UNL A   1      33.942  24.163  22.914  1.00  0.00     0.182 A 
ATOM     13  N   UNL A   1      35.084  23.526  23.286  1.00  0.00    -0.226 NA
ATOM     14  C   UNL A   1      34.977  24.925  25.312  1.00  0.00     0.045 A 
ATOM     15  C   UNL A   1      35.567  23.937  24.491  1.00  0.00     0.074 A 
BRANCH   7  16
ATOM     16  C   UNL A   1      31.226  26.689  23.077  1.00  0.00     0.001 A 
ATOM     17  C   UNL A   1      29.362  28.825  23.027  1.00  0.00     0.118 A 
ATOM     18  C   UNL A   1      28.981  27.556  23.467  1.00  0.00     0.047 A 
ATOM     19  C   UNL A   1      30.680  29.034  22.653  1.00  0.00     0.047 A 
ATOM     20  C   UNL A   1      29.903  26.492  23.488  1.00  0.00     0.014 A 
ATOM     21  C   UNL A   1      31.583  27.970  22.663  1.00  0.00     0.014 A 
BRANCH  17  22
ATOM     22  O   UNL A   1      28.415  29.810  23.062  1.00  0.00    -0.497 OA
ATOM     23  C   UNL A   1      27.987  30.274  21.780  1.00  0.00     0.278 C 
ENDBRANCH  17  22
ENDBRANCH   7  16
BRANCH  15  24
ATOM     24  C   UNL A   1      36.743  23.198  24.999  1.00  0.00     0.000 A 
ATOM     25  C   UNL A   1      37.003  21.867  24.645  1.00  0.00     0.011 A 
ATOM     26  C   UNL A   1      37.655  23.836  25.863  1.00  0.00     0.011 A 
ATOM     27  C   UNL A   1      38.139  21.201  25.130  1.00  0.00     0.014 A 
ATOM     28  C   UNL A   1      38.785  23.177  26.349  1.00  0.00     0.014 A 
ATOM     29  C   UNL A   1      39.040  21.850  25.990  1.00  0.00     0.056 A 
BRANCH  29  30
ATOM     30  C   UNL A   1      40.251  21.128  26.527  1.00  0.00     0.416 C 
ATOM     31  F   UNL A   1      40.098  19.775  26.532  1.00  0.00    -0.166 F 
ATOM     32  F   UNL A   1      41.380  21.376  25.808  1.00  0.00    -0.166 F 
ATOM     33  F   UNL A   1      40.555  21.465  27.815  1.00  0.00    -0.166 F 
ENDBRANCH  29  30
ENDBRANCH  15  24
ENDBRANCH   4   6
ENDBRANCH   3   4
ENDBRANCH   2   3
ENDBRANCH   1   2
BRANCH   1  34
ATOM     34  O   UNL A   1      35.612  29.152  27.519  1.00  0.00    -0.458 OA
BRANCH  34  35
ATOM     35  C   UNL A   1      36.374  29.644  28.525  1.00  0.00     0.338 C 
ATOM     36  O   UNL A   1      36.035  30.432  29.390  1.00  0.00    -0.246 OA
BRANCH  35  37
ATOM     37  C   UNL A   1      37.709  29.026  28.369  1.00  0.00     0.060 A 
ATOM     38  C   UNL A   1      38.187  28.107  29.307  1.00  0.00     0.016 A 
ATOM     39  C   UNL A   1      38.501  29.418  27.275  1.00  0.00     0.016 A 
ATOM     40  C   UNL A   1      39.504  27.671  29.197  1.00  0.00     0.010 A 
ATOM     41  C   UNL A   1      39.787  28.966  27.153  1.00  0.00     0.010 A 
ATOM     42  C   UNL A   1      40.305  28.158  28.155  1.00  0.00    -0.014 A 
BRANCH  42  43
ATOM     43  C   UNL A   1      41.715  27.822  28.077  1.00  0.00     0.031 A 
ATOM     44  C   UNL A   1      42.021  26.599  27.307  1.00  0.00     0.074 A 
ATOM     45  C   UNL A   1      42.673  28.649  28.545  1.00  0.00     0.049 A 
ATOM     46  N   UNL A   1      42.372  25.454  27.783  1.00  0.00    -0.248 NA
ATOM     47  C   UNL A   1      41.770  26.585  25.860  1.00  0.00     0.031 C 
ATOM     48  C   UNL A   1      42.523  30.000  29.097  1.00  0.00     0.029 A 
ATOM     49  N   UNL A   1      44.021  28.470  28.550  1.00  0.00    -0.354 N 
ATOM     50  C   UNL A   1      42.637  24.643  26.687  1.00  0.00     0.074 A 
ATOM     51  C   UNL A   1      42.063  25.318  25.554  1.00  0.00     0.031 C 
ATOM     52  C   UNL A   1      43.739  30.587  29.200  1.00  0.00     0.029 A 
ATOM     53  C   UNL A   1      44.760  29.606  28.876  1.00  0.00     0.049 A 
ATOM     54  H   UNL A   1      44.443  27.605  28.341  1.00  0.00     0.167 HD
ATOM     55  C   UNL A   1      43.512  23.603  26.793  1.00  0.00     0.034 A 
ATOM     56  C   UNL A   1      46.115  29.728  28.892  1.00  0.00     0.034 A 
ATOM     57  C   UNL A   1      43.797  23.316  28.184  1.00  0.00     0.049 A 
ATOM     58  C   UNL A   1      46.656  28.360  29.078  1.00  0.00     0.074 A 
ATOM     59  C   UNL A   1      43.034  22.931  29.269  1.00  0.00     0.029 A 
ATOM     60  N   UNL A   1      44.968  23.814  28.712  1.00  0.00    -0.354 N 
ATOM     61  N   UNL A   1      46.463  27.668  30.169  1.00  0.00    -0.248 NA
ATOM     62  C   UNL A   1      46.962  27.570  27.895  1.00  0.00     0.031 C 
ATOM     63  C   UNL A   1      43.558  23.679  30.366  1.00  0.00     0.029 A 
ATOM     64  C   UNL A   1      44.665  24.404  29.915  1.00  0.00     0.049 A 
ATOM     65  H   UNL A   1      45.861  23.756  28.303  1.00  0.00     0.167 HD
ATOM     66  C   UNL A   1      46.171  26.385  29.733  1.00  0.00     0.074 A 
ATOM     67  C   UNL A   1      46.599  26.359  28.334  1.00  0.00     0.031 C 
ATOM     68  C   UNL A   1      45.360  25.558  30.458  1.00  0.00     0.034 A 
BRANCH  55  69
ATOM     69  C   UNL A   1      44.400  23.082  25.687  1.00  0.00     0.023 A 
ATOM     70  C   UNL A   1      44.451  21.684  25.517  1.00  0.00     0.031 A 
ATOM     71  C   UNL A   1      45.398  23.819  25.014  1.00  0.00     0.131 A 
ATOM     72  C   UNL A   1      45.511  21.077  24.825  1.00  0.00     0.055 A 
ATOM     73  C   UNL A   1      46.414  23.212  24.269  1.00  0.00     0.041 A 
ATOM     74  F   UNL A   1      45.508  25.148  25.114  1.00  0.00    -0.206 F 
ATOM     75  C   UNL A   1      46.497  21.832  24.200  1.00  0.00     0.022 A 
BRANCH  72  76
ATOM     76  S   UNL A   1      45.676  19.275  24.923  1.00  0.00     0.124 S 
ATOM     77  O   UNL A   1      44.460  18.909  25.642  1.00  0.00    -0.237 OA
ATOM     78  O   UNL A   1      45.729  18.901  23.514  1.00  0.00    -0.237 OA
ATOM     79  O   UNL A   1      46.920  19.089  25.665  1.00  0.00    -0.744 OA
ENDBRANCH  72  76
ENDBRANCH  55  69
BRANCH  56  80
ATOM     80  C   UNL A   1      46.928  30.882  28.416  1.00  0.00     0.023 A 
ATOM     81  C   UNL A   1      46.474  31.806  27.449  1.00  0.00     0.031 A 
ATOM     82  C   UNL A   1      48.099  31.233  29.125  1.00  0.00     0.131 A 
ATOM     83  C   UNL A   1      47.178  33.017  27.233  1.00  0.00     0.055 A 
ATOM     84  C   UNL A   1      48.784  32.431  28.912  1.00  0.00     0.041 A 
ATOM     85  F   UNL A   1      48.566  30.456  30.117  1.00  0.00    -0.206 F 
ATOM     86  C   UNL A   1      48.320  33.335  27.971  1.00  0.00     0.022 A 
BRANCH  83  87
ATOM     87  S   UNL A   1      46.566  34.252  26.037  1.00  0.00     0.124 S 
ATOM     88  O   UNL A   1      45.499  33.526  25.357  1.00  0.00    -0.237 OA
ATOM     89  O   UNL A   1      46.155  35.352  26.902  1.00  0.00    -0.237 OA
ATOM     90  O   UNL A   1      47.738  34.535  25.207  1.00  0.00    -0.744 OA
ENDBRANCH  83  87
ENDBRANCH  56  80
BRANCH  68  91
ATOM     91  C   UNL A   1      45.008  25.968  31.876  1.00  0.00     0.023 A 
ATOM     92  C   UNL A   1      43.852  26.695  32.253  1.00  0.00     0.031 A 
ATOM     93  C   UNL A   1      45.840  25.496  32.907  1.00  0.00     0.131 A 
ATOM     94  C   UNL A   1      43.579  26.933  33.616  1.00  0.00     0.055 A 
ATOM     95  C   UNL A   1      45.555  25.713  34.253  1.00  0.00     0.041 A 
ATOM     96  F   UNL A   1      46.939  24.778  32.616  1.00  0.00    -0.206 F 
ATOM     97  C   UNL A   1      44.426  26.439  34.613  1.00  0.00     0.022 A 
BRANCH  94  98
ATOM     98  S   UNL A   1      42.126  27.911  34.122  1.00  0.00     0.124 S 
ATOM     99  O   UNL A   1      42.706  29.146  34.638  1.00  0.00    -0.237 OA
ATOM    100  O   UNL A   1      41.375  28.034  32.874  1.00  0.00    -0.237 OA
ATOM    101  O   UNL A   1      41.485  27.071  35.135  1.00  0.00    -0.744 OA
ENDBRANCH  94  98
ENDBRANCH  68  91
ENDBRANCH  42  43
ENDBRANCH  35  37
ENDBRANCH  34  35
ENDBRANCH   1  34
TORSDOF 18
ENDMDL
MODEL 2
REMARK VINA RESULT:     -13.4      5.269     10.562
REMARK SMILES COc1ccc(-c2[nH]nc3nc(-c4ccc(C(F)(F)F)cc4)cc(C(=O)OCCOC(=O)c4ccc(-c5c6nc(c(-c7cc(S(=O)(=O)[O-])ccc7F)c7ccc([nH]7)c(-c7cc(S(=O)(=O)[O-])ccc7F)c7nc(c(-c8cc(S(=O)(=O)[O-])ccc8F)c8ccc5[nH]8)C=C7)C=C6)cc4)c23)cc1
REMARK SMILES IDX 29 1 28 2 27 3 25 4 26 5 24 6 7 7 8 8 96 9 9 10 10 12 11 13
REMARK SMILES IDX 23 14 12 15 6 16 3 17 4 18 98 19 5 20 97 21 2 22 1 23 13 24
REMARK SMILES IDX 14 25 22 26 15 27 21 28 16 29 17 30 18 31 19 32 20 33 30 34
REMARK SMILES IDX 31 35 32 36 33 37 34 38 95 39 35 40 94 41 36 42 37 43 38 44
REMARK SMILES IDX 88 45 39 46 93 47 87 48 89 49 40 50 92 51 86 52 85 53 41 55
REMARK SMILES IDX 73 56 53 57 72 58 54 59 57 60 71 61 90 62 55 63 56 64 70 66
REMARK SMILES IDX 91 67 58 68 42 69 43 70 51 71 44 72 50 73 52 74 49 75 45 76
REMARK SMILES IDX 46 77 47 78 48 79 74 80 75 81 83 82 76 83 82 84 84 85 81 86
REMARK SMILES IDX 77 87 78 88 79 89 80 90 59 91 60 92 68 93 61 94 67 95 69 96
REMARK SMILES IDX 66 97 62 98 63 99 64 100 65 101
REMARK H PARENT 8 11 89 54 57 65
REMARK Flexibility Score: inf
ROOT
ATOM      1  C   UNL A   1      37.934  23.490  25.955  1.00  0.00     0.275 C 
ENDROOT
BRANCH   1   2
ATOM      2  C   UNL A   1      36.426  23.344  25.859  1.00  0.00     0.275 C 
BRANCH   2   3
ATOM      3  O   UNL A   1      35.913  24.544  25.267  1.00  0.00    -0.458 OA
BRANCH   3   4
ATOM      4  C   UNL A   1      34.761  24.449  24.562  1.00  0.00     0.339 C 
ATOM      5  O   UNL A   1      34.612  23.918  23.479  1.00  0.00    -0.246 OA
BRANCH   4   6
ATOM      6  C   UNL A   1      33.716  25.113  25.345  1.00  0.00     0.075 A 
ATOM      7  C   UNL A   1      31.800  23.445  25.368  1.00  0.00     0.075 A 
ATOM      8  N   UNL A   1      30.536  23.602  25.902  1.00  0.00    -0.275 N 
ATOM      9  C   UNL A   1      32.415  24.668  25.617  1.00  0.00     0.061 A 
ATOM     10  N   UNL A   1      30.277  24.806  26.434  1.00  0.00    -0.154 NA
ATOM     11  H   UNL A   1      29.869  22.877  25.893  1.00  0.00     0.190 HD
ATOM     12  C   UNL A   1      31.433  25.456  26.318  1.00  0.00     0.182 A 
ATOM     13  N   UNL A   1      31.677  26.712  26.777  1.00  0.00    -0.226 NA
ATOM     14  C   UNL A   1      33.946  26.396  25.869  1.00  0.00     0.045 A 
ATOM     15  C   UNL A   1      32.946  27.142  26.532  1.00  0.00     0.074 A 
BRANCH   7  16
ATOM     16  C   UNL A   1      32.224  22.127  24.877  1.00  0.00     0.001 A 
ATOM     17  C   UNL A   1      32.895  19.488  24.089  1.00  0.00     0.118 A 
ATOM     18  C   UNL A   1      32.337  20.384  23.175  1.00  0.00     0.047 A 
ATOM     19  C   UNL A   1      33.153  19.923  25.379  1.00  0.00     0.047 A 
ATOM     20  C   UNL A   1      31.997  21.694  23.565  1.00  0.00     0.014 A 
ATOM     21  C   UNL A   1      32.800  21.218  25.760  1.00  0.00     0.014 A 
BRANCH  17  22
ATOM     22  O   UNL A   1      33.220  18.243  23.625  1.00  0.00    -0.497 OA
ATOM     23  C   UNL A   1      33.248  17.222  24.623  1.00  0.00     0.278 C 
ENDBRANCH  17  22
ENDBRANCH   7  16
BRANCH  15  24
ATOM     24  C   UNL A   1      33.234  28.543  26.907  1.00  0.00     0.000 A 
ATOM     25  C   UNL A   1      32.242  29.534  26.928  1.00  0.00     0.011 A 
ATOM     26  C   UNL A   1      34.541  28.919  27.271  1.00  0.00     0.011 A 
ATOM     27  C   UNL A   1      32.545  30.850  27.307  1.00  0.00     0.014 A 
ATOM     28  C   UNL A   1      34.849  30.228  27.647  1.00  0.00     0.014 A 
ATOM     29  C   UNL A   1      33.854  31.210  27.668  1.00  0.00     0.056 A 
BRANCH  29  30
ATOM     30  C   UNL A   1      34.184  32.630  28.057  1.00  0.00     0.416 C 
ATOM     31  F   UNL A   1      34.016  32.864  29.388  1.00  0.00    -0.166 F 
ATOM     32  F   UNL A   1      35.472  32.972  27.776  1.00  0.00    -0.166 F 
ATOM     33  F   UNL A   1      33.411  33.559  27.422  1.00  0.00    -0.166 F 
ENDBRANCH  29  30
ENDBRANCH  15  24
ENDBRANCH   4   6
ENDBRANCH   3   4
ENDBRANCH   2   3
ENDBRANCH   1   2
BRANCH   1  34
ATOM     34  O   UNL A   1      38.264  24.469  26.938  1.00  0.00    -0.458 OA
BRANCH  34  35
ATOM     35  C   UNL A   1      39.487  25.050  26.892  1.00  0.00     0.338 C 
ATOM     36  O   UNL A   1      40.458  24.676  26.258  1.00  0.00    -0.246 OA
BRANCH  35  37
ATOM     37  C   UNL A   1      39.409  26.241  27.766  1.00  0.00     0.060 A 
ATOM     38  C   UNL A   1      39.765  27.505  27.288  1.00  0.00     0.016 A 
ATOM     39  C   UNL A   1      39.005  26.061  29.101  1.00  0.00     0.016 A 
ATOM     40  C   UNL A   1      39.819  28.563  28.189  1.00  0.00     0.010 A 
ATOM     41  C   UNL A   1      39.032  27.111  29.980  1.00  0.00     0.010 A 
ATOM     42  C   UNL A   1      39.512  28.335  29.538  1.00  0.00    -0.014 A 
BRANCH  42  43
ATOM     43  C   UNL A   1      39.674  29.383  30.529  1.00  0.00     0.031 A 
ATOM     44  C   UNL A   1      38.470  30.209  30.763  1.00  0.00     0.074 A 
ATOM     45  C   UNL A   1      40.790  29.491  31.280  1.00  0.00     0.049 A 
ATOM     46  N   UNL A   1      38.274  31.418  30.364  1.00  0.00    -0.248 NA
ATOM     47  C   UNL A   1      37.287  29.588  31.373  1.00  0.00     0.031 C 
ATOM     48  C   UNL A   1      41.947  28.590  31.329  1.00  0.00     0.029 A 
ATOM     49  N   UNL A   1      41.087  30.415  32.232  1.00  0.00    -0.354 N 
ATOM     50  C   UNL A   1      37.049  31.807  30.892  1.00  0.00     0.074 A 
ATOM     51  C   UNL A   1      36.408  30.594  31.324  1.00  0.00     0.031 C 
ATOM     52  C   UNL A   1      42.722  28.904  32.394  1.00  0.00     0.029 A 
ATOM     53  C   UNL A   1      42.209  30.119  33.003  1.00  0.00     0.049 A 
ATOM     54  H   UNL A   1      40.552  31.231  32.365  1.00  0.00     0.167 HD
ATOM     55  C   UNL A   1      36.787  33.123  31.132  1.00  0.00     0.034 A 
ATOM     56  C   UNL A   1      42.691  30.828  34.059  1.00  0.00     0.034 A 
ATOM     57  C   UNL A   1      37.763  33.966  30.473  1.00  0.00     0.049 A 
ATOM     58  C   UNL A   1      42.200  32.218  33.888  1.00  0.00     0.074 A 
ATOM     59  C   UNL A   1      38.142  34.165  29.160  1.00  0.00     0.029 A 
ATOM     60  N   UNL A   1      38.798  34.462  31.236  1.00  0.00    -0.354 N 
ATOM     61  N   UNL A   1      42.574  32.979  32.896  1.00  0.00    -0.248 NA
ATOM     62  C   UNL A   1      40.933  32.585  34.502  1.00  0.00     0.031 C 
ATOM     63  C   UNL A   1      39.563  34.287  29.206  1.00  0.00     0.029 A 
ATOM     64  C   UNL A   1      39.965  34.250  30.544  1.00  0.00     0.049 A 
ATOM     65  H   UNL A   1      38.716  34.891  32.118  1.00  0.00     0.167 HD
ATOM     66  C   UNL A   1      41.414  33.609  32.471  1.00  0.00     0.074 A 
ATOM     67  C   UNL A   1      40.460  33.412  33.563  1.00  0.00     0.031 C 
ATOM     68  C   UNL A   1      41.250  33.986  31.169  1.00  0.00     0.034 A 
BRANCH  55  69
ATOM     69  C   UNL A   1      35.905  33.659  32.236  1.00  0.00     0.023 A 
ATOM     70  C   UNL A   1      34.925  34.602  31.867  1.00  0.00     0.031 A 
ATOM     71  C   UNL A   1      36.154  33.542  33.620  1.00  0.00     0.131 A 
ATOM     72  C   UNL A   1      34.341  35.450  32.821  1.00  0.00     0.055 A 
ATOM     73  C   UNL A   1      35.518  34.343  34.574  1.00  0.00     0.041 A 
ATOM     74  F   UNL A   1      37.084  32.723  34.122  1.00  0.00    -0.206 F 
ATOM     75  C   UNL A   1      34.632  35.330  34.174  1.00  0.00     0.022 A 
BRANCH  72  76
ATOM     76  S   UNL A   1      33.337  36.839  32.230  1.00  0.00     0.124 S 
ATOM     77  O   UNL A   1      32.021  36.492  32.756  1.00  0.00    -0.237 OA
ATOM     78  O   UNL A   1      34.002  37.977  32.855  1.00  0.00    -0.237 OA
ATOM     79  O   UNL A   1      33.471  36.758  30.778  1.00  0.00    -0.744 OA
ENDBRANCH  72  76
ENDBRANCH  55  69
BRANCH  56  80
ATOM     80  C   UNL A   1      43.234  30.294  35.340  1.00  0.00     0.023 A 
ATOM     81  C   UNL A   1      42.982  28.985  35.805  1.00  0.00     0.031 A 
ATOM     82  C   UNL A   1      44.248  31.018  36.007  1.00  0.00     0.131 A 
ATOM     83  C   UNL A   1      43.732  28.453  36.884  1.00  0.00     0.055 A 
ATOM     84  C   UNL A   1      44.988  30.486  37.065  1.00  0.00     0.041 A 
ATOM     85  F   UNL A   1      44.614  32.242  35.590  1.00  0.00    -0.206 F 
ATOM     86  C   UNL A   1      44.740  29.196  37.502  1.00  0.00     0.022 A 
BRANCH  83  87
ATOM     87  S   UNL A   1      43.465  26.740  37.452  1.00  0.00     0.124 S 
ATOM     88  O   UNL A   1      44.126  26.736  38.751  1.00  0.00    -0.237 OA
ATOM     89  O   UNL A   1      42.010  26.635  37.462  1.00  0.00    -0.237 OA
ATOM     90  O   UNL A   1      44.127  25.932  36.426  1.00  0.00    -0.744 OA
ENDBRANCH  83  87
ENDBRANCH  56  80
BRANCH  68  91
ATOM     91  C   UNL A   1      42.463  33.951  30.256  1.00  0.00     0.023 A 
ATOM     92  C   UNL A   1      42.819  32.870  29.414  1.00  0.00     0.031 A 
ATOM     93  C   UNL A   1      43.230  35.125  30.163  1.00  0.00     0.131 A 
ATOM     94  C   UNL A   1      43.915  32.990  28.535  1.00  0.00     0.055 A 
ATOM     95  C   UNL A   1      44.298  35.249  29.276  1.00  0.00     0.041 A 
ATOM     96  F   UNL A   1      42.928  36.196  30.917  1.00  0.00    -0.206 F 
ATOM     97  C   UNL A   1      44.649  34.178  28.463  1.00  0.00     0.022 A 
BRANCH  94  98
ATOM     98  S   UNL A   1      44.425  31.593  27.479  1.00  0.00     0.124 S 
ATOM     99  O   UNL A   1      45.856  31.475  27.733  1.00  0.00    -0.237 OA
ATOM    100  O   UNL A   1      43.598  30.498  27.980  1.00  0.00    -0.237 OA
ATOM    101  O   UNL A   1      44.082  32.044  26.129  1.00  0.00    -0.744 OA
ENDBRANCH  94  98
ENDBRANCH  68  91
ENDBRANCH  42  43
ENDBRANCH  35  37
ENDBRANCH  34  35
ENDBRANCH   1  34
TORSDOF 18
ENDMDL
MODEL 3
REMARK VINA RESULT:     -13.3      1.849      2.114
REMARK SMILES COc1ccc(-c2[nH]nc3nc(-c4ccc(C(F)(F)F)cc4)cc(C(=O)OCCOC(=O)c4ccc(-c5c6nc(c(-c7cc(S(=O)(=O)[O-])ccc7F)c7ccc([nH]7)c(-c7cc(S(=O)(=O)[O-])ccc7F)c7nc(c(-c8cc(S(=O)(=O)[O-])ccc8F)c8ccc5[nH]8)C=C7)C=C6)cc4)c23)cc1
REMARK SMILES IDX 29 1 28 2 27 3 25 4 26 5 24 6 7 7 8 8 96 9 9 10 10 12 11 13
REMARK SMILES IDX 23 14 12 15 6 16 3 17 4 18 98 19 5 20 97 21 2 22 1 23 13 24
REMARK SMILES IDX 14 25 22 26 15 27 21 28 16 29 17 30 18 31 19 32 20 33 30 34
REMARK SMILES IDX 31 35 32 36 33 37 34 38 95 39 35 40 94 41 36 42 37 43 38 44
REMARK SMILES IDX 88 45 39 46 93 47 87 48 89 49 40 50 92 51 86 52 85 53 41 55
REMARK SMILES IDX 73 56 53 57 72 58 54 59 57 60 71 61 90 62 55 63 56 64 70 66
REMARK SMILES IDX 91 67 58 68 42 69 43 70 51 71 44 72 50 73 52 74 49 75 45 76
REMARK SMILES IDX 46 77 47 78 48 79 74 80 75 81 83 82 76 83 82 84 84 85 81 86
REMARK SMILES IDX 77 87 78 88 79 89 80 90 59 91 60 92 68 93 61 94 67 95 69 96
REMARK SMILES IDX 66 97 62 98 63 99 64 100 65 101
REMARK H PARENT 8 11 89 54 57 65
REMARK Flexibility Score: inf
ROOT
ATOM      1  C   UNL A   1      34.741  29.386  27.163  1.00  0.00     0.275 C 
ENDROOT
BRANCH   1   2
ATOM      2  C   UNL A   1      33.663  28.317  27.169  1.00  0.00     0.275 C 
BRANCH   2   3
ATOM      3  O   UNL A   1      33.916  27.444  26.061  1.00  0.00    -0.458 OA
BRANCH   3   4
ATOM      4  C   UNL A   1      33.090  26.383  25.902  1.00  0.00     0.339 C 
ATOM      5  O   UNL A   1      32.026  26.199  26.460  1.00  0.00    -0.246 OA
BRANCH   4   6
ATOM      6  C   UNL A   1      33.719  25.484  24.930  1.00  0.00     0.075 A 
ATOM      7  C   UNL A   1      32.167  25.556  22.920  1.00  0.00     0.075 A 
ATOM      8  N   UNL A   1      32.247  24.826  21.751  1.00  0.00    -0.275 N 
ATOM      9  C   UNL A   1      33.249  25.100  23.667  1.00  0.00     0.061 A 
ATOM     10  N   UNL A   1      33.248  23.934  21.692  1.00  0.00    -0.154 NA
ATOM     11  H   UNL A   1      31.613  24.952  21.009  1.00  0.00     0.190 HD
ATOM     12  C   UNL A   1      33.905  24.125  22.834  1.00  0.00     0.182 A 
ATOM     13  N   UNL A   1      35.044  23.479  23.202  1.00  0.00    -0.226 NA
ATOM     14  C   UNL A   1      34.918  24.830  25.260  1.00  0.00     0.045 A 
ATOM     15  C   UNL A   1      35.516  23.863  24.421  1.00  0.00     0.074 A 
BRANCH   7  16
ATOM     16  C   UNL A   1      31.186  26.644  23.032  1.00  0.00     0.001 A 
ATOM     17  C   UNL A   1      29.301  28.762  23.012  1.00  0.00     0.118 A 
ATOM     18  C   UNL A   1      28.964  27.513  23.538  1.00  0.00     0.047 A 
ATOM     19  C   UNL A   1      30.588  28.962  22.537  1.00  0.00     0.047 A 
ATOM     20  C   UNL A   1      29.896  26.458  23.544  1.00  0.00     0.014 A 
ATOM     21  C   UNL A   1      31.500  27.906  22.534  1.00  0.00     0.014 A 
BRANCH  17  22
ATOM     22  O   UNL A   1      28.349  29.742  23.067  1.00  0.00    -0.497 OA
ATOM     23  C   UNL A   1      28.857  31.056  23.302  1.00  0.00     0.278 C 
ENDBRANCH  17  22
ENDBRANCH   7  16
BRANCH  15  24
ATOM     24  C   UNL A   1      36.688  23.113  24.922  1.00  0.00     0.000 A 
ATOM     25  C   UNL A   1      36.885  21.754  24.642  1.00  0.00     0.011 A 
ATOM     26  C   UNL A   1      37.661  23.768  25.701  1.00  0.00     0.011 A 
ATOM     27  C   UNL A   1      38.018  21.076  25.118  1.00  0.00     0.014 A 
ATOM     28  C   UNL A   1      38.789  23.099  26.178  1.00  0.00     0.014 A 
ATOM     29  C   UNL A   1      38.980  21.743  25.893  1.00  0.00     0.056 A 
BRANCH  29  30
ATOM     30  C   UNL A   1      40.189  21.010  26.421  1.00  0.00     0.416 C 
ATOM     31  F   UNL A   1      41.349  21.416  25.834  1.00  0.00    -0.166 F 
ATOM     32  F   UNL A   1      40.368  21.177  27.761  1.00  0.00    -0.166 F 
ATOM     33  F   UNL A   1      40.133  19.660  26.225  1.00  0.00    -0.166 F 
ENDBRANCH  29  30
ENDBRANCH  15  24
ENDBRANCH   4   6
ENDBRANCH   3   4
ENDBRANCH   2   3
ENDBRANCH   1   2
BRANCH   1  34
ATOM     34  O   UNL A   1      35.754  29.057  28.110  1.00  0.00    -0.458 OA
BRANCH  34  35
ATOM     35  C   UNL A   1      36.714  29.974  28.381  1.00  0.00     0.338 C 
ATOM     36  O   UNL A   1      36.554  31.150  28.655  1.00  0.00    -0.246 OA
BRANCH  35  37
ATOM     37  C   UNL A   1      38.005  29.259  28.282  1.00  0.00     0.060 A 
ATOM     38  C   UNL A   1      38.415  28.378  29.286  1.00  0.00     0.016 A 
ATOM     39  C   UNL A   1      38.827  29.519  27.171  1.00  0.00     0.016 A 
ATOM     40  C   UNL A   1      39.699  27.848  29.221  1.00  0.00     0.010 A 
ATOM     41  C   UNL A   1      40.081  28.974  27.095  1.00  0.00     0.010 A 
ATOM     42  C   UNL A   1      40.538  28.206  28.156  1.00  0.00    -0.014 A 
BRANCH  42  43
ATOM     43  C   UNL A   1      41.922  27.772  28.116  1.00  0.00     0.031 A 
ATOM     44  C   UNL A   1      42.172  26.564  27.302  1.00  0.00     0.074 A 
ATOM     45  C   UNL A   1      42.917  28.505  28.658  1.00  0.00     0.049 A 
ATOM     46  N   UNL A   1      42.420  25.377  27.737  1.00  0.00    -0.248 NA
ATOM     47  C   UNL A   1      41.980  26.632  25.847  1.00  0.00     0.031 C 
ATOM     48  C   UNL A   1      42.841  29.838  29.267  1.00  0.00     0.029 A 
ATOM     49  N   UNL A   1      44.247  28.228  28.707  1.00  0.00    -0.354 N 
ATOM     50  C   UNL A   1      42.672  24.597  26.616  1.00  0.00     0.074 A 
ATOM     51  C   UNL A   1      42.195  25.362  25.494  1.00  0.00     0.031 C 
ATOM     52  C   UNL A   1      44.090  30.329  29.444  1.00  0.00     0.029 A 
ATOM     53  C   UNL A   1      45.051  29.291  29.114  1.00  0.00     0.049 A 
ATOM     54  H   UNL A   1      44.614  27.345  28.474  1.00  0.00     0.167 HD
ATOM     55  C   UNL A   1      43.466  23.493  26.706  1.00  0.00     0.034 A 
ATOM     56  C   UNL A   1      46.409  29.313  29.187  1.00  0.00     0.034 A 
ATOM     57  C   UNL A   1      43.671  23.125  28.092  1.00  0.00     0.049 A 
ATOM     58  C   UNL A   1      46.843  27.902  29.330  1.00  0.00     0.074 A 
ATOM     59  C   UNL A   1      42.838  22.750  29.128  1.00  0.00     0.029 A 
ATOM     60  N   UNL A   1      44.852  23.512  28.688  1.00  0.00    -0.354 N 
ATOM     61  N   UNL A   1      46.556  27.179  30.378  1.00  0.00    -0.248 NA
ATOM     62  C   UNL A   1      47.140  27.145  28.123  1.00  0.00     0.031 C 
ATOM     63  C   UNL A   1      43.368  23.408  30.278  1.00  0.00     0.029 A 
ATOM     64  C   UNL A   1      44.542  24.070  29.904  1.00  0.00     0.049 A 
ATOM     65  H   UNL A   1      45.755  23.407  28.311  1.00  0.00     0.167 HD
ATOM     66  C   UNL A   1      46.191  25.941  29.872  1.00  0.00     0.074 A 
ATOM     67  C   UNL A   1      46.674  25.946  28.490  1.00  0.00     0.031 C 
ATOM     68  C   UNL A   1      45.295  25.145  30.526  1.00  0.00     0.034 A 
BRANCH  55  69
ATOM     69  C   UNL A   1      44.359  22.957  25.612  1.00  0.00     0.023 A 
ATOM     70  C   UNL A   1      44.385  21.559  25.438  1.00  0.00     0.031 A 
ATOM     71  C   UNL A   1      45.381  23.676  24.956  1.00  0.00     0.131 A 
ATOM     72  C   UNL A   1      45.443  20.932  24.760  1.00  0.00     0.055 A 
ATOM     73  C   UNL A   1      46.396  23.051  24.224  1.00  0.00     0.041 A 
ATOM     74  F   UNL A   1      45.516  25.003  25.061  1.00  0.00    -0.206 F 
ATOM     75  C   UNL A   1      46.453  21.670  24.152  1.00  0.00     0.022 A 
BRANCH  72  76
ATOM     76  S   UNL A   1      45.571  19.127  24.856  1.00  0.00     0.124 S 
ATOM     77  O   UNL A   1      44.391  18.792  25.647  1.00  0.00    -0.237 OA
ATOM     78  O   UNL A   1      45.532  18.749  23.448  1.00  0.00    -0.237 OA
ATOM     79  O   UNL A   1      46.853  18.915  25.524  1.00  0.00    -0.744 OA
ENDBRANCH  72  76
ENDBRANCH  55  69
BRANCH  56  80
ATOM     80  C   UNL A   1      47.321  30.425  28.796  1.00  0.00     0.023 A 
ATOM     81  C   UNL A   1      48.304  30.962  29.656  1.00  0.00     0.031 A 
ATOM     82  C   UNL A   1      47.396  30.801  27.436  1.00  0.00     0.131 A 
ATOM     83  C   UNL A   1      49.304  31.826  29.145  1.00  0.00     0.055 A 
ATOM     84  C   UNL A   1      48.388  31.648  26.937  1.00  0.00     0.041 A 
ATOM     85  F   UNL A   1      46.554  30.283  26.526  1.00  0.00    -0.206 F 
ATOM     86  C   UNL A   1      49.355  32.156  27.789  1.00  0.00     0.022 A 
BRANCH  83  87
ATOM     87  S   UNL A   1      50.621  32.474  30.229  1.00  0.00     0.124 S 
ATOM     88  O   UNL A   1      51.512  31.327  30.358  1.00  0.00    -0.237 OA
ATOM     89  O   UNL A   1      51.128  33.609  29.465  1.00  0.00    -0.237 OA
ATOM     90  O   UNL A   1      49.908  32.835  31.456  1.00  0.00    -0.744 OA
ENDBRANCH  83  87
ENDBRANCH  56  80
BRANCH  68  91
ATOM     91  C   UNL A   1      44.914  25.518  31.948  1.00  0.00     0.023 A 
ATOM     92  C   UNL A   1      45.620  25.126  33.111  1.00  0.00     0.031 A 
ATOM     93  C   UNL A   1      43.839  26.409  32.112  1.00  0.00     0.131 A 
ATOM     94  C   UNL A   1      45.228  25.616  34.374  1.00  0.00     0.055 A 
ATOM     95  C   UNL A   1      43.470  26.909  33.359  1.00  0.00     0.041 A 
ATOM     96  F   UNL A   1      43.145  26.839  31.045  1.00  0.00    -0.206 F 
ATOM     97  C   UNL A   1      44.159  26.509  34.496  1.00  0.00     0.022 A 
BRANCH  94  98
ATOM     98  S   UNL A   1      46.089  25.083  35.892  1.00  0.00     0.124 S 
ATOM     99  O   UNL A   1      46.254  26.321  36.645  1.00  0.00    -0.237 OA
ATOM    100  O   UNL A   1      45.158  24.112  36.461  1.00  0.00    -0.237 OA
ATOM    101  O   UNL A   1      47.337  24.505  35.390  1.00  0.00    -0.744 OA
ENDBRANCH  94  98
ENDBRANCH  68  91
ENDBRANCH  42  43
ENDBRANCH  35  37
ENDBRANCH  34  35
ENDBRANCH   1  34
TORSDOF 18
ENDMDL
