MODEL 1
REMARK VINA RESULT:     -12.1      0.000      0.000
REMARK SMILES Cc1c(Cl)ccc2c1C=C(C(=O)OCCOC(=O)c1ccc(-c3c4nc(c(-c5cc(S(=O)(=O)[O-])ccc5F)c5ccc([nH]5)c(-c5cc(S(=O)(=O)[O-])ccc5F)c5nc(c(-c6cc(S(=O)(=O)[O-])ccc6F)c6ccc3[nH]6)C=C5)C=C4)cc1)[C@@H](C(F)(F)F)O2
REMARK SMILES IDX 15 1 14 2 13 3 11 4 12 5 10 6 1 7 2 8 3 9 8 10 4 11 5 12
REMARK SMILES IDX 7 13 9 14 6 15 87 16 82 17 83 18 84 19 85 20 86 21 16 22
REMARK SMILES IDX 17 23 18 24 19 25 20 26 81 27 21 28 80 29 22 30 23 31 24 32
REMARK SMILES IDX 74 33 25 34 79 35 73 36 75 37 26 38 78 39 72 40 71 41 27 43
REMARK SMILES IDX 59 44 39 45 58 46 40 47 43 48 57 49 76 50 41 51 42 52 56 54
REMARK SMILES IDX 77 55 44 56 28 57 29 58 37 59 30 60 36 61 38 62 35 63 31 64
REMARK SMILES IDX 32 65 33 66 34 67 60 68 61 69 69 70 62 71 68 72 70 73 67 74
REMARK SMILES IDX 63 75 64 76 65 77 66 78 45 79 46 80 54 81 47 82 53 83 55 84
REMARK SMILES IDX 52 85 48 86 49 87 50 88 51 89
REMARK H PARENT 75 42 43 53
REMARK Flexibility Score: inf
ROOT
ATOM      1  C   UNL A   1      32.217  30.287  26.007  1.00  0.00     0.275 C 
ENDROOT
BRANCH   1   2
ATOM      2  C   UNL A   1      32.520  29.023  25.195  1.00  0.00     0.275 C 
BRANCH   2   3
ATOM      3  O   UNL A   1      33.105  27.989  26.016  1.00  0.00    -0.459 OA
BRANCH   3   4
ATOM      4  C   UNL A   1      32.247  27.073  26.537  1.00  0.00     0.338 C 
ATOM      5  O   UNL A   1      31.386  27.282  27.368  1.00  0.00    -0.246 OA
BRANCH   4   6
ATOM      6  C   UNL A   1      32.456  25.755  25.884  1.00  0.00     0.087 C 
ATOM      7  C   UNL A   1      36.456  24.043  25.898  1.00  0.00     0.047 C 
ATOM      8  C   UNL A   1      35.263  23.376  25.254  1.00  0.00    -0.021 A 
ATOM      9  C   UNL A   1      35.395  22.064  24.750  1.00  0.00     0.044 A 
ATOM     10  C   UNL A   1      33.973  23.973  25.251  1.00  0.00     0.022 A 
ATOM     11  Cl  UNL A   1      36.906  21.220  24.742  1.00  0.00    -0.084 Cl
ATOM     12  C   UNL A   1      34.294  21.372  24.247  1.00  0.00     0.024 A 
ATOM     13  C   UNL A   1      32.868  23.238  24.798  1.00  0.00     0.128 A 
ATOM     14  C   UNL A   1      33.718  25.327  25.738  1.00  0.00     0.027 C 
ATOM     15  C   UNL A   1      33.033  21.954  24.280  1.00  0.00     0.048 A 
ATOM     16  O   UNL A   1      31.574  23.674  24.839  1.00  0.00    -0.475 OA
ATOM     17  C   UNL A   1      31.271  24.975  25.404  1.00  0.00     0.316 C 
BRANCH  17  18
ATOM     18  C   UNL A   1      30.491  25.764  24.339  1.00  0.00     0.430 C 
ATOM     19  F   UNL A   1      29.798  24.934  23.519  1.00  0.00    -0.167 F 
ATOM     20  F   UNL A   1      29.584  26.608  24.883  1.00  0.00    -0.167 F 
ATOM     21  F   UNL A   1      31.310  26.506  23.556  1.00  0.00    -0.167 F 
ENDBRANCH  17  18
ENDBRANCH   4   6
ENDBRANCH   3   4
ENDBRANCH   2   3
ENDBRANCH   1   2
BRANCH   1  22
ATOM     22  O   UNL A   1      32.940  30.292  27.250  1.00  0.00    -0.458 OA
BRANCH  22  23
ATOM     23  C   UNL A   1      33.630  31.427  27.505  1.00  0.00     0.338 C 
ATOM     24  O   UNL A   1      33.186  32.561  27.581  1.00  0.00    -0.246 OA
BRANCH  23  25
ATOM     25  C   UNL A   1      35.004  31.080  27.889  1.00  0.00     0.060 A 
ATOM     26  C   UNL A   1      35.210  29.773  28.319  1.00  0.00     0.016 A 
ATOM     27  C   UNL A   1      36.040  32.008  27.935  1.00  0.00     0.016 A 
ATOM     28  C   UNL A   1      36.435  29.381  28.837  1.00  0.00     0.010 A 
ATOM     29  C   UNL A   1      37.281  31.615  28.457  1.00  0.00     0.010 A 
ATOM     30  C   UNL A   1      37.472  30.306  28.939  1.00  0.00    -0.014 A 
BRANCH  30  31
ATOM     31  C   UNL A   1      38.705  29.912  29.656  1.00  0.00     0.031 A 
ATOM     32  C   UNL A   1      39.641  28.930  29.017  1.00  0.00     0.074 A 
ATOM     33  C   UNL A   1      39.036  30.499  30.821  1.00  0.00     0.049 A 
ATOM     34  N   UNL A   1      40.706  28.361  29.514  1.00  0.00    -0.248 NA
ATOM     35  C   UNL A   1      39.351  28.552  27.622  1.00  0.00     0.031 C 
ATOM     36  C   UNL A   1      38.281  31.574  31.462  1.00  0.00     0.029 A 
ATOM     37  N   UNL A   1      40.091  30.275  31.669  1.00  0.00    -0.354 N 
ATOM     38  C   UNL A   1      41.195  27.534  28.512  1.00  0.00     0.074 A 
ATOM     39  C   UNL A   1      40.316  27.676  27.373  1.00  0.00     0.031 C 
ATOM     40  C   UNL A   1      38.891  31.907  32.611  1.00  0.00     0.029 A 
ATOM     41  C   UNL A   1      40.032  31.019  32.824  1.00  0.00     0.049 A 
ATOM     42  H   UNL A   1      40.821  29.644  31.469  1.00  0.00     0.167 HD
ATOM     43  C   UNL A   1      42.279  26.726  28.550  1.00  0.00     0.034 A 
ATOM     44  C   UNL A   1      40.776  30.955  33.947  1.00  0.00     0.034 A 
ATOM     45  C   UNL A   1      43.154  26.614  29.687  1.00  0.00     0.049 A 
ATOM     46  C   UNL A   1      41.905  29.958  34.017  1.00  0.00     0.074 A 
ATOM     47  C   UNL A   1      44.269  25.810  29.828  1.00  0.00     0.029 A 
ATOM     48  N   UNL A   1      43.019  27.327  30.869  1.00  0.00    -0.354 N 
ATOM     49  N   UNL A   1      42.338  29.141  33.086  1.00  0.00    -0.248 NA
ATOM     50  C   UNL A   1      42.638  29.857  35.286  1.00  0.00     0.031 C 
ATOM     51  C   UNL A   1      44.774  25.991  31.116  1.00  0.00     0.029 A 
ATOM     52  C   UNL A   1      44.013  26.956  31.758  1.00  0.00     0.049 A 
ATOM     53  H   UNL A   1      42.320  27.996  31.049  1.00  0.00     0.167 HD
ATOM     54  C   UNL A   1      43.402  28.444  33.648  1.00  0.00     0.074 A 
ATOM     55  C   UNL A   1      43.558  28.945  34.998  1.00  0.00     0.031 C 
ATOM     56  C   UNL A   1      44.174  27.476  33.094  1.00  0.00     0.034 A 
BRANCH  43  57
ATOM     57  C   UNL A   1      42.579  25.865  27.354  1.00  0.00     0.023 A 
ATOM     58  C   UNL A   1      42.124  24.533  27.332  1.00  0.00     0.031 A 
ATOM     59  C   UNL A   1      43.407  26.307  26.310  1.00  0.00     0.131 A 
ATOM     60  C   UNL A   1      42.534  23.676  26.305  1.00  0.00     0.055 A 
ATOM     61  C   UNL A   1      43.786  25.457  25.269  1.00  0.00     0.041 A 
ATOM     62  F   UNL A   1      43.857  27.572  26.286  1.00  0.00    -0.206 F 
ATOM     63  C   UNL A   1      43.359  24.131  25.271  1.00  0.00     0.022 A 
BRANCH  60  64
ATOM     64  S   UNL A   1      42.049  21.929  26.300  1.00  0.00     0.124 S 
ATOM     65  O   UNL A   1      40.617  22.014  26.019  1.00  0.00    -0.237 OA
ATOM     66  O   UNL A   1      42.866  21.389  25.218  1.00  0.00    -0.237 OA
ATOM     67  O   UNL A   1      42.387  21.467  27.642  1.00  0.00    -0.744 OA
ENDBRANCH  60  64
ENDBRANCH  43  57
BRANCH  44  68
ATOM     68  C   UNL A   1      40.438  31.849  35.090  1.00  0.00     0.023 A 
ATOM     69  C   UNL A   1      39.474  31.464  36.040  1.00  0.00     0.031 A 
ATOM     70  C   UNL A   1      40.990  33.136  35.190  1.00  0.00     0.131 A 
ATOM     71  C   UNL A   1      39.034  32.384  37.000  1.00  0.00     0.055 A 
ATOM     72  C   UNL A   1      40.596  34.027  36.191  1.00  0.00     0.041 A 
ATOM     73  F   UNL A   1      41.912  33.547  34.306  1.00  0.00    -0.206 F 
ATOM     74  C   UNL A   1      39.600  33.659  37.091  1.00  0.00     0.022 A 
BRANCH  71  75
ATOM     75  S   UNL A   1      37.638  31.989  38.090  1.00  0.00     0.124 S 
ATOM     76  O   UNL A   1      38.210  32.211  39.414  1.00  0.00    -0.237 OA
ATOM     77  O   UNL A   1      36.642  32.970  37.660  1.00  0.00    -0.237 OA
ATOM     78  O   UNL A   1      37.326  30.602  37.764  1.00  0.00    -0.744 OA
ENDBRANCH  71  75
ENDBRANCH  44  68
BRANCH  56  79
ATOM     79  C   UNL A   1      45.284  26.871  33.916  1.00  0.00     0.023 A 
ATOM     80  C   UNL A   1      45.013  25.773  34.754  1.00  0.00     0.031 A 
ATOM     81  C   UNL A   1      46.537  27.498  34.015  1.00  0.00     0.131 A 
ATOM     82  C   UNL A   1      45.964  25.370  35.700  1.00  0.00     0.055 A 
ATOM     83  C   UNL A   1      47.499  27.063  34.928  1.00  0.00     0.041 A 
ATOM     84  F   UNL A   1      46.835  28.554  33.242  1.00  0.00    -0.206 F 
ATOM     85  C   UNL A   1      47.208  26.004  35.787  1.00  0.00     0.022 A 
BRANCH  82  86
ATOM     86  S   UNL A   1      45.591  24.062  36.900  1.00  0.00     0.124 S 
ATOM     87  O   UNL A   1      46.909  23.781  37.464  1.00  0.00    -0.237 OA
ATOM     88  O   UNL A   1      44.656  24.732  37.800  1.00  0.00    -0.237 OA
ATOM     89  O   UNL A   1      45.025  22.991  36.087  1.00  0.00    -0.744 OA
ENDBRANCH  82  86
ENDBRANCH  56  79
ENDBRANCH  30  31
ENDBRANCH  23  25
ENDBRANCH  22  23
ENDBRANCH   1  22
TORSDOF 15
ENDMDL
MODEL 2
REMARK VINA RESULT:     -12.1      5.046      9.829
REMARK SMILES Cc1c(Cl)ccc2c1C=C(C(=O)OCCOC(=O)c1ccc(-c3c4nc(c(-c5cc(S(=O)(=O)[O-])ccc5F)c5ccc([nH]5)c(-c5cc(S(=O)(=O)[O-])ccc5F)c5nc(c(-c6cc(S(=O)(=O)[O-])ccc6F)c6ccc3[nH]6)C=C5)C=C4)cc1)[C@@H](C(F)(F)F)O2
REMARK SMILES IDX 15 1 14 2 13 3 11 4 12 5 10 6 1 7 2 8 3 9 8 10 4 11 5 12
REMARK SMILES IDX 7 13 9 14 6 15 87 16 82 17 83 18 84 19 85 20 86 21 16 22
REMARK SMILES IDX 17 23 18 24 19 25 20 26 81 27 21 28 80 29 22 30 23 31 24 32
REMARK SMILES IDX 74 33 25 34 79 35 73 36 75 37 26 38 78 39 72 40 71 41 27 43
REMARK SMILES IDX 59 44 39 45 58 46 40 47 43 48 57 49 76 50 41 51 42 52 56 54
REMARK SMILES IDX 77 55 44 56 28 57 29 58 37 59 30 60 36 61 38 62 35 63 31 64
REMARK SMILES IDX 32 65 33 66 34 67 60 68 61 69 69 70 62 71 68 72 70 73 67 74
REMARK SMILES IDX 63 75 64 76 65 77 66 78 45 79 46 80 54 81 47 82 53 83 55 84
REMARK SMILES IDX 52 85 48 86 49 87 50 88 51 89
REMARK H PARENT 75 42 43 53
REMARK Flexibility Score: inf
ROOT
ATOM      1  C   UNL A   1      36.126  20.800  25.150  1.00  0.00     0.275 C 
ENDROOT
BRANCH   1   2
ATOM      2  C   UNL A   1      34.784  21.478  24.856  1.00  0.00     0.275 C 
BRANCH   2   3
ATOM      3  O   UNL A   1      34.879  22.916  24.956  1.00  0.00    -0.459 OA
BRANCH   3   4
ATOM      4  C   UNL A   1      34.786  23.611  23.792  1.00  0.00     0.338 C 
ATOM      5  O   UNL A   1      35.430  23.413  22.781  1.00  0.00    -0.246 OA
BRANCH   4   6
ATOM      6  C   UNL A   1      33.707  24.627  23.895  1.00  0.00     0.087 C 
ATOM      7  C   UNL A   1      34.392  28.137  26.372  1.00  0.00     0.047 C 
ATOM      8  C   UNL A   1      33.109  27.886  25.614  1.00  0.00    -0.021 A 
ATOM      9  C   UNL A   1      32.123  28.894  25.575  1.00  0.00     0.044 A 
ATOM     10  C   UNL A   1      32.912  26.718  24.829  1.00  0.00     0.022 A 
ATOM     11  Cl  UNL A   1      32.274  30.376  26.456  1.00  0.00    -0.084 Cl
ATOM     12  C   UNL A   1      30.973  28.747  24.800  1.00  0.00     0.024 A 
ATOM     13  C   UNL A   1      31.779  26.616  24.008  1.00  0.00     0.128 A 
ATOM     14  C   UNL A   1      33.860  25.607  24.797  1.00  0.00     0.027 C 
ATOM     15  C   UNL A   1      30.807  27.615  24.011  1.00  0.00     0.048 A 
ATOM     16  O   UNL A   1      31.536  25.588  23.142  1.00  0.00    -0.475 OA
ATOM     17  C   UNL A   1      32.501  24.513  23.013  1.00  0.00     0.316 C 
BRANCH  17  18
ATOM     18  C   UNL A   1      31.754  23.195  23.276  1.00  0.00     0.430 C 
ATOM     19  F   UNL A   1      32.284  22.174  22.557  1.00  0.00    -0.167 F 
ATOM     20  F   UNL A   1      31.814  22.817  24.575  1.00  0.00    -0.167 F 
ATOM     21  F   UNL A   1      30.443  23.279  22.945  1.00  0.00    -0.167 F 
ENDBRANCH  17  18
ENDBRANCH   4   6
ENDBRANCH   3   4
ENDBRANCH   2   3
ENDBRANCH   1   2
BRANCH   1  22
ATOM     22  O   UNL A   1      37.201  21.755  25.153  1.00  0.00    -0.458 OA
BRANCH  22  23
ATOM     23  C   UNL A   1      38.367  21.301  25.667  1.00  0.00     0.338 C 
ATOM     24  O   UNL A   1      38.894  20.219  25.461  1.00  0.00    -0.246 OA
BRANCH  23  25
ATOM     25  C   UNL A   1      39.041  22.396  26.374  1.00  0.00     0.060 A 
ATOM     26  C   UNL A   1      38.579  23.680  26.104  1.00  0.00     0.016 A 
ATOM     27  C   UNL A   1      40.152  22.206  27.191  1.00  0.00     0.016 A 
ATOM     28  C   UNL A   1      39.235  24.792  26.607  1.00  0.00     0.010 A 
ATOM     29  C   UNL A   1      40.818  23.328  27.703  1.00  0.00     0.010 A 
ATOM     30  C   UNL A   1      40.379  24.627  27.387  1.00  0.00    -0.014 A 
BRANCH  30  31
ATOM     31  C   UNL A   1      41.159  25.827  27.762  1.00  0.00     0.031 A 
ATOM     32  C   UNL A   1      40.512  26.888  28.602  1.00  0.00     0.074 A 
ATOM     33  C   UNL A   1      42.461  25.924  27.439  1.00  0.00     0.049 A 
ATOM     34  N   UNL A   1      40.969  28.063  28.943  1.00  0.00    -0.248 NA
ATOM     35  C   UNL A   1      39.180  26.576  29.150  1.00  0.00     0.031 C 
ATOM     36  C   UNL A   1      43.235  24.889  26.756  1.00  0.00     0.029 A 
ATOM     37  N   UNL A   1      43.363  26.938  27.644  1.00  0.00    -0.354 N 
ATOM     38  C   UNL A   1      39.972  28.646  29.714  1.00  0.00     0.074 A 
ATOM     39  C   UNL A   1      38.886  27.695  29.799  1.00  0.00     0.031 C 
ATOM     40  C   UNL A   1      44.493  25.327  26.586  1.00  0.00     0.029 A 
ATOM     41  C   UNL A   1      44.593  26.700  27.077  1.00  0.00     0.049 A 
ATOM     42  H   UNL A   1      43.149  27.757  28.149  1.00  0.00     0.167 HD
ATOM     43  C   UNL A   1      39.970  29.869  30.292  1.00  0.00     0.034 A 
ATOM     44  C   UNL A   1      45.658  27.513  26.922  1.00  0.00     0.034 A 
ATOM     45  C   UNL A   1      41.070  30.793  30.213  1.00  0.00     0.049 A 
ATOM     46  C   UNL A   1      45.589  28.918  27.465  1.00  0.00     0.074 A 
ATOM     47  C   UNL A   1      41.157  32.063  30.751  1.00  0.00     0.029 A 
ATOM     48  N   UNL A   1      42.271  30.547  29.565  1.00  0.00    -0.354 N 
ATOM     49  N   UNL A   1      44.626  29.485  28.153  1.00  0.00    -0.248 NA
ATOM     50  C   UNL A   1      46.734  29.800  27.202  1.00  0.00     0.031 C 
ATOM     51  C   UNL A   1      42.385  32.609  30.378  1.00  0.00     0.029 A 
ATOM     52  C   UNL A   1      43.093  31.656  29.662  1.00  0.00     0.049 A 
ATOM     53  H   UNL A   1      42.504  29.709  29.104  1.00  0.00     0.167 HD
ATOM     54  C   UNL A   1      45.056  30.781  28.420  1.00  0.00     0.074 A 
ATOM     55  C   UNL A   1      46.373  30.911  27.831  1.00  0.00     0.031 C 
ATOM     56  C   UNL A   1      44.413  31.770  29.090  1.00  0.00     0.034 A 
BRANCH  43  57
ATOM     57  C   UNL A   1      38.739  30.314  31.034  1.00  0.00     0.023 A 
ATOM     58  C   UNL A   1      37.720  30.989  30.336  1.00  0.00     0.031 A 
ATOM     59  C   UNL A   1      38.628  30.190  32.428  1.00  0.00     0.131 A 
ATOM     60  C   UNL A   1      36.650  31.550  31.040  1.00  0.00     0.055 A 
ATOM     61  C   UNL A   1      37.540  30.722  33.123  1.00  0.00     0.041 A 
ATOM     62  F   UNL A   1      39.572  29.546  33.133  1.00  0.00    -0.206 F 
ATOM     63  C   UNL A   1      36.552  31.418  32.429  1.00  0.00     0.022 A 
BRANCH  60  64
ATOM     64  S   UNL A   1      35.373  32.512  30.185  1.00  0.00     0.124 S 
ATOM     65  O   UNL A   1      34.364  32.669  31.231  1.00  0.00    -0.237 OA
ATOM     66  O   UNL A   1      36.095  33.727  29.826  1.00  0.00    -0.237 OA
ATOM     67  O   UNL A   1      34.977  31.657  29.071  1.00  0.00    -0.744 OA
ENDBRANCH  60  64
ENDBRANCH  43  57
BRANCH  44  68
ATOM     68  C   UNL A   1      46.855  27.004  26.193  1.00  0.00     0.023 A 
ATOM     69  C   UNL A   1      47.878  26.326  26.881  1.00  0.00     0.031 A 
ATOM     70  C   UNL A   1      47.042  27.278  24.829  1.00  0.00     0.131 A 
ATOM     71  C   UNL A   1      49.074  26.016  26.222  1.00  0.00     0.055 A 
ATOM     72  C   UNL A   1      48.210  26.907  24.160  1.00  0.00     0.041 A 
ATOM     73  F   UNL A   1      46.093  27.923  24.132  1.00  0.00    -0.206 F 
ATOM     74  C   UNL A   1      49.241  26.288  24.862  1.00  0.00     0.022 A 
BRANCH  71  75
ATOM     75  S   UNL A   1      50.489  25.346  27.140  1.00  0.00     0.124 S 
ATOM     76  O   UNL A   1      51.393  24.950  26.064  1.00  0.00    -0.237 OA
ATOM     77  O   UNL A   1      50.910  26.508  27.921  1.00  0.00    -0.237 OA
ATOM     78  O   UNL A   1      49.913  24.251  27.913  1.00  0.00    -0.744 OA
ENDBRANCH  71  75
ENDBRANCH  44  68
BRANCH  56  79
ATOM     79  C   UNL A   1      45.099  33.102  29.255  1.00  0.00     0.023 A 
ATOM     80  C   UNL A   1      44.962  34.086  28.258  1.00  0.00     0.031 A 
ATOM     81  C   UNL A   1      46.031  33.316  30.284  1.00  0.00     0.131 A 
ATOM     82  C   UNL A   1      45.789  35.216  28.278  1.00  0.00     0.055 A 
ATOM     83  C   UNL A   1      46.819  34.466  30.325  1.00  0.00     0.041 A 
ATOM     84  F   UNL A   1      46.201  32.400  31.251  1.00  0.00    -0.206 F 
ATOM     85  C   UNL A   1      46.712  35.415  29.310  1.00  0.00     0.022 A 
BRANCH  82  86
ATOM     86  S   UNL A   1      45.750  36.426  26.928  1.00  0.00     0.124 S 
ATOM     87  O   UNL A   1      46.147  35.615  25.779  1.00  0.00    -0.237 OA
ATOM     88  O   UNL A   1      44.353  36.851  26.939  1.00  0.00    -0.237 OA
ATOM     89  O   UNL A   1      46.720  37.437  27.335  1.00  0.00    -0.744 OA
ENDBRANCH  82  86
ENDBRANCH  56  79
ENDBRANCH  30  31
ENDBRANCH  23  25
ENDBRANCH  22  23
ENDBRANCH   1  22
TORSDOF 15
ENDMDL
MODEL 3
REMARK VINA RESULT:     -12.0      5.123      9.968
REMARK SMILES Cc1c(Cl)ccc2c1C=C(C(=O)OCCOC(=O)c1ccc(-c3c4nc(c(-c5cc(S(=O)(=O)[O-])ccc5F)c5ccc([nH]5)c(-c5cc(S(=O)(=O)[O-])ccc5F)c5nc(c(-c6cc(S(=O)(=O)[O-])ccc6F)c6ccc3[nH]6)C=C5)C=C4)cc1)[C@@H](C(F)(F)F)O2
REMARK SMILES IDX 15 1 14 2 13 3 11 4 12 5 10 6 1 7 2 8 3 9 8 10 4 11 5 12
REMARK SMILES IDX 7 13 9 14 6 15 87 16 82 17 83 18 84 19 85 20 86 21 16 22
REMARK SMILES IDX 17 23 18 24 19 25 20 26 81 27 21 28 80 29 22 30 23 31 24 32
REMARK SMILES IDX 74 33 25 34 79 35 73 36 75 37 26 38 78 39 72 40 71 41 27 43
REMARK SMILES IDX 59 44 39 45 58 46 40 47 43 48 57 49 76 50 41 51 42 52 56 54
REMARK SMILES IDX 77 55 44 56 28 57 29 58 37 59 30 60 36 61 38 62 35 63 31 64
REMARK SMILES IDX 32 65 33 66 34 67 60 68 61 69 69 70 62 71 68 72 70 73 67 74
REMARK SMILES IDX 63 75 64 76 65 77 66 78 45 79 46 80 54 81 47 82 53 83 55 84
REMARK SMILES IDX 52 85 48 86 49 87 50 88 51 89
REMARK H PARENT 75 42 43 53
REMARK Flexibility Score: inf
ROOT
ATOM      1  C   UNL A   1      37.369  20.671  24.620  1.00  0.00     0.275 C 
ENDROOT
BRANCH   1   2
ATOM      2  C   UNL A   1      36.040  20.522  25.368  1.00  0.00     0.275 C 
BRANCH   2   3
ATOM      3  O   UNL A   1      35.655  21.752  26.022  1.00  0.00    -0.459 OA
BRANCH   3   4
ATOM      4  C   UNL A   1      34.323  22.012  26.085  1.00  0.00     0.338 C 
ATOM      5  O   UNL A   1      33.540  21.570  26.902  1.00  0.00    -0.246 OA
BRANCH   4   6
ATOM      6  C   UNL A   1      33.950  22.997  25.037  1.00  0.00     0.087 C 
ATOM      7  C   UNL A   1      33.879  27.218  26.091  1.00  0.00     0.047 C 
ATOM      8  C   UNL A   1      33.535  26.693  24.716  1.00  0.00    -0.021 A 
ATOM      9  C   UNL A   1      33.315  27.607  23.664  1.00  0.00     0.044 A 
ATOM     10  C   UNL A   1      33.550  25.305  24.412  1.00  0.00     0.022 A 
ATOM     11  Cl  UNL A   1      33.317  29.321  23.907  1.00  0.00    -0.084 Cl
ATOM     12  C   UNL A   1      33.102  27.165  22.359  1.00  0.00     0.024 A 
ATOM     13  C   UNL A   1      33.394  24.883  23.083  1.00  0.00     0.128 A 
ATOM     14  C   UNL A   1      33.758  24.268  25.420  1.00  0.00     0.027 C 
ATOM     15  C   UNL A   1      33.151  25.808  22.068  1.00  0.00     0.048 A 
ATOM     16  O   UNL A   1      33.488  23.587  22.662  1.00  0.00    -0.475 OA
ATOM     17  C   UNL A   1      33.789  22.540  23.620  1.00  0.00     0.316 C 
BRANCH  17  18
ATOM     18  C   UNL A   1      32.674  21.486  23.508  1.00  0.00     0.430 C 
ATOM     19  F   UNL A   1      32.174  21.428  22.248  1.00  0.00    -0.167 F 
ATOM     20  F   UNL A   1      33.110  20.239  23.804  1.00  0.00    -0.167 F 
ATOM     21  F   UNL A   1      31.637  21.754  24.337  1.00  0.00    -0.167 F 
ENDBRANCH  17  18
ENDBRANCH   4   6
ENDBRANCH   3   4
ENDBRANCH   2   3
ENDBRANCH   1   2
BRANCH   1  22
ATOM     22  O   UNL A   1      38.150  21.753  25.157  1.00  0.00    -0.458 OA
BRANCH  22  23
ATOM     23  C   UNL A   1      39.148  21.379  25.990  1.00  0.00     0.338 C 
ATOM     24  O   UNL A   1      39.678  20.282  26.062  1.00  0.00    -0.246 OA
BRANCH  23  25
ATOM     25  C   UNL A   1      39.666  22.563  26.685  1.00  0.00     0.060 A 
ATOM     26  C   UNL A   1      39.209  23.794  26.227  1.00  0.00     0.016 A 
ATOM     27  C   UNL A   1      40.641  22.499  27.677  1.00  0.00     0.016 A 
ATOM     28  C   UNL A   1      39.740  24.977  26.717  1.00  0.00     0.010 A 
ATOM     29  C   UNL A   1      41.180  23.694  28.176  1.00  0.00     0.010 A 
ATOM     30  C   UNL A   1      40.752  24.937  27.674  1.00  0.00    -0.014 A 
BRANCH  30  31
ATOM     31  C   UNL A   1      41.424  26.201  28.049  1.00  0.00     0.031 A 
ATOM     32  C   UNL A   1      40.665  27.227  28.838  1.00  0.00     0.074 A 
ATOM     33  C   UNL A   1      42.726  26.391  27.773  1.00  0.00     0.049 A 
ATOM     34  N   UNL A   1      41.016  28.441  29.166  1.00  0.00    -0.248 NA
ATOM     35  C   UNL A   1      39.340  26.825  29.343  1.00  0.00     0.031 C 
ATOM     36  C   UNL A   1      43.603  25.405  27.145  1.00  0.00     0.029 A 
ATOM     37  N   UNL A   1      43.539  27.476  27.987  1.00  0.00    -0.354 N 
ATOM     38  C   UNL A   1      39.948  28.961  29.885  1.00  0.00     0.074 A 
ATOM     39  C   UNL A   1      38.936  27.932  29.952  1.00  0.00     0.031 C 
ATOM     40  C   UNL A   1      44.829  25.935  27.013  1.00  0.00     0.029 A 
ATOM     41  C   UNL A   1      44.805  27.321  27.473  1.00  0.00     0.049 A 
ATOM     42  H   UNL A   1      43.244  28.287  28.464  1.00  0.00     0.167 HD
ATOM     43  C   UNL A   1      39.830  30.193  30.431  1.00  0.00     0.034 A 
ATOM     44  C   UNL A   1      45.811  28.210  27.338  1.00  0.00     0.034 A 
ATOM     45  C   UNL A   1      40.859  31.197  30.371  1.00  0.00     0.049 A 
ATOM     46  C   UNL A   1      45.613  29.617  27.843  1.00  0.00     0.074 A 
ATOM     47  C   UNL A   1      40.827  32.481  30.881  1.00  0.00     0.029 A 
ATOM     48  N   UNL A   1      42.100  31.031  29.775  1.00  0.00    -0.354 N 
ATOM     49  N   UNL A   1      44.583  30.123  28.480  1.00  0.00    -0.248 NA
ATOM     50  C   UNL A   1      46.697  30.579  27.602  1.00  0.00     0.031 C 
ATOM     51  C   UNL A   1      42.024  33.113  30.541  1.00  0.00     0.029 A 
ATOM     52  C   UNL A   1      42.831  32.202  29.876  1.00  0.00     0.049 A 
ATOM     53  H   UNL A   1      42.415  30.204  29.345  1.00  0.00     0.167 HD
ATOM     54  C   UNL A   1      44.902  31.454  28.732  1.00  0.00     0.074 A 
ATOM     55  C   UNL A   1      46.227  31.673  28.190  1.00  0.00     0.031 C 
ATOM     56  C   UNL A   1      44.160  32.405  29.352  1.00  0.00     0.034 A 
BRANCH  43  57
ATOM     57  C   UNL A   1      38.541  30.558  31.115  1.00  0.00     0.023 A 
ATOM     58  C   UNL A   1      37.546  31.242  30.391  1.00  0.00     0.031 A 
ATOM     59  C   UNL A   1      38.345  30.350  32.489  1.00  0.00     0.131 A 
ATOM     60  C   UNL A   1      36.415  31.730  31.054  1.00  0.00     0.055 A 
ATOM     61  C   UNL A   1      37.198  30.809  33.141  1.00  0.00     0.041 A 
ATOM     62  F   UNL A   1      39.263  29.694  33.218  1.00  0.00    -0.206 F 
ATOM     63  C   UNL A   1      36.233  31.514  32.424  1.00  0.00     0.022 A 
BRANCH  60  64
ATOM     64  S   UNL A   1      35.165  32.702  30.173  1.00  0.00     0.124 S 
ATOM     65  O   UNL A   1      34.195  32.976  31.232  1.00  0.00    -0.237 OA
ATOM     66  O   UNL A   1      35.937  33.854  29.719  1.00  0.00    -0.237 OA
ATOM     67  O   UNL A   1      34.694  31.801  29.125  1.00  0.00    -0.744 OA
ENDBRANCH  60  64
ENDBRANCH  43  57
BRANCH  44  68
ATOM     68  C   UNL A   1      47.070  27.779  26.668  1.00  0.00     0.023 A 
ATOM     69  C   UNL A   1      47.253  27.984  25.288  1.00  0.00     0.031 A 
ATOM     70  C   UNL A   1      48.056  27.067  27.369  1.00  0.00     0.131 A 
ATOM     71  C   UNL A   1      48.356  27.415  24.638  1.00  0.00     0.055 A 
ATOM     72  C   UNL A   1      49.188  26.558  26.728  1.00  0.00     0.041 A 
ATOM     73  F   UNL A   1      47.924  26.847  28.686  1.00  0.00    -0.206 F 
ATOM     74  C   UNL A   1      49.332  26.715  25.352  1.00  0.00     0.022 A 
BRANCH  71  75
ATOM     75  S   UNL A   1      48.497  27.473  22.830  1.00  0.00     0.124 S 
ATOM     76  O   UNL A   1      49.782  28.140  22.644  1.00  0.00    -0.237 OA
ATOM     77  O   UNL A   1      48.467  26.053  22.486  1.00  0.00    -0.237 OA
ATOM     78  O   UNL A   1      47.326  28.239  22.416  1.00  0.00    -0.744 OA
ENDBRANCH  71  75
ENDBRANCH  44  68
BRANCH  56  79
ATOM     79  C   UNL A   1      44.735  33.789  29.510  1.00  0.00     0.023 A 
ATOM     80  C   UNL A   1      44.737  34.674  28.415  1.00  0.00     0.031 A 
ATOM     81  C   UNL A   1      45.447  34.151  30.665  1.00  0.00     0.131 A 
ATOM     82  C   UNL A   1      45.487  35.854  28.476  1.00  0.00     0.055 A 
ATOM     83  C   UNL A   1      46.156  35.351  30.738  1.00  0.00     0.041 A 
ATOM     84  F   UNL A   1      45.481  33.334  31.730  1.00  0.00    -0.206 F 
ATOM     85  C   UNL A   1      46.191  36.201  29.634  1.00  0.00     0.022 A 
BRANCH  82  86
ATOM     86  S   UNL A   1      45.638  36.940  27.031  1.00  0.00     0.124 S 
ATOM     87  O   UNL A   1      44.276  37.447  26.886  1.00  0.00    -0.237 OA
ATOM     88  O   UNL A   1      46.623  37.917  27.486  1.00  0.00    -0.237 OA
ATOM     89  O   UNL A   1      46.081  36.047  25.966  1.00  0.00    -0.744 OA
ENDBRANCH  82  86
ENDBRANCH  56  79
ENDBRANCH  30  31
ENDBRANCH  23  25
ENDBRANCH  22  23
ENDBRANCH   1  22
TORSDOF 15
ENDMDL
