MODEL 1
REMARK VINA RESULT:     -12.3      0.000      0.000
REMARK SMILES CCOC(=O)c1c(NC(=O)[C@@H]2[C@@H](C(=O)OCCOC(=O)c3ccc(-c4c5nc(c(-c6cc(S(=O)(=O)[O-])ccc6F)c6ccc([nH]6)c(-c6cc(S(=O)(=O)[O-])ccc6F)c6nc(c(-c7cc(S(=O)(=O)[O-])ccc7F)c7ccc4[nH]7)C=C6)C=C5)cc3)[C@@H]3C=C[C@H]2CC3)sc2c1CCC2
REMARK SMILES IDX 16 1 15 2 13 3 14 4 12 5 11 6 87 7 84 8 86 9 88 10 85 11
REMARK SMILES IDX 89 12 9 13 8 14 10 16 7 17 6 18 92 19 90 20 91 21 93 22
REMARK SMILES IDX 95 23 94 24 4 25 5 26 3 27 2 28 1 29 17 30 18 31 19 32 20 33
REMARK SMILES IDX 21 34 22 35 83 36 23 37 82 38 24 39 25 40 26 41 76 42 27 43
REMARK SMILES IDX 81 44 75 45 77 46 28 47 80 48 74 49 73 50 29 52 61 53 41 54
REMARK SMILES IDX 60 55 42 56 45 57 59 58 78 59 43 60 44 61 58 63 79 64 46 65
REMARK SMILES IDX 30 66 31 67 39 68 32 69 38 70 40 71 37 72 33 73 34 74 35 75
REMARK SMILES IDX 36 76 62 77 63 78 71 79 64 80 70 81 72 82 69 83 65 84 66 85
REMARK SMILES IDX 67 86 68 87 47 88 48 89 56 90 49 91 55 92 57 93 54 94 50 95
REMARK SMILES IDX 51 96 52 97 53 98
REMARK H PARENT 8 15 77 51 45 62
REMARK Flexibility Score: inf
ROOT
ATOM      1  C   UNL A   1      34.417  29.055  26.567  1.00  0.00     0.274 C 
ENDROOT
BRANCH   1   2
ATOM      2  O   UNL A   1      33.254  28.247  26.824  1.00  0.00    -0.462 OA
BRANCH   2   3
ATOM      3  C   UNL A   1      32.092  28.692  26.260  1.00  0.00     0.310 C 
ATOM      4  O   UNL A   1      31.669  29.838  26.370  1.00  0.00    -0.252 OA
BRANCH   3   5
ATOM      5  C   UNL A   1      31.329  27.563  25.592  1.00  0.00     0.119 C 
ATOM      6  C   UNL A   1      32.200  26.220  25.450  1.00  0.00     0.100 C 
ATOM      7  C   UNL A   1      32.488  26.116  23.933  1.00  0.00     0.025 C 
ATOM      8  C   UNL A   1      30.916  28.107  24.181  1.00  0.00     0.026 C 
ATOM      9  C   UNL A   1      31.168  25.928  23.229  1.00  0.00    -0.027 C 
ATOM     10  C   UNL A   1      33.194  27.394  23.436  1.00  0.00     0.009 C 
ATOM     11  C   UNL A   1      30.324  26.956  23.392  1.00  0.00    -0.027 C 
ATOM     12  C   UNL A   1      32.179  28.539  23.386  1.00  0.00     0.009 C 
BRANCH   6  13
ATOM     13  C   UNL A   1      31.478  24.997  26.123  1.00  0.00     0.229 C 
ATOM     14  N   UNL A   1      31.991  23.739  26.349  1.00  0.00    -0.317 N 
ATOM     15  H   UNL A   1      31.409  23.146  26.876  1.00  0.00     0.170 HD
ATOM     16  O   UNL A   1      30.306  25.133  26.507  1.00  0.00    -0.274 OA
BRANCH  14  17
ATOM     17  C   UNL A   1      33.185  23.175  25.960  1.00  0.00     0.110 A 
ATOM     18  C   UNL A   1      33.620  22.685  24.725  1.00  0.00     0.098 A 
ATOM     19  C   UNL A   1      35.039  22.833  24.717  1.00  0.00    -0.017 A 
ATOM     20  S   UNL A   1      34.354  22.696  27.147  1.00  0.00    -0.122 S 
ATOM     21  C   UNL A   1      35.523  23.016  25.980  1.00  0.00     0.011 A 
ATOM     22  C   UNL A   1      36.125  22.954  23.709  1.00  0.00     0.038 C 
ATOM     23  C   UNL A   1      36.921  23.481  26.030  1.00  0.00     0.047 C 
ATOM     24  C   UNL A   1      37.404  23.066  24.610  1.00  0.00     0.010 C 
BRANCH  18  25
ATOM     25  C   UNL A   1      32.814  22.267  23.606  1.00  0.00     0.341 C 
ATOM     26  O   UNL A   1      32.809  22.818  22.496  1.00  0.00    -0.246 OA
BRANCH  25  27
ATOM     27  O   UNL A   1      31.999  21.250  23.984  1.00  0.00    -0.462 OA
BRANCH  27  28
ATOM     28  C   UNL A   1      32.580  20.051  24.512  1.00  0.00     0.230 C 
ATOM     29  C   UNL A   1      32.544  18.907  23.512  1.00  0.00     0.049 C 
ENDBRANCH  27  28
ENDBRANCH  25  27
ENDBRANCH  18  25
ENDBRANCH  14  17
ENDBRANCH   6  13
ENDBRANCH   3   5
ENDBRANCH   2   3
ENDBRANCH   1   2
BRANCH   1  30
ATOM     30  C   UNL A   1      34.848  29.883  27.772  1.00  0.00     0.275 C 
BRANCH  30  31
ATOM     31  O   UNL A   1      36.220  30.259  27.702  1.00  0.00    -0.458 OA
BRANCH  31  32
ATOM     32  C   UNL A   1      36.957  29.900  28.780  1.00  0.00     0.338 C 
ATOM     33  O   UNL A   1      36.854  30.336  29.914  1.00  0.00    -0.246 OA
BRANCH  32  34
ATOM     34  C   UNL A   1      38.044  29.016  28.361  1.00  0.00     0.060 A 
ATOM     35  C   UNL A   1      38.469  28.066  29.290  1.00  0.00     0.016 A 
ATOM     36  C   UNL A   1      38.810  29.360  27.238  1.00  0.00     0.016 A 
ATOM     37  C   UNL A   1      39.776  27.643  29.223  1.00  0.00     0.010 A 
ATOM     38  C   UNL A   1      40.114  28.937  27.176  1.00  0.00     0.010 A 
ATOM     39  C   UNL A   1      40.608  28.169  28.223  1.00  0.00    -0.014 A 
BRANCH  39  40
ATOM     40  C   UNL A   1      41.998  27.768  28.211  1.00  0.00     0.031 A 
ATOM     41  C   UNL A   1      42.178  26.527  27.431  1.00  0.00     0.074 A 
ATOM     42  C   UNL A   1      42.994  28.480  28.773  1.00  0.00     0.049 A 
ATOM     43  N   UNL A   1      42.305  25.333  27.902  1.00  0.00    -0.248 NA
ATOM     44  C   UNL A   1      41.909  26.575  25.985  1.00  0.00     0.031 C 
ATOM     45  C   UNL A   1      42.947  29.824  29.354  1.00  0.00     0.029 A 
ATOM     46  N   UNL A   1      44.310  28.154  28.885  1.00  0.00    -0.354 N 
ATOM     47  C   UNL A   1      42.424  24.515  26.790  1.00  0.00     0.074 A 
ATOM     48  C   UNL A   1      41.914  25.275  25.683  1.00  0.00     0.031 C 
ATOM     49  C   UNL A   1      44.211  30.278  29.545  1.00  0.00     0.029 A 
ATOM     50  C   UNL A   1      45.150  29.209  29.242  1.00  0.00     0.049 A 
ATOM     51  H   UNL A   1      44.645  27.243  28.725  1.00  0.00     0.167 HD
ATOM     52  C   UNL A   1      43.226  23.419  26.834  1.00  0.00     0.034 A 
ATOM     53  C   UNL A   1      46.514  29.199  29.246  1.00  0.00     0.034 A 
ATOM     54  C   UNL A   1      43.527  23.061  28.205  1.00  0.00     0.049 A 
ATOM     55  C   UNL A   1      46.913  27.770  29.354  1.00  0.00     0.074 A 
ATOM     56  C   UNL A   1      42.784  22.670  29.301  1.00  0.00     0.029 A 
ATOM     57  N   UNL A   1      44.738  23.485  28.705  1.00  0.00    -0.354 N 
ATOM     58  N   UNL A   1      46.652  27.033  30.400  1.00  0.00    -0.248 NA
ATOM     59  C   UNL A   1      47.137  27.031  28.122  1.00  0.00     0.031 C 
ATOM     60  C   UNL A   1      43.406  23.303  30.419  1.00  0.00     0.029 A 
ATOM     61  C   UNL A   1      44.546  23.978  29.972  1.00  0.00     0.049 A 
ATOM     62  H   UNL A   1      45.600  23.442  28.232  1.00  0.00     0.167 HD
ATOM     63  C   UNL A   1      46.246  25.809  29.890  1.00  0.00     0.074 A 
ATOM     64  C   UNL A   1      46.649  25.840  28.484  1.00  0.00     0.031 C 
ATOM     65  C   UNL A   1      45.371  25.013  30.578  1.00  0.00     0.034 A 
BRANCH  52  66
ATOM     66  C   UNL A   1      44.089  22.963  25.678  1.00  0.00     0.023 A 
ATOM     67  C   UNL A   1      43.964  21.618  25.286  1.00  0.00     0.031 A 
ATOM     68  C   UNL A   1      45.208  23.653  25.156  1.00  0.00     0.131 A 
ATOM     69  C   UNL A   1      44.960  20.996  24.516  1.00  0.00     0.055 A 
ATOM     70  C   UNL A   1      46.163  23.047  24.337  1.00  0.00     0.041 A 
ATOM     71  F   UNL A   1      45.506  24.917  25.473  1.00  0.00    -0.206 F 
ATOM     72  C   UNL A   1      46.061  21.702  24.038  1.00  0.00     0.022 A 
BRANCH  69  73
ATOM     73  S   UNL A   1      44.875  19.204  24.290  1.00  0.00     0.124 S 
ATOM     74  O   UNL A   1      43.828  18.839  25.239  1.00  0.00    -0.237 OA
ATOM     75  O   UNL A   1      44.532  19.095  22.877  1.00  0.00    -0.237 OA
ATOM     76  O   UNL A   1      46.221  18.756  24.641  1.00  0.00    -0.744 OA
ENDBRANCH  69  73
ENDBRANCH  52  66
BRANCH  53  77
ATOM     77  C   UNL A   1      47.419  30.253  28.683  1.00  0.00     0.023 A 
ATOM     78  C   UNL A   1      46.987  31.246  27.767  1.00  0.00     0.031 A 
ATOM     79  C   UNL A   1      48.694  30.452  29.261  1.00  0.00     0.131 A 
ATOM     80  C   UNL A   1      47.815  32.363  27.473  1.00  0.00     0.055 A 
ATOM     81  C   UNL A   1      49.499  31.557  28.973  1.00  0.00     0.041 A 
ATOM     82  F   UNL A   1      49.169  29.618  30.199  1.00  0.00    -0.206 F 
ATOM     83  C   UNL A   1      49.059  32.522  28.084  1.00  0.00     0.022 A 
BRANCH  80  84
ATOM     84  S   UNL A   1      47.260  33.678  26.330  1.00  0.00     0.124 S 
ATOM     85  O   UNL A   1      48.406  33.820  25.439  1.00  0.00    -0.237 OA
ATOM     86  O   UNL A   1      46.052  33.103  25.750  1.00  0.00    -0.237 OA
ATOM     87  O   UNL A   1      47.028  34.823  27.212  1.00  0.00    -0.744 OA
ENDBRANCH  80  84
ENDBRANCH  53  77
BRANCH  65  88
ATOM     88  C   UNL A   1      45.133  25.311  32.050  1.00  0.00     0.023 A 
ATOM     89  C   UNL A   1      45.900  24.822  33.134  1.00  0.00     0.031 A 
ATOM     90  C   UNL A   1      44.108  26.230  32.341  1.00  0.00     0.131 A 
ATOM     91  C   UNL A   1      45.615  25.254  34.449  1.00  0.00     0.055 A 
ATOM     92  C   UNL A   1      43.849  26.674  33.636  1.00  0.00     0.041 A 
ATOM     93  F   UNL A   1      43.352  26.741  31.355  1.00  0.00    -0.206 F 
ATOM     94  C   UNL A   1      44.598  26.183  34.697  1.00  0.00     0.022 A 
BRANCH  91  95
ATOM     95  S   UNL A   1      46.533  24.594  35.882  1.00  0.00     0.124 S 
ATOM     96  O   UNL A   1      47.855  25.192  35.745  1.00  0.00    -0.237 OA
ATOM     97  O   UNL A   1      45.733  25.059  37.012  1.00  0.00    -0.237 OA
ATOM     98  O   UNL A   1      46.498  23.145  35.670  1.00  0.00    -0.744 OA
ENDBRANCH  91  95
ENDBRANCH  65  88
ENDBRANCH  39  40
ENDBRANCH  32  34
ENDBRANCH  31  32
ENDBRANCH  30  31
ENDBRANCH   1  30
TORSDOF 19
ENDMDL
MODEL 2
REMARK VINA RESULT:     -12.2      2.204      7.168
REMARK SMILES CCOC(=O)c1c(NC(=O)[C@@H]2[C@@H](C(=O)OCCOC(=O)c3ccc(-c4c5nc(c(-c6cc(S(=O)(=O)[O-])ccc6F)c6ccc([nH]6)c(-c6cc(S(=O)(=O)[O-])ccc6F)c6nc(c(-c7cc(S(=O)(=O)[O-])ccc7F)c7ccc4[nH]7)C=C6)C=C5)cc3)[C@@H]3C=C[C@H]2CC3)sc2c1CCC2
REMARK SMILES IDX 16 1 15 2 13 3 14 4 12 5 11 6 87 7 84 8 86 9 88 10 85 11
REMARK SMILES IDX 89 12 9 13 8 14 10 16 7 17 6 18 92 19 90 20 91 21 93 22
REMARK SMILES IDX 95 23 94 24 4 25 5 26 3 27 2 28 1 29 17 30 18 31 19 32 20 33
REMARK SMILES IDX 21 34 22 35 83 36 23 37 82 38 24 39 25 40 26 41 76 42 27 43
REMARK SMILES IDX 81 44 75 45 77 46 28 47 80 48 74 49 73 50 29 52 61 53 41 54
REMARK SMILES IDX 60 55 42 56 45 57 59 58 78 59 43 60 44 61 58 63 79 64 46 65
REMARK SMILES IDX 30 66 31 67 39 68 32 69 38 70 40 71 37 72 33 73 34 74 35 75
REMARK SMILES IDX 36 76 62 77 63 78 71 79 64 80 70 81 72 82 69 83 65 84 66 85
REMARK SMILES IDX 67 86 68 87 47 88 48 89 56 90 49 91 55 92 57 93 54 94 50 95
REMARK SMILES IDX 51 96 52 97 53 98
REMARK H PARENT 8 15 77 51 45 62
REMARK Flexibility Score: inf
ROOT
ATOM      1  C   UNL A   1      32.222  29.863  27.274  1.00  0.00     0.274 C 
ENDROOT
BRANCH   1   2
ATOM      2  O   UNL A   1      32.360  29.015  26.119  1.00  0.00    -0.462 OA
BRANCH   2   3
ATOM      3  C   UNL A   1      31.437  29.210  25.131  1.00  0.00     0.310 C 
ATOM      4  O   UNL A   1      30.882  30.281  24.911  1.00  0.00    -0.252 OA
BRANCH   3   5
ATOM      5  C   UNL A   1      31.093  27.911  24.427  1.00  0.00     0.119 C 
ATOM      6  C   UNL A   1      31.987  26.673  24.928  1.00  0.00     0.100 C 
ATOM      7  C   UNL A   1      32.921  26.374  23.730  1.00  0.00     0.025 C 
ATOM      8  C   UNL A   1      31.326  28.181  22.900  1.00  0.00     0.026 C 
ATOM      9  C   UNL A   1      32.056  25.927  22.578  1.00  0.00    -0.027 C 
ATOM     10  C   UNL A   1      33.724  27.634  23.353  1.00  0.00     0.009 C 
ATOM     11  C   UNL A   1      31.189  26.862  22.167  1.00  0.00    -0.027 C 
ATOM     12  C   UNL A   1      32.793  28.631  22.657  1.00  0.00     0.009 C 
BRANCH   6  13
ATOM     13  C   UNL A   1      31.090  25.491  25.443  1.00  0.00     0.229 C 
ATOM     14  N   UNL A   1      31.471  24.189  25.682  1.00  0.00    -0.317 N 
ATOM     15  H   UNL A   1      30.778  23.628  26.099  1.00  0.00     0.170 HD
ATOM     16  O   UNL A   1      29.890  25.709  25.672  1.00  0.00    -0.274 OA
BRANCH  14  17
ATOM     17  C   UNL A   1      32.660  23.544  25.434  1.00  0.00     0.110 A 
ATOM     18  C   UNL A   1      33.082  22.758  24.356  1.00  0.00     0.098 A 
ATOM     19  C   UNL A   1      34.501  22.898  24.295  1.00  0.00    -0.017 A 
ATOM     20  S   UNL A   1      33.844  23.377  26.689  1.00  0.00    -0.122 S 
ATOM     21  C   UNL A   1      34.999  23.392  25.466  1.00  0.00     0.011 A 
ATOM     22  C   UNL A   1      35.574  22.760  23.276  1.00  0.00     0.038 C 
ATOM     23  C   UNL A   1      36.397  23.852  25.381  1.00  0.00     0.047 C 
ATOM     24  C   UNL A   1      36.864  23.092  24.105  1.00  0.00     0.010 C 
BRANCH  18  25
ATOM     25  C   UNL A   1      32.264  22.073  23.388  1.00  0.00     0.341 C 
ATOM     26  O   UNL A   1      31.355  22.602  22.734  1.00  0.00    -0.246 OA
BRANCH  25  27
ATOM     27  O   UNL A   1      32.576  20.753  23.379  1.00  0.00    -0.462 OA
BRANCH  27  28
ATOM     28  C   UNL A   1      32.608  20.035  24.619  1.00  0.00     0.230 C 
ATOM     29  C   UNL A   1      33.952  19.371  24.864  1.00  0.00     0.049 C 
ENDBRANCH  27  28
ENDBRANCH  25  27
ENDBRANCH  18  25
ENDBRANCH  14  17
ENDBRANCH   6  13
ENDBRANCH   3   5
ENDBRANCH   2   3
ENDBRANCH   1   2
BRANCH   1  30
ATOM     30  C   UNL A   1      33.160  31.065  27.249  1.00  0.00     0.275 C 
BRANCH  30  31
ATOM     31  O   UNL A   1      34.528  30.680  27.348  1.00  0.00    -0.458 OA
BRANCH  31  32
ATOM     32  C   UNL A   1      35.339  31.621  27.886  1.00  0.00     0.338 C 
ATOM     33  O   UNL A   1      35.348  32.813  27.628  1.00  0.00    -0.246 OA
BRANCH  32  34
ATOM     34  C   UNL A   1      36.354  30.978  28.720  1.00  0.00     0.060 A 
ATOM     35  C   UNL A   1      37.483  31.738  29.027  1.00  0.00     0.016 A 
ATOM     36  C   UNL A   1      36.322  29.586  28.884  1.00  0.00     0.016 A 
ATOM     37  C   UNL A   1      38.662  31.071  29.263  1.00  0.00     0.010 A 
ATOM     38  C   UNL A   1      37.500  28.924  29.118  1.00  0.00     0.010 A 
ATOM     39  C   UNL A   1      38.670  29.669  29.202  1.00  0.00    -0.014 A 
BRANCH  39  40
ATOM     40  C   UNL A   1      39.932  28.985  29.381  1.00  0.00     0.031 A 
ATOM     41  C   UNL A   1      40.265  28.868  30.816  1.00  0.00     0.074 A 
ATOM     42  C   UNL A   1      40.658  28.464  28.374  1.00  0.00     0.049 A 
ATOM     43  N   UNL A   1      41.085  29.609  31.479  1.00  0.00    -0.248 NA
ATOM     44  C   UNL A   1      39.394  28.033  31.659  1.00  0.00     0.031 C 
ATOM     45  C   UNL A   1      40.300  28.323  26.961  1.00  0.00     0.029 A 
ATOM     46  N   UNL A   1      41.885  27.877  28.429  1.00  0.00    -0.354 N 
ATOM     47  C   UNL A   1      41.040  29.126  32.778  1.00  0.00     0.074 A 
ATOM     48  C   UNL A   1      39.824  28.369  32.877  1.00  0.00     0.031 C 
ATOM     49  C   UNL A   1      41.185  27.497  26.350  1.00  0.00     0.029 A 
ATOM     50  C   UNL A   1      42.250  27.169  27.285  1.00  0.00     0.049 A 
ATOM     51  H   UNL A   1      42.470  27.947  29.216  1.00  0.00     0.167 HD
ATOM     52  C   UNL A   1      42.163  29.128  33.544  1.00  0.00     0.034 A 
ATOM     53  C   UNL A   1      43.332  26.348  27.145  1.00  0.00     0.034 A 
ATOM     54  C   UNL A   1      43.158  30.022  32.989  1.00  0.00     0.049 A 
ATOM     55  C   UNL A   1      44.308  26.777  28.182  1.00  0.00     0.074 A 
ATOM     56  C   UNL A   1      43.223  31.377  32.734  1.00  0.00     0.029 A 
ATOM     57  N   UNL A   1      44.150  29.448  32.225  1.00  0.00    -0.354 N 
ATOM     58  N   UNL A   1      44.881  27.951  28.182  1.00  0.00    -0.248 NA
ATOM     59  C   UNL A   1      44.259  26.117  29.477  1.00  0.00     0.031 C 
ATOM     60  C   UNL A   1      43.934  31.492  31.501  1.00  0.00     0.029 A 
ATOM     61  C   UNL A   1      44.345  30.216  31.103  1.00  0.00     0.049 A 
ATOM     62  H   UNL A   1      44.640  28.624  32.447  1.00  0.00     0.167 HD
ATOM     63  C   UNL A   1      44.862  28.364  29.506  1.00  0.00     0.074 A 
ATOM     64  C   UNL A   1      44.546  27.155  30.268  1.00  0.00     0.031 C 
ATOM     65  C   UNL A   1      44.817  29.693  29.830  1.00  0.00     0.034 A 
BRANCH  52  66
ATOM     66  C   UNL A   1      42.529  28.013  34.499  1.00  0.00     0.023 A 
ATOM     67  C   UNL A   1      43.291  26.954  33.972  1.00  0.00     0.031 A 
ATOM     68  C   UNL A   1      41.941  27.777  35.764  1.00  0.00     0.131 A 
ATOM     69  C   UNL A   1      43.355  25.715  34.632  1.00  0.00     0.055 A 
ATOM     70  C   UNL A   1      42.061  26.565  36.445  1.00  0.00     0.041 A 
ATOM     71  F   UNL A   1      41.142  28.656  36.378  1.00  0.00    -0.206 F 
ATOM     72  C   UNL A   1      42.744  25.513  35.866  1.00  0.00     0.022 A 
BRANCH  69  73
ATOM     73  S   UNL A   1      44.112  24.321  33.764  1.00  0.00     0.124 S 
ATOM     74  O   UNL A   1      45.392  24.207  34.454  1.00  0.00    -0.237 OA
ATOM     75  O   UNL A   1      43.148  23.255  34.011  1.00  0.00    -0.237 OA
ATOM     76  O   UNL A   1      44.186  24.786  32.380  1.00  0.00    -0.744 OA
ENDBRANCH  69  73
ENDBRANCH  52  66
BRANCH  53  77
ATOM     77  C   UNL A   1      43.343  24.978  26.537  1.00  0.00     0.023 A 
ATOM     78  C   UNL A   1      42.475  23.935  26.946  1.00  0.00     0.031 A 
ATOM     79  C   UNL A   1      44.056  24.760  25.336  1.00  0.00     0.131 A 
ATOM     80  C   UNL A   1      42.353  22.752  26.168  1.00  0.00     0.055 A 
ATOM     81  C   UNL A   1      43.926  23.598  24.571  1.00  0.00     0.041 A 
ATOM     82  F   UNL A   1      44.845  25.712  24.814  1.00  0.00    -0.206 F 
ATOM     83  C   UNL A   1      43.067  22.592  24.979  1.00  0.00     0.022 A 
BRANCH  80  84
ATOM     84  S   UNL A   1      41.207  21.413  26.651  1.00  0.00     0.124 S 
ATOM     85  O   UNL A   1      39.996  21.758  25.914  1.00  0.00    -0.237 OA
ATOM     86  O   UNL A   1      41.916  20.217  26.211  1.00  0.00    -0.237 OA
ATOM     87  O   UNL A   1      41.100  21.559  28.103  1.00  0.00    -0.744 OA
ENDBRANCH  80  84
ENDBRANCH  53  77
BRANCH  65  88
ATOM     88  C   UNL A   1      45.150  30.708  28.748  1.00  0.00     0.023 A 
ATOM     89  C   UNL A   1      46.443  31.186  28.422  1.00  0.00     0.031 A 
ATOM     90  C   UNL A   1      44.078  31.137  27.945  1.00  0.00     0.131 A 
ATOM     91  C   UNL A   1      46.612  32.066  27.330  1.00  0.00     0.055 A 
ATOM     92  C   UNL A   1      44.254  31.983  26.853  1.00  0.00     0.041 A 
ATOM     93  F   UNL A   1      42.829  30.710  28.194  1.00  0.00    -0.206 F 
ATOM     94  C   UNL A   1      45.522  32.456  26.544  1.00  0.00     0.022 A 
BRANCH  91  95
ATOM     95  S   UNL A   1      48.250  32.761  26.921  1.00  0.00     0.124 S 
ATOM     96  O   UNL A   1      47.964  33.692  25.836  1.00  0.00    -0.237 OA
ATOM     97  O   UNL A   1      48.665  33.359  28.187  1.00  0.00    -0.237 OA
ATOM     98  O   UNL A   1      49.028  31.585  26.522  1.00  0.00    -0.744 OA
ENDBRANCH  91  95
ENDBRANCH  65  88
ENDBRANCH  39  40
ENDBRANCH  32  34
ENDBRANCH  31  32
ENDBRANCH  30  31
ENDBRANCH   1  30
TORSDOF 19
ENDMDL
MODEL 3
REMARK VINA RESULT:     -12.2      3.987      8.855
REMARK SMILES CCOC(=O)c1c(NC(=O)[C@@H]2[C@@H](C(=O)OCCOC(=O)c3ccc(-c4c5nc(c(-c6cc(S(=O)(=O)[O-])ccc6F)c6ccc([nH]6)c(-c6cc(S(=O)(=O)[O-])ccc6F)c6nc(c(-c7cc(S(=O)(=O)[O-])ccc7F)c7ccc4[nH]7)C=C6)C=C5)cc3)[C@@H]3C=C[C@H]2CC3)sc2c1CCC2
REMARK SMILES IDX 16 1 15 2 13 3 14 4 12 5 11 6 87 7 84 8 86 9 88 10 85 11
REMARK SMILES IDX 89 12 9 13 8 14 10 16 7 17 6 18 92 19 90 20 91 21 93 22
REMARK SMILES IDX 95 23 94 24 4 25 5 26 3 27 2 28 1 29 17 30 18 31 19 32 20 33
REMARK SMILES IDX 21 34 22 35 83 36 23 37 82 38 24 39 25 40 26 41 76 42 27 43
REMARK SMILES IDX 81 44 75 45 77 46 28 47 80 48 74 49 73 50 29 52 61 53 41 54
REMARK SMILES IDX 60 55 42 56 45 57 59 58 78 59 43 60 44 61 58 63 79 64 46 65
REMARK SMILES IDX 30 66 31 67 39 68 32 69 38 70 40 71 37 72 33 73 34 74 35 75
REMARK SMILES IDX 36 76 62 77 63 78 71 79 64 80 70 81 72 82 69 83 65 84 66 85
REMARK SMILES IDX 67 86 68 87 47 88 48 89 56 90 49 91 55 92 57 93 54 94 50 95
REMARK SMILES IDX 51 96 52 97 53 98
REMARK H PARENT 8 15 77 51 45 62
REMARK Flexibility Score: inf
ROOT
ATOM      1  C   UNL A   1      38.266  21.375  25.758  1.00  0.00     0.274 C 
ENDROOT
BRANCH   1   2
ATOM      2  O   UNL A   1      37.722  22.124  24.656  1.00  0.00    -0.462 OA
BRANCH   2   3
ATOM      3  C   UNL A   1      36.847  23.117  24.994  1.00  0.00     0.310 C 
ATOM      4  O   UNL A   1      37.098  24.011  25.795  1.00  0.00    -0.252 OA
BRANCH   3   5
ATOM      5  C   UNL A   1      35.489  22.904  24.352  1.00  0.00     0.119 C 
ATOM      6  C   UNL A   1      34.481  24.130  24.602  1.00  0.00     0.100 C 
ATOM      7  C   UNL A   1      33.433  23.561  25.589  1.00  0.00     0.025 C 
ATOM      8  C   UNL A   1      34.924  21.584  24.983  1.00  0.00     0.026 C 
ATOM      9  C   UNL A   1      32.698  22.450  24.883  1.00  0.00    -0.027 C 
ATOM     10  C   UNL A   1      34.129  23.033  26.860  1.00  0.00     0.009 C 
ATOM     11  C   UNL A   1      33.487  21.427  24.527  1.00  0.00    -0.027 C 
ATOM     12  C   UNL A   1      34.848  21.723  26.528  1.00  0.00     0.009 C 
BRANCH   6  13
ATOM     13  C   UNL A   1      33.940  24.711  23.247  1.00  0.00     0.229 C 
ATOM     14  N   UNL A   1      33.343  25.934  23.036  1.00  0.00    -0.317 N 
ATOM     15  H   UNL A   1      33.166  26.148  22.091  1.00  0.00     0.170 HD
ATOM     16  O   UNL A   1      34.037  24.020  22.220  1.00  0.00    -0.274 OA
BRANCH  14  17
ATOM     17  C   UNL A   1      32.952  26.906  23.927  1.00  0.00     0.110 A 
ATOM     18  C   UNL A   1      31.920  26.940  24.870  1.00  0.00     0.098 A 
ATOM     19  C   UNL A   1      32.352  27.827  25.901  1.00  0.00    -0.017 A 
ATOM     20  S   UNL A   1      33.595  28.512  23.808  1.00  0.00    -0.122 S 
ATOM     21  C   UNL A   1      33.382  28.615  25.474  1.00  0.00     0.011 A 
ATOM     22  C   UNL A   1      32.069  28.056  27.342  1.00  0.00     0.038 C 
ATOM     23  C   UNL A   1      34.084  29.331  26.555  1.00  0.00     0.047 C 
ATOM     24  C   UNL A   1      33.004  29.272  27.675  1.00  0.00     0.010 C 
BRANCH  18  25
ATOM     25  C   UNL A   1      30.729  26.130  24.906  1.00  0.00     0.341 C 
ATOM     26  O   UNL A   1      30.401  25.400  25.852  1.00  0.00    -0.246 OA
BRANCH  25  27
ATOM     27  O   UNL A   1      30.083  26.215  23.716  1.00  0.00    -0.462 OA
BRANCH  27  28
ATOM     28  C   UNL A   1      28.988  27.129  23.581  1.00  0.00     0.230 C 
ATOM     29  C   UNL A   1      29.399  28.421  22.894  1.00  0.00     0.049 C 
ENDBRANCH  27  28
ENDBRANCH  25  27
ENDBRANCH  18  25
ENDBRANCH  14  17
ENDBRANCH   6  13
ENDBRANCH   3   5
ENDBRANCH   2   3
ENDBRANCH   1   2
BRANCH   1  30
ATOM     30  C   UNL A   1      39.700  21.767  26.098  1.00  0.00     0.275 C 
BRANCH  30  31
ATOM     31  O   UNL A   1      39.759  22.748  27.129  1.00  0.00    -0.458 OA
BRANCH  31  32
ATOM     32  C   UNL A   1      40.998  22.964  27.629  1.00  0.00     0.338 C 
ATOM     33  O   UNL A   1      41.719  22.146  28.178  1.00  0.00    -0.246 OA
BRANCH  32  34
ATOM     34  C   UNL A   1      41.307  24.392  27.580  1.00  0.00     0.060 A 
ATOM     35  C   UNL A   1      42.227  24.865  28.517  1.00  0.00     0.016 A 
ATOM     36  C   UNL A   1      40.459  25.250  26.865  1.00  0.00     0.016 A 
ATOM     37  C   UNL A   1      42.121  26.177  28.914  1.00  0.00     0.010 A 
ATOM     38  C   UNL A   1      40.356  26.558  27.266  1.00  0.00     0.010 A 
ATOM     39  C   UNL A   1      41.114  26.976  28.353  1.00  0.00    -0.014 A 
BRANCH  39  40
ATOM     40  C   UNL A   1      40.972  28.333  28.834  1.00  0.00     0.031 A 
ATOM     41  C   UNL A   1      42.015  29.206  28.259  1.00  0.00     0.074 A 
ATOM     42  C   UNL A   1      39.973  28.748  29.638  1.00  0.00     0.049 A 
ATOM     43  N   UNL A   1      43.100  29.593  28.837  1.00  0.00    -0.248 NA
ATOM     44  C   UNL A   1      41.992  29.442  26.806  1.00  0.00     0.031 C 
ATOM     45  C   UNL A   1      38.775  28.021  30.064  1.00  0.00     0.029 A 
ATOM     46  N   UNL A   1      39.795  29.971  30.205  1.00  0.00    -0.354 N 
ATOM     47  C   UNL A   1      43.756  30.370  27.895  1.00  0.00     0.074 A 
ATOM     48  C   UNL A   1      43.180  30.023  26.625  1.00  0.00     0.031 C 
ATOM     49  C   UNL A   1      37.897  28.887  30.627  1.00  0.00     0.029 A 
ATOM     50  C   UNL A   1      38.525  30.194  30.737  1.00  0.00     0.049 A 
ATOM     51  H   UNL A   1      40.507  30.649  30.237  1.00  0.00     0.167 HD
ATOM     52  C   UNL A   1      44.479  31.451  28.288  1.00  0.00     0.034 A 
ATOM     53  C   UNL A   1      38.030  31.381  31.195  1.00  0.00     0.034 A 
ATOM     54  C   UNL A   1      44.772  31.382  29.704  1.00  0.00     0.049 A 
ATOM     55  C   UNL A   1      39.214  32.212  31.541  1.00  0.00     0.074 A 
ATOM     56  C   UNL A   1      45.468  30.510  30.518  1.00  0.00     0.029 A 
ATOM     57  N   UNL A   1      43.958  32.109  30.543  1.00  0.00    -0.354 N 
ATOM     58  N   UNL A   1      40.050  31.903  32.496  1.00  0.00    -0.248 NA
ATOM     59  C   UNL A   1      39.751  33.092  30.515  1.00  0.00     0.031 C 
ATOM     60  C   UNL A   1      44.711  30.442  31.726  1.00  0.00     0.029 A 
ATOM     61  C   UNL A   1      43.639  31.335  31.632  1.00  0.00     0.049 A 
ATOM     62  H   UNL A   1      43.654  33.032  30.388  1.00  0.00     0.167 HD
ATOM     63  C   UNL A   1      41.309  32.169  31.977  1.00  0.00     0.074 A 
ATOM     64  C   UNL A   1      41.055  32.982  30.786  1.00  0.00     0.031 C 
ATOM     65  C   UNL A   1      42.407  31.468  32.395  1.00  0.00     0.034 A 
BRANCH  52  66
ATOM     66  C   UNL A   1      44.520  32.756  27.523  1.00  0.00     0.023 A 
ATOM     67  C   UNL A   1      43.785  33.829  28.061  1.00  0.00     0.031 A 
ATOM     68  C   UNL A   1      44.963  32.923  26.190  1.00  0.00     0.131 A 
ATOM     69  C   UNL A   1      43.436  34.933  27.267  1.00  0.00     0.055 A 
ATOM     70  C   UNL A   1      44.667  34.053  25.425  1.00  0.00     0.041 A 
ATOM     71  F   UNL A   1      45.623  31.979  25.511  1.00  0.00    -0.206 F 
ATOM     72  C   UNL A   1      43.871  35.052  25.949  1.00  0.00     0.022 A 
BRANCH  69  73
ATOM     73  S   UNL A   1      42.258  36.131  27.936  1.00  0.00     0.124 S 
ATOM     74  O   UNL A   1      41.097  35.287  28.196  1.00  0.00    -0.237 OA
ATOM     75  O   UNL A   1      42.970  36.628  29.109  1.00  0.00    -0.237 OA
ATOM     76  O   UNL A   1      42.101  37.094  26.848  1.00  0.00    -0.744 OA
ENDBRANCH  69  73
ENDBRANCH  52  66
BRANCH  53  77
ATOM     77  C   UNL A   1      36.687  31.970  30.884  1.00  0.00     0.023 A 
ATOM     78  C   UNL A   1      35.863  32.592  31.855  1.00  0.00     0.031 A 
ATOM     79  C   UNL A   1      36.311  32.160  29.534  1.00  0.00     0.131 A 
ATOM     80  C   UNL A   1      34.731  33.354  31.458  1.00  0.00     0.055 A 
ATOM     81  C   UNL A   1      35.202  32.918  29.150  1.00  0.00     0.041 A 
ATOM     82  F   UNL A   1      37.064  31.684  28.530  1.00  0.00    -0.206 F 
ATOM     83  C   UNL A   1      34.412  33.526  30.110  1.00  0.00     0.022 A 
BRANCH  80  84
ATOM     84  S   UNL A   1      33.680  34.202  32.690  1.00  0.00     0.124 S 
ATOM     85  O   UNL A   1      34.664  34.861  33.539  1.00  0.00    -0.237 OA
ATOM     86  O   UNL A   1      32.855  35.070  31.856  1.00  0.00    -0.237 OA
ATOM     87  O   UNL A   1      32.954  33.106  33.334  1.00  0.00    -0.744 OA
ENDBRANCH  80  84
ENDBRANCH  53  77
BRANCH  65  88
ATOM     88  C   UNL A   1      42.297  30.657  33.676  1.00  0.00     0.023 A 
ATOM     89  C   UNL A   1      42.037  29.268  33.763  1.00  0.00     0.031 A 
ATOM     90  C   UNL A   1      42.569  31.343  34.873  1.00  0.00     0.131 A 
ATOM     91  C   UNL A   1      42.049  28.628  35.023  1.00  0.00     0.055 A 
ATOM     92  C   UNL A   1      42.608  30.702  36.109  1.00  0.00     0.041 A 
ATOM     93  F   UNL A   1      42.837  32.659  34.856  1.00  0.00    -0.206 F 
ATOM     94  C   UNL A   1      42.342  29.342  36.190  1.00  0.00     0.022 A 
BRANCH  91  95
ATOM     95  S   UNL A   1      41.649  26.855  35.187  1.00  0.00     0.124 S 
ATOM     96  O   UNL A   1      41.320  26.708  36.600  1.00  0.00    -0.237 OA
ATOM     97  O   UNL A   1      40.539  26.693  34.250  1.00  0.00    -0.237 OA
ATOM     98  O   UNL A   1      42.888  26.187  34.780  1.00  0.00    -0.744 OA
ENDBRANCH  91  95
ENDBRANCH  65  88
ENDBRANCH  39  40
ENDBRANCH  32  34
ENDBRANCH  31  32
ENDBRANCH  30  31
ENDBRANCH   1  30
TORSDOF 19
ENDMDL
