MODEL 1
REMARK VINA RESULT:     -12.2      0.000      0.000
REMARK SMILES Cc1ccc(C2=NN(C(=O)CCC(=O)OCCOC(=O)c3ccc(-c4c5nc(c(-c6cc(S(=O)(=O)[O-])ccc6F)c6ccc([nH]6)c(-c6cc(S(=O)(=O)[O-])ccc6F)c6nc(c(-c7cc(S(=O)(=O)[O-])ccc7F)c7ccc4[nH]7)C=C6)C=C5)cc3)[C@H](C[C@@H]3C=c4cccc(C)c4=NC3=O)C2)cc1
REMARK SMILES IDX 16 1 15 2 13 3 14 4 12 5 11 6 9 7 10 8 8 9 6 10 7 11 98 12
REMARK SMILES IDX 84 13 5 14 1 15 2 16 3 17 100 18 4 19 99 20 85 21 86 22
REMARK SMILES IDX 87 23 96 24 88 25 95 26 97 27 89 28 94 29 90 30 92 31 91 32
REMARK SMILES IDX 93 33 17 34 18 35 19 36 20 37 21 38 22 39 83 40 23 41 82 42
REMARK SMILES IDX 24 43 25 44 26 45 76 46 27 47 81 48 75 49 77 50 28 51 80 52
REMARK SMILES IDX 74 53 73 54 29 56 61 57 41 58 60 59 42 60 45 61 59 62 78 63
REMARK SMILES IDX 43 64 44 65 58 67 79 68 46 69 30 70 31 71 39 72 32 73 38 74
REMARK SMILES IDX 40 75 37 76 33 77 34 78 35 79 36 80 62 81 63 82 71 83 64 84
REMARK SMILES IDX 70 85 72 86 69 87 65 88 66 89 67 90 68 91 47 92 48 93 56 94
REMARK SMILES IDX 49 95 55 96 57 97 54 98 50 99 51 100 52 101 53 102
REMARK H PARENT 77 55 45 66
REMARK Flexibility Score: inf
ROOT
ATOM      1  C   UNL A   1      33.756  30.025  27.026  1.00  0.00     0.274 C 
ENDROOT
BRANCH   1   2
ATOM      2  O   UNL A   1      33.997  28.590  27.045  1.00  0.00    -0.462 OA
BRANCH   2   3
ATOM      3  C   UNL A   1      33.141  27.677  26.568  1.00  0.00     0.306 C 
ATOM      4  O   UNL A   1      31.939  27.844  26.413  1.00  0.00    -0.252 OA
BRANCH   3   5
ATOM      5  C   UNL A   1      33.759  26.447  26.013  1.00  0.00     0.132 C 
BRANCH   5   6
ATOM      6  C   UNL A   1      32.688  25.381  26.085  1.00  0.00     0.114 C 
BRANCH   6   7
ATOM      7  C   UNL A   1      33.346  24.023  26.192  1.00  0.00     0.243 C 
ATOM      8  O   UNL A   1      32.868  23.238  27.025  1.00  0.00    -0.273 OA
BRANCH   7   9
ATOM      9  N   UNL A   1      34.474  23.689  25.436  1.00  0.00    -0.230 N 
ATOM     10  C   UNL A   1      36.598  23.319  25.550  1.00  0.00     0.070 C 
ATOM     11  N   UNL A   1      35.528  23.364  26.262  1.00  0.00    -0.174 NA
ATOM     12  C   UNL A   1      36.427  23.420  24.079  1.00  0.00     0.086 C 
ATOM     13  C   UNL A   1      34.978  23.910  24.022  1.00  0.00     0.118 C 
BRANCH  10  14
ATOM     14  C   UNL A   1      37.899  23.053  26.128  1.00  0.00    -0.002 A 
ATOM     15  C   UNL A   1      41.688  22.445  27.980  1.00  0.00     0.044 C 
ATOM     16  C   UNL A   1      40.370  22.651  27.298  1.00  0.00    -0.051 A 
ATOM     17  C   UNL A   1      39.689  23.861  27.492  1.00  0.00     0.004 A 
ATOM     18  C   UNL A   1      39.811  21.654  26.481  1.00  0.00     0.004 A 
ATOM     19  C   UNL A   1      38.452  24.067  26.901  1.00  0.00     0.010 A 
ATOM     20  C   UNL A   1      38.565  21.853  25.887  1.00  0.00     0.010 A 
ENDBRANCH  10  14
BRANCH  13  21
ATOM     21  C   UNL A   1      34.308  23.340  22.743  1.00  0.00     0.045 C 
BRANCH  21  22
ATOM     22  C   UNL A   1      33.100  24.104  22.204  1.00  0.00     0.106 C 
ATOM     23  C   UNL A   1      33.354  25.544  22.436  1.00  0.00    -0.003 C 
ATOM     24  C   UNL A   1      31.747  23.672  22.799  1.00  0.00     0.253 C 
ATOM     25  C   UNL A   1      32.408  26.449  22.603  1.00  0.00    -0.003 A 
ATOM     26  N   UNL A   1      30.790  24.641  23.062  1.00  0.00    -0.212 NA
ATOM     27  O   UNL A   1      31.532  22.489  23.055  1.00  0.00    -0.272 OA
ATOM     28  C   UNL A   1      32.679  27.853  22.499  1.00  0.00     0.010 A 
ATOM     29  C   UNL A   1      31.095  25.898  22.993  1.00  0.00     0.077 A 
ATOM     30  C   UNL A   1      31.733  28.729  22.841  1.00  0.00     0.001 A 
ATOM     31  C   UNL A   1      30.150  26.958  23.487  1.00  0.00    -0.025 A 
ATOM     32  C   UNL A   1      30.489  28.261  23.407  1.00  0.00     0.005 A 
ATOM     33  C   UNL A   1      28.949  26.467  24.224  1.00  0.00     0.047 C 
ENDBRANCH  21  22
ENDBRANCH  13  21
ENDBRANCH   7   9
ENDBRANCH   6   7
ENDBRANCH   5   6
ENDBRANCH   3   5
ENDBRANCH   2   3
ENDBRANCH   1   2
BRANCH   1  34
ATOM     34  C   UNL A   1      34.301  31.125  28.023  1.00  0.00     0.275 C 
BRANCH  34  35
ATOM     35  O   UNL A   1      35.600  31.158  28.715  1.00  0.00    -0.458 OA
BRANCH  35  36
ATOM     36  C   UNL A   1      36.285  30.291  29.547  1.00  0.00     0.338 C 
ATOM     37  O   UNL A   1      35.726  29.698  30.462  1.00  0.00    -0.246 OA
BRANCH  36  38
ATOM     38  C   UNL A   1      37.635  29.893  29.100  1.00  0.00     0.060 A 
ATOM     39  C   UNL A   1      38.703  30.822  28.998  1.00  0.00     0.016 A 
ATOM     40  C   UNL A   1      37.883  28.564  29.233  1.00  0.00     0.016 A 
ATOM     41  C   UNL A   1      40.024  30.399  29.224  1.00  0.00     0.010 A 
ATOM     42  C   UNL A   1      39.077  28.264  29.808  1.00  0.00     0.010 A 
ATOM     43  C   UNL A   1      40.198  29.104  29.694  1.00  0.00    -0.014 A 
BRANCH  43  44
ATOM     44  C   UNL A   1      41.424  28.330  29.919  1.00  0.00     0.031 A 
ATOM     45  C   UNL A   1      41.898  27.219  29.072  1.00  0.00     0.074 A 
ATOM     46  C   UNL A   1      42.230  28.985  30.795  1.00  0.00     0.049 A 
ATOM     47  N   UNL A   1      42.692  26.281  29.450  1.00  0.00    -0.248 NA
ATOM     48  C   UNL A   1      41.517  27.051  27.679  1.00  0.00     0.031 C 
ATOM     49  C   UNL A   1      43.658  28.988  31.013  1.00  0.00     0.029 A 
ATOM     50  N   UNL A   1      41.799  29.933  31.718  1.00  0.00    -0.354 N 
ATOM     51  C   UNL A   1      43.199  25.688  28.299  1.00  0.00     0.074 A 
ATOM     52  C   UNL A   1      42.281  26.037  27.254  1.00  0.00     0.031 C 
ATOM     53  C   UNL A   1      43.912  29.631  32.179  1.00  0.00     0.029 A 
ATOM     54  C   UNL A   1      42.635  29.975  32.801  1.00  0.00     0.049 A 
ATOM     55  H   UNL A   1      41.001  30.498  31.607  1.00  0.00     0.167 HD
ATOM     56  C   UNL A   1      44.477  25.212  28.291  1.00  0.00     0.034 A 
ATOM     57  C   UNL A   1      42.051  29.486  33.937  1.00  0.00     0.034 A 
ATOM     58  C   UNL A   1      45.123  25.593  29.541  1.00  0.00     0.049 A 
ATOM     59  C   UNL A   1      42.655  28.129  34.194  1.00  0.00     0.074 A 
ATOM     60  C   UNL A   1      46.008  26.606  29.864  1.00  0.00     0.029 A 
ATOM     61  N   UNL A   1      44.605  25.117  30.729  1.00  0.00    -0.354 N 
ATOM     62  N   UNL A   1      43.135  27.344  33.264  1.00  0.00    -0.248 NA
ATOM     63  C   UNL A   1      42.925  27.650  35.537  1.00  0.00     0.031 C 
ATOM     64  C   UNL A   1      45.967  26.771  31.277  1.00  0.00     0.029 A 
ATOM     65  C   UNL A   1      45.053  25.865  31.793  1.00  0.00     0.049 A 
ATOM     66  H   UNL A   1      43.997  24.346  30.805  1.00  0.00     0.167 HD
ATOM     67  C   UNL A   1      43.889  26.365  33.846  1.00  0.00     0.074 A 
ATOM     68  C   UNL A   1      43.696  26.581  35.273  1.00  0.00     0.031 C 
ATOM     69  C   UNL A   1      44.653  25.481  33.132  1.00  0.00     0.034 A 
BRANCH  56  70
ATOM     70  C   UNL A   1      45.288  24.669  27.131  1.00  0.00     0.023 A 
ATOM     71  C   UNL A   1      44.976  23.375  26.650  1.00  0.00     0.031 A 
ATOM     72  C   UNL A   1      46.289  25.347  26.412  1.00  0.00     0.131 A 
ATOM     73  C   UNL A   1      45.645  22.794  25.560  1.00  0.00     0.055 A 
ATOM     74  C   UNL A   1      46.974  24.762  25.329  1.00  0.00     0.041 A 
ATOM     75  F   UNL A   1      46.616  26.616  26.686  1.00  0.00    -0.206 F 
ATOM     76  C   UNL A   1      46.654  23.479  24.897  1.00  0.00     0.022 A 
BRANCH  73  77
ATOM     77  S   UNL A   1      45.143  21.136  25.018  1.00  0.00     0.124 S 
ATOM     78  O   UNL A   1      44.866  21.351  23.601  1.00  0.00    -0.237 OA
ATOM     79  O   UNL A   1      46.320  20.335  25.332  1.00  0.00    -0.237 OA
ATOM     80  O   UNL A   1      43.967  20.852  25.839  1.00  0.00    -0.744 OA
ENDBRANCH  73  77
ENDBRANCH  56  70
BRANCH  57  81
ATOM     81  C   UNL A   1      40.579  29.886  34.030  1.00  0.00     0.023 A 
ATOM     82  C   UNL A   1      40.307  31.251  34.323  1.00  0.00     0.031 A 
ATOM     83  C   UNL A   1      39.541  29.160  33.417  1.00  0.00     0.131 A 
ATOM     84  C   UNL A   1      39.127  31.876  33.870  1.00  0.00     0.055 A 
ATOM     85  C   UNL A   1      38.329  29.774  33.039  1.00  0.00     0.041 A 
ATOM     86  F   UNL A   1      39.721  27.883  33.054  1.00  0.00    -0.206 F 
ATOM     87  C   UNL A   1      38.130  31.143  33.231  1.00  0.00     0.022 A 
BRANCH  84  88
ATOM     88  S   UNL A   1      39.071  33.700  33.843  1.00  0.00     0.124 S 
ATOM     89  O   UNL A   1      38.475  34.010  35.137  1.00  0.00    -0.237 OA
ATOM     90  O   UNL A   1      40.484  34.045  33.686  1.00  0.00    -0.237 OA
ATOM     91  O   UNL A   1      38.250  34.006  32.676  1.00  0.00    -0.744 OA
ENDBRANCH  84  88
ENDBRANCH  57  81
BRANCH  69  92
ATOM     92  C   UNL A   1      45.131  24.148  33.645  1.00  0.00     0.023 A 
ATOM     93  C   UNL A   1      46.420  23.976  34.142  1.00  0.00     0.031 A 
ATOM     94  C   UNL A   1      44.269  23.027  33.774  1.00  0.00     0.131 A 
ATOM     95  C   UNL A   1      46.855  22.736  34.614  1.00  0.00     0.055 A 
ATOM     96  C   UNL A   1      44.666  21.832  34.373  1.00  0.00     0.041 A 
ATOM     97  F   UNL A   1      42.998  23.041  33.350  1.00  0.00    -0.206 F 
ATOM     98  C   UNL A   1      45.980  21.668  34.772  1.00  0.00     0.022 A 
BRANCH  95  99
ATOM     99  S   UNL A   1      48.627  22.556  34.892  1.00  0.00     0.124 S 
ATOM    100  O   UNL A   1      48.737  22.878  36.313  1.00  0.00    -0.237 OA
ATOM    101  O   UNL A   1      48.858  21.157  34.544  1.00  0.00    -0.237 OA
ATOM    102  O   UNL A   1      49.216  23.534  33.982  1.00  0.00    -0.744 OA
ENDBRANCH  95  99
ENDBRANCH  69  92
ENDBRANCH  43  44
ENDBRANCH  36  38
ENDBRANCH  35  36
ENDBRANCH  34  35
ENDBRANCH   1  34
TORSDOF 20
ENDMDL
MODEL 2
REMARK VINA RESULT:     -11.5      2.564      5.347
REMARK SMILES Cc1ccc(C2=NN(C(=O)CCC(=O)OCCOC(=O)c3ccc(-c4c5nc(c(-c6cc(S(=O)(=O)[O-])ccc6F)c6ccc([nH]6)c(-c6cc(S(=O)(=O)[O-])ccc6F)c6nc(c(-c7cc(S(=O)(=O)[O-])ccc7F)c7ccc4[nH]7)C=C6)C=C5)cc3)[C@H](C[C@@H]3C=c4cccc(C)c4=NC3=O)C2)cc1
REMARK SMILES IDX 16 1 15 2 13 3 14 4 12 5 11 6 9 7 10 8 8 9 6 10 7 11 98 12
REMARK SMILES IDX 84 13 5 14 1 15 2 16 3 17 100 18 4 19 99 20 85 21 86 22
REMARK SMILES IDX 87 23 96 24 88 25 95 26 97 27 89 28 94 29 90 30 92 31 91 32
REMARK SMILES IDX 93 33 17 34 18 35 19 36 20 37 21 38 22 39 83 40 23 41 82 42
REMARK SMILES IDX 24 43 25 44 26 45 76 46 27 47 81 48 75 49 77 50 28 51 80 52
REMARK SMILES IDX 74 53 73 54 29 56 61 57 41 58 60 59 42 60 45 61 59 62 78 63
REMARK SMILES IDX 43 64 44 65 58 67 79 68 46 69 30 70 31 71 39 72 32 73 38 74
REMARK SMILES IDX 40 75 37 76 33 77 34 78 35 79 36 80 62 81 63 82 71 83 64 84
REMARK SMILES IDX 70 85 72 86 69 87 65 88 66 89 67 90 68 91 47 92 48 93 56 94
REMARK SMILES IDX 49 95 55 96 57 97 54 98 50 99 51 100 52 101 53 102
REMARK H PARENT 77 55 45 66
REMARK Flexibility Score: inf
ROOT
ATOM      1  C   UNL A   1      33.843  32.449  27.812  1.00  0.00     0.274 C 
ENDROOT
BRANCH   1   2
ATOM      2  O   UNL A   1      34.287  31.103  27.483  1.00  0.00    -0.462 OA
BRANCH   2   3
ATOM      3  C   UNL A   1      33.464  30.093  27.172  1.00  0.00     0.306 C 
ATOM      4  O   UNL A   1      32.243  30.126  27.241  1.00  0.00    -0.252 OA
BRANCH   3   5
ATOM      5  C   UNL A   1      34.101  28.925  26.514  1.00  0.00     0.132 C 
BRANCH   5   6
ATOM      6  C   UNL A   1      33.092  27.801  26.607  1.00  0.00     0.114 C 
BRANCH   6   7
ATOM      7  C   UNL A   1      33.182  26.949  25.360  1.00  0.00     0.243 C 
ATOM      8  O   UNL A   1      34.149  26.177  25.284  1.00  0.00    -0.273 OA
BRANCH   7   9
ATOM      9  N   UNL A   1      32.258  27.069  24.317  1.00  0.00    -0.230 N 
ATOM     10  C   UNL A   1      30.812  28.397  23.418  1.00  0.00     0.070 C 
ATOM     11  N   UNL A   1      31.834  28.376  24.198  1.00  0.00    -0.174 NA
ATOM     12  C   UNL A   1      30.476  27.131  22.720  1.00  0.00     0.086 C 
ATOM     13  C   UNL A   1      31.339  26.157  23.527  1.00  0.00     0.118 C 
BRANCH  10  14
ATOM     14  C   UNL A   1      30.092  29.619  23.124  1.00  0.00    -0.002 A 
ATOM     15  C   UNL A   1      27.909  33.119  22.056  1.00  0.00     0.044 C 
ATOM     16  C   UNL A   1      28.701  31.908  22.448  1.00  0.00    -0.051 A 
ATOM     17  C   UNL A   1      29.059  30.985  21.456  1.00  0.00     0.004 A 
ATOM     18  C   UNL A   1      29.078  31.687  23.782  1.00  0.00     0.004 A 
ATOM     19  C   UNL A   1      29.762  29.838  21.792  1.00  0.00     0.010 A 
ATOM     20  C   UNL A   1      29.782  30.534  24.128  1.00  0.00     0.010 A 
ENDBRANCH  10  14
BRANCH  13  21
ATOM     21  C   UNL A   1      31.817  25.018  22.586  1.00  0.00     0.045 C 
BRANCH  21  22
ATOM     22  C   UNL A   1      32.113  23.669  23.240  1.00  0.00     0.106 C 
ATOM     23  C   UNL A   1      31.921  23.838  24.699  1.00  0.00    -0.003 C 
ATOM     24  C   UNL A   1      33.504  23.090  22.923  1.00  0.00     0.253 C 
ATOM     25  C   UNL A   1      32.546  23.129  25.618  1.00  0.00    -0.003 A 
ATOM     26  N   UNL A   1      34.199  22.426  23.923  1.00  0.00    -0.212 NA
ATOM     27  O   UNL A   1      33.996  23.236  21.805  1.00  0.00    -0.272 OA
ATOM     28  C   UNL A   1      32.100  23.098  26.981  1.00  0.00     0.010 A 
ATOM     29  C   UNL A   1      33.776  22.461  25.148  1.00  0.00     0.077 A 
ATOM     30  C   UNL A   1      32.858  22.504  27.904  1.00  0.00     0.001 A 
ATOM     31  C   UNL A   1      34.621  21.946  26.279  1.00  0.00    -0.025 A 
ATOM     32  C   UNL A   1      34.161  21.993  27.546  1.00  0.00     0.005 A 
ATOM     33  C   UNL A   1      36.024  21.580  25.929  1.00  0.00     0.047 C 
ENDBRANCH  21  22
ENDBRANCH  13  21
ENDBRANCH   7   9
ENDBRANCH   6   7
ENDBRANCH   5   6
ENDBRANCH   3   5
ENDBRANCH   2   3
ENDBRANCH   1   2
BRANCH   1  34
ATOM     34  C   UNL A   1      33.935  33.202  29.199  1.00  0.00     0.275 C 
BRANCH  34  35
ATOM     35  O   UNL A   1      34.306  32.644  30.511  1.00  0.00    -0.458 OA
BRANCH  35  36
ATOM     36  C   UNL A   1      35.499  32.320  31.131  1.00  0.00     0.338 C 
ATOM     37  O   UNL A   1      35.688  32.541  32.322  1.00  0.00    -0.246 OA
BRANCH  36  38
ATOM     38  C   UNL A   1      36.407  31.439  30.372  1.00  0.00     0.060 A 
ATOM     39  C   UNL A   1      37.153  31.901  29.257  1.00  0.00     0.016 A 
ATOM     40  C   UNL A   1      36.805  30.339  31.064  1.00  0.00     0.016 A 
ATOM     41  C   UNL A   1      38.412  31.341  28.975  1.00  0.00     0.010 A 
ATOM     42  C   UNL A   1      38.139  30.087  31.012  1.00  0.00     0.010 A 
ATOM     43  C   UNL A   1      38.931  30.457  29.911  1.00  0.00    -0.014 A 
BRANCH  43  44
ATOM     44  C   UNL A   1      40.141  29.627  29.868  1.00  0.00     0.031 A 
ATOM     45  C   UNL A   1      40.203  28.235  29.384  1.00  0.00     0.074 A 
ATOM     46  C   UNL A   1      41.243  30.410  30.005  1.00  0.00     0.049 A 
ATOM     47  N   UNL A   1      41.099  27.373  29.711  1.00  0.00    -0.248 NA
ATOM     48  C   UNL A   1      39.240  27.662  28.458  1.00  0.00     0.031 C 
ATOM     49  C   UNL A   1      42.616  30.268  29.580  1.00  0.00     0.029 A 
ATOM     50  N   UNL A   1      41.256  31.671  30.595  1.00  0.00    -0.354 N 
ATOM     51  C   UNL A   1      41.045  26.352  28.770  1.00  0.00     0.074 A 
ATOM     52  C   UNL A   1      39.750  26.459  28.164  1.00  0.00     0.031 C 
ATOM     53  C   UNL A   1      43.356  31.224  30.196  1.00  0.00     0.029 A 
ATOM     54  C   UNL A   1      42.488  31.951  31.120  1.00  0.00     0.049 A 
ATOM     55  H   UNL A   1      40.483  32.279  30.628  1.00  0.00     0.167 HD
ATOM     56  C   UNL A   1      42.192  25.711  28.401  1.00  0.00     0.034 A 
ATOM     57  C   UNL A   1      42.486  31.976  32.487  1.00  0.00     0.034 A 
ATOM     58  C   UNL A   1      43.323  26.392  29.018  1.00  0.00     0.049 A 
ATOM     59  C   UNL A   1      43.164  30.712  32.952  1.00  0.00     0.074 A 
ATOM     60  C   UNL A   1      44.241  27.306  28.531  1.00  0.00     0.029 A 
ATOM     61  N   UNL A   1      43.403  26.436  30.395  1.00  0.00    -0.354 N 
ATOM     62  N   UNL A   1      43.190  29.593  32.275  1.00  0.00    -0.248 NA
ATOM     63  C   UNL A   1      44.017  30.686  34.126  1.00  0.00     0.031 C 
ATOM     64  C   UNL A   1      44.836  27.948  29.653  1.00  0.00     0.029 A 
ATOM     65  C   UNL A   1      44.268  27.424  30.804  1.00  0.00     0.049 A 
ATOM     66  H   UNL A   1      42.907  25.841  31.003  1.00  0.00     0.167 HD
ATOM     67  C   UNL A   1      44.141  28.769  32.803  1.00  0.00     0.074 A 
ATOM     68  C   UNL A   1      44.606  29.487  33.982  1.00  0.00     0.031 C 
ATOM     69  C   UNL A   1      44.518  27.588  32.222  1.00  0.00     0.034 A 
BRANCH  56  70
ATOM     70  C   UNL A   1      42.404  24.687  27.304  1.00  0.00     0.023 A 
ATOM     71  C   UNL A   1      41.734  23.445  27.416  1.00  0.00     0.031 A 
ATOM     72  C   UNL A   1      43.148  24.859  26.123  1.00  0.00     0.131 A 
ATOM     73  C   UNL A   1      41.838  22.442  26.438  1.00  0.00     0.055 A 
ATOM     74  C   UNL A   1      43.269  23.849  25.149  1.00  0.00     0.041 A 
ATOM     75  F   UNL A   1      43.749  26.020  25.831  1.00  0.00    -0.206 F 
ATOM     76  C   UNL A   1      42.612  22.633  25.302  1.00  0.00     0.022 A 
BRANCH  73  77
ATOM     77  S   UNL A   1      40.915  20.897  26.678  1.00  0.00     0.124 S 
ATOM     78  O   UNL A   1      41.814  19.911  26.086  1.00  0.00    -0.237 OA
ATOM     79  O   UNL A   1      40.765  20.845  28.128  1.00  0.00    -0.237 OA
ATOM     80  O   UNL A   1      39.675  21.124  25.938  1.00  0.00    -0.744 OA
ENDBRANCH  73  77
ENDBRANCH  56  70
BRANCH  57  81
ATOM     81  C   UNL A   1      41.206  32.604  33.036  1.00  0.00     0.023 A 
ATOM     82  C   UNL A   1      40.422  31.797  33.908  1.00  0.00     0.031 A 
ATOM     83  C   UNL A   1      41.003  33.994  33.124  1.00  0.00     0.131 A 
ATOM     84  C   UNL A   1      39.616  32.372  34.911  1.00  0.00     0.055 A 
ATOM     85  C   UNL A   1      40.131  34.559  34.078  1.00  0.00     0.041 A 
ATOM     86  F   UNL A   1      41.733  34.840  32.383  1.00  0.00    -0.206 F 
ATOM     87  C   UNL A   1      39.462  33.752  35.001  1.00  0.00     0.022 A 
BRANCH  84  88
ATOM     88  S   UNL A   1      39.046  31.304  36.278  1.00  0.00     0.124 S 
ATOM     89  O   UNL A   1      39.660  30.024  35.946  1.00  0.00    -0.237 OA
ATOM     90  O   UNL A   1      39.588  31.994  37.449  1.00  0.00    -0.237 OA
ATOM     91  O   UNL A   1      37.592  31.356  36.177  1.00  0.00    -0.744 OA
ENDBRANCH  84  88
ENDBRANCH  57  81
BRANCH  69  92
ATOM     92  C   UNL A   1      45.199  26.454  32.943  1.00  0.00     0.023 A 
ATOM     93  C   UNL A   1      44.477  25.515  33.674  1.00  0.00     0.031 A 
ATOM     94  C   UNL A   1      46.590  26.197  32.819  1.00  0.00     0.131 A 
ATOM     95  C   UNL A   1      45.117  24.468  34.342  1.00  0.00     0.055 A 
ATOM     96  C   UNL A   1      47.205  25.074  33.372  1.00  0.00     0.041 A 
ATOM     97  F   UNL A   1      47.416  27.006  32.140  1.00  0.00    -0.206 F 
ATOM     98  C   UNL A   1      46.471  24.213  34.167  1.00  0.00     0.022 A 
BRANCH  95  99
ATOM     99  S   UNL A   1      44.125  23.544  35.529  1.00  0.00     0.124 S 
ATOM    100  O   UNL A   1      42.913  23.277  34.758  1.00  0.00    -0.237 OA
ATOM    101  O   UNL A   1      44.965  22.382  35.802  1.00  0.00    -0.237 OA
ATOM    102  O   UNL A   1      43.965  24.477  36.641  1.00  0.00    -0.744 OA
ENDBRANCH  95  99
ENDBRANCH  69  92
ENDBRANCH  43  44
ENDBRANCH  36  38
ENDBRANCH  35  36
ENDBRANCH  34  35
ENDBRANCH   1  34
TORSDOF 20
ENDMDL
MODEL 3
REMARK VINA RESULT:     -11.2      2.417      5.317
REMARK SMILES Cc1ccc(C2=NN(C(=O)CCC(=O)OCCOC(=O)c3ccc(-c4c5nc(c(-c6cc(S(=O)(=O)[O-])ccc6F)c6ccc([nH]6)c(-c6cc(S(=O)(=O)[O-])ccc6F)c6nc(c(-c7cc(S(=O)(=O)[O-])ccc7F)c7ccc4[nH]7)C=C6)C=C5)cc3)[C@H](C[C@@H]3C=c4cccc(C)c4=NC3=O)C2)cc1
REMARK SMILES IDX 16 1 15 2 13 3 14 4 12 5 11 6 9 7 10 8 8 9 6 10 7 11 98 12
REMARK SMILES IDX 84 13 5 14 1 15 2 16 3 17 100 18 4 19 99 20 85 21 86 22
REMARK SMILES IDX 87 23 96 24 88 25 95 26 97 27 89 28 94 29 90 30 92 31 91 32
REMARK SMILES IDX 93 33 17 34 18 35 19 36 20 37 21 38 22 39 83 40 23 41 82 42
REMARK SMILES IDX 24 43 25 44 26 45 76 46 27 47 81 48 75 49 77 50 28 51 80 52
REMARK SMILES IDX 74 53 73 54 29 56 61 57 41 58 60 59 42 60 45 61 59 62 78 63
REMARK SMILES IDX 43 64 44 65 58 67 79 68 46 69 30 70 31 71 39 72 32 73 38 74
REMARK SMILES IDX 40 75 37 76 33 77 34 78 35 79 36 80 62 81 63 82 71 83 64 84
REMARK SMILES IDX 70 85 72 86 69 87 65 88 66 89 67 90 68 91 47 92 48 93 56 94
REMARK SMILES IDX 49 95 55 96 57 97 54 98 50 99 51 100 52 101 53 102
REMARK H PARENT 77 55 45 66
REMARK Flexibility Score: inf
ROOT
ATOM      1  C   UNL A   1      34.303  30.574  27.260  1.00  0.00     0.274 C 
ENDROOT
BRANCH   1   2
ATOM      2  O   UNL A   1      33.400  29.434  27.217  1.00  0.00    -0.462 OA
BRANCH   2   3
ATOM      3  C   UNL A   1      32.065  29.530  27.262  1.00  0.00     0.306 C 
ATOM      4  O   UNL A   1      31.405  30.461  26.818  1.00  0.00    -0.252 OA
BRANCH   3   5
ATOM      5  C   UNL A   1      31.348  28.311  27.715  1.00  0.00     0.132 C 
BRANCH   5   6
ATOM      6  C   UNL A   1      32.162  27.143  27.204  1.00  0.00     0.114 C 
BRANCH   6   7
ATOM      7  C   UNL A   1      31.280  26.261  26.347  1.00  0.00     0.243 C 
ATOM      8  O   UNL A   1      30.644  25.374  26.934  1.00  0.00    -0.273 OA
BRANCH   7   9
ATOM      9  N   UNL A   1      31.231  26.397  24.956  1.00  0.00    -0.230 N 
ATOM     10  C   UNL A   1      30.371  27.557  23.350  1.00  0.00     0.070 C 
ATOM     11  N   UNL A   1      30.629  27.588  24.609  1.00  0.00    -0.174 NA
ATOM     12  C   UNL A   1      30.926  26.414  22.582  1.00  0.00     0.086 C 
ATOM     13  C   UNL A   1      31.321  25.494  23.740  1.00  0.00     0.118 C 
BRANCH  10  14
ATOM     14  C   UNL A   1      29.687  28.641  22.675  1.00  0.00    -0.002 A 
ATOM     15  C   UNL A   1      27.868  31.865  20.566  1.00  0.00     0.044 C 
ATOM     16  C   UNL A   1      28.490  30.741  21.337  1.00  0.00    -0.051 A 
ATOM     17  C   UNL A   1      29.885  30.605  21.327  1.00  0.00     0.004 A 
ATOM     18  C   UNL A   1      27.701  29.827  22.055  1.00  0.00     0.004 A 
ATOM     19  C   UNL A   1      30.489  29.556  22.003  1.00  0.00     0.010 A 
ATOM     20  C   UNL A   1      28.301  28.767  22.734  1.00  0.00     0.010 A 
ENDBRANCH  10  14
BRANCH  13  21
ATOM     21  C   UNL A   1      32.581  24.686  23.327  1.00  0.00     0.045 C 
BRANCH  21  22
ATOM     22  C   UNL A   1      33.250  23.856  24.421  1.00  0.00     0.106 C 
ATOM     23  C   UNL A   1      34.707  23.880  24.160  1.00  0.00    -0.003 C 
ATOM     24  C   UNL A   1      32.728  22.412  24.545  1.00  0.00     0.253 C 
ATOM     25  C   UNL A   1      35.542  22.924  24.517  1.00  0.00    -0.003 A 
ATOM     26  N   UNL A   1      33.628  21.395  24.827  1.00  0.00    -0.212 NA
ATOM     27  O   UNL A   1      31.535  22.167  24.373  1.00  0.00    -0.272 OA
ATOM     28  C   UNL A   1      36.962  23.130  24.538  1.00  0.00     0.010 A 
ATOM     29  C   UNL A   1      34.904  21.622  24.794  1.00  0.00     0.077 A 
ATOM     30  C   UNL A   1      37.771  22.090  24.742  1.00  0.00     0.001 A 
ATOM     31  C   UNL A   1      35.898  20.497  24.873  1.00  0.00    -0.025 A 
ATOM     32  C   UNL A   1      37.221  20.757  24.835  1.00  0.00     0.005 A 
ATOM     33  C   UNL A   1      35.330  19.120  24.795  1.00  0.00     0.047 C 
ENDBRANCH  21  22
ENDBRANCH  13  21
ENDBRANCH   7   9
ENDBRANCH   6   7
ENDBRANCH   5   6
ENDBRANCH   3   5
ENDBRANCH   2   3
ENDBRANCH   1   2
BRANCH   1  34
ATOM     34  C   UNL A   1      34.244  31.840  28.207  1.00  0.00     0.275 C 
BRANCH  34  35
ATOM     35  O   UNL A   1      34.667  31.940  29.614  1.00  0.00    -0.458 OA
BRANCH  35  36
ATOM     36  C   UNL A   1      35.819  31.625  30.311  1.00  0.00     0.338 C 
ATOM     37  O   UNL A   1      35.991  31.987  31.469  1.00  0.00    -0.246 OA
BRANCH  36  38
ATOM     38  C   UNL A   1      36.685  30.597  29.703  1.00  0.00     0.060 A 
ATOM     39  C   UNL A   1      37.364  30.808  28.474  1.00  0.00     0.016 A 
ATOM     40  C   UNL A   1      37.127  29.663  30.586  1.00  0.00     0.016 A 
ATOM     41  C   UNL A   1      38.606  30.191  28.244  1.00  0.00     0.010 A 
ATOM     42  C   UNL A   1      38.457  29.395  30.512  1.00  0.00     0.010 A 
ATOM     43  C   UNL A   1      39.182  29.520  29.314  1.00  0.00    -0.014 A 
BRANCH  43  44
ATOM     44  C   UNL A   1      40.391  28.689  29.376  1.00  0.00     0.031 A 
ATOM     45  C   UNL A   1      40.449  27.246  29.083  1.00  0.00     0.074 A 
ATOM     46  C   UNL A   1      41.494  29.482  29.403  1.00  0.00     0.049 A 
ATOM     47  N   UNL A   1      41.346  26.433  29.518  1.00  0.00    -0.248 NA
ATOM     48  C   UNL A   1      39.481  26.555  28.245  1.00  0.00     0.031 C 
ATOM     49  C   UNL A   1      42.866  29.283  28.995  1.00  0.00     0.029 A 
ATOM     50  N   UNL A   1      41.512  30.810  29.820  1.00  0.00    -0.354 N 
ATOM     51  C   UNL A   1      41.286  25.296  28.721  1.00  0.00     0.074 A 
ATOM     52  C   UNL A   1      39.989  25.324  28.112  1.00  0.00     0.031 C 
ATOM     53  C   UNL A   1      43.609  30.310  29.474  1.00  0.00     0.029 A 
ATOM     54  C   UNL A   1      42.746  31.156  30.297  1.00  0.00     0.049 A 
ATOM     55  H   UNL A   1      40.740  31.419  29.775  1.00  0.00     0.167 HD
ATOM     56  C   UNL A   1      42.431  24.610  28.436  1.00  0.00     0.034 A 
ATOM     57  C   UNL A   1      42.750  31.363  31.649  1.00  0.00     0.034 A 
ATOM     58  C   UNL A   1      43.566  25.365  28.951  1.00  0.00     0.049 A 
ATOM     59  C   UNL A   1      43.430  30.171  32.275  1.00  0.00     0.074 A 
ATOM     60  C   UNL A   1      44.483  26.205  28.342  1.00  0.00     0.029 A 
ATOM     61  N   UNL A   1      43.652  25.592  30.310  1.00  0.00    -0.354 N 
ATOM     62  N   UNL A   1      43.451  28.972  31.753  1.00  0.00    -0.248 NA
ATOM     63  C   UNL A   1      44.288  30.300  33.438  1.00  0.00     0.031 C 
ATOM     64  C   UNL A   1      45.084  26.990  29.366  1.00  0.00     0.029 A 
ATOM     65  C   UNL A   1      44.520  26.625  30.579  1.00  0.00     0.049 A 
ATOM     66  H   UNL A   1      43.159  25.084  30.994  1.00  0.00     0.167 HD
ATOM     67  C   UNL A   1      44.404  28.224  32.382  1.00  0.00     0.074 A 
ATOM     68  C   UNL A   1      44.875  29.092  33.452  1.00  0.00     0.031 C 
ATOM     69  C   UNL A   1      44.777  26.975  31.962  1.00  0.00     0.034 A 
BRANCH  56  70
ATOM     70  C   UNL A   1      42.637  23.448  27.484  1.00  0.00     0.023 A 
ATOM     71  C   UNL A   1      43.622  23.581  26.476  1.00  0.00     0.031 A 
ATOM     72  C   UNL A   1      42.000  22.195  27.533  1.00  0.00     0.131 A 
ATOM     73  C   UNL A   1      43.913  22.552  25.566  1.00  0.00     0.055 A 
ATOM     74  C   UNL A   1      42.276  21.167  26.611  1.00  0.00     0.041 A 
ATOM     75  F   UNL A   1      41.122  21.888  28.497  1.00  0.00    -0.206 F 
ATOM     76  C   UNL A   1      43.237  21.341  25.621  1.00  0.00     0.022 A 
BRANCH  73  77
ATOM     77  S   UNL A   1      45.213  22.830  24.330  1.00  0.00     0.124 S 
ATOM     78  O   UNL A   1      44.582  22.336  23.109  1.00  0.00    -0.237 OA
ATOM     79  O   UNL A   1      45.420  24.271  24.412  1.00  0.00    -0.237 OA
ATOM     80  O   UNL A   1      46.326  22.018  24.820  1.00  0.00    -0.744 OA
ENDBRANCH  73  77
ENDBRANCH  56  70
BRANCH  57  81
ATOM     81  C   UNL A   1      41.474  32.061  32.115  1.00  0.00     0.023 A 
ATOM     82  C   UNL A   1      40.575  31.288  32.902  1.00  0.00     0.031 A 
ATOM     83  C   UNL A   1      41.353  33.459  32.223  1.00  0.00     0.131 A 
ATOM     84  C   UNL A   1      39.731  31.892  33.856  1.00  0.00     0.055 A 
ATOM     85  C   UNL A   1      40.446  34.058  33.122  1.00  0.00     0.041 A 
ATOM     86  F   UNL A   1      42.189  34.271  31.562  1.00  0.00    -0.206 F 
ATOM     87  C   UNL A   1      39.658  33.278  33.970  1.00  0.00     0.022 A 
BRANCH  84  88
ATOM     88  S   UNL A   1      38.991  30.835  35.147  1.00  0.00     0.124 S 
ATOM     89  O   UNL A   1      40.130  30.566  36.016  1.00  0.00    -0.237 OA
ATOM     90  O   UNL A   1      37.953  31.708  35.697  1.00  0.00    -0.237 OA
ATOM     91  O   UNL A   1      38.474  29.690  34.405  1.00  0.00    -0.744 OA
ENDBRANCH  84  88
ENDBRANCH  57  81
BRANCH  69  92
ATOM     92  C   UNL A   1      45.460  25.946  32.825  1.00  0.00     0.023 A 
ATOM     93  C   UNL A   1      44.746  24.930  33.453  1.00  0.00     0.031 A 
ATOM     94  C   UNL A   1      46.872  25.870  32.947  1.00  0.00     0.131 A 
ATOM     95  C   UNL A   1      45.387  23.982  34.254  1.00  0.00     0.055 A 
ATOM     96  C   UNL A   1      47.519  24.842  33.632  1.00  0.00     0.041 A 
ATOM     97  F   UNL A   1      47.695  26.771  32.391  1.00  0.00    -0.206 F 
ATOM     98  C   UNL A   1      46.773  23.902  34.320  1.00  0.00     0.022 A 
BRANCH  95  99
ATOM     99  S   UNL A   1      44.329  22.951  35.286  1.00  0.00     0.124 S 
ATOM    100  O   UNL A   1      44.484  21.643  34.653  1.00  0.00    -0.237 OA
ATOM    101  O   UNL A   1      44.945  23.089  36.603  1.00  0.00    -0.237 OA
ATOM    102  O   UNL A   1      43.011  23.562  35.142  1.00  0.00    -0.744 OA
ENDBRANCH  95  99
ENDBRANCH  69  92
ENDBRANCH  43  44
ENDBRANCH  36  38
ENDBRANCH  35  36
ENDBRANCH  34  35
ENDBRANCH   1  34
TORSDOF 20
ENDMDL
