MODEL 1
REMARK VINA RESULT:     -10.5      0.000      0.000
REMARK SMILES C[C@H](CCc1ccco1)NC(=O)c1cccn1CC(=O)OCCOC(=O)c1ccc(-c2c3nc(c(-c4cc(S(=O)(=O)[O-])ccc4F)c4ccc([nH]4)c(-c4cc(S(=O)(=O)[O-])ccc4F)c4nc(c(-c5cc(S(=O)(=O)[O-])ccc5F)c5ccc2[nH]5)C=C4)C=C3)cc1
REMARK SMILES IDX 21 1 19 2 20 3 18 4 17 5 13 6 14 7 15 8 16 9 11 10 10 11
REMARK SMILES IDX 12 13 2 14 1 15 3 16 4 17 5 18 6 19 9 20 7 21 8 22 22 23
REMARK SMILES IDX 23 24 24 25 25 26 26 27 27 28 28 29 89 30 29 31 88 32 30 33
REMARK SMILES IDX 31 34 32 35 82 36 33 37 87 38 81 39 83 40 34 41 86 42 80 43
REMARK SMILES IDX 79 44 35 46 67 47 47 48 66 49 48 50 51 51 65 52 84 53 49 54
REMARK SMILES IDX 50 55 64 57 85 58 52 59 36 60 37 61 45 62 38 63 44 64 46 65
REMARK SMILES IDX 43 66 39 67 40 68 41 69 42 70 68 71 69 72 77 73 70 74 76 75
REMARK SMILES IDX 78 76 75 77 71 78 72 79 73 80 74 81 53 82 54 83 62 84 55 85
REMARK SMILES IDX 61 86 63 87 60 88 56 89 57 90 58 91 59 92
REMARK H PARENT 10 12 83 45 51 56
REMARK Flexibility Score: inf
ROOT
ATOM      1  O   UNL A   1      35.816  22.710  24.961  1.00  0.00    -0.461 OA
ENDROOT
BRANCH   1   2
ATOM      2  C   UNL A   1      34.875  21.788  25.294  1.00  0.00     0.326 C 
ATOM      3  O   UNL A   1      35.003  20.584  25.067  1.00  0.00    -0.250 OA
BRANCH   2   4
ATOM      4  C   UNL A   1      33.588  22.329  25.865  1.00  0.00     0.244 C 
BRANCH   4   5
ATOM      5  N   UNL A   1      32.489  22.663  24.958  1.00  0.00    -0.332 N 
ATOM      6  C   UNL A   1      31.378  23.429  25.253  1.00  0.00     0.107 A 
ATOM      7  C   UNL A   1      30.769  23.731  24.041  1.00  0.00     0.033 A 
ATOM      8  C   UNL A   1      31.449  23.070  23.010  1.00  0.00     0.020 A 
ATOM      9  C   UNL A   1      32.539  22.489  23.599  1.00  0.00     0.087 A 
BRANCH   6  10
ATOM     10  C   UNL A   1      31.003  23.888  26.566  1.00  0.00     0.268 C 
ATOM     11  N   UNL A   1      31.390  25.147  26.949  1.00  0.00    -0.348 N 
ATOM     12  H   UNL A   1      31.242  25.366  27.897  1.00  0.00     0.164 HD
ATOM     13  O   UNL A   1      30.341  23.220  27.355  1.00  0.00    -0.268 OA
BRANCH  11  14
ATOM     14  C   UNL A   1      31.994  26.210  26.143  1.00  0.00     0.079 C 
ATOM     15  C   UNL A   1      33.515  26.074  26.101  1.00  0.00     0.031 C 
BRANCH  14  16
ATOM     16  C   UNL A   1      31.500  27.593  26.621  1.00  0.00     0.032 C 
BRANCH  16  17
ATOM     17  C   UNL A   1      31.708  28.781  25.671  1.00  0.00     0.077 C 
BRANCH  17  18
ATOM     18  C   UNL A   1      32.367  29.941  26.322  1.00  0.00     0.103 A 
ATOM     19  C   UNL A   1      31.932  31.198  26.689  1.00  0.00     0.045 A 
ATOM     20  O   UNL A   1      33.654  29.755  26.730  1.00  0.00    -0.469 OA
ATOM     21  C   UNL A   1      32.987  31.781  27.432  1.00  0.00     0.042 A 
ATOM     22  C   UNL A   1      34.017  30.870  27.414  1.00  0.00     0.195 A 
ENDBRANCH  17  18
ENDBRANCH  16  17
ENDBRANCH  14  16
ENDBRANCH  11  14
ENDBRANCH   6  10
ENDBRANCH   4   5
ENDBRANCH   2   4
ENDBRANCH   1   2
BRANCH   1  23
ATOM     23  C   UNL A   1      36.330  23.501  26.062  1.00  0.00     0.274 C 
BRANCH  23  24
ATOM     24  C   UNL A   1      37.861  23.652  26.111  1.00  0.00     0.275 C 
BRANCH  24  25
ATOM     25  O   UNL A   1      38.335  24.667  27.004  1.00  0.00    -0.458 OA
BRANCH  25  26
ATOM     26  C   UNL A   1      39.600  24.404  27.380  1.00  0.00     0.338 C 
ATOM     27  O   UNL A   1      40.064  23.297  27.630  1.00  0.00    -0.246 OA
BRANCH  26  28
ATOM     28  C   UNL A   1      40.399  25.582  27.676  1.00  0.00     0.060 A 
ATOM     29  C   UNL A   1      40.494  25.932  29.025  1.00  0.00     0.016 A 
ATOM     30  C   UNL A   1      40.411  26.541  26.661  1.00  0.00     0.016 A 
ATOM     31  C   UNL A   1      40.353  27.258  29.383  1.00  0.00     0.010 A 
ATOM     32  C   UNL A   1      40.339  27.878  27.014  1.00  0.00     0.010 A 
ATOM     33  C   UNL A   1      40.265  28.227  28.374  1.00  0.00    -0.014 A 
BRANCH  33  34
ATOM     34  C   UNL A   1      40.529  29.620  28.775  1.00  0.00     0.031 A 
ATOM     35  C   UNL A   1      39.149  30.294  29.086  1.00  0.00     0.074 A 
ATOM     36  C   UNL A   1      41.840  30.037  28.798  1.00  0.00     0.049 A 
ATOM     37  N   UNL A   1      38.824  31.540  29.217  1.00  0.00    -0.248 NA
ATOM     38  C   UNL A   1      37.917  29.440  29.217  1.00  0.00     0.031 C 
ATOM     39  C   UNL A   1      43.030  29.206  28.459  1.00  0.00     0.029 A 
ATOM     40  N   UNL A   1      42.458  31.232  29.113  1.00  0.00    -0.354 N 
ATOM     41  C   UNL A   1      37.505  31.582  29.738  1.00  0.00     0.074 A 
ATOM     42  C   UNL A   1      36.949  30.286  29.559  1.00  0.00     0.031 C 
ATOM     43  C   UNL A   1      44.178  29.933  28.506  1.00  0.00     0.029 A 
ATOM     44  C   UNL A   1      43.882  31.291  28.925  1.00  0.00     0.049 A 
ATOM     45  H   UNL A   1      41.948  32.005  29.449  1.00  0.00     0.167 HD
ATOM     46  C   UNL A   1      37.023  32.639  30.454  1.00  0.00     0.034 A 
ATOM     47  C   UNL A   1      44.727  32.370  29.089  1.00  0.00     0.034 A 
ATOM     48  C   UNL A   1      37.987  33.683  30.444  1.00  0.00     0.049 A 
ATOM     49  C   UNL A   1      43.871  33.331  29.800  1.00  0.00     0.074 A 
ATOM     50  C   UNL A   1      38.440  34.485  29.433  1.00  0.00     0.029 A 
ATOM     51  N   UNL A   1      38.878  33.713  31.492  1.00  0.00    -0.354 N 
ATOM     52  N   UNL A   1      43.533  33.221  31.048  1.00  0.00    -0.248 NA
ATOM     53  C   UNL A   1      43.297  34.458  29.057  1.00  0.00     0.031 C 
ATOM     54  C   UNL A   1      39.824  34.512  29.675  1.00  0.00     0.029 A 
ATOM     55  C   UNL A   1      40.102  34.006  30.953  1.00  0.00     0.049 A 
ATOM     56  H   UNL A   1      38.675  33.554  32.443  1.00  0.00     0.167 HD
ATOM     57  C   UNL A   1      42.458  34.062  31.133  1.00  0.00     0.074 A 
ATOM     58  C   UNL A   1      42.593  35.009  30.043  1.00  0.00     0.031 C 
ATOM     59  C   UNL A   1      41.295  33.605  31.665  1.00  0.00     0.034 A 
BRANCH  46  60
ATOM     60  C   UNL A   1      35.865  32.798  31.400  1.00  0.00     0.023 A 
ATOM     61  C   UNL A   1      34.893  33.753  31.010  1.00  0.00     0.031 A 
ATOM     62  C   UNL A   1      35.841  32.394  32.740  1.00  0.00     0.131 A 
ATOM     63  C   UNL A   1      34.091  34.404  31.951  1.00  0.00     0.055 A 
ATOM     64  C   UNL A   1      34.968  32.984  33.669  1.00  0.00     0.041 A 
ATOM     65  F   UNL A   1      36.708  31.494  33.222  1.00  0.00    -0.206 F 
ATOM     66  C   UNL A   1      34.123  34.027  33.288  1.00  0.00     0.022 A 
BRANCH  63  67
ATOM     67  S   UNL A   1      33.192  35.884  31.409  1.00  0.00     0.124 S 
ATOM     68  O   UNL A   1      33.995  36.957  31.986  1.00  0.00    -0.237 OA
ATOM     69  O   UNL A   1      33.248  35.757  29.955  1.00  0.00    -0.237 OA
ATOM     70  O   UNL A   1      31.867  35.709  31.998  1.00  0.00    -0.744 OA
ENDBRANCH  63  67
ENDBRANCH  46  60
BRANCH  47  71
ATOM     71  C   UNL A   1      46.151  32.898  28.824  1.00  0.00     0.023 A 
ATOM     72  C   UNL A   1      46.701  33.365  27.614  1.00  0.00     0.031 A 
ATOM     73  C   UNL A   1      47.038  33.047  29.950  1.00  0.00     0.131 A 
ATOM     74  C   UNL A   1      47.988  34.004  27.605  1.00  0.00     0.055 A 
ATOM     75  C   UNL A   1      48.234  33.762  29.952  1.00  0.00     0.041 A 
ATOM     76  F   UNL A   1      46.789  32.489  31.142  1.00  0.00    -0.206 F 
ATOM     77  C   UNL A   1      48.711  34.264  28.773  1.00  0.00     0.022 A 
BRANCH  74  78
ATOM     78  S   UNL A   1      48.798  34.547  26.064  1.00  0.00     0.124 S 
ATOM     79  O   UNL A   1      47.690  34.526  25.116  1.00  0.00    -0.237 OA
ATOM     80  O   UNL A   1      49.322  35.863  26.414  1.00  0.00    -0.237 OA
ATOM     81  O   UNL A   1      49.820  33.522  25.841  1.00  0.00    -0.744 OA
ENDBRANCH  74  78
ENDBRANCH  47  71
BRANCH  59  82
ATOM     82  C   UNL A   1      41.441  32.445  32.651  1.00  0.00     0.023 A 
ATOM     83  C   UNL A   1      40.994  31.158  32.293  1.00  0.00     0.031 A 
ATOM     84  C   UNL A   1      41.909  32.580  33.971  1.00  0.00     0.131 A 
ATOM     85  C   UNL A   1      40.994  30.097  33.224  1.00  0.00     0.055 A 
ATOM     86  C   UNL A   1      41.907  31.530  34.903  1.00  0.00     0.041 A 
ATOM     87  F   UNL A   1      42.388  33.740  34.416  1.00  0.00    -0.206 F 
ATOM     88  C   UNL A   1      41.443  30.278  34.532  1.00  0.00     0.022 A 
BRANCH  85  89
ATOM     89  S   UNL A   1      40.426  28.456  32.699  1.00  0.00     0.124 S 
ATOM     90  O   UNL A   1      41.429  28.066  31.716  1.00  0.00    -0.237 OA
ATOM     91  O   UNL A   1      40.431  27.706  33.953  1.00  0.00    -0.237 OA
ATOM     92  O   UNL A   1      39.094  28.714  32.151  1.00  0.00    -0.744 OA
ENDBRANCH  85  89
ENDBRANCH  59  82
ENDBRANCH  33  34
ENDBRANCH  26  28
ENDBRANCH  25  26
ENDBRANCH  24  25
ENDBRANCH  23  24
ENDBRANCH   1  23
TORSDOF 20
ENDMDL
MODEL 2
REMARK VINA RESULT:     -10.3      4.432      9.996
REMARK SMILES C[C@H](CCc1ccco1)NC(=O)c1cccn1CC(=O)OCCOC(=O)c1ccc(-c2c3nc(c(-c4cc(S(=O)(=O)[O-])ccc4F)c4ccc([nH]4)c(-c4cc(S(=O)(=O)[O-])ccc4F)c4nc(c(-c5cc(S(=O)(=O)[O-])ccc5F)c5ccc2[nH]5)C=C4)C=C3)cc1
REMARK SMILES IDX 21 1 19 2 20 3 18 4 17 5 13 6 14 7 15 8 16 9 11 10 10 11
REMARK SMILES IDX 12 13 2 14 1 15 3 16 4 17 5 18 6 19 9 20 7 21 8 22 22 23
REMARK SMILES IDX 23 24 24 25 25 26 26 27 27 28 28 29 89 30 29 31 88 32 30 33
REMARK SMILES IDX 31 34 32 35 82 36 33 37 87 38 81 39 83 40 34 41 86 42 80 43
REMARK SMILES IDX 79 44 35 46 67 47 47 48 66 49 48 50 51 51 65 52 84 53 49 54
REMARK SMILES IDX 50 55 64 57 85 58 52 59 36 60 37 61 45 62 38 63 44 64 46 65
REMARK SMILES IDX 43 66 39 67 40 68 41 69 42 70 68 71 69 72 77 73 70 74 76 75
REMARK SMILES IDX 78 76 75 77 71 78 72 79 73 80 74 81 53 82 54 83 62 84 55 85
REMARK SMILES IDX 61 86 63 87 60 88 56 89 57 90 58 91 59 92
REMARK H PARENT 10 12 83 45 51 56
REMARK Flexibility Score: inf
ROOT
ATOM      1  O   UNL A   1      33.126  29.674  25.307  1.00  0.00    -0.461 OA
ENDROOT
BRANCH   1   2
ATOM      2  C   UNL A   1      32.117  28.854  24.909  1.00  0.00     0.326 C 
ATOM      3  O   UNL A   1      31.007  29.268  24.574  1.00  0.00    -0.250 OA
BRANCH   2   4
ATOM      4  C   UNL A   1      32.389  27.374  25.006  1.00  0.00     0.244 C 
BRANCH   4   5
ATOM      5  N   UNL A   1      31.601  26.449  24.191  1.00  0.00    -0.332 N 
ATOM      6  C   UNL A   1      32.083  25.560  23.249  1.00  0.00     0.107 A 
ATOM      7  C   UNL A   1      31.040  24.691  22.951  1.00  0.00     0.033 A 
ATOM      8  C   UNL A   1      29.890  25.104  23.637  1.00  0.00     0.020 A 
ATOM      9  C   UNL A   1      30.290  26.135  24.442  1.00  0.00     0.087 A 
BRANCH   6  10
ATOM     10  C   UNL A   1      33.437  25.512  22.761  1.00  0.00     0.268 C 
ATOM     11  N   UNL A   1      34.324  24.675  23.388  1.00  0.00    -0.348 N 
ATOM     12  H   UNL A   1      35.266  24.778  23.120  1.00  0.00     0.164 HD
ATOM     13  O   UNL A   1      33.836  26.167  21.802  1.00  0.00    -0.268 OA
BRANCH  11  14
ATOM     14  C   UNL A   1      34.066  23.650  24.401  1.00  0.00     0.079 C 
ATOM     15  C   UNL A   1      34.332  24.185  25.807  1.00  0.00     0.031 C 
BRANCH  14  16
ATOM     16  C   UNL A   1      34.837  22.355  24.065  1.00  0.00     0.032 C 
BRANCH  16  17
ATOM     17  C   UNL A   1      34.959  21.301  25.174  1.00  0.00     0.077 C 
BRANCH  17  18
ATOM     18  C   UNL A   1      34.062  20.135  24.972  1.00  0.00     0.103 A 
ATOM     19  C   UNL A   1      32.698  19.958  25.078  1.00  0.00     0.045 A 
ATOM     20  O   UNL A   1      34.647  18.992  24.517  1.00  0.00    -0.469 OA
ATOM     21  C   UNL A   1      32.428  18.659  24.584  1.00  0.00     0.042 A 
ATOM     22  C   UNL A   1      33.648  18.107  24.272  1.00  0.00     0.195 A 
ENDBRANCH  17  18
ENDBRANCH  16  17
ENDBRANCH  14  16
ENDBRANCH  11  14
ENDBRANCH   6  10
ENDBRANCH   4   5
ENDBRANCH   2   4
ENDBRANCH   1   2
BRANCH   1  23
ATOM     23  C   UNL A   1      34.264  29.013  25.914  1.00  0.00     0.274 C 
BRANCH  23  24
ATOM     24  C   UNL A   1      34.693  29.560  27.287  1.00  0.00     0.275 C 
BRANCH  24  25
ATOM     25  O   UNL A   1      36.032  29.228  27.673  1.00  0.00    -0.458 OA
BRANCH  25  26
ATOM     26  C   UNL A   1      36.644  30.301  28.208  1.00  0.00     0.338 C 
ATOM     27  O   UNL A   1      36.418  31.473  27.930  1.00  0.00    -0.246 OA
BRANCH  26  28
ATOM     28  C   UNL A   1      37.786  29.987  29.050  1.00  0.00     0.060 A 
ATOM     29  C   UNL A   1      39.040  30.308  28.523  1.00  0.00     0.016 A 
ATOM     30  C   UNL A   1      37.598  28.890  29.892  1.00  0.00     0.016 A 
ATOM     31  C   UNL A   1      40.066  29.391  28.635  1.00  0.00     0.010 A 
ATOM     32  C   UNL A   1      38.646  28.002  30.066  1.00  0.00     0.010 A 
ATOM     33  C   UNL A   1      39.862  28.234  29.399  1.00  0.00    -0.014 A 
BRANCH  33  34
ATOM     34  C   UNL A   1      41.069  27.509  29.829  1.00  0.00     0.031 A 
ATOM     35  C   UNL A   1      41.254  26.284  28.870  1.00  0.00     0.074 A 
ATOM     36  C   UNL A   1      41.756  28.005  30.913  1.00  0.00     0.049 A 
ATOM     37  N   UNL A   1      41.986  25.222  28.981  1.00  0.00    -0.248 NA
ATOM     38  C   UNL A   1      40.447  26.203  27.602  1.00  0.00     0.031 C 
ATOM     39  C   UNL A   1      41.396  29.220  31.697  1.00  0.00     0.029 A 
ATOM     40  N   UNL A   1      42.898  27.609  31.585  1.00  0.00    -0.354 N 
ATOM     41  C   UNL A   1      41.970  24.562  27.725  1.00  0.00     0.074 A 
ATOM     42  C   UNL A   1      40.890  25.112  26.983  1.00  0.00     0.031 C 
ATOM     43  C   UNL A   1      42.232  29.399  32.754  1.00  0.00     0.029 A 
ATOM     44  C   UNL A   1      43.252  28.366  32.755  1.00  0.00     0.049 A 
ATOM     45  H   UNL A   1      43.439  26.846  31.278  1.00  0.00     0.167 HD
ATOM     46  C   UNL A   1      42.970  23.731  27.310  1.00  0.00     0.034 A 
ATOM     47  C   UNL A   1      44.286  28.143  33.642  1.00  0.00     0.034 A 
ATOM     48  C   UNL A   1      43.893  23.550  28.375  1.00  0.00     0.049 A 
ATOM     49  C   UNL A   1      45.105  27.156  32.924  1.00  0.00     0.074 A 
ATOM     50  C   UNL A   1      43.770  22.914  29.580  1.00  0.00     0.029 A 
ATOM     51  N   UNL A   1      44.971  24.406  28.413  1.00  0.00    -0.354 N 
ATOM     52  N   UNL A   1      45.852  27.434  31.900  1.00  0.00    -0.248 NA
ATOM     53  C   UNL A   1      45.041  25.748  33.333  1.00  0.00     0.031 C 
ATOM     54  C   UNL A   1      44.411  23.809  30.454  1.00  0.00     0.029 A 
ATOM     55  C   UNL A   1      45.142  24.758  29.725  1.00  0.00     0.049 A 
ATOM     56  H   UNL A   1      45.513  24.705  27.646  1.00  0.00     0.167 HD
ATOM     57  C   UNL A   1      46.067  26.199  31.353  1.00  0.00     0.074 A 
ATOM     58  C   UNL A   1      45.868  25.239  32.422  1.00  0.00     0.031 C 
ATOM     59  C   UNL A   1      45.813  26.000  30.034  1.00  0.00     0.034 A 
BRANCH  46  60
ATOM     60  C   UNL A   1      43.389  23.221  25.959  1.00  0.00     0.023 A 
ATOM     61  C   UNL A   1      43.396  21.811  25.821  1.00  0.00     0.031 A 
ATOM     62  C   UNL A   1      44.098  23.945  24.993  1.00  0.00     0.131 A 
ATOM     63  C   UNL A   1      44.227  21.171  24.898  1.00  0.00     0.055 A 
ATOM     64  C   UNL A   1      44.860  23.301  24.005  1.00  0.00     0.041 A 
ATOM     65  F   UNL A   1      44.159  25.284  25.018  1.00  0.00    -0.206 F 
ATOM     66  C   UNL A   1      44.967  21.910  23.984  1.00  0.00     0.022 A 
BRANCH  63  67
ATOM     67  S   UNL A   1      44.472  19.382  25.085  1.00  0.00     0.124 S 
ATOM     68  O   UNL A   1      44.418  18.921  23.703  1.00  0.00    -0.237 OA
ATOM     69  O   UNL A   1      45.781  19.321  25.728  1.00  0.00    -0.237 OA
ATOM     70  O   UNL A   1      43.347  18.974  25.924  1.00  0.00    -0.744 OA
ENDBRANCH  63  67
ENDBRANCH  46  60
BRANCH  47  71
ATOM     71  C   UNL A   1      44.863  28.534  35.017  1.00  0.00     0.023 A 
ATOM     72  C   UNL A   1      44.716  27.869  36.250  1.00  0.00     0.031 A 
ATOM     73  C   UNL A   1      45.757  29.663  35.080  1.00  0.00     0.131 A 
ATOM     74  C   UNL A   1      45.492  28.276  37.388  1.00  0.00     0.055 A 
ATOM     75  C   UNL A   1      46.585  29.983  36.155  1.00  0.00     0.041 A 
ATOM     76  F   UNL A   1      45.880  30.542  34.078  1.00  0.00    -0.206 F 
ATOM     77  C   UNL A   1      46.469  29.274  37.318  1.00  0.00     0.022 A 
BRANCH  74  78
ATOM     78  S   UNL A   1      45.285  27.519  39.034  1.00  0.00     0.124 S 
ATOM     79  O   UNL A   1      44.132  26.650  38.824  1.00  0.00    -0.237 OA
ATOM     80  O   UNL A   1      46.563  26.853  39.253  1.00  0.00    -0.237 OA
ATOM     81  O   UNL A   1      45.038  28.670  39.905  1.00  0.00    -0.744 OA
ENDBRANCH  74  78
ENDBRANCH  47  71
BRANCH  59  82
ATOM     82  C   UNL A   1      45.898  27.252  29.159  1.00  0.00     0.023 A 
ATOM     83  C   UNL A   1      44.719  27.876  28.708  1.00  0.00     0.031 A 
ATOM     84  C   UNL A   1      47.099  27.794  28.665  1.00  0.00     0.131 A 
ATOM     85  C   UNL A   1      44.762  28.952  27.795  1.00  0.00     0.055 A 
ATOM     86  C   UNL A   1      47.148  28.860  27.752  1.00  0.00     0.041 A 
ATOM     87  F   UNL A   1      48.280  27.310  29.045  1.00  0.00    -0.206 F 
ATOM     88  C   UNL A   1      45.972  29.444  27.309  1.00  0.00     0.022 A 
BRANCH  85  89
ATOM     89  S   UNL A   1      43.210  29.729  27.267  1.00  0.00     0.124 S 
ATOM     90  O   UNL A   1      42.690  30.290  28.507  1.00  0.00    -0.237 OA
ATOM     91  O   UNL A   1      43.666  30.693  26.269  1.00  0.00    -0.237 OA
ATOM     92  O   UNL A   1      42.435  28.612  26.723  1.00  0.00    -0.744 OA
ENDBRANCH  85  89
ENDBRANCH  59  82
ENDBRANCH  33  34
ENDBRANCH  26  28
ENDBRANCH  25  26
ENDBRANCH  24  25
ENDBRANCH  23  24
ENDBRANCH   1  23
TORSDOF 20
ENDMDL
MODEL 3
REMARK VINA RESULT:     -10.3      3.697     11.008
REMARK SMILES C[C@H](CCc1ccco1)NC(=O)c1cccn1CC(=O)OCCOC(=O)c1ccc(-c2c3nc(c(-c4cc(S(=O)(=O)[O-])ccc4F)c4ccc([nH]4)c(-c4cc(S(=O)(=O)[O-])ccc4F)c4nc(c(-c5cc(S(=O)(=O)[O-])ccc5F)c5ccc2[nH]5)C=C4)C=C3)cc1
REMARK SMILES IDX 21 1 19 2 20 3 18 4 17 5 13 6 14 7 15 8 16 9 11 10 10 11
REMARK SMILES IDX 12 13 2 14 1 15 3 16 4 17 5 18 6 19 9 20 7 21 8 22 22 23
REMARK SMILES IDX 23 24 24 25 25 26 26 27 27 28 28 29 89 30 29 31 88 32 30 33
REMARK SMILES IDX 31 34 32 35 82 36 33 37 87 38 81 39 83 40 34 41 86 42 80 43
REMARK SMILES IDX 79 44 35 46 67 47 47 48 66 49 48 50 51 51 65 52 84 53 49 54
REMARK SMILES IDX 50 55 64 57 85 58 52 59 36 60 37 61 45 62 38 63 44 64 46 65
REMARK SMILES IDX 43 66 39 67 40 68 41 69 42 70 68 71 69 72 77 73 70 74 76 75
REMARK SMILES IDX 78 76 75 77 71 78 72 79 73 80 74 81 53 82 54 83 62 84 55 85
REMARK SMILES IDX 61 86 63 87 60 88 56 89 57 90 58 91 59 92
REMARK H PARENT 10 12 83 45 51 56
REMARK Flexibility Score: inf
ROOT
ATOM      1  O   UNL A   1      35.646  34.487  32.582  1.00  0.00    -0.461 OA
ENDROOT
BRANCH   1   2
ATOM      2  C   UNL A   1      34.697  33.581  32.223  1.00  0.00     0.326 C 
ATOM      3  O   UNL A   1      33.870  33.126  33.013  1.00  0.00    -0.250 OA
BRANCH   2   4
ATOM      4  C   UNL A   1      34.775  33.064  30.808  1.00  0.00     0.244 C 
BRANCH   4   5
ATOM      5  N   UNL A   1      35.534  31.844  30.536  1.00  0.00    -0.332 N 
ATOM      6  C   UNL A   1      35.916  31.368  29.295  1.00  0.00     0.107 A 
ATOM      7  C   UNL A   1      36.857  30.371  29.524  1.00  0.00     0.033 A 
ATOM      8  C   UNL A   1      36.982  30.167  30.904  1.00  0.00     0.020 A 
ATOM      9  C   UNL A   1      36.216  31.136  31.492  1.00  0.00     0.087 A 
BRANCH   6  10
ATOM     10  C   UNL A   1      35.474  31.889  28.028  1.00  0.00     0.268 C 
ATOM     11  N   UNL A   1      34.690  31.091  27.235  1.00  0.00    -0.348 N 
ATOM     12  H   UNL A   1      34.531  31.425  26.322  1.00  0.00     0.164 HD
ATOM     13  O   UNL A   1      35.747  33.017  27.626  1.00  0.00    -0.268 OA
BRANCH  11  14
ATOM     14  C   UNL A   1      34.056  29.811  27.555  1.00  0.00     0.079 C 
ATOM     15  C   UNL A   1      34.784  28.651  26.879  1.00  0.00     0.031 C 
BRANCH  14  16
ATOM     16  C   UNL A   1      32.544  29.868  27.251  1.00  0.00     0.032 C 
BRANCH  16  17
ATOM     17  C   UNL A   1      31.776  28.538  27.247  1.00  0.00     0.077 C 
BRANCH  17  18
ATOM     18  C   UNL A   1      31.334  28.124  25.892  1.00  0.00     0.103 A 
ATOM     19  C   UNL A   1      31.493  28.667  24.634  1.00  0.00     0.045 A 
ATOM     20  O   UNL A   1      30.692  26.925  25.805  1.00  0.00    -0.469 OA
ATOM     21  C   UNL A   1      30.991  27.707  23.722  1.00  0.00     0.042 A 
ATOM     22  C   UNL A   1      30.500  26.674  24.485  1.00  0.00     0.195 A 
ENDBRANCH  17  18
ENDBRANCH  16  17
ENDBRANCH  14  16
ENDBRANCH  11  14
ENDBRANCH   6  10
ENDBRANCH   4   5
ENDBRANCH   2   4
ENDBRANCH   1   2
BRANCH   1  23
ATOM     23  C   UNL A   1      36.463  34.116  33.719  1.00  0.00     0.274 C 
BRANCH  23  24
ATOM     24  C   UNL A   1      37.980  34.300  33.533  1.00  0.00     0.275 C 
BRANCH  24  25
ATOM     25  O   UNL A   1      38.566  33.470  32.524  1.00  0.00    -0.458 OA
BRANCH  25  26
ATOM     26  C   UNL A   1      39.255  32.462  33.091  1.00  0.00     0.338 C 
ATOM     27  O   UNL A   1      39.171  32.096  34.258  1.00  0.00    -0.246 OA
BRANCH  26  28
ATOM     28  C   UNL A   1      40.305  31.904  32.256  1.00  0.00     0.060 A 
ATOM     29  C   UNL A   1      40.182  32.138  30.883  1.00  0.00     0.016 A 
ATOM     30  C   UNL A   1      40.883  30.737  32.757  1.00  0.00     0.016 A 
ATOM     31  C   UNL A   1      40.411  31.096  30.006  1.00  0.00     0.010 A 
ATOM     32  C   UNL A   1      41.181  29.714  31.873  1.00  0.00     0.010 A 
ATOM     33  C   UNL A   1      40.901  29.882  30.506  1.00  0.00    -0.014 A 
BRANCH  33  34
ATOM     34  C   UNL A   1      41.511  28.966  29.528  1.00  0.00     0.031 A 
ATOM     35  C   UNL A   1      42.940  29.512  29.191  1.00  0.00     0.074 A 
ATOM     36  C   UNL A   1      40.765  27.882  29.122  1.00  0.00     0.049 A 
ATOM     37  N   UNL A   1      43.751  29.228  28.223  1.00  0.00    -0.248 NA
ATOM     38  C   UNL A   1      43.542  30.596  30.045  1.00  0.00     0.031 C 
ATOM     39  C   UNL A   1      39.391  27.542  29.585  1.00  0.00     0.029 A 
ATOM     40  N   UNL A   1      40.995  26.837  28.247  1.00  0.00    -0.354 N 
ATOM     41  C   UNL A   1      45.003  29.821  28.531  1.00  0.00     0.074 A 
ATOM     42  C   UNL A   1      44.768  30.773  29.560  1.00  0.00     0.031 C 
ATOM     43  C   UNL A   1      38.900  26.452  28.937  1.00  0.00     0.029 A 
ATOM     44  C   UNL A   1      39.903  25.930  28.025  1.00  0.00     0.049 A 
ATOM     45  H   UNL A   1      41.864  26.721  27.797  1.00  0.00     0.167 HD
ATOM     46  C   UNL A   1      46.187  29.351  28.041  1.00  0.00     0.034 A 
ATOM     47  C   UNL A   1      39.837  24.859  27.157  1.00  0.00     0.034 A 
ATOM     48  C   UNL A   1      45.922  28.315  27.104  1.00  0.00     0.049 A 
ATOM     49  C   UNL A   1      41.244  24.688  26.766  1.00  0.00     0.074 A 
ATOM     50  C   UNL A   1      45.342  28.343  25.866  1.00  0.00     0.029 A 
ATOM     51  N   UNL A   1      45.911  27.029  27.592  1.00  0.00    -0.354 N 
ATOM     52  N   UNL A   1      42.161  24.192  27.538  1.00  0.00    -0.248 NA
ATOM     53  C   UNL A   1      41.676  25.162  25.446  1.00  0.00     0.031 C 
ATOM     54  C   UNL A   1      44.514  27.209  25.903  1.00  0.00     0.029 A 
ATOM     55  C   UNL A   1      44.851  26.398  26.996  1.00  0.00     0.049 A 
ATOM     56  H   UNL A   1      46.540  26.638  28.241  1.00  0.00     0.167 HD
ATOM     57  C   UNL A   1      43.311  24.606  26.926  1.00  0.00     0.074 A 
ATOM     58  C   UNL A   1      42.969  24.858  25.539  1.00  0.00     0.031 C 
ATOM     59  C   UNL A   1      44.257  25.255  27.653  1.00  0.00     0.034 A 
BRANCH  46  60
ATOM     60  C   UNL A   1      47.619  29.527  28.467  1.00  0.00     0.023 A 
ATOM     61  C   UNL A   1      48.551  29.665  27.410  1.00  0.00     0.031 A 
ATOM     62  C   UNL A   1      48.145  29.206  29.725  1.00  0.00     0.131 A 
ATOM     63  C   UNL A   1      49.892  29.304  27.567  1.00  0.00     0.055 A 
ATOM     64  C   UNL A   1      49.511  28.933  29.901  1.00  0.00     0.041 A 
ATOM     65  F   UNL A   1      47.360  29.054  30.800  1.00  0.00    -0.206 F 
ATOM     66  C   UNL A   1      50.382  28.933  28.812  1.00  0.00     0.022 A 
BRANCH  63  67
ATOM     67  S   UNL A   1      50.894  29.121  26.064  1.00  0.00     0.124 S 
ATOM     68  O   UNL A   1      49.942  28.530  25.132  1.00  0.00    -0.237 OA
ATOM     69  O   UNL A   1      51.283  30.502  25.789  1.00  0.00    -0.237 OA
ATOM     70  O   UNL A   1      51.982  28.243  26.489  1.00  0.00    -0.744 OA
ENDBRANCH  63  67
ENDBRANCH  46  60
BRANCH  47  71
ATOM     71  C   UNL A   1      38.890  23.836  26.499  1.00  0.00     0.023 A 
ATOM     72  C   UNL A   1      37.715  24.078  25.760  1.00  0.00     0.031 A 
ATOM     73  C   UNL A   1      39.269  22.445  26.530  1.00  0.00     0.131 A 
ATOM     74  C   UNL A   1      37.072  23.006  25.054  1.00  0.00     0.055 A 
ATOM     75  C   UNL A   1      38.702  21.433  25.758  1.00  0.00     0.041 A 
ATOM     76  F   UNL A   1      40.231  21.978  27.335  1.00  0.00    -0.206 F 
ATOM     77  C   UNL A   1      37.602  21.713  24.995  1.00  0.00     0.022 A 
BRANCH  74  78
ATOM     78  S   UNL A   1      35.500  23.231  24.156  1.00  0.00     0.124 S 
ATOM     79  O   UNL A   1      34.765  22.027  24.526  1.00  0.00    -0.237 OA
ATOM     80  O   UNL A   1      34.992  24.488  24.694  1.00  0.00    -0.237 OA
ATOM     81  O   UNL A   1      35.919  23.290  22.754  1.00  0.00    -0.744 OA
ENDBRANCH  74  78
ENDBRANCH  47  71
BRANCH  59  82
ATOM     82  C   UNL A   1      44.254  24.944  29.151  1.00  0.00     0.023 A 
ATOM     83  C   UNL A   1      44.132  25.991  30.086  1.00  0.00     0.031 A 
ATOM     84  C   UNL A   1      44.472  23.666  29.696  1.00  0.00     0.131 A 
ATOM     85  C   UNL A   1      44.256  25.754  31.472  1.00  0.00     0.055 A 
ATOM     86  C   UNL A   1      44.602  23.424  31.073  1.00  0.00     0.041 A 
ATOM     87  F   UNL A   1      44.571  22.592  28.914  1.00  0.00    -0.206 F 
ATOM     88  C   UNL A   1      44.497  24.475  31.971  1.00  0.00     0.022 A 
BRANCH  85  89
ATOM     89  S   UNL A   1      44.068  27.138  32.629  1.00  0.00     0.124 S 
ATOM     90  O   UNL A   1      42.623  27.319  32.685  1.00  0.00    -0.237 OA
ATOM     91  O   UNL A   1      44.698  26.622  33.841  1.00  0.00    -0.237 OA
ATOM     92  O   UNL A   1      44.801  28.228  31.981  1.00  0.00    -0.744 OA
ENDBRANCH  85  89
ENDBRANCH  59  82
ENDBRANCH  33  34
ENDBRANCH  26  28
ENDBRANCH  25  26
ENDBRANCH  24  25
ENDBRANCH  23  24
ENDBRANCH   1  23
TORSDOF 20
ENDMDL
