MODEL 1
REMARK VINA RESULT:     -12.4      0.000      0.000
REMARK SMILES O=C(OCCOC(=O)[C@H]1C[C@](O)(c2ccc(F)cc2)[C@@H](c2ccc(F)cc2)O1)c1ccc(-c2c3nc(c(-c4cc(S(=O)(=O)[O-])ccc4F)c4ccc([nH]4)c(-c4cc(S(=O)(=O)[O-])ccc4F)c4nc(c(-c5cc(S(=O)(=O)[O-])ccc5F)c5ccc2[nH]5)C=C4)C=C3)cc1
REMARK SMILES IDX 4 1 3 2 2 3 1 4 29 5 30 6 91 7 31 8 90 9 32 10 33 11 34 12
REMARK SMILES IDX 84 13 35 14 89 15 83 16 85 17 36 18 88 19 82 20 81 21 37 23
REMARK SMILES IDX 69 24 49 25 68 26 50 27 53 28 67 29 86 30 51 31 52 32 66 34
REMARK SMILES IDX 87 35 54 36 38 37 39 38 47 39 40 40 46 41 48 42 45 43 41 44
REMARK SMILES IDX 42 45 43 46 44 47 70 48 71 49 79 50 72 51 78 52 80 53 77 54
REMARK SMILES IDX 73 55 74 56 75 57 76 58 55 59 56 60 64 61 57 62 63 63 65 64
REMARK SMILES IDX 62 65 58 66 59 67 60 68 61 69 5 70 6 71 7 72 8 73 9 74 10 75
REMARK SMILES IDX 28 76 11 77 20 78 13 79 14 80 19 81 15 82 18 83 16 84 17 85
REMARK SMILES IDX 12 86 21 88 22 89 27 90 23 91 26 92 24 93 25 94
REMARK H PARENT 85 22 53 33 12 87
REMARK Flexibility Score: inf
ROOT
ATOM      1  C   UNL A   1      31.299  32.286  26.857  1.00  0.00     0.275 C 
ENDROOT
BRANCH   1   2
ATOM      2  O   UNL A   1      32.486  33.101  26.781  1.00  0.00    -0.458 OA
BRANCH   2   3
ATOM      3  C   UNL A   1      33.146  33.529  27.888  1.00  0.00     0.338 C 
ATOM      4  O   UNL A   1      32.871  34.599  28.420  1.00  0.00    -0.246 OA
BRANCH   3   5
ATOM      5  C   UNL A   1      34.401  32.830  28.264  1.00  0.00     0.060 A 
ATOM      6  C   UNL A   1      34.427  31.552  28.827  1.00  0.00     0.016 A 
ATOM      7  C   UNL A   1      35.597  33.558  28.168  1.00  0.00     0.016 A 
ATOM      8  C   UNL A   1      35.639  30.986  29.231  1.00  0.00     0.010 A 
ATOM      9  C   UNL A   1      36.814  32.991  28.565  1.00  0.00     0.010 A 
ATOM     10  C   UNL A   1      36.837  31.703  29.114  1.00  0.00    -0.014 A 
BRANCH  10  11
ATOM     11  C   UNL A   1      38.064  31.159  29.746  1.00  0.00     0.031 A 
ATOM     12  C   UNL A   1      38.383  31.565  31.156  1.00  0.00     0.074 A 
ATOM     13  C   UNL A   1      38.831  30.254  29.111  1.00  0.00     0.049 A 
ATOM     14  N   UNL A   1      39.293  31.094  31.967  1.00  0.00    -0.248 NA
ATOM     15  C   UNL A   1      37.557  32.639  31.729  1.00  0.00     0.031 C 
ATOM     16  C   UNL A   1      38.624  29.778  27.745  1.00  0.00     0.029 A 
ATOM     17  N   UNL A   1      39.930  29.557  29.547  1.00  0.00    -0.354 N 
ATOM     18  C   UNL A   1      39.117  31.777  33.163  1.00  0.00     0.074 A 
ATOM     19  C   UNL A   1      38.059  32.741  32.949  1.00  0.00     0.031 C 
ATOM     20  C   UNL A   1      39.558  28.852  27.459  1.00  0.00     0.029 A 
ATOM     21  C   UNL A   1      40.423  28.668  28.622  1.00  0.00     0.049 A 
ATOM     22  H   UNL A   1      40.328  29.683  30.438  1.00  0.00     0.167 HD
ATOM     23  C   UNL A   1      39.757  31.603  34.344  1.00  0.00     0.034 A 
ATOM     24  C   UNL A   1      41.443  27.793  28.714  1.00  0.00     0.034 A 
ATOM     25  C   UNL A   1      40.842  30.681  34.546  1.00  0.00     0.049 A 
ATOM     26  C   UNL A   1      42.199  27.672  30.011  1.00  0.00     0.074 A 
ATOM     27  C   UNL A   1      41.585  30.453  35.691  1.00  0.00     0.029 A 
ATOM     28  N   UNL A   1      41.351  29.843  33.565  1.00  0.00    -0.354 N 
ATOM     29  N   UNL A   1      42.008  28.314  31.139  1.00  0.00    -0.248 NA
ATOM     30  C   UNL A   1      43.302  26.700  30.049  1.00  0.00     0.031 C 
ATOM     31  C   UNL A   1      42.568  29.501  35.391  1.00  0.00     0.029 A 
ATOM     32  C   UNL A   1      42.411  29.110  34.070  1.00  0.00     0.049 A 
ATOM     33  H   UNL A   1      41.009  29.778  32.644  1.00  0.00     0.167 HD
ATOM     34  C   UNL A   1      42.954  27.811  32.026  1.00  0.00     0.074 A 
ATOM     35  C   UNL A   1      43.719  26.815  31.303  1.00  0.00     0.031 C 
ATOM     36  C   UNL A   1      43.167  28.136  33.326  1.00  0.00     0.034 A 
BRANCH  23  37
ATOM     37  C   UNL A   1      39.290  32.461  35.485  1.00  0.00     0.023 A 
ATOM     38  C   UNL A   1      39.737  33.788  35.614  1.00  0.00     0.031 A 
ATOM     39  C   UNL A   1      38.466  31.931  36.490  1.00  0.00     0.131 A 
ATOM     40  C   UNL A   1      39.408  34.522  36.762  1.00  0.00     0.055 A 
ATOM     41  C   UNL A   1      38.095  32.688  37.603  1.00  0.00     0.041 A 
ATOM     42  F   UNL A   1      38.038  30.660  36.423  1.00  0.00    -0.206 F 
ATOM     43  C   UNL A   1      38.577  33.987  37.749  1.00  0.00     0.022 A 
BRANCH  40  44
ATOM     44  S   UNL A   1      40.164  36.154  36.996  1.00  0.00     0.124 S 
ATOM     45  O   UNL A   1      39.891  36.791  35.712  1.00  0.00    -0.237 OA
ATOM     46  O   UNL A   1      39.432  36.685  38.141  1.00  0.00    -0.237 OA
ATOM     47  O   UNL A   1      41.570  35.844  37.248  1.00  0.00    -0.744 OA
ENDBRANCH  40  44
ENDBRANCH  23  37
BRANCH  24  48
ATOM     48  C   UNL A   1      41.818  26.958  27.543  1.00  0.00     0.023 A 
ATOM     49  C   UNL A   1      41.551  25.581  27.516  1.00  0.00     0.031 A 
ATOM     50  C   UNL A   1      42.476  27.534  26.443  1.00  0.00     0.131 A 
ATOM     51  C   UNL A   1      41.966  24.816  26.414  1.00  0.00     0.055 A 
ATOM     52  C   UNL A   1      42.866  26.772  25.341  1.00  0.00     0.041 A 
ATOM     53  F   UNL A   1      42.743  28.849  26.427  1.00  0.00    -0.206 F 
ATOM     54  C   UNL A   1      42.615  25.403  25.325  1.00  0.00     0.022 A 
BRANCH  51  55
ATOM     55  S   UNL A   1      41.654  23.029  26.427  1.00  0.00     0.124 S 
ATOM     56  O   UNL A   1      40.196  22.981  26.432  1.00  0.00    -0.237 OA
ATOM     57  O   UNL A   1      42.307  22.596  25.195  1.00  0.00    -0.237 OA
ATOM     58  O   UNL A   1      42.299  22.580  27.658  1.00  0.00    -0.744 OA
ENDBRANCH  51  55
ENDBRANCH  24  48
BRANCH  36  59
ATOM     59  C   UNL A   1      44.254  27.393  34.047  1.00  0.00     0.023 A 
ATOM     60  C   UNL A   1      44.009  26.146  34.644  1.00  0.00     0.031 A 
ATOM     61  C   UNL A   1      45.552  27.925  34.108  1.00  0.00     0.131 A 
ATOM     62  C   UNL A   1      45.050  25.477  35.303  1.00  0.00     0.055 A 
ATOM     63  C   UNL A   1      46.591  27.243  34.740  1.00  0.00     0.041 A 
ATOM     64  F   UNL A   1      45.829  29.112  33.546  1.00  0.00    -0.206 F 
ATOM     65  C   UNL A   1      46.342  26.013  35.343  1.00  0.00     0.022 A 
BRANCH  62  66
ATOM     66  S   UNL A   1      44.705  23.889  36.108  1.00  0.00     0.124 S 
ATOM     67  O   UNL A   1      43.393  23.554  35.562  1.00  0.00    -0.237 OA
ATOM     68  O   UNL A   1      45.813  23.053  35.659  1.00  0.00    -0.237 OA
ATOM     69  O   UNL A   1      44.720  24.219  37.532  1.00  0.00    -0.744 OA
ENDBRANCH  62  66
ENDBRANCH  36  59
ENDBRANCH  10  11
ENDBRANCH   3   5
ENDBRANCH   2   3
ENDBRANCH   1   2
BRANCH   1  70
ATOM     70  C   UNL A   1      31.373  31.132  25.863  1.00  0.00     0.274 C 
BRANCH  70  71
ATOM     71  O   UNL A   1      32.616  30.449  26.041  1.00  0.00    -0.460 OA
BRANCH  71  72
ATOM     72  C   UNL A   1      32.531  29.220  26.628  1.00  0.00     0.335 C 
ATOM     73  O   UNL A   1      31.840  28.961  27.605  1.00  0.00    -0.249 OA
BRANCH  72  74
ATOM     74  C   UNL A   1      33.392  28.226  25.846  1.00  0.00     0.232 C 
ATOM     75  C   UNL A   1      33.345  26.797  26.353  1.00  0.00     0.087 C 
ATOM     76  O   UNL A   1      32.987  28.213  24.482  1.00  0.00    -0.355 OA
ATOM     77  C   UNL A   1      32.558  25.985  25.313  1.00  0.00     0.123 C 
ATOM     78  C   UNL A   1      32.253  27.019  24.188  1.00  0.00     0.186 C 
BRANCH  77  79
ATOM     79  C   UNL A   1      33.343  24.720  24.930  1.00  0.00    -0.013 A 
ATOM     80  C   UNL A   1      34.030  24.026  25.953  1.00  0.00     0.010 A 
ATOM     81  C   UNL A   1      33.441  24.204  23.624  1.00  0.00     0.010 A 
ATOM     82  C   UNL A   1      34.790  22.885  25.682  1.00  0.00     0.039 A 
ATOM     83  C   UNL A   1      34.197  23.057  23.354  1.00  0.00     0.039 A 
ATOM     84  C   UNL A   1      34.866  22.410  24.382  1.00  0.00     0.123 A 
ATOM     85  F   UNL A   1      35.586  21.314  24.118  1.00  0.00    -0.207 F 
ENDBRANCH  77  79
BRANCH  77  86
ATOM     86  O   UNL A   1      31.360  25.508  25.947  1.00  0.00    -0.382 OA
ATOM     87  H   UNL A   1      30.605  25.641  25.352  1.00  0.00     0.212 HD
ENDBRANCH  77  86
BRANCH  78  88
ATOM     88  C   UNL A   1      30.805  27.394  23.893  1.00  0.00    -0.016 A 
ATOM     89  C   UNL A   1      30.434  28.665  23.424  1.00  0.00     0.009 A 
ATOM     90  C   UNL A   1      29.796  26.423  24.047  1.00  0.00     0.009 A 
ATOM     91  C   UNL A   1      29.103  28.955  23.112  1.00  0.00     0.039 A 
ATOM     92  C   UNL A   1      28.464  26.715  23.739  1.00  0.00     0.039 A 
ATOM     93  C   UNL A   1      28.130  27.978  23.272  1.00  0.00     0.123 A 
ATOM     94  F   UNL A   1      26.853  28.263  22.982  1.00  0.00    -0.207 F 
ENDBRANCH  78  88
ENDBRANCH  72  74
ENDBRANCH  71  72
ENDBRANCH  70  71
ENDBRANCH   1  70
TORSDOF 17
ENDMDL
MODEL 2
REMARK VINA RESULT:     -12.4      4.785     10.163
REMARK SMILES O=C(OCCOC(=O)[C@H]1C[C@](O)(c2ccc(F)cc2)[C@@H](c2ccc(F)cc2)O1)c1ccc(-c2c3nc(c(-c4cc(S(=O)(=O)[O-])ccc4F)c4ccc([nH]4)c(-c4cc(S(=O)(=O)[O-])ccc4F)c4nc(c(-c5cc(S(=O)(=O)[O-])ccc5F)c5ccc2[nH]5)C=C4)C=C3)cc1
REMARK SMILES IDX 4 1 3 2 2 3 1 4 29 5 30 6 91 7 31 8 90 9 32 10 33 11 34 12
REMARK SMILES IDX 84 13 35 14 89 15 83 16 85 17 36 18 88 19 82 20 81 21 37 23
REMARK SMILES IDX 69 24 49 25 68 26 50 27 53 28 67 29 86 30 51 31 52 32 66 34
REMARK SMILES IDX 87 35 54 36 38 37 39 38 47 39 40 40 46 41 48 42 45 43 41 44
REMARK SMILES IDX 42 45 43 46 44 47 70 48 71 49 79 50 72 51 78 52 80 53 77 54
REMARK SMILES IDX 73 55 74 56 75 57 76 58 55 59 56 60 64 61 57 62 63 63 65 64
REMARK SMILES IDX 62 65 58 66 59 67 60 68 61 69 5 70 6 71 7 72 8 73 9 74 10 75
REMARK SMILES IDX 28 76 11 77 20 78 13 79 14 80 19 81 15 82 18 83 16 84 17 85
REMARK SMILES IDX 12 86 21 88 22 89 27 90 23 91 26 92 24 93 25 94
REMARK H PARENT 85 22 53 33 12 87
REMARK Flexibility Score: inf
ROOT
ATOM      1  C   UNL A   1      37.517  20.763  25.242  1.00  0.00     0.275 C 
ENDROOT
BRANCH   1   2
ATOM      2  O   UNL A   1      38.327  21.949  25.362  1.00  0.00    -0.458 OA
BRANCH   2   3
ATOM      3  C   UNL A   1      39.360  22.039  26.238  1.00  0.00     0.338 C 
ATOM      4  O   UNL A   1      39.911  21.036  26.678  1.00  0.00    -0.246 OA
BRANCH   3   5
ATOM      5  C   UNL A   1      39.613  23.351  26.886  1.00  0.00     0.060 A 
ATOM      6  C   UNL A   1      38.926  24.518  26.543  1.00  0.00     0.016 A 
ATOM      7  C   UNL A   1      40.688  23.431  27.783  1.00  0.00     0.016 A 
ATOM      8  C   UNL A   1      39.269  25.736  27.137  1.00  0.00     0.010 A 
ATOM      9  C   UNL A   1      41.031  24.648  28.385  1.00  0.00     0.010 A 
ATOM     10  C   UNL A   1      40.329  25.812  28.051  1.00  0.00    -0.014 A 
BRANCH  10  11
ATOM     11  C   UNL A   1      40.799  27.147  28.494  1.00  0.00     0.031 A 
ATOM     12  C   UNL A   1      42.239  27.511  28.265  1.00  0.00     0.074 A 
ATOM     13  C   UNL A   1      39.946  28.051  29.009  1.00  0.00     0.049 A 
ATOM     14  N   UNL A   1      42.833  28.666  28.408  1.00  0.00    -0.248 NA
ATOM     15  C   UNL A   1      43.120  26.427  27.803  1.00  0.00     0.031 C 
ATOM     16  C   UNL A   1      38.528  27.821  29.275  1.00  0.00     0.029 A 
ATOM     17  N   UNL A   1      40.149  29.357  29.378  1.00  0.00    -0.354 N 
ATOM     18  C   UNL A   1      44.147  28.461  28.006  1.00  0.00     0.074 A 
ATOM     19  C   UNL A   1      44.277  27.057  27.679  1.00  0.00     0.031 C 
ATOM     20  C   UNL A   1      37.982  28.954  29.751  1.00  0.00     0.029 A 
ATOM     21  C   UNL A   1      39.011  29.990  29.816  1.00  0.00     0.049 A 
ATOM     22  H   UNL A   1      41.028  29.799  29.332  1.00  0.00     0.167 HD
ATOM     23  C   UNL A   1      45.151  29.363  27.891  1.00  0.00     0.034 A 
ATOM     24  C   UNL A   1      38.821  31.265  30.208  1.00  0.00     0.034 A 
ATOM     25  C   UNL A   1      45.039  30.747  28.263  1.00  0.00     0.049 A 
ATOM     26  C   UNL A   1      39.971  32.235  30.153  1.00  0.00     0.074 A 
ATOM     27  C   UNL A   1      46.005  31.737  28.223  1.00  0.00     0.029 A 
ATOM     28  N   UNL A   1      43.886  31.334  28.763  1.00  0.00    -0.354 N 
ATOM     29  N   UNL A   1      41.204  32.030  29.753  1.00  0.00    -0.248 NA
ATOM     30  C   UNL A   1      39.701  33.612  30.593  1.00  0.00     0.031 C 
ATOM     31  C   UNL A   1      45.445  32.916  28.733  1.00  0.00     0.029 A 
ATOM     32  C   UNL A   1      44.119  32.667  29.055  1.00  0.00     0.049 A 
ATOM     33  H   UNL A   1      43.026  30.871  28.891  1.00  0.00     0.167 HD
ATOM     34  C   UNL A   1      41.851  33.255  29.877  1.00  0.00     0.074 A 
ATOM     35  C   UNL A   1      40.876  34.195  30.392  1.00  0.00     0.031 C 
ATOM     36  C   UNL A   1      43.136  33.578  29.582  1.00  0.00     0.034 A 
BRANCH  23  37
ATOM     37  C   UNL A   1      46.455  28.841  27.360  1.00  0.00     0.023 A 
ATOM     38  C   UNL A   1      46.620  28.590  25.986  1.00  0.00     0.031 A 
ATOM     39  C   UNL A   1      47.506  28.516  28.231  1.00  0.00     0.131 A 
ATOM     40  C   UNL A   1      47.789  27.966  25.530  1.00  0.00     0.055 A 
ATOM     41  C   UNL A   1      48.691  27.947  27.762  1.00  0.00     0.041 A 
ATOM     42  F   UNL A   1      47.382  28.712  29.553  1.00  0.00    -0.206 F 
ATOM     43  C   UNL A   1      48.833  27.658  26.406  1.00  0.00     0.022 A 
BRANCH  40  44
ATOM     44  S   UNL A   1      47.889  27.470  23.788  1.00  0.00     0.124 S 
ATOM     45  O   UNL A   1      47.627  26.036  23.877  1.00  0.00    -0.237 OA
ATOM     46  O   UNL A   1      46.843  28.273  23.166  1.00  0.00    -0.237 OA
ATOM     47  O   UNL A   1      49.255  27.828  23.411  1.00  0.00    -0.744 OA
ENDBRANCH  40  44
ENDBRANCH  23  37
BRANCH  24  48
ATOM     48  C   UNL A   1      37.487  31.707  30.691  1.00  0.00     0.023 A 
ATOM     49  C   UNL A   1      36.587  32.367  29.841  1.00  0.00     0.031 A 
ATOM     50  C   UNL A   1      37.109  31.491  32.027  1.00  0.00     0.131 A 
ATOM     51  C   UNL A   1      35.355  32.814  30.346  1.00  0.00     0.055 A 
ATOM     52  C   UNL A   1      35.874  31.918  32.518  1.00  0.00     0.041 A 
ATOM     53  F   UNL A   1      37.938  30.856  32.870  1.00  0.00    -0.206 F 
ATOM     54  C   UNL A   1      34.991  32.588  31.677  1.00  0.00     0.022 A 
BRANCH  51  55
ATOM     55  S   UNL A   1      34.232  33.710  29.240  1.00  0.00     0.124 S 
ATOM     56  O   UNL A   1      33.288  34.298  30.185  1.00  0.00    -0.237 OA
ATOM     57  O   UNL A   1      35.138  34.640  28.573  1.00  0.00    -0.237 OA
ATOM     58  O   UNL A   1      33.687  32.659  28.384  1.00  0.00    -0.744 OA
ENDBRANCH  51  55
ENDBRANCH  24  48
BRANCH  36  59
ATOM     59  C   UNL A   1      43.546  35.007  29.791  1.00  0.00     0.023 A 
ATOM     60  C   UNL A   1      43.267  35.991  28.830  1.00  0.00     0.031 A 
ATOM     61  C   UNL A   1      44.195  35.388  30.977  1.00  0.00     0.131 A 
ATOM     62  C   UNL A   1      43.658  37.317  29.063  1.00  0.00     0.055 A 
ATOM     63  C   UNL A   1      44.557  36.713  31.215  1.00  0.00     0.041 A 
ATOM     64  F   UNL A   1      44.477  34.479  31.922  1.00  0.00    -0.206 F 
ATOM     65  C   UNL A   1      44.291  37.686  30.255  1.00  0.00     0.022 A 
BRANCH  62  66
ATOM     66  S   UNL A   1      43.329  38.567  27.790  1.00  0.00     0.124 S 
ATOM     67  O   UNL A   1      42.391  39.452  28.473  1.00  0.00    -0.237 OA
ATOM     68  O   UNL A   1      44.654  39.122  27.534  1.00  0.00    -0.237 OA
ATOM     69  O   UNL A   1      42.763  37.791  26.688  1.00  0.00    -0.744 OA
ENDBRANCH  62  66
ENDBRANCH  36  59
ENDBRANCH  10  11
ENDBRANCH   3   5
ENDBRANCH   2   3
ENDBRANCH   1   2
BRANCH   1  70
ATOM     70  C   UNL A   1      36.037  21.124  25.176  1.00  0.00     0.274 C 
BRANCH  70  71
ATOM     71  O   UNL A   1      35.818  22.311  25.943  1.00  0.00    -0.460 OA
BRANCH  71  72
ATOM     72  C   UNL A   1      34.728  22.286  26.764  1.00  0.00     0.335 C 
ATOM     73  O   UNL A   1      34.535  21.452  27.639  1.00  0.00    -0.249 OA
BRANCH  72  74
ATOM     74  C   UNL A   1      33.827  23.480  26.445  1.00  0.00     0.232 C 
ATOM     75  C   UNL A   1      34.350  24.411  25.368  1.00  0.00     0.087 C 
ATOM     76  O   UNL A   1      32.548  23.015  26.030  1.00  0.00    -0.355 OA
ATOM     77  C   UNL A   1      33.462  24.199  24.132  1.00  0.00     0.123 C 
ATOM     78  C   UNL A   1      32.391  23.176  24.616  1.00  0.00     0.186 C 
BRANCH  77  79
ATOM     79  C   UNL A   1      32.970  25.555  23.601  1.00  0.00    -0.013 A 
ATOM     80  C   UNL A   1      33.658  26.722  24.009  1.00  0.00     0.010 A 
ATOM     81  C   UNL A   1      31.868  25.725  22.742  1.00  0.00     0.010 A 
ATOM     82  C   UNL A   1      33.255  27.993  23.594  1.00  0.00     0.039 A 
ATOM     83  C   UNL A   1      31.468  26.999  22.322  1.00  0.00     0.039 A 
ATOM     84  C   UNL A   1      32.162  28.120  22.752  1.00  0.00     0.123 A 
ATOM     85  F   UNL A   1      31.775  29.336  22.346  1.00  0.00    -0.207 F 
ENDBRANCH  77  79
BRANCH  77  86
ATOM     86  O   UNL A   1      34.288  23.662  23.087  1.00  0.00    -0.382 OA
ATOM     87  H   UNL A   1      34.492  22.733  23.281  1.00  0.00     0.212 HD
ENDBRANCH  77  86
BRANCH  78  88
ATOM     88  C   UNL A   1      32.333  21.797  23.969  1.00  0.00    -0.016 A 
ATOM     89  C   UNL A   1      32.144  21.617  22.589  1.00  0.00     0.009 A 
ATOM     90  C   UNL A   1      32.523  20.651  24.767  1.00  0.00     0.009 A 
ATOM     91  C   UNL A   1      32.150  20.339  22.023  1.00  0.00     0.039 A 
ATOM     92  C   UNL A   1      32.525  19.374  24.201  1.00  0.00     0.039 A 
ATOM     93  C   UNL A   1      32.341  19.230  22.833  1.00  0.00     0.123 A 
ATOM     94  F   UNL A   1      32.336  18.004  22.289  1.00  0.00    -0.207 F 
ENDBRANCH  78  88
ENDBRANCH  72  74
ENDBRANCH  71  72
ENDBRANCH  70  71
ENDBRANCH   1  70
TORSDOF 17
ENDMDL
MODEL 3
REMARK VINA RESULT:     -12.3      2.038      2.668
REMARK SMILES O=C(OCCOC(=O)[C@H]1C[C@](O)(c2ccc(F)cc2)[C@@H](c2ccc(F)cc2)O1)c1ccc(-c2c3nc(c(-c4cc(S(=O)(=O)[O-])ccc4F)c4ccc([nH]4)c(-c4cc(S(=O)(=O)[O-])ccc4F)c4nc(c(-c5cc(S(=O)(=O)[O-])ccc5F)c5ccc2[nH]5)C=C4)C=C3)cc1
REMARK SMILES IDX 4 1 3 2 2 3 1 4 29 5 30 6 91 7 31 8 90 9 32 10 33 11 34 12
REMARK SMILES IDX 84 13 35 14 89 15 83 16 85 17 36 18 88 19 82 20 81 21 37 23
REMARK SMILES IDX 69 24 49 25 68 26 50 27 53 28 67 29 86 30 51 31 52 32 66 34
REMARK SMILES IDX 87 35 54 36 38 37 39 38 47 39 40 40 46 41 48 42 45 43 41 44
REMARK SMILES IDX 42 45 43 46 44 47 70 48 71 49 79 50 72 51 78 52 80 53 77 54
REMARK SMILES IDX 73 55 74 56 75 57 76 58 55 59 56 60 64 61 57 62 63 63 65 64
REMARK SMILES IDX 62 65 58 66 59 67 60 68 61 69 5 70 6 71 7 72 8 73 9 74 10 75
REMARK SMILES IDX 28 76 11 77 20 78 13 79 14 80 19 81 15 82 18 83 16 84 17 85
REMARK SMILES IDX 12 86 21 88 22 89 27 90 23 91 26 92 24 93 25 94
REMARK H PARENT 85 22 53 33 12 87
REMARK Flexibility Score: inf
ROOT
ATOM      1  C   UNL A   1      32.140  31.061  26.619  1.00  0.00     0.275 C 
ENDROOT
BRANCH   1   2
ATOM      2  O   UNL A   1      33.128  30.800  27.635  1.00  0.00    -0.458 OA
BRANCH   2   3
ATOM      3  C   UNL A   1      34.189  31.620  27.846  1.00  0.00     0.338 C 
ATOM      4  O   UNL A   1      34.137  32.813  27.568  1.00  0.00    -0.246 OA
BRANCH   3   5
ATOM      5  C   UNL A   1      35.505  30.996  28.135  1.00  0.00     0.060 A 
ATOM      6  C   UNL A   1      35.657  29.647  28.465  1.00  0.00     0.016 A 
ATOM      7  C   UNL A   1      36.619  31.846  28.208  1.00  0.00     0.016 A 
ATOM      8  C   UNL A   1      36.917  29.143  28.802  1.00  0.00     0.010 A 
ATOM      9  C   UNL A   1      37.884  31.343  28.539  1.00  0.00     0.010 A 
ATOM     10  C   UNL A   1      38.034  29.987  28.853  1.00  0.00    -0.014 A 
BRANCH  10  11
ATOM     11  C   UNL A   1      39.302  29.466  29.419  1.00  0.00     0.031 A 
ATOM     12  C   UNL A   1      39.753  29.978  30.757  1.00  0.00     0.074 A 
ATOM     13  C   UNL A   1      39.992  28.492  28.798  1.00  0.00     0.049 A 
ATOM     14  N   UNL A   1      40.723  29.553  31.522  1.00  0.00    -0.248 NA
ATOM     15  C   UNL A   1      39.001  31.118  31.306  1.00  0.00     0.031 C 
ATOM     16  C   UNL A   1      39.656  27.909  27.502  1.00  0.00     0.029 A 
ATOM     17  N   UNL A   1      41.113  27.805  29.194  1.00  0.00    -0.354 N 
ATOM     18  C   UNL A   1      40.667  30.338  32.666  1.00  0.00     0.074 A 
ATOM     19  C   UNL A   1      39.612  31.308  32.464  1.00  0.00     0.031 C 
ATOM     20  C   UNL A   1      40.542  26.939  27.214  1.00  0.00     0.029 A 
ATOM     21  C   UNL A   1      41.504  26.830  28.309  1.00  0.00     0.049 A 
ATOM     22  H   UNL A   1      41.591  27.994  30.034  1.00  0.00     0.167 HD
ATOM     23  C   UNL A   1      41.406  30.245  33.797  1.00  0.00     0.034 A 
ATOM     24  C   UNL A   1      42.512  25.939  28.385  1.00  0.00     0.034 A 
ATOM     25  C   UNL A   1      42.488  29.316  33.981  1.00  0.00     0.049 A 
ATOM     26  C   UNL A   1      43.379  25.906  29.617  1.00  0.00     0.074 A 
ATOM     27  C   UNL A   1      43.326  29.164  35.072  1.00  0.00     0.029 A 
ATOM     28  N   UNL A   1      42.892  28.387  33.034  1.00  0.00    -0.354 N 
ATOM     29  N   UNL A   1      43.301  26.645  30.699  1.00  0.00    -0.248 NA
ATOM     30  C   UNL A   1      44.462  24.913  29.641  1.00  0.00     0.031 C 
ATOM     31  C   UNL A   1      44.260  28.166  34.770  1.00  0.00     0.029 A 
ATOM     32  C   UNL A   1      43.979  27.670  33.505  1.00  0.00     0.049 A 
ATOM     33  H   UNL A   1      42.467  28.254  32.156  1.00  0.00     0.167 HD
ATOM     34  C   UNL A   1      44.313  26.192  31.539  1.00  0.00     0.074 A 
ATOM     35  C   UNL A   1      44.992  25.120  30.839  1.00  0.00     0.031 C 
ATOM     36  C   UNL A   1      44.647  26.619  32.783  1.00  0.00     0.034 A 
BRANCH  23  37
ATOM     37  C   UNL A   1      41.059  31.206  34.898  1.00  0.00     0.023 A 
ATOM     38  C   UNL A   1      39.903  31.018  35.676  1.00  0.00     0.031 A 
ATOM     39  C   UNL A   1      41.836  32.354  35.119  1.00  0.00     0.131 A 
ATOM     40  C   UNL A   1      39.518  32.003  36.596  1.00  0.00     0.055 A 
ATOM     41  C   UNL A   1      41.478  33.303  36.078  1.00  0.00     0.041 A 
ATOM     42  F   UNL A   1      42.933  32.588  34.381  1.00  0.00    -0.206 F 
ATOM     43  C   UNL A   1      40.306  33.136  36.815  1.00  0.00     0.022 A 
BRANCH  40  44
ATOM     44  S   UNL A   1      37.919  31.833  37.436  1.00  0.00     0.124 S 
ATOM     45  O   UNL A   1      38.244  32.297  38.781  1.00  0.00    -0.237 OA
ATOM     46  O   UNL A   1      37.051  32.704  36.651  1.00  0.00    -0.237 OA
ATOM     47  O   UNL A   1      37.628  30.405  37.326  1.00  0.00    -0.744 OA
ENDBRANCH  40  44
ENDBRANCH  23  37
BRANCH  24  48
ATOM     48  C   UNL A   1      42.766  25.001  27.261  1.00  0.00     0.023 A 
ATOM     49  C   UNL A   1      42.278  23.685  27.287  1.00  0.00     0.031 A 
ATOM     50  C   UNL A   1      43.529  25.409  26.154  1.00  0.00     0.131 A 
ATOM     51  C   UNL A   1      42.580  22.812  26.230  1.00  0.00     0.055 A 
ATOM     52  C   UNL A   1      43.807  24.544  25.096  1.00  0.00     0.041 A 
ATOM     53  F   UNL A   1      44.008  26.661  26.088  1.00  0.00    -0.206 F 
ATOM     54  C   UNL A   1      43.336  23.234  25.132  1.00  0.00     0.022 A 
BRANCH  51  55
ATOM     55  S   UNL A   1      41.979  21.103  26.312  1.00  0.00     0.124 S 
ATOM     56  O   UNL A   1      42.803  20.448  25.301  1.00  0.00    -0.237 OA
ATOM     57  O   UNL A   1      42.259  20.747  27.699  1.00  0.00    -0.237 OA
ATOM     58  O   UNL A   1      40.561  21.225  25.980  1.00  0.00    -0.744 OA
ENDBRANCH  51  55
ENDBRANCH  24  48
BRANCH  36  59
ATOM     59  C   UNL A   1      45.780  25.910  33.467  1.00  0.00     0.023 A 
ATOM     60  C   UNL A   1      45.558  24.754  34.232  1.00  0.00     0.031 A 
ATOM     61  C   UNL A   1      47.096  26.380  33.323  1.00  0.00     0.131 A 
ATOM     62  C   UNL A   1      46.642  24.114  34.850  1.00  0.00     0.055 A 
ATOM     63  C   UNL A   1      48.173  25.723  33.917  1.00  0.00     0.041 A 
ATOM     64  F   UNL A   1      47.352  27.479  32.597  1.00  0.00    -0.206 F 
ATOM     65  C   UNL A   1      47.949  24.585  34.687  1.00  0.00     0.022 A 
BRANCH  62  66
ATOM     66  S   UNL A   1      46.330  22.648  35.872  1.00  0.00     0.124 S 
ATOM     67  O   UNL A   1      47.669  22.083  36.004  1.00  0.00    -0.237 OA
ATOM     68  O   UNL A   1      45.758  23.219  37.087  1.00  0.00    -0.237 OA
ATOM     69  O   UNL A   1      45.399  21.861  35.065  1.00  0.00    -0.744 OA
ENDBRANCH  62  66
ENDBRANCH  36  59
ENDBRANCH  10  11
ENDBRANCH   3   5
ENDBRANCH   2   3
ENDBRANCH   1   2
BRANCH   1  70
ATOM     70  C   UNL A   1      31.769  29.779  25.884  1.00  0.00     0.274 C 
BRANCH  70  71
ATOM     71  O   UNL A   1      32.792  28.805  26.109  1.00  0.00    -0.460 OA
BRANCH  71  72
ATOM     72  C   UNL A   1      32.381  27.651  26.709  1.00  0.00     0.335 C 
ATOM     73  O   UNL A   1      31.652  27.598  27.692  1.00  0.00    -0.249 OA
BRANCH  72  74
ATOM     74  C   UNL A   1      32.935  26.454  25.935  1.00  0.00     0.232 C 
ATOM     75  C   UNL A   1      32.255  25.129  26.225  1.00  0.00     0.087 C 
ATOM     76  O   UNL A   1      32.826  26.697  24.537  1.00  0.00    -0.355 OA
ATOM     77  C   UNL A   1      31.434  24.771  24.976  1.00  0.00     0.123 C 
ATOM     78  C   UNL A   1      31.766  25.917  23.974  1.00  0.00     0.186 C 
BRANCH  77  79
ATOM     79  C   UNL A   1      31.740  23.328  24.543  1.00  0.00    -0.013 A 
ATOM     80  C   UNL A   1      31.920  23.070  23.163  1.00  0.00     0.010 A 
ATOM     81  C   UNL A   1      31.842  22.233  25.421  1.00  0.00     0.010 A 
ATOM     82  C   UNL A   1      32.173  21.782  22.686  1.00  0.00     0.039 A 
ATOM     83  C   UNL A   1      32.100  20.943  24.942  1.00  0.00     0.039 A 
ATOM     84  C   UNL A   1      32.261  20.728  23.582  1.00  0.00     0.123 A 
ATOM     85  F   UNL A   1      32.509  19.493  23.130  1.00  0.00    -0.207 F 
ENDBRANCH  77  79
BRANCH  77  86
ATOM     86  O   UNL A   1      30.047  24.766  25.350  1.00  0.00    -0.382 OA
ATOM     87  H   UNL A   1      29.762  25.673  25.546  1.00  0.00     0.212 HD
ENDBRANCH  77  86
BRANCH  78  88
ATOM     88  C   UNL A   1      30.653  26.855  23.520  1.00  0.00    -0.016 A 
ATOM     89  C   UNL A   1      29.304  26.642  23.849  1.00  0.00     0.009 A 
ATOM     90  C   UNL A   1      30.981  28.010  22.783  1.00  0.00     0.009 A 
ATOM     91  C   UNL A   1      28.317  27.552  23.462  1.00  0.00     0.039 A 
ATOM     92  C   UNL A   1      29.993  28.918  22.393  1.00  0.00     0.039 A 
ATOM     93  C   UNL A   1      28.670  28.682  22.738  1.00  0.00     0.123 A 
ATOM     94  F   UNL A   1      27.721  29.548  22.359  1.00  0.00    -0.207 F 
ENDBRANCH  78  88
ENDBRANCH  72  74
ENDBRANCH  71  72
ENDBRANCH  70  71
ENDBRANCH   1  70
TORSDOF 17
ENDMDL
