MODEL 1
REMARK VINA RESULT:     -12.7      0.000      0.000
REMARK SMILES Cc1nccn1C1(C(=O)OCCOC(=O)c2ccc(-c3c4nc(c(-c5cc(S(=O)(=O)[O-])ccc5F)c5ccc([nH]5)c(-c5cc(S(=O)(=O)[O-])ccc5F)c5nc(c(-c6cc(S(=O)(=O)[O-])ccc6F)c6ccc3[nH]6)C=C5)C=C4)cc2)CCN(C(=O)[C@@H]2C[C@H]2c2ccccc2)CC1
REMARK SMILES IDX 12 1 11 2 10 3 8 4 9 5 7 6 79 7 94 8 80 9 93 10 81 11 82 12
REMARK SMILES IDX 83 13 6 14 1 15 2 16 3 17 4 18 5 19 84 20 85 21 86 22 87 23
REMARK SMILES IDX 88 24 92 25 89 26 91 27 90 28 13 29 14 30 15 31 16 32 17 33
REMARK SMILES IDX 78 34 18 35 77 36 19 37 20 38 21 39 71 40 22 41 76 42 70 43
REMARK SMILES IDX 72 44 23 45 75 46 69 47 68 48 24 50 56 51 36 52 55 53 37 54
REMARK SMILES IDX 40 55 54 56 73 57 38 58 39 59 53 61 74 62 41 63 25 64 26 65
REMARK SMILES IDX 34 66 27 67 33 68 35 69 32 70 28 71 29 72 30 73 31 74 57 75
REMARK SMILES IDX 58 76 66 77 59 78 65 79 67 80 64 81 60 82 61 83 62 84 63 85
REMARK SMILES IDX 42 86 43 87 51 88 44 89 50 90 52 91 49 92 45 93 46 94 47 95
REMARK SMILES IDX 48 96
REMARK H PARENT 72 49 40 60
REMARK Flexibility Score: inf
ROOT
ATOM      1  C   UNL A   1      34.823  29.186  27.277  1.00  0.00     0.275 C 
ENDROOT
BRANCH   1   2
ATOM      2  C   UNL A   1      33.798  29.580  26.212  1.00  0.00     0.274 C 
BRANCH   2   3
ATOM      3  O   UNL A   1      33.078  28.434  25.699  1.00  0.00    -0.460 OA
BRANCH   3   4
ATOM      4  C   UNL A   1      33.088  28.246  24.345  1.00  0.00     0.332 C 
ATOM      5  O   UNL A   1      33.516  29.114  23.586  1.00  0.00    -0.249 OA
BRANCH   4   6
ATOM      6  C   UNL A   1      32.355  26.925  23.860  1.00  0.00     0.146 C 
ATOM      7  C   UNL A   1      32.837  26.483  22.433  1.00  0.00     0.062 C 
ATOM      8  C   UNL A   1      32.795  25.953  24.986  1.00  0.00     0.062 C 
ATOM      9  C   UNL A   1      33.351  25.048  22.227  1.00  0.00     0.122 C 
ATOM     10  C   UNL A   1      32.795  24.515  24.536  1.00  0.00     0.122 C 
ATOM     11  N   UNL A   1      33.743  24.376  23.455  1.00  0.00    -0.342 N 
ATOM     12  C   UNL A   1      34.850  23.534  23.424  1.00  0.00     0.226 C 
ATOM     13  O   UNL A   1      35.295  23.098  22.365  1.00  0.00    -0.275 OA
BRANCH   6  14
ATOM     14  N   UNL A   1      30.851  27.078  23.911  1.00  0.00    -0.318 N 
ATOM     15  C   UNL A   1      30.289  29.165  22.436  1.00  0.00     0.087 C 
ATOM     16  C   UNL A   1      29.993  27.934  23.209  1.00  0.00     0.106 A 
ATOM     17  N   UNL A   1      28.737  27.542  23.318  1.00  0.00    -0.242 NA
ATOM     18  C   UNL A   1      28.722  26.547  24.231  1.00  0.00     0.131 A 
ATOM     19  C   UNL A   1      29.997  26.271  24.643  1.00  0.00     0.108 A 
ENDBRANCH   6  14
BRANCH  12  20
ATOM     20  C   UNL A   1      35.637  23.207  24.654  1.00  0.00     0.087 C 
ATOM     21  C   UNL A   1      35.244  23.726  26.012  1.00  0.00     0.023 C 
ATOM     22  C   UNL A   1      36.568  24.118  25.407  1.00  0.00     0.032 C 
BRANCH  22  23
ATOM     23  C   UNL A   1      37.894  23.679  25.944  1.00  0.00    -0.044 A 
ATOM     24  C   UNL A   1      38.390  22.408  25.616  1.00  0.00     0.004 A 
ATOM     25  C   UNL A   1      38.519  24.386  26.982  1.00  0.00     0.004 A 
ATOM     26  C   UNL A   1      39.426  21.830  26.348  1.00  0.00     0.000 A 
ATOM     27  C   UNL A   1      39.559  23.812  27.715  1.00  0.00     0.000 A 
ATOM     28  C   UNL A   1      39.996  22.525  27.409  1.00  0.00     0.000 A 
ENDBRANCH  22  23
ENDBRANCH  12  20
ENDBRANCH   4   6
ENDBRANCH   3   4
ENDBRANCH   2   3
ENDBRANCH   1   2
BRANCH   1  29
ATOM     29  O   UNL A   1      35.779  30.224  27.516  1.00  0.00    -0.458 OA
BRANCH  29  30
ATOM     30  C   UNL A   1      36.665  29.903  28.484  1.00  0.00     0.338 C 
ATOM     31  O   UNL A   1      36.686  30.343  29.621  1.00  0.00    -0.246 OA
BRANCH  30  32
ATOM     32  C   UNL A   1      37.744  29.059  27.988  1.00  0.00     0.060 A 
ATOM     33  C   UNL A   1      38.099  27.989  28.818  1.00  0.00     0.016 A 
ATOM     34  C   UNL A   1      38.579  29.534  26.973  1.00  0.00     0.016 A 
ATOM     35  C   UNL A   1      39.392  27.534  28.775  1.00  0.00     0.010 A 
ATOM     36  C   UNL A   1      39.872  29.065  26.925  1.00  0.00     0.010 A 
ATOM     37  C   UNL A   1      40.283  28.147  27.892  1.00  0.00    -0.014 A 
BRANCH  37  38
ATOM     38  C   UNL A   1      41.680  27.799  28.042  1.00  0.00     0.031 A 
ATOM     39  C   UNL A   1      42.073  26.525  27.406  1.00  0.00     0.074 A 
ATOM     40  C   UNL A   1      42.552  28.617  28.657  1.00  0.00     0.049 A 
ATOM     41  N   UNL A   1      42.603  25.486  27.956  1.00  0.00    -0.248 NA
ATOM     42  C   UNL A   1      41.710  26.346  25.993  1.00  0.00     0.031 C 
ATOM     43  C   UNL A   1      42.340  29.995  29.108  1.00  0.00     0.029 A 
ATOM     44  N   UNL A   1      43.876  28.414  28.879  1.00  0.00    -0.354 N 
ATOM     45  C   UNL A   1      42.811  24.578  26.925  1.00  0.00     0.074 A 
ATOM     46  C   UNL A   1      42.110  25.094  25.780  1.00  0.00     0.031 C 
ATOM     47  C   UNL A   1      43.542  30.579  29.306  1.00  0.00     0.029 A 
ATOM     48  C   UNL A   1      44.582  29.579  29.121  1.00  0.00     0.049 A 
ATOM     49  H   UNL A   1      44.293  27.522  28.868  1.00  0.00     0.167 HD
ATOM     50  C   UNL A   1      43.706  23.561  27.035  1.00  0.00     0.034 A 
ATOM     51  C   UNL A   1      45.927  29.732  29.050  1.00  0.00     0.034 A 
ATOM     52  C   UNL A   1      44.011  23.266  28.413  1.00  0.00     0.049 A 
ATOM     53  C   UNL A   1      46.531  28.386  29.225  1.00  0.00     0.074 A 
ATOM     54  C   UNL A   1      43.259  22.852  29.497  1.00  0.00     0.029 A 
ATOM     55  N   UNL A   1      45.192  23.733  28.944  1.00  0.00    -0.354 N 
ATOM     56  N   UNL A   1      46.430  27.697  30.330  1.00  0.00    -0.248 NA
ATOM     57  C   UNL A   1      46.846  27.599  28.041  1.00  0.00     0.031 C 
ATOM     58  C   UNL A   1      43.809  23.545  30.616  1.00  0.00     0.029 A 
ATOM     59  C   UNL A   1      44.885  24.306  30.155  1.00  0.00     0.049 A 
ATOM     60  H   UNL A   1      46.084  23.669  28.534  1.00  0.00     0.167 HD
ATOM     61  C   UNL A   1      46.237  26.384  29.923  1.00  0.00     0.074 A 
ATOM     62  C   UNL A   1      46.623  26.368  28.515  1.00  0.00     0.031 C 
ATOM     63  C   UNL A   1      45.516  25.503  30.680  1.00  0.00     0.034 A 
BRANCH  50  64
ATOM     64  C   UNL A   1      44.521  23.035  25.882  1.00  0.00     0.023 A 
ATOM     65  C   UNL A   1      44.490  21.652  25.632  1.00  0.00     0.031 A 
ATOM     66  C   UNL A   1      45.522  23.764  25.198  1.00  0.00     0.131 A 
ATOM     67  C   UNL A   1      45.452  21.048  24.804  1.00  0.00     0.055 A 
ATOM     68  C   UNL A   1      46.428  23.171  24.317  1.00  0.00     0.041 A 
ATOM     69  F   UNL A   1      45.749  25.065  25.420  1.00  0.00    -0.206 F 
ATOM     70  C   UNL A   1      46.415  21.800  24.138  1.00  0.00     0.022 A 
BRANCH  67  71
ATOM     71  S   UNL A   1      45.546  19.240  24.768  1.00  0.00     0.124 S 
ATOM     72  O   UNL A   1      46.685  18.980  25.642  1.00  0.00    -0.237 OA
ATOM     73  O   UNL A   1      44.236  18.862  25.286  1.00  0.00    -0.237 OA
ATOM     74  O   UNL A   1      45.769  18.943  23.355  1.00  0.00    -0.744 OA
ENDBRANCH  67  71
ENDBRANCH  50  64
BRANCH  51  75
ATOM     75  C   UNL A   1      46.615  30.911  28.466  1.00  0.00     0.023 A 
ATOM     76  C   UNL A   1      46.049  31.693  27.445  1.00  0.00     0.031 A 
ATOM     77  C   UNL A   1      47.804  31.401  29.061  1.00  0.00     0.131 A 
ATOM     78  C   UNL A   1      46.682  32.891  27.042  1.00  0.00     0.055 A 
ATOM     79  C   UNL A   1      48.436  32.571  28.644  1.00  0.00     0.041 A 
ATOM     80  F   UNL A   1      48.354  30.792  30.125  1.00  0.00    -0.206 F 
ATOM     81  C   UNL A   1      47.873  33.327  27.632  1.00  0.00     0.022 A 
BRANCH  78  82
ATOM     82  S   UNL A   1      45.900  33.958  25.792  1.00  0.00     0.124 S 
ATOM     83  O   UNL A   1      45.133  34.887  26.614  1.00  0.00    -0.237 OA
ATOM     84  O   UNL A   1      47.053  34.511  25.090  1.00  0.00    -0.237 OA
ATOM     85  O   UNL A   1      45.094  33.024  25.003  1.00  0.00    -0.744 OA
ENDBRANCH  78  82
ENDBRANCH  51  75
BRANCH  63  86
ATOM     86  C   UNL A   1      45.119  25.923  32.081  1.00  0.00     0.023 A 
ATOM     87  C   UNL A   1      43.927  26.622  32.383  1.00  0.00     0.031 A 
ATOM     88  C   UNL A   1      45.898  25.470  33.159  1.00  0.00     0.131 A 
ATOM     89  C   UNL A   1      43.563  26.859  33.722  1.00  0.00     0.055 A 
ATOM     90  C   UNL A   1      45.525  25.690  34.486  1.00  0.00     0.041 A 
ATOM     91  F   UNL A   1      47.018  24.762  32.938  1.00  0.00    -0.206 F 
ATOM     92  C   UNL A   1      44.357  26.390  34.772  1.00  0.00     0.022 A 
BRANCH  89  93
ATOM     93  S   UNL A   1      42.034  27.769  34.112  1.00  0.00     0.124 S 
ATOM     94  O   UNL A   1      41.261  26.814  34.898  1.00  0.00    -0.237 OA
ATOM     95  O   UNL A   1      42.531  28.938  34.833  1.00  0.00    -0.237 OA
ATOM     96  O   UNL A   1      41.469  28.068  32.795  1.00  0.00    -0.744 OA
ENDBRANCH  89  93
ENDBRANCH  63  86
ENDBRANCH  37  38
ENDBRANCH  30  32
ENDBRANCH  29  30
ENDBRANCH   1  29
TORSDOF 17
ENDMDL
MODEL 2
REMARK VINA RESULT:     -12.6      2.843      7.310
REMARK SMILES Cc1nccn1C1(C(=O)OCCOC(=O)c2ccc(-c3c4nc(c(-c5cc(S(=O)(=O)[O-])ccc5F)c5ccc([nH]5)c(-c5cc(S(=O)(=O)[O-])ccc5F)c5nc(c(-c6cc(S(=O)(=O)[O-])ccc6F)c6ccc3[nH]6)C=C5)C=C4)cc2)CCN(C(=O)[C@@H]2C[C@H]2c2ccccc2)CC1
REMARK SMILES IDX 12 1 11 2 10 3 8 4 9 5 7 6 79 7 94 8 80 9 93 10 81 11 82 12
REMARK SMILES IDX 83 13 6 14 1 15 2 16 3 17 4 18 5 19 84 20 85 21 86 22 87 23
REMARK SMILES IDX 88 24 92 25 89 26 91 27 90 28 13 29 14 30 15 31 16 32 17 33
REMARK SMILES IDX 78 34 18 35 77 36 19 37 20 38 21 39 71 40 22 41 76 42 70 43
REMARK SMILES IDX 72 44 23 45 75 46 69 47 68 48 24 50 56 51 36 52 55 53 37 54
REMARK SMILES IDX 40 55 54 56 73 57 38 58 39 59 53 61 74 62 41 63 25 64 26 65
REMARK SMILES IDX 34 66 27 67 33 68 35 69 32 70 28 71 29 72 30 73 31 74 57 75
REMARK SMILES IDX 58 76 66 77 59 78 65 79 67 80 64 81 60 82 61 83 62 84 63 85
REMARK SMILES IDX 42 86 43 87 51 88 44 89 50 90 52 91 49 92 45 93 46 94 47 95
REMARK SMILES IDX 48 96
REMARK H PARENT 72 49 40 60
REMARK Flexibility Score: inf
ROOT
ATOM      1  C   UNL A   1      33.340  30.199  26.942  1.00  0.00     0.275 C 
ENDROOT
BRANCH   1   2
ATOM      2  C   UNL A   1      32.894  28.739  26.855  1.00  0.00     0.274 C 
BRANCH   2   3
ATOM      3  O   UNL A   1      31.697  28.581  26.056  1.00  0.00    -0.460 OA
BRANCH   3   4
ATOM      4  C   UNL A   1      31.356  27.309  25.688  1.00  0.00     0.332 C 
ATOM      5  O   UNL A   1      31.094  26.453  26.530  1.00  0.00    -0.249 OA
BRANCH   4   6
ATOM      6  C   UNL A   1      31.505  27.013  24.136  1.00  0.00     0.146 C 
ATOM      7  C   UNL A   1      32.996  27.131  23.661  1.00  0.00     0.062 C 
ATOM      8  C   UNL A   1      30.958  25.561  24.094  1.00  0.00     0.062 C 
ATOM      9  C   UNL A   1      33.636  25.955  22.903  1.00  0.00     0.122 C 
ATOM     10  C   UNL A   1      31.508  24.776  22.931  1.00  0.00     0.122 C 
ATOM     11  N   UNL A   1      32.942  24.690  23.076  1.00  0.00    -0.342 N 
ATOM     12  C   UNL A   1      33.699  23.527  23.166  1.00  0.00     0.226 C 
ATOM     13  O   UNL A   1      34.870  23.492  22.793  1.00  0.00    -0.275 OA
BRANCH   6  14
ATOM     14  N   UNL A   1      30.593  27.899  23.316  1.00  0.00    -0.318 N 
ATOM     15  C   UNL A   1      28.161  27.045  23.769  1.00  0.00     0.087 C 
ATOM     16  C   UNL A   1      29.196  27.986  23.274  1.00  0.00     0.106 A 
ATOM     17  N   UNL A   1      28.806  29.087  22.659  1.00  0.00    -0.242 NA
ATOM     18  C   UNL A   1      29.916  29.645  22.128  1.00  0.00     0.131 A 
ATOM     19  C   UNL A   1      31.020  28.915  22.478  1.00  0.00     0.108 A 
ENDBRANCH   6  14
BRANCH  12  20
ATOM     20  C   UNL A   1      33.183  22.289  23.831  1.00  0.00     0.087 C 
ATOM     21  C   UNL A   1      33.245  22.104  25.324  1.00  0.00     0.023 C 
ATOM     22  C   UNL A   1      33.996  21.165  24.415  1.00  0.00     0.032 C 
BRANCH  22  23
ATOM     23  C   UNL A   1      33.648  19.720  24.236  1.00  0.00    -0.044 A 
ATOM     24  C   UNL A   1      34.558  18.731  24.638  1.00  0.00     0.004 A 
ATOM     25  C   UNL A   1      32.567  19.336  23.429  1.00  0.00     0.004 A 
ATOM     26  C   UNL A   1      34.437  17.417  24.189  1.00  0.00     0.000 A 
ATOM     27  C   UNL A   1      32.440  18.021  22.979  1.00  0.00     0.000 A 
ATOM     28  C   UNL A   1      33.389  17.068  23.344  1.00  0.00     0.000 A 
ENDBRANCH  22  23
ENDBRANCH  12  20
ENDBRANCH   4   6
ENDBRANCH   3   4
ENDBRANCH   2   3
ENDBRANCH   1   2
BRANCH   1  29
ATOM     29  O   UNL A   1      34.764  30.330  26.936  1.00  0.00    -0.458 OA
BRANCH  29  30
ATOM     30  C   UNL A   1      35.197  31.341  27.722  1.00  0.00     0.338 C 
ATOM     31  O   UNL A   1      34.929  32.523  27.592  1.00  0.00    -0.246 OA
BRANCH  30  32
ATOM     32  C   UNL A   1      36.189  30.901  28.694  1.00  0.00     0.060 A 
ATOM     33  C   UNL A   1      37.329  31.707  28.795  1.00  0.00     0.016 A 
ATOM     34  C   UNL A   1      36.148  29.589  29.174  1.00  0.00     0.016 A 
ATOM     35  C   UNL A   1      38.507  31.120  29.180  1.00  0.00     0.010 A 
ATOM     36  C   UNL A   1      37.331  29.008  29.571  1.00  0.00     0.010 A 
ATOM     37  C   UNL A   1      38.506  29.755  29.471  1.00  0.00    -0.014 A 
BRANCH  37  38
ATOM     38  C   UNL A   1      39.801  29.132  29.644  1.00  0.00     0.031 A 
ATOM     39  C   UNL A   1      40.226  28.969  31.049  1.00  0.00     0.074 A 
ATOM     40  C   UNL A   1      40.516  28.680  28.599  1.00  0.00     0.049 A 
ATOM     41  N   UNL A   1      41.285  29.429  31.623  1.00  0.00    -0.248 NA
ATOM     42  C   UNL A   1      39.280  28.309  31.960  1.00  0.00     0.031 C 
ATOM     43  C   UNL A   1      40.101  28.565  27.198  1.00  0.00     0.029 A 
ATOM     44  N   UNL A   1      41.740  28.094  28.614  1.00  0.00    -0.354 N 
ATOM     45  C   UNL A   1      41.236  28.967  32.932  1.00  0.00     0.074 A 
ATOM     46  C   UNL A   1      39.920  28.419  33.122  1.00  0.00     0.031 C 
ATOM     47  C   UNL A   1      40.943  27.722  26.563  1.00  0.00     0.029 A 
ATOM     48  C   UNL A   1      42.013  27.354  27.476  1.00  0.00     0.049 A 
ATOM     49  H   UNL A   1      42.373  28.186  29.363  1.00  0.00     0.167 HD
ATOM     50  C   UNL A   1      42.349  28.895  33.710  1.00  0.00     0.034 A 
ATOM     51  C   UNL A   1      42.980  26.414  27.344  1.00  0.00     0.034 A 
ATOM     52  C   UNL A   1      43.397  29.756  33.221  1.00  0.00     0.049 A 
ATOM     53  C   UNL A   1      44.012  26.697  28.374  1.00  0.00     0.074 A 
ATOM     54  C   UNL A   1      43.506  31.119  33.020  1.00  0.00     0.029 A 
ATOM     55  N   UNL A   1      44.434  29.198  32.508  1.00  0.00    -0.354 N 
ATOM     56  N   UNL A   1      44.738  27.783  28.377  1.00  0.00    -0.248 NA
ATOM     57  C   UNL A   1      43.927  26.017  29.659  1.00  0.00     0.031 C 
ATOM     58  C   UNL A   1      44.270  31.259  31.824  1.00  0.00     0.029 A 
ATOM     59  C   UNL A   1      44.614  29.978  31.390  1.00  0.00     0.049 A 
ATOM     60  H   UNL A   1      44.948  28.395  32.753  1.00  0.00     0.167 HD
ATOM     61  C   UNL A   1      44.835  28.153  29.711  1.00  0.00     0.074 A 
ATOM     62  C   UNL A   1      44.423  26.968  30.459  1.00  0.00     0.031 C 
ATOM     63  C   UNL A   1      44.963  29.463  30.079  1.00  0.00     0.034 A 
BRANCH  50  64
ATOM     64  C   UNL A   1      42.582  27.822  34.742  1.00  0.00     0.023 A 
ATOM     65  C   UNL A   1      43.278  26.667  34.344  1.00  0.00     0.031 A 
ATOM     66  C   UNL A   1      41.931  27.751  35.996  1.00  0.00     0.131 A 
ATOM     67  C   UNL A   1      43.252  25.504  35.133  1.00  0.00     0.055 A 
ATOM     68  C   UNL A   1      41.972  26.618  36.812  1.00  0.00     0.041 A 
ATOM     69  F   UNL A   1      41.137  28.725  36.456  1.00  0.00    -0.206 F 
ATOM     70  C   UNL A   1      42.612  25.475  36.369  1.00  0.00     0.022 A 
BRANCH  67  71
ATOM     71  S   UNL A   1      43.904  23.969  34.427  1.00  0.00     0.124 S 
ATOM     72  O   UNL A   1      44.345  24.408  33.107  1.00  0.00    -0.237 OA
ATOM     73  O   UNL A   1      44.957  23.626  35.377  1.00  0.00    -0.237 OA
ATOM     74  O   UNL A   1      42.745  23.079  34.430  1.00  0.00    -0.744 OA
ENDBRANCH  67  71
ENDBRANCH  50  64
BRANCH  51  75
ATOM     75  C   UNL A   1      42.812  25.121  26.633  1.00  0.00     0.023 A 
ATOM     76  C   UNL A   1      43.760  24.624  25.724  1.00  0.00     0.031 A 
ATOM     77  C   UNL A   1      41.758  24.247  26.999  1.00  0.00     0.131 A 
ATOM     78  C   UNL A   1      43.618  23.318  25.200  1.00  0.00     0.055 A 
ATOM     79  C   UNL A   1      41.611  22.968  26.463  1.00  0.00     0.041 A 
ATOM     80  F   UNL A   1      40.873  24.581  27.952  1.00  0.00    -0.206 F 
ATOM     81  C   UNL A   1      42.547  22.495  25.561  1.00  0.00     0.022 A 
BRANCH  78  82
ATOM     82  S   UNL A   1      44.897  22.634  24.101  1.00  0.00     0.124 S 
ATOM     83  O   UNL A   1      45.829  23.748  23.980  1.00  0.00    -0.237 OA
ATOM     84  O   UNL A   1      45.365  21.474  24.853  1.00  0.00    -0.237 OA
ATOM     85  O   UNL A   1      44.158  22.312  22.879  1.00  0.00    -0.744 OA
ENDBRANCH  78  82
ENDBRANCH  51  75
BRANCH  63  86
ATOM     86  C   UNL A   1      45.223  30.487  28.993  1.00  0.00     0.023 A 
ATOM     87  C   UNL A   1      46.516  30.871  28.567  1.00  0.00     0.031 A 
ATOM     88  C   UNL A   1      44.127  30.977  28.263  1.00  0.00     0.131 A 
ATOM     89  C   UNL A   1      46.675  31.726  27.461  1.00  0.00     0.055 A 
ATOM     90  C   UNL A   1      44.288  31.812  27.155  1.00  0.00     0.041 A 
ATOM     91  F   UNL A   1      42.875  30.615  28.590  1.00  0.00    -0.206 F 
ATOM     92  C   UNL A   1      45.564  32.193  26.753  1.00  0.00     0.022 A 
BRANCH  89  93
ATOM     93  S   UNL A   1      48.340  32.230  26.919  1.00  0.00     0.124 S 
ATOM     94  O   UNL A   1      48.940  30.981  26.460  1.00  0.00    -0.237 OA
ATOM     95  O   UNL A   1      48.054  33.222  25.885  1.00  0.00    -0.237 OA
ATOM     96  O   UNL A   1      48.942  32.781  28.134  1.00  0.00    -0.744 OA
ENDBRANCH  89  93
ENDBRANCH  63  86
ENDBRANCH  37  38
ENDBRANCH  30  32
ENDBRANCH  29  30
ENDBRANCH   1  29
TORSDOF 17
ENDMDL
MODEL 3
REMARK VINA RESULT:     -12.4      4.391     10.555
REMARK SMILES Cc1nccn1C1(C(=O)OCCOC(=O)c2ccc(-c3c4nc(c(-c5cc(S(=O)(=O)[O-])ccc5F)c5ccc([nH]5)c(-c5cc(S(=O)(=O)[O-])ccc5F)c5nc(c(-c6cc(S(=O)(=O)[O-])ccc6F)c6ccc3[nH]6)C=C5)C=C4)cc2)CCN(C(=O)[C@@H]2C[C@H]2c2ccccc2)CC1
REMARK SMILES IDX 12 1 11 2 10 3 8 4 9 5 7 6 79 7 94 8 80 9 93 10 81 11 82 12
REMARK SMILES IDX 83 13 6 14 1 15 2 16 3 17 4 18 5 19 84 20 85 21 86 22 87 23
REMARK SMILES IDX 88 24 92 25 89 26 91 27 90 28 13 29 14 30 15 31 16 32 17 33
REMARK SMILES IDX 78 34 18 35 77 36 19 37 20 38 21 39 71 40 22 41 76 42 70 43
REMARK SMILES IDX 72 44 23 45 75 46 69 47 68 48 24 50 56 51 36 52 55 53 37 54
REMARK SMILES IDX 40 55 54 56 73 57 38 58 39 59 53 61 74 62 41 63 25 64 26 65
REMARK SMILES IDX 34 66 27 67 33 68 35 69 32 70 28 71 29 72 30 73 31 74 57 75
REMARK SMILES IDX 58 76 66 77 59 78 65 79 67 80 64 81 60 82 61 83 62 84 63 85
REMARK SMILES IDX 42 86 43 87 51 88 44 89 50 90 52 91 49 92 45 93 46 94 47 95
REMARK SMILES IDX 48 96
REMARK H PARENT 72 49 40 60
REMARK Flexibility Score: inf
ROOT
ATOM      1  C   UNL A   1      37.967  23.984  26.271  1.00  0.00     0.275 C 
ENDROOT
BRANCH   1   2
ATOM      2  C   UNL A   1      37.226  23.551  25.005  1.00  0.00     0.274 C 
BRANCH   2   3
ATOM      3  O   UNL A   1      35.811  23.846  25.073  1.00  0.00    -0.460 OA
BRANCH   3   4
ATOM      4  C   UNL A   1      35.023  23.357  24.069  1.00  0.00     0.332 C 
ATOM      5  O   UNL A   1      35.339  23.496  22.889  1.00  0.00    -0.249 OA
BRANCH   4   6
ATOM      6  C   UNL A   1      33.628  22.777  24.552  1.00  0.00     0.146 C 
ATOM      7  C   UNL A   1      33.312  23.180  26.035  1.00  0.00     0.062 C 
ATOM      8  C   UNL A   1      32.690  23.454  23.518  1.00  0.00     0.062 C 
ATOM      9  C   UNL A   1      31.976  23.871  26.357  1.00  0.00     0.122 C 
ATOM     10  C   UNL A   1      31.285  23.616  24.037  1.00  0.00     0.122 C 
ATOM     11  N   UNL A   1      31.325  24.468  25.202  1.00  0.00    -0.342 N 
ATOM     12  C   UNL A   1      30.655  25.675  25.371  1.00  0.00     0.226 C 
ATOM     13  O   UNL A   1      30.327  26.077  26.486  1.00  0.00    -0.275 OA
BRANCH   6  14
ATOM     14  N   UNL A   1      33.558  21.278  24.361  1.00  0.00    -0.318 N 
ATOM     15  C   UNL A   1      35.880  20.346  25.127  1.00  0.00     0.087 C 
ATOM     16  C   UNL A   1      34.454  20.266  24.728  1.00  0.00     0.106 A 
ATOM     17  N   UNL A   1      33.883  19.077  24.656  1.00  0.00    -0.242 NA
ATOM     18  C   UNL A   1      32.679  19.262  24.072  1.00  0.00     0.131 A 
ATOM     19  C   UNL A   1      32.471  20.595  23.842  1.00  0.00     0.108 A 
ENDBRANCH   6  14
BRANCH  12  20
ATOM     20  C   UNL A   1      30.402  26.613  24.233  1.00  0.00     0.087 C 
ATOM     21  C   UNL A   1      31.522  27.157  23.387  1.00  0.00     0.023 C 
ATOM     22  C   UNL A   1      30.666  28.094  24.199  1.00  0.00     0.032 C 
BRANCH  22  23
ATOM     23  C   UNL A   1      29.716  29.086  23.604  1.00  0.00    -0.044 A 
ATOM     24  C   UNL A   1      29.938  30.459  23.786  1.00  0.00     0.004 A 
ATOM     25  C   UNL A   1      28.467  28.677  23.111  1.00  0.00     0.004 A 
ATOM     26  C   UNL A   1      28.925  31.388  23.556  1.00  0.00     0.000 A 
ATOM     27  C   UNL A   1      27.451  29.605  22.877  1.00  0.00     0.000 A 
ATOM     28  C   UNL A   1      27.676  30.958  23.121  1.00  0.00     0.000 A 
ENDBRANCH  22  23
ENDBRANCH  12  20
ENDBRANCH   4   6
ENDBRANCH   3   4
ENDBRANCH   2   3
ENDBRANCH   1   2
BRANCH   1  29
ATOM     29  O   UNL A   1      39.224  24.600  25.977  1.00  0.00    -0.458 OA
BRANCH  29  30
ATOM     30  C   UNL A   1      39.933  24.893  27.090  1.00  0.00     0.338 C 
ATOM     31  O   UNL A   1      40.851  24.240  27.555  1.00  0.00    -0.246 OA
BRANCH  30  32
ATOM     32  C   UNL A   1      39.381  26.030  27.815  1.00  0.00     0.060 A 
ATOM     33  C   UNL A   1      39.682  27.287  27.278  1.00  0.00     0.016 A 
ATOM     34  C   UNL A   1      38.933  25.860  29.128  1.00  0.00     0.016 A 
ATOM     35  C   UNL A   1      39.747  28.360  28.129  1.00  0.00     0.010 A 
ATOM     36  C   UNL A   1      38.989  26.941  29.976  1.00  0.00     0.010 A 
ATOM     37  C   UNL A   1      39.491  28.148  29.486  1.00  0.00    -0.014 A 
BRANCH  37  38
ATOM     38  C   UNL A   1      39.795  29.245  30.378  1.00  0.00     0.031 A 
ATOM     39  C   UNL A   1      38.675  30.178  30.617  1.00  0.00     0.074 A 
ATOM     40  C   UNL A   1      40.989  29.354  30.987  1.00  0.00     0.049 A 
ATOM     41  N   UNL A   1      38.630  31.448  30.398  1.00  0.00    -0.248 NA
ATOM     42  C   UNL A   1      37.397  29.589  31.042  1.00  0.00     0.031 C 
ATOM     43  C   UNL A   1      42.081  28.378  31.021  1.00  0.00     0.029 A 
ATOM     44  N   UNL A   1      41.412  30.330  31.830  1.00  0.00    -0.354 N 
ATOM     45  C   UNL A   1      37.374  31.860  30.824  1.00  0.00     0.074 A 
ATOM     46  C   UNL A   1      36.612  30.664  31.065  1.00  0.00     0.031 C 
ATOM     47  C   UNL A   1      42.915  28.693  32.036  1.00  0.00     0.029 A 
ATOM     48  C   UNL A   1      42.482  29.951  32.623  1.00  0.00     0.049 A 
ATOM     49  H   UNL A   1      40.997  31.222  31.873  1.00  0.00     0.167 HD
ATOM     50  C   UNL A   1      37.112  33.158  31.134  1.00  0.00     0.034 A 
ATOM     51  C   UNL A   1      42.898  30.568  33.756  1.00  0.00     0.034 A 
ATOM     52  C   UNL A   1      38.068  34.053  30.531  1.00  0.00     0.049 A 
ATOM     53  C   UNL A   1      42.410  31.969  33.698  1.00  0.00     0.074 A 
ATOM     54  C   UNL A   1      38.433  34.335  29.227  1.00  0.00     0.029 A 
ATOM     55  N   UNL A   1      39.079  34.565  31.312  1.00  0.00    -0.354 N 
ATOM     56  N   UNL A   1      42.813  32.828  32.800  1.00  0.00    -0.248 NA
ATOM     57  C   UNL A   1      41.139  32.296  34.329  1.00  0.00     0.031 C 
ATOM     58  C   UNL A   1      39.843  34.539  29.272  1.00  0.00     0.029 A 
ATOM     59  C   UNL A   1      40.247  34.411  30.603  1.00  0.00     0.049 A 
ATOM     60  H   UNL A   1      38.984  34.964  32.206  1.00  0.00     0.167 HD
ATOM     61  C   UNL A   1      41.677  33.544  32.447  1.00  0.00     0.074 A 
ATOM     62  C   UNL A   1      40.711  33.258  33.503  1.00  0.00     0.031 C 
ATOM     63  C   UNL A   1      41.527  34.070  31.194  1.00  0.00     0.034 A 
BRANCH  50  64
ATOM     64  C   UNL A   1      36.159  33.584  32.221  1.00  0.00     0.023 A 
ATOM     65  C   UNL A   1      35.029  34.332  31.849  1.00  0.00     0.031 A 
ATOM     66  C   UNL A   1      36.439  33.533  33.608  1.00  0.00     0.131 A 
ATOM     67  C   UNL A   1      34.281  35.033  32.811  1.00  0.00     0.055 A 
ATOM     68  C   UNL A   1      35.648  34.169  34.567  1.00  0.00     0.041 A 
ATOM     69  F   UNL A   1      37.541  32.958  34.103  1.00  0.00    -0.206 F 
ATOM     70  C   UNL A   1      34.578  34.949  34.169  1.00  0.00     0.022 A 
BRANCH  67  71
ATOM     71  S   UNL A   1      33.034  36.214  32.240  1.00  0.00     0.124 S 
ATOM     72  O   UNL A   1      31.795  35.472  32.454  1.00  0.00    -0.237 OA
ATOM     73  O   UNL A   1      33.267  37.349  33.127  1.00  0.00    -0.237 OA
ATOM     74  O   UNL A   1      33.392  36.432  30.840  1.00  0.00    -0.744 OA
ENDBRANCH  67  71
ENDBRANCH  50  64
BRANCH  51  75
ATOM     75  C   UNL A   1      43.345  29.865  34.986  1.00  0.00     0.023 A 
ATOM     76  C   UNL A   1      42.808  28.634  35.396  1.00  0.00     0.031 A 
ATOM     77  C   UNL A   1      44.478  30.336  35.695  1.00  0.00     0.131 A 
ATOM     78  C   UNL A   1      43.383  27.942  36.486  1.00  0.00     0.055 A 
ATOM     79  C   UNL A   1      45.027  29.660  36.784  1.00  0.00     0.041 A 
ATOM     80  F   UNL A   1      45.139  31.438  35.303  1.00  0.00    -0.206 F 
ATOM     81  C   UNL A   1      44.482  28.453  37.183  1.00  0.00     0.022 A 
BRANCH  78  82
ATOM     82  S   UNL A   1      42.754  26.300  36.957  1.00  0.00     0.124 S 
ATOM     83  O   UNL A   1      41.492  26.628  37.610  1.00  0.00    -0.237 OA
ATOM     84  O   UNL A   1      42.662  25.622  35.668  1.00  0.00    -0.237 OA
ATOM     85  O   UNL A   1      43.792  25.780  37.848  1.00  0.00    -0.744 OA
ENDBRANCH  78  82
ENDBRANCH  51  75
BRANCH  63  86
ATOM     86  C   UNL A   1      42.723  34.048  30.264  1.00  0.00     0.023 A 
ATOM     87  C   UNL A   1      43.011  32.983  29.379  1.00  0.00     0.031 A 
ATOM     88  C   UNL A   1      43.510  35.208  30.162  1.00  0.00     0.131 A 
ATOM     89  C   UNL A   1      44.063  33.095  28.450  1.00  0.00     0.055 A 
ATOM     90  C   UNL A   1      44.541  35.323  29.227  1.00  0.00     0.041 A 
ATOM     91  F   UNL A   1      43.259  36.271  30.944  1.00  0.00    -0.206 F 
ATOM     92  C   UNL A   1      44.824  34.264  28.371  1.00  0.00     0.022 A 
BRANCH  89  93
ATOM     93  S   UNL A   1      44.442  31.719  27.318  1.00  0.00     0.124 S 
ATOM     94  O   UNL A   1      44.093  32.252  26.006  1.00  0.00    -0.237 OA
ATOM     95  O   UNL A   1      45.864  31.487  27.560  1.00  0.00    -0.237 OA
ATOM     96  O   UNL A   1      43.567  30.641  27.787  1.00  0.00    -0.744 OA
ENDBRANCH  89  93
ENDBRANCH  63  86
ENDBRANCH  37  38
ENDBRANCH  30  32
ENDBRANCH  29  30
ENDBRANCH   1  29
TORSDOF 17
ENDMDL
