MODEL 1
REMARK VINA RESULT:     -10.2      0.000      0.000
REMARK SMILES CC[C@@H]1CCC[C@](CCCCCO)(C(=O)OCCOC(=O)c2ccc(-c3c4nc(c(-c5cc(S(=O)(=O)[O-])ccc5F)c5ccc([nH]5)c(-c5cc(S(=O)(=O)[O-])ccc5F)c5nc(c(-c6cc(S(=O)(=O)[O-])ccc6F)c6ccc3[nH]6)C=C5)C=C4)cc2)C1
REMARK SMILES IDX 16 1 14 2 15 3 7 4 3 5 4 6 85 7 5 8 6 9 2 10 1 11 8 12 9 13
REMARK SMILES IDX 10 14 11 15 12 16 13 17 17 19 18 20 19 21 20 22 21 23 22 24
REMARK SMILES IDX 23 25 84 26 24 27 83 28 25 29 26 30 27 31 77 32 28 33 82 34
REMARK SMILES IDX 76 35 78 36 29 37 81 38 75 39 74 40 30 42 62 43 42 44 61 45
REMARK SMILES IDX 43 46 46 47 60 48 79 49 44 50 45 51 59 53 80 54 47 55 31 56
REMARK SMILES IDX 32 57 40 58 33 59 39 60 41 61 38 62 34 63 35 64 36 65 37 66
REMARK SMILES IDX 63 67 64 68 72 69 65 70 71 71 73 72 70 73 66 74 67 75 68 76
REMARK SMILES IDX 69 77 48 78 49 79 57 80 50 81 56 82 58 83 55 84 51 85 52 86
REMARK SMILES IDX 53 87 54 88
REMARK H PARENT 13 18 78 41 46 52
REMARK Flexibility Score: inf
ROOT
ATOM      1  O   UNL A   1      36.457  20.130  25.042  1.00  0.00    -0.462 OA
ENDROOT
BRANCH   1   2
ATOM      2  C   UNL A   1      36.156  21.439  24.822  1.00  0.00     0.312 C 
ATOM      3  O   UNL A   1      36.936  22.232  24.310  1.00  0.00    -0.252 OA
BRANCH   2   4
ATOM      4  C   UNL A   1      34.757  21.828  25.353  1.00  0.00     0.068 C 
ATOM      5  C   UNL A   1      32.641  23.068  24.361  1.00  0.00    -0.010 C 
ATOM      6  C   UNL A   1      32.911  24.240  25.309  1.00  0.00     0.003 C 
ATOM      7  C   UNL A   1      33.947  22.298  24.095  1.00  0.00     0.022 C 
ATOM      8  C   UNL A   1      33.596  23.773  26.585  1.00  0.00     0.001 C 
ATOM      9  C   UNL A   1      34.908  23.048  26.290  1.00  0.00     0.019 C 
BRANCH   5  10
ATOM     10  C   UNL A   1      32.023  23.479  23.001  1.00  0.00     0.000 C 
ATOM     11  C   UNL A   1      31.064  24.658  23.029  1.00  0.00     0.004 C 
ENDBRANCH   5  10
BRANCH   4  12
ATOM     12  C   UNL A   1      34.009  20.619  25.997  1.00  0.00     0.019 C 
BRANCH  12  13
ATOM     13  C   UNL A   1      33.198  19.636  25.132  1.00  0.00     0.001 C 
BRANCH  13  14
ATOM     14  C   UNL A   1      33.805  18.277  24.784  1.00  0.00     0.002 C 
BRANCH  14  15
ATOM     15  C   UNL A   1      33.372  17.682  23.444  1.00  0.00     0.028 C 
BRANCH  15  16
ATOM     16  C   UNL A   1      32.245  18.436  22.746  1.00  0.00     0.156 C 
BRANCH  16  17
ATOM     17  O   UNL A   1      31.776  17.708  21.620  1.00  0.00    -0.396 OA
ATOM     18  H   UNL A   1      32.518  17.523  21.024  1.00  0.00     0.210 HD
ENDBRANCH  16  17
ENDBRANCH  15  16
ENDBRANCH  14  15
ENDBRANCH  13  14
ENDBRANCH  12  13
ENDBRANCH   4  12
ENDBRANCH   2   4
ENDBRANCH   1   2
BRANCH   1  19
ATOM     19  C   UNL A   1      37.752  19.702  24.573  1.00  0.00     0.274 C 
BRANCH  19  20
ATOM     20  C   UNL A   1      38.748  19.449  25.709  1.00  0.00     0.275 C 
BRANCH  20  21
ATOM     21  O   UNL A   1      39.741  20.487  25.779  1.00  0.00    -0.458 OA
BRANCH  21  22
ATOM     22  C   UNL A   1      40.450  20.545  26.930  1.00  0.00     0.338 C 
ATOM     23  O   UNL A   1      40.895  19.609  27.571  1.00  0.00    -0.246 OA
BRANCH  22  24
ATOM     24  C   UNL A   1      40.711  21.949  27.282  1.00  0.00     0.060 A 
ATOM     25  C   UNL A   1      40.080  22.946  26.534  1.00  0.00     0.016 A 
ATOM     26  C   UNL A   1      41.641  22.282  28.266  1.00  0.00     0.016 A 
ATOM     27  C   UNL A   1      40.383  24.287  26.758  1.00  0.00     0.010 A 
ATOM     28  C   UNL A   1      41.945  23.629  28.490  1.00  0.00     0.010 A 
ATOM     29  C   UNL A   1      41.330  24.638  27.726  1.00  0.00    -0.014 A 
BRANCH  29  30
ATOM     30  C   UNL A   1      41.737  26.055  27.889  1.00  0.00     0.031 A 
ATOM     31  C   UNL A   1      43.071  26.506  27.365  1.00  0.00     0.074 A 
ATOM     32  C   UNL A   1      40.915  26.929  28.499  1.00  0.00     0.049 A 
ATOM     33  N   UNL A   1      43.669  27.662  27.499  1.00  0.00    -0.248 NA
ATOM     34  C   UNL A   1      43.835  25.516  26.592  1.00  0.00     0.031 C 
ATOM     35  C   UNL A   1      39.578  26.616  29.005  1.00  0.00     0.029 A 
ATOM     36  N   UNL A   1      41.090  28.254  28.808  1.00  0.00    -0.354 N 
ATOM     37  C   UNL A   1      44.888  27.536  26.842  1.00  0.00     0.074 A 
ATOM     38  C   UNL A   1      44.951  26.182  26.331  1.00  0.00     0.031 C 
ATOM     39  C   UNL A   1      39.060  27.717  29.574  1.00  0.00     0.029 A 
ATOM     40  C   UNL A   1      40.042  28.795  29.516  1.00  0.00     0.049 A 
ATOM     41  H   UNL A   1      41.888  28.768  28.547  1.00  0.00     0.167 HD
ATOM     42  C   UNL A   1      45.863  28.466  26.682  1.00  0.00     0.034 A 
ATOM     43  C   UNL A   1      39.908  30.009  30.086  1.00  0.00     0.034 A 
ATOM     44  C   UNL A   1      45.784  29.811  27.203  1.00  0.00     0.049 A 
ATOM     45  C   UNL A   1      41.032  31.006  29.953  1.00  0.00     0.074 A 
ATOM     46  C   UNL A   1      46.708  30.835  27.095  1.00  0.00     0.029 A 
ATOM     47  N   UNL A   1      44.719  30.316  27.939  1.00  0.00    -0.354 N 
ATOM     48  N   UNL A   1      42.190  30.870  29.348  1.00  0.00    -0.248 NA
ATOM     49  C   UNL A   1      40.830  32.318  30.578  1.00  0.00     0.031 C 
ATOM     50  C   UNL A   1      46.230  31.937  27.813  1.00  0.00     0.029 A 
ATOM     51  C   UNL A   1      44.976  31.626  28.313  1.00  0.00     0.049 A 
ATOM     52  H   UNL A   1      43.900  29.816  28.162  1.00  0.00     0.167 HD
ATOM     53  C   UNL A   1      42.845  32.089  29.504  1.00  0.00     0.074 A 
ATOM     54  C   UNL A   1      41.946  32.950  30.246  1.00  0.00     0.031 C 
ATOM     55  C   UNL A   1      44.075  32.465  29.069  1.00  0.00     0.034 A 
BRANCH  42  56
ATOM     56  C   UNL A   1      47.120  28.031  25.968  1.00  0.00     0.023 A 
ATOM     57  C   UNL A   1      47.277  28.184  24.581  1.00  0.00     0.031 A 
ATOM     58  C   UNL A   1      48.163  27.420  26.687  1.00  0.00     0.131 A 
ATOM     59  C   UNL A   1      48.420  27.671  23.945  1.00  0.00     0.055 A 
ATOM     60  C   UNL A   1      49.329  26.978  26.059  1.00  0.00     0.041 A 
ATOM     61  F   UNL A   1      48.060  27.228  28.011  1.00  0.00    -0.206 F 
ATOM     62  C   UNL A   1      49.457  27.089  24.678  1.00  0.00     0.022 A 
BRANCH  59  63
ATOM     63  S   UNL A   1      48.472  27.654  22.131  1.00  0.00     0.124 S 
ATOM     64  O   UNL A   1      49.614  28.526  21.860  1.00  0.00    -0.237 OA
ATOM     65  O   UNL A   1      48.664  26.240  21.835  1.00  0.00    -0.237 OA
ATOM     66  O   UNL A   1      47.174  28.203  21.745  1.00  0.00    -0.744 OA
ENDBRANCH  59  63
ENDBRANCH  42  56
BRANCH  43  67
ATOM     67  C   UNL A   1      38.692  30.335  30.882  1.00  0.00     0.023 A 
ATOM     68  C   UNL A   1      37.647  31.097  30.338  1.00  0.00     0.031 A 
ATOM     69  C   UNL A   1      38.580  29.917  32.221  1.00  0.00     0.131 A 
ATOM     70  C   UNL A   1      36.550  31.448  31.139  1.00  0.00     0.055 A 
ATOM     71  C   UNL A   1      37.464  30.229  33.000  1.00  0.00     0.041 A 
ATOM     72  F   UNL A   1      39.553  29.187  32.788  1.00  0.00    -0.206 F 
ATOM     73  C   UNL A   1      36.446  31.009  32.462  1.00  0.00     0.022 A 
BRANCH  70  74
ATOM     74  S   UNL A   1      35.285  32.550  30.449  1.00  0.00     0.124 S 
ATOM     75  O   UNL A   1      34.361  32.684  31.569  1.00  0.00    -0.237 OA
ATOM     76  O   UNL A   1      36.067  33.737  30.117  1.00  0.00    -0.237 OA
ATOM     77  O   UNL A   1      34.773  31.805  29.302  1.00  0.00    -0.744 OA
ENDBRANCH  70  74
ENDBRANCH  43  67
BRANCH  55  78
ATOM     78  C   UNL A   1      44.492  33.886  29.357  1.00  0.00     0.023 A 
ATOM     79  C   UNL A   1      44.218  34.932  28.459  1.00  0.00     0.031 A 
ATOM     80  C   UNL A   1      45.193  34.190  30.538  1.00  0.00     0.131 A 
ATOM     81  C   UNL A   1      44.690  36.226  28.730  1.00  0.00     0.055 A 
ATOM     82  C   UNL A   1      45.613  35.488  30.828  1.00  0.00     0.041 A 
ATOM     83  F   UNL A   1      45.481  33.227  31.428  1.00  0.00    -0.206 F 
ATOM     84  C   UNL A   1      45.373  36.513  29.916  1.00  0.00     0.022 A 
BRANCH  81  85
ATOM     85  S   UNL A   1      44.473  37.515  27.473  1.00  0.00     0.124 S 
ATOM     86  O   UNL A   1      45.597  37.259  26.579  1.00  0.00    -0.237 OA
ATOM     87  O   UNL A   1      43.150  37.211  26.938  1.00  0.00    -0.237 OA
ATOM     88  O   UNL A   1      44.560  38.758  28.239  1.00  0.00    -0.744 OA
ENDBRANCH  81  85
ENDBRANCH  55  78
ENDBRANCH  29  30
ENDBRANCH  22  24
ENDBRANCH  21  22
ENDBRANCH  20  21
ENDBRANCH  19  20
ENDBRANCH   1  19
TORSDOF 21
ENDMDL
MODEL 2
REMARK VINA RESULT:     -10.0      5.262      7.949
REMARK SMILES CC[C@@H]1CCC[C@](CCCCCO)(C(=O)OCCOC(=O)c2ccc(-c3c4nc(c(-c5cc(S(=O)(=O)[O-])ccc5F)c5ccc([nH]5)c(-c5cc(S(=O)(=O)[O-])ccc5F)c5nc(c(-c6cc(S(=O)(=O)[O-])ccc6F)c6ccc3[nH]6)C=C5)C=C4)cc2)C1
REMARK SMILES IDX 16 1 14 2 15 3 7 4 3 5 4 6 85 7 5 8 6 9 2 10 1 11 8 12 9 13
REMARK SMILES IDX 10 14 11 15 12 16 13 17 17 19 18 20 19 21 20 22 21 23 22 24
REMARK SMILES IDX 23 25 84 26 24 27 83 28 25 29 26 30 27 31 77 32 28 33 82 34
REMARK SMILES IDX 76 35 78 36 29 37 81 38 75 39 74 40 30 42 62 43 42 44 61 45
REMARK SMILES IDX 43 46 46 47 60 48 79 49 44 50 45 51 59 53 80 54 47 55 31 56
REMARK SMILES IDX 32 57 40 58 33 59 39 60 41 61 38 62 34 63 35 64 36 65 37 66
REMARK SMILES IDX 63 67 64 68 72 69 65 70 71 71 73 72 70 73 66 74 67 75 68 76
REMARK SMILES IDX 69 77 48 78 49 79 57 80 50 81 56 82 58 83 55 84 51 85 52 86
REMARK SMILES IDX 53 87 54 88
REMARK H PARENT 13 18 78 41 46 52
REMARK Flexibility Score: inf
ROOT
ATOM      1  O   UNL A   1      33.497  28.092  24.921  1.00  0.00    -0.462 OA
ENDROOT
BRANCH   1   2
ATOM      2  C   UNL A   1      33.214  27.045  24.100  1.00  0.00     0.312 C 
ATOM      3  O   UNL A   1      33.064  27.160  22.890  1.00  0.00    -0.252 OA
BRANCH   2   4
ATOM      4  C   UNL A   1      33.032  25.715  24.869  1.00  0.00     0.068 C 
ATOM      5  C   UNL A   1      32.345  23.244  24.224  1.00  0.00    -0.010 C 
ATOM      6  C   UNL A   1      31.035  23.430  24.994  1.00  0.00     0.003 C 
ATOM      7  C   UNL A   1      32.883  24.611  23.765  1.00  0.00     0.022 C 
ATOM      8  C   UNL A   1      31.202  24.418  26.139  1.00  0.00     0.001 C 
ATOM      9  C   UNL A   1      31.699  25.776  25.648  1.00  0.00     0.019 C 
BRANCH   5  10
ATOM     10  C   UNL A   1      32.231  22.317  22.988  1.00  0.00     0.000 C 
ATOM     11  C   UNL A   1      32.263  20.822  23.264  1.00  0.00     0.004 C 
ENDBRANCH   5  10
BRANCH   4  12
ATOM     12  C   UNL A   1      34.271  25.366  25.751  1.00  0.00     0.019 C 
BRANCH  12  13
ATOM     13  C   UNL A   1      34.975  24.002  25.625  1.00  0.00     0.001 C 
BRANCH  13  14
ATOM     14  C   UNL A   1      36.183  23.873  24.697  1.00  0.00     0.002 C 
BRANCH  14  15
ATOM     15  C   UNL A   1      36.490  22.458  24.202  1.00  0.00     0.028 C 
BRANCH  15  16
ATOM     16  C   UNL A   1      37.139  21.548  25.239  1.00  0.00     0.156 C 
BRANCH  16  17
ATOM     17  O   UNL A   1      38.521  21.848  25.374  1.00  0.00    -0.396 OA
ATOM     18  H   UNL A   1      39.045  21.058  25.167  1.00  0.00     0.210 HD
ENDBRANCH  16  17
ENDBRANCH  15  16
ENDBRANCH  14  15
ENDBRANCH  13  14
ENDBRANCH  12  13
ENDBRANCH   4  12
ENDBRANCH   2   4
ENDBRANCH   1   2
BRANCH   1  19
ATOM     19  C   UNL A   1      32.899  29.352  24.552  1.00  0.00     0.274 C 
BRANCH  19  20
ATOM     20  C   UNL A   1      31.808  29.807  25.525  1.00  0.00     0.275 C 
BRANCH  20  21
ATOM     21  O   UNL A   1      32.329  29.984  26.854  1.00  0.00    -0.458 OA
BRANCH  21  22
ATOM     22  C   UNL A   1      32.953  31.162  27.089  1.00  0.00     0.338 C 
ATOM     23  O   UNL A   1      32.497  32.281  26.939  1.00  0.00    -0.246 OA
BRANCH  22  24
ATOM     24  C   UNL A   1      34.285  30.913  27.661  1.00  0.00     0.060 A 
ATOM     25  C   UNL A   1      34.632  29.597  27.978  1.00  0.00     0.016 A 
ATOM     26  C   UNL A   1      35.138  31.968  27.979  1.00  0.00     0.016 A 
ATOM     27  C   UNL A   1      35.836  29.328  28.625  1.00  0.00     0.010 A 
ATOM     28  C   UNL A   1      36.347  31.697  28.629  1.00  0.00     0.010 A 
ATOM     29  C   UNL A   1      36.695  30.377  28.970  1.00  0.00    -0.014 A 
BRANCH  29  30
ATOM     30  C   UNL A   1      37.923  30.105  29.758  1.00  0.00     0.031 A 
ATOM     31  C   UNL A   1      38.965  29.175  29.203  1.00  0.00     0.074 A 
ATOM     32  C   UNL A   1      38.100  30.687  30.957  1.00  0.00     0.049 A 
ATOM     33  N   UNL A   1      40.051  28.714  29.767  1.00  0.00    -0.248 NA
ATOM     34  C   UNL A   1      38.748  28.700  27.829  1.00  0.00     0.031 C 
ATOM     35  C   UNL A   1      37.179  31.642  31.575  1.00  0.00     0.029 A 
ATOM     36  N   UNL A   1      39.110  30.551  31.877  1.00  0.00    -0.354 N 
ATOM     37  C   UNL A   1      40.641  27.878  28.825  1.00  0.00     0.074 A 
ATOM     38  C   UNL A   1      39.777  27.882  27.661  1.00  0.00     0.031 C 
ATOM     39  C   UNL A   1      37.660  31.995  32.778  1.00  0.00     0.029 A 
ATOM     40  C   UNL A   1      38.894  31.258  33.037  1.00  0.00     0.049 A 
ATOM     41  H   UNL A   1      39.911  30.001  31.721  1.00  0.00     0.167 HD
ATOM     42  C   UNL A   1      41.797  27.174  28.924  1.00  0.00     0.034 A 
ATOM     43  C   UNL A   1      39.592  31.277  34.190  1.00  0.00     0.034 A 
ATOM     44  C   UNL A   1      42.643  27.180  30.094  1.00  0.00     0.049 A 
ATOM     45  C   UNL A   1      40.838  30.436  34.303  1.00  0.00     0.074 A 
ATOM     46  C   UNL A   1      43.837  26.510  30.300  1.00  0.00     0.029 A 
ATOM     47  N   UNL A   1      42.379  27.886  31.261  1.00  0.00    -0.354 N 
ATOM     48  N   UNL A   1      41.377  29.632  33.413  1.00  0.00    -0.248 NA
ATOM     49  C   UNL A   1      41.570  30.504  35.573  1.00  0.00     0.031 C 
ATOM     50  C   UNL A   1      44.263  26.764  31.609  1.00  0.00     0.029 A 
ATOM     51  C   UNL A   1      43.372  27.646  32.199  1.00  0.00     0.049 A 
ATOM     52  H   UNL A   1      41.601  28.472  31.402  1.00  0.00     0.167 HD
ATOM     53  C   UNL A   1      42.522  29.116  34.013  1.00  0.00     0.074 A 
ATOM     54  C   UNL A   1      42.604  29.711  35.332  1.00  0.00     0.031 C 
ATOM     55  C   UNL A   1      43.429  28.235  33.518  1.00  0.00     0.034 A 
BRANCH  42  56
ATOM     56  C   UNL A   1      42.170  26.293  27.756  1.00  0.00     0.023 A 
ATOM     57  C   UNL A   1      41.796  24.940  27.696  1.00  0.00     0.031 A 
ATOM     58  C   UNL A   1      42.944  26.811  26.702  1.00  0.00     0.131 A 
ATOM     59  C   UNL A   1      42.252  24.134  26.641  1.00  0.00     0.055 A 
ATOM     60  C   UNL A   1      43.335  26.021  25.619  1.00  0.00     0.041 A 
ATOM     61  F   UNL A   1      43.350  28.090  26.716  1.00  0.00    -0.206 F 
ATOM     62  C   UNL A   1      43.001  24.671  25.590  1.00  0.00     0.022 A 
BRANCH  59  63
ATOM     63  S   UNL A   1      41.969  22.344  26.728  1.00  0.00     0.124 S 
ATOM     64  O   UNL A   1      42.932  21.941  27.751  1.00  0.00    -0.237 OA
ATOM     65  O   UNL A   1      40.564  22.265  27.108  1.00  0.00    -0.237 OA
ATOM     66  O   UNL A   1      42.277  21.881  25.376  1.00  0.00    -0.744 OA
ENDBRANCH  59  63
ENDBRANCH  42  56
BRANCH  43  67
ATOM     67  C   UNL A   1      39.104  32.074  35.350  1.00  0.00     0.023 A 
ATOM     68  C   UNL A   1      38.474  31.460  36.443  1.00  0.00     0.031 A 
ATOM     69  C   UNL A   1      39.226  33.475  35.358  1.00  0.00     0.131 A 
ATOM     70  C   UNL A   1      37.959  32.247  37.484  1.00  0.00     0.055 A 
ATOM     71  C   UNL A   1      38.754  34.251  36.418  1.00  0.00     0.041 A 
ATOM     72  F   UNL A   1      39.820  34.111  34.336  1.00  0.00    -0.206 F 
ATOM     73  C   UNL A   1      38.106  33.637  37.484  1.00  0.00     0.022 A 
BRANCH  70  74
ATOM     74  S   UNL A   1      37.028  31.434  38.812  1.00  0.00     0.124 S 
ATOM     75  O   UNL A   1      36.897  30.076  38.297  1.00  0.00    -0.237 OA
ATOM     76  O   UNL A   1      37.920  31.603  39.955  1.00  0.00    -0.237 OA
ATOM     77  O   UNL A   1      35.786  32.201  38.876  1.00  0.00    -0.744 OA
ENDBRANCH  70  74
ENDBRANCH  43  67
BRANCH  55  78
ATOM     78  C   UNL A   1      44.604  27.900  34.401  1.00  0.00     0.023 A 
ATOM     79  C   UNL A   1      44.573  26.812  35.290  1.00  0.00     0.031 A 
ATOM     80  C   UNL A   1      45.763  28.695  34.364  1.00  0.00     0.131 A 
ATOM     81  C   UNL A   1      45.660  26.580  36.148  1.00  0.00     0.055 A 
ATOM     82  C   UNL A   1      46.862  28.428  35.181  1.00  0.00     0.041 A 
ATOM     83  F   UNL A   1      45.844  29.747  33.533  1.00  0.00    -0.206 F 
ATOM     84  C   UNL A   1      46.810  27.373  36.089  1.00  0.00     0.022 A 
BRANCH  81  85
ATOM     85  S   UNL A   1      45.520  25.278  37.403  1.00  0.00     0.124 S 
ATOM     86  O   UNL A   1      45.875  25.994  38.624  1.00  0.00    -0.237 OA
ATOM     87  O   UNL A   1      44.121  24.878  37.283  1.00  0.00    -0.237 OA
ATOM     88  O   UNL A   1      46.490  24.275  36.967  1.00  0.00    -0.744 OA
ENDBRANCH  81  85
ENDBRANCH  55  78
ENDBRANCH  29  30
ENDBRANCH  22  24
ENDBRANCH  21  22
ENDBRANCH  20  21
ENDBRANCH  19  20
ENDBRANCH   1  19
TORSDOF 21
ENDMDL
MODEL 3
REMARK VINA RESULT:     -10.0      5.152      7.678
REMARK SMILES CC[C@@H]1CCC[C@](CCCCCO)(C(=O)OCCOC(=O)c2ccc(-c3c4nc(c(-c5cc(S(=O)(=O)[O-])ccc5F)c5ccc([nH]5)c(-c5cc(S(=O)(=O)[O-])ccc5F)c5nc(c(-c6cc(S(=O)(=O)[O-])ccc6F)c6ccc3[nH]6)C=C5)C=C4)cc2)C1
REMARK SMILES IDX 16 1 14 2 15 3 7 4 3 5 4 6 85 7 5 8 6 9 2 10 1 11 8 12 9 13
REMARK SMILES IDX 10 14 11 15 12 16 13 17 17 19 18 20 19 21 20 22 21 23 22 24
REMARK SMILES IDX 23 25 84 26 24 27 83 28 25 29 26 30 27 31 77 32 28 33 82 34
REMARK SMILES IDX 76 35 78 36 29 37 81 38 75 39 74 40 30 42 62 43 42 44 61 45
REMARK SMILES IDX 43 46 46 47 60 48 79 49 44 50 45 51 59 53 80 54 47 55 31 56
REMARK SMILES IDX 32 57 40 58 33 59 39 60 41 61 38 62 34 63 35 64 36 65 37 66
REMARK SMILES IDX 63 67 64 68 72 69 65 70 71 71 73 72 70 73 66 74 67 75 68 76
REMARK SMILES IDX 69 77 48 78 49 79 57 80 50 81 56 82 58 83 55 84 51 85 52 86
REMARK SMILES IDX 53 87 54 88
REMARK H PARENT 13 18 78 41 46 52
REMARK Flexibility Score: inf
ROOT
ATOM      1  O   UNL A   1      33.595  28.429  24.737  1.00  0.00    -0.462 OA
ENDROOT
BRANCH   1   2
ATOM      2  C   UNL A   1      33.633  27.853  23.504  1.00  0.00     0.312 C 
ATOM      3  O   UNL A   1      34.008  28.442  22.497  1.00  0.00    -0.252 OA
BRANCH   2   4
ATOM      4  C   UNL A   1      33.086  26.407  23.504  1.00  0.00     0.068 C 
ATOM      5  C   UNL A   1      33.939  24.068  24.398  1.00  0.00    -0.010 C 
ATOM      6  C   UNL A   1      34.112  23.601  22.950  1.00  0.00     0.003 C 
ATOM      7  C   UNL A   1      34.026  25.604  24.468  1.00  0.00     0.022 C 
ATOM      8  C   UNL A   1      33.124  24.296  22.024  1.00  0.00     0.001 C 
ATOM      9  C   UNL A   1      33.261  25.816  22.086  1.00  0.00     0.019 C 
BRANCH   5  10
ATOM     10  C   UNL A   1      34.970  23.469  25.387  1.00  0.00     0.000 C 
ATOM     11  C   UNL A   1      34.482  23.240  26.808  1.00  0.00     0.004 C 
ENDBRANCH   5  10
BRANCH   4  12
ATOM     12  C   UNL A   1      31.628  26.323  24.053  1.00  0.00     0.019 C 
BRANCH  12  13
ATOM     13  C   UNL A   1      31.357  26.009  25.537  1.00  0.00     0.001 C 
BRANCH  13  14
ATOM     14  C   UNL A   1      30.378  24.890  25.892  1.00  0.00     0.002 C 
BRANCH  14  15
ATOM     15  C   UNL A   1      30.840  23.473  25.550  1.00  0.00     0.028 C 
BRANCH  15  16
ATOM     16  C   UNL A   1      30.280  22.384  26.458  1.00  0.00     0.156 C 
BRANCH  16  17
ATOM     17  O   UNL A   1      30.001  22.903  27.751  1.00  0.00    -0.396 OA
ATOM     18  H   UNL A   1      29.653  22.195  28.315  1.00  0.00     0.210 HD
ENDBRANCH  16  17
ENDBRANCH  15  16
ENDBRANCH  14  15
ENDBRANCH  13  14
ENDBRANCH  12  13
ENDBRANCH   4  12
ENDBRANCH   2   4
ENDBRANCH   1   2
BRANCH   1  19
ATOM     19  C   UNL A   1      32.891  29.686  24.815  1.00  0.00     0.274 C 
BRANCH  19  20
ATOM     20  C   UNL A   1      31.850  29.722  25.938  1.00  0.00     0.275 C 
BRANCH  20  21
ATOM     21  O   UNL A   1      32.457  30.018  27.208  1.00  0.00    -0.458 OA
BRANCH  21  22
ATOM     22  C   UNL A   1      33.064  31.224  27.302  1.00  0.00     0.338 C 
ATOM     23  O   UNL A   1      32.568  32.318  27.102  1.00  0.00    -0.246 OA
BRANCH  22  24
ATOM     24  C   UNL A   1      34.441  31.050  27.788  1.00  0.00     0.060 A 
ATOM     25  C   UNL A   1      34.811  29.800  28.291  1.00  0.00     0.016 A 
ATOM     26  C   UNL A   1      35.324  32.127  27.846  1.00  0.00     0.016 A 
ATOM     27  C   UNL A   1      36.068  29.620  28.865  1.00  0.00     0.010 A 
ATOM     28  C   UNL A   1      36.586  31.946  28.423  1.00  0.00     0.010 A 
ATOM     29  C   UNL A   1      36.958  30.696  28.950  1.00  0.00    -0.014 A 
BRANCH  29  30
ATOM     30  C   UNL A   1      38.251  30.537  29.661  1.00  0.00     0.031 A 
ATOM     31  C   UNL A   1      39.339  29.708  29.038  1.00  0.00     0.074 A 
ATOM     32  C   UNL A   1      38.446  31.132  30.851  1.00  0.00     0.049 A 
ATOM     33  N   UNL A   1      40.495  29.348  29.532  1.00  0.00    -0.248 NA
ATOM     34  C   UNL A   1      39.084  29.217  27.676  1.00  0.00     0.031 C 
ATOM     35  C   UNL A   1      37.481  31.996  31.530  1.00  0.00     0.029 A 
ATOM     36  N   UNL A   1      39.518  31.087  31.707  1.00  0.00    -0.354 N 
ATOM     37  C   UNL A   1      41.101  28.571  28.551  1.00  0.00     0.074 A 
ATOM     38  C   UNL A   1      40.172  28.498  27.441  1.00  0.00     0.031 C 
ATOM     39  C   UNL A   1      38.000  32.390  32.705  1.00  0.00     0.029 A 
ATOM     40  C   UNL A   1      39.309  31.769  32.884  1.00  0.00     0.049 A 
ATOM     41  H   UNL A   1      40.356  30.614  31.500  1.00  0.00     0.167 HD
ATOM     42  C   UNL A   1      42.320  27.977  28.575  1.00  0.00     0.034 A 
ATOM     43  C   UNL A   1      40.071  31.851  33.993  1.00  0.00     0.034 A 
ATOM     44  C   UNL A   1      43.232  28.058  29.692  1.00  0.00     0.049 A 
ATOM     45  C   UNL A   1      41.393  31.128  34.024  1.00  0.00     0.074 A 
ATOM     46  C   UNL A   1      44.492  27.501  29.822  1.00  0.00     0.029 A 
ATOM     47  N   UNL A   1      42.975  28.736  30.878  1.00  0.00    -0.354 N 
ATOM     48  N   UNL A   1      41.948  30.379  33.099  1.00  0.00    -0.248 NA
ATOM     49  C   UNL A   1      42.191  31.262  35.249  1.00  0.00     0.031 C 
ATOM     50  C   UNL A   1      44.972  27.791  31.104  1.00  0.00     0.029 A 
ATOM     51  C   UNL A   1      44.041  28.587  31.753  1.00  0.00     0.049 A 
ATOM     52  H   UNL A   1      42.156  29.247  31.069  1.00  0.00     0.167 HD
ATOM     53  C   UNL A   1      43.171  29.970  33.624  1.00  0.00     0.074 A 
ATOM     54  C   UNL A   1      43.277  30.567  34.940  1.00  0.00     0.031 C 
ATOM     55  C   UNL A   1      44.123  29.177  33.070  1.00  0.00     0.034 A 
BRANCH  42  56
ATOM     56  C   UNL A   1      42.701  27.136  27.381  1.00  0.00     0.023 A 
ATOM     57  C   UNL A   1      42.408  25.763  27.313  1.00  0.00     0.031 A 
ATOM     58  C   UNL A   1      43.403  27.713  26.307  1.00  0.00     0.131 A 
ATOM     59  C   UNL A   1      42.872  25.001  26.230  1.00  0.00     0.055 A 
ATOM     60  C   UNL A   1      43.799  26.963  25.198  1.00  0.00     0.041 A 
ATOM     61  F   UNL A   1      43.731  29.015  26.326  1.00  0.00    -0.206 F 
ATOM     62  C   UNL A   1      43.546  25.596  25.161  1.00  0.00     0.022 A 
BRANCH  59  63
ATOM     63  S   UNL A   1      42.701  23.195  26.300  1.00  0.00     0.124 S 
ATOM     64  O   UNL A   1      42.831  22.830  24.891  1.00  0.00    -0.237 OA
ATOM     65  O   UNL A   1      43.808  22.807  27.165  1.00  0.00    -0.237 OA
ATOM     66  O   UNL A   1      41.367  22.999  26.866  1.00  0.00    -0.744 OA
ENDBRANCH  59  63
ENDBRANCH  42  56
BRANCH  43  67
ATOM     67  C   UNL A   1      39.582  32.598  35.185  1.00  0.00     0.023 A 
ATOM     68  C   UNL A   1      38.888  31.950  36.217  1.00  0.00     0.031 A 
ATOM     69  C   UNL A   1      39.771  33.989  35.286  1.00  0.00     0.131 A 
ATOM     70  C   UNL A   1      38.377  32.696  37.291  1.00  0.00     0.055 A 
ATOM     71  C   UNL A   1      39.302  34.719  36.379  1.00  0.00     0.041 A 
ATOM     72  F   UNL A   1      40.428  34.656  34.325  1.00  0.00    -0.206 F 
ATOM     73  C   UNL A   1      38.590  34.074  37.383  1.00  0.00     0.022 A 
BRANCH  70  74
ATOM     74  S   UNL A   1      37.364  31.849  38.535  1.00  0.00     0.124 S 
ATOM     75  O   UNL A   1      36.147  32.653  38.528  1.00  0.00    -0.237 OA
ATOM     76  O   UNL A   1      37.250  30.508  37.972  1.00  0.00    -0.237 OA
ATOM     77  O   UNL A   1      38.168  31.945  39.751  1.00  0.00    -0.744 OA
ENDBRANCH  70  74
ENDBRANCH  43  67
BRANCH  55  78
ATOM     78  C   UNL A   1      45.375  28.950  33.878  1.00  0.00     0.023 A 
ATOM     79  C   UNL A   1      45.495  27.868  34.767  1.00  0.00     0.031 A 
ATOM     80  C   UNL A   1      46.456  29.844  33.771  1.00  0.00     0.131 A 
ATOM     81  C   UNL A   1      46.648  27.736  35.556  1.00  0.00     0.055 A 
ATOM     82  C   UNL A   1      47.622  29.678  34.518  1.00  0.00     0.041 A 
ATOM     83  F   UNL A   1      46.392  30.895  32.937  1.00  0.00    -0.206 F 
ATOM     84  C   UNL A   1      47.719  28.627  35.426  1.00  0.00     0.022 A 
BRANCH  81  85
ATOM     85  S   UNL A   1      46.700  26.433  36.816  1.00  0.00     0.124 S 
ATOM     86  O   UNL A   1      47.911  25.704  36.450  1.00  0.00    -0.237 OA
ATOM     87  O   UNL A   1      46.768  27.200  38.056  1.00  0.00    -0.237 OA
ATOM     88  O   UNL A   1      45.450  25.704  36.608  1.00  0.00    -0.744 OA
ENDBRANCH  81  85
ENDBRANCH  55  78
ENDBRANCH  29  30
ENDBRANCH  22  24
ENDBRANCH  21  22
ENDBRANCH  20  21
ENDBRANCH  19  20
ENDBRANCH   1  19
TORSDOF 21
ENDMDL
