MODEL 1
REMARK VINA RESULT:     -13.5      0.000      0.000
REMARK SMILES Cc1ccc(N2C(=O)C[C@H](Sc3ccccc3C(=O)OCCOC(=O)c3ccc(-c4c5nc(c(-c6cc(S(=O)(=O)[O-])ccc6F)c6ccc([nH]6)c(-c6cc(S(=O)(=O)[O-])ccc6F)c6nc(c(-c7cc(S(=O)(=O)[O-])ccc7F)c7ccc4[nH]7)C=C6)C=C5)cc3)C2=O)cc1
REMARK SMILES IDX 21 1 20 2 18 3 19 4 17 5 12 6 13 7 14 8 16 9 15 10 11 11
REMARK SMILES IDX 10 12 6 13 7 14 89 15 8 16 9 17 90 18 5 19 1 20 2 21 3 22
REMARK SMILES IDX 92 23 4 24 91 25 22 26 23 27 24 28 25 29 26 30 27 31 88 32
REMARK SMILES IDX 28 33 87 34 29 35 30 36 31 37 81 38 32 39 86 40 80 41 82 42
REMARK SMILES IDX 33 43 85 44 79 45 78 46 34 48 66 49 46 50 65 51 47 52 50 53
REMARK SMILES IDX 64 54 83 55 48 56 49 57 63 59 84 60 51 61 35 62 36 63 44 64
REMARK SMILES IDX 37 65 43 66 45 67 42 68 38 69 39 70 40 71 41 72 67 73 68 74
REMARK SMILES IDX 76 75 69 76 75 77 77 78 74 79 70 80 71 81 72 82 73 83 52 84
REMARK SMILES IDX 53 85 61 86 54 87 60 88 62 89 59 90 55 91 56 92 57 93 58 94
REMARK H PARENT 82 47 50 58
REMARK Flexibility Score: inf
ROOT
ATOM      1  C   UNL A   1      33.539  29.800  27.058  1.00  0.00     0.275 C 
ENDROOT
BRANCH   1   2
ATOM      2  O   UNL A   1      32.550  28.743  26.997  1.00  0.00    -0.458 OA
BRANCH   2   3
ATOM      3  C   UNL A   1      32.649  27.918  25.915  1.00  0.00     0.339 C 
ATOM      4  O   UNL A   1      33.689  27.465  25.461  1.00  0.00    -0.246 OA
BRANCH   3   5
ATOM      5  C   UNL A   1      31.428  27.943  25.081  1.00  0.00     0.073 A 
ATOM      6  C   UNL A   1      30.461  26.915  24.923  1.00  0.00     0.023 A 
ATOM      7  C   UNL A   1      29.624  27.000  23.791  1.00  0.00     0.016 A 
ATOM      8  C   UNL A   1      29.766  28.019  22.837  1.00  0.00     0.001 A 
ATOM      9  C   UNL A   1      31.516  28.996  24.143  1.00  0.00     0.017 A 
ATOM     10  C   UNL A   1      30.711  29.019  23.013  1.00  0.00     0.001 A 
BRANCH   6  11
ATOM     11  S   UNL A   1      30.515  25.262  25.638  1.00  0.00    -0.111 SA
BRANCH  11  12
ATOM     12  C   UNL A   1      31.293  24.014  24.514  1.00  0.00     0.151 C 
ATOM     13  N   UNL A   1      33.593  23.787  24.429  1.00  0.00    -0.250 N 
ATOM     14  C   UNL A   1      33.291  24.402  23.242  1.00  0.00     0.235 C 
ATOM     15  C   UNL A   1      32.484  23.324  25.105  1.00  0.00     0.247 C 
ATOM     16  O   UNL A   1      34.081  24.712  22.358  1.00  0.00    -0.274 OA
ATOM     17  C   UNL A   1      31.794  24.512  23.151  1.00  0.00     0.126 C 
ATOM     18  O   UNL A   1      32.428  22.458  25.943  1.00  0.00    -0.273 OA
BRANCH  13  19
ATOM     19  C   UNL A   1      34.879  23.358  24.750  1.00  0.00     0.052 A 
ATOM     20  C   UNL A   1      38.747  21.961  25.936  1.00  0.00     0.044 C 
ATOM     21  C   UNL A   1      37.403  22.467  25.511  1.00  0.00    -0.051 A 
ATOM     22  C   UNL A   1      36.579  21.656  24.718  1.00  0.00     0.005 A 
ATOM     23  C   UNL A   1      36.961  23.741  25.892  1.00  0.00     0.005 A 
ATOM     24  C   UNL A   1      35.320  22.102  24.332  1.00  0.00     0.027 A 
ATOM     25  C   UNL A   1      35.697  24.186  25.517  1.00  0.00     0.027 A 
ENDBRANCH  13  19
ENDBRANCH  11  12
ENDBRANCH   6  11
ENDBRANCH   3   5
ENDBRANCH   2   3
ENDBRANCH   1   2
BRANCH   1  26
ATOM     26  C   UNL A   1      32.956  31.199  26.735  1.00  0.00     0.275 C 
BRANCH  26  27
ATOM     27  O   UNL A   1      32.456  32.004  27.819  1.00  0.00    -0.458 OA
BRANCH  27  28
ATOM     28  C   UNL A   1      32.909  33.273  27.860  1.00  0.00     0.338 C 
ATOM     29  O   UNL A   1      32.191  34.257  27.735  1.00  0.00    -0.246 OA
BRANCH  28  30
ATOM     30  C   UNL A   1      34.209  33.297  28.562  1.00  0.00     0.060 A 
ATOM     31  C   UNL A   1      34.354  32.474  29.683  1.00  0.00     0.016 A 
ATOM     32  C   UNL A   1      35.319  33.719  27.840  1.00  0.00     0.016 A 
ATOM     33  C   UNL A   1      35.551  31.856  29.960  1.00  0.00     0.010 A 
ATOM     34  C   UNL A   1      36.506  33.084  28.060  1.00  0.00     0.010 A 
ATOM     35  C   UNL A   1      36.605  32.168  29.117  1.00  0.00    -0.014 A 
BRANCH  35  36
ATOM     36  C   UNL A   1      37.961  31.903  29.517  1.00  0.00     0.031 A 
ATOM     37  C   UNL A   1      38.526  30.578  29.228  1.00  0.00     0.074 A 
ATOM     38  C   UNL A   1      38.498  33.037  30.022  1.00  0.00     0.049 A 
ATOM     39  N   UNL A   1      39.363  29.950  29.976  1.00  0.00    -0.248 NA
ATOM     40  C   UNL A   1      38.088  29.764  28.083  1.00  0.00     0.031 C 
ATOM     41  C   UNL A   1      39.860  33.425  30.304  1.00  0.00     0.029 A 
ATOM     42  N   UNL A   1      37.748  34.116  30.547  1.00  0.00    -0.354 N 
ATOM     43  C   UNL A   1      39.906  28.961  29.174  1.00  0.00     0.074 A 
ATOM     44  C   UNL A   1      38.936  28.729  28.137  1.00  0.00     0.031 C 
ATOM     45  C   UNL A   1      39.826  34.410  31.229  1.00  0.00     0.029 A 
ATOM     46  C   UNL A   1      38.435  34.564  31.660  1.00  0.00     0.049 A 
ATOM     47  H   UNL A   1      36.904  34.477  30.190  1.00  0.00     0.167 HD
ATOM     48  C   UNL A   1      41.244  28.710  29.266  1.00  0.00     0.034 A 
ATOM     49  C   UNL A   1      37.943  34.310  32.911  1.00  0.00     0.034 A 
ATOM     50  C   UNL A   1      41.832  29.618  30.248  1.00  0.00     0.049 A 
ATOM     51  C   UNL A   1      38.893  33.380  33.620  1.00  0.00     0.074 A 
ATOM     52  C   UNL A   1      42.429  30.858  30.077  1.00  0.00     0.029 A 
ATOM     53  N   UNL A   1      41.467  29.530  31.583  1.00  0.00    -0.354 N 
ATOM     54  N   UNL A   1      39.540  32.408  33.034  1.00  0.00    -0.248 NA
ATOM     55  C   UNL A   1      39.229  33.545  35.026  1.00  0.00     0.031 C 
ATOM     56  C   UNL A   1      42.340  31.551  31.309  1.00  0.00     0.029 A 
ATOM     57  C   UNL A   1      41.678  30.740  32.214  1.00  0.00     0.049 A 
ATOM     58  H   UNL A   1      41.110  28.722  32.018  1.00  0.00     0.167 HD
ATOM     59  C   UNL A   1      40.434  31.882  33.927  1.00  0.00     0.074 A 
ATOM     60  C   UNL A   1      40.189  32.616  35.162  1.00  0.00     0.031 C 
ATOM     61  C   UNL A   1      41.337  30.908  33.610  1.00  0.00     0.034 A 
BRANCH  48  62
ATOM     62  C   UNL A   1      42.077  28.022  28.209  1.00  0.00     0.023 A 
ATOM     63  C   UNL A   1      42.218  26.618  28.280  1.00  0.00     0.031 A 
ATOM     64  C   UNL A   1      42.753  28.643  27.144  1.00  0.00     0.131 A 
ATOM     65  C   UNL A   1      43.048  25.906  27.402  1.00  0.00     0.055 A 
ATOM     66  C   UNL A   1      43.601  27.936  26.273  1.00  0.00     0.041 A 
ATOM     67  F   UNL A   1      42.594  29.948  26.879  1.00  0.00    -0.206 F 
ATOM     68  C   UNL A   1      43.761  26.560  26.406  1.00  0.00     0.022 A 
BRANCH  65  69
ATOM     69  S   UNL A   1      43.162  24.105  27.589  1.00  0.00     0.124 S 
ATOM     70  O   UNL A   1      42.408  23.877  28.817  1.00  0.00    -0.237 OA
ATOM     71  O   UNL A   1      42.547  23.624  26.356  1.00  0.00    -0.237 OA
ATOM     72  O   UNL A   1      44.600  23.866  27.694  1.00  0.00    -0.744 OA
ENDBRANCH  65  69
ENDBRANCH  48  62
BRANCH  49  73
ATOM     73  C   UNL A   1      36.449  34.246  33.084  1.00  0.00     0.023 A 
ATOM     74  C   UNL A   1      35.676  35.404  32.845  1.00  0.00     0.031 A 
ATOM     75  C   UNL A   1      35.748  33.040  33.264  1.00  0.00     0.131 A 
ATOM     76  C   UNL A   1      34.279  35.321  32.697  1.00  0.00     0.055 A 
ATOM     77  C   UNL A   1      34.350  32.969  33.159  1.00  0.00     0.041 A 
ATOM     78  F   UNL A   1      36.402  31.890  33.470  1.00  0.00    -0.206 F 
ATOM     79  C   UNL A   1      33.610  34.110  32.860  1.00  0.00     0.022 A 
BRANCH  76  80
ATOM     80  S   UNL A   1      33.371  36.780  32.105  1.00  0.00     0.124 S 
ATOM     81  O   UNL A   1      33.260  36.515  30.675  1.00  0.00    -0.237 OA
ATOM     82  O   UNL A   1      32.134  36.693  32.875  1.00  0.00    -0.237 OA
ATOM     83  O   UNL A   1      34.248  37.890  32.470  1.00  0.00    -0.744 OA
ENDBRANCH  76  80
ENDBRANCH  49  73
BRANCH  61  84
ATOM     84  C   UNL A   1      42.078  30.104  34.636  1.00  0.00     0.023 A 
ATOM     85  C   UNL A   1      41.783  28.757  34.851  1.00  0.00     0.031 A 
ATOM     86  C   UNL A   1      43.156  30.635  35.377  1.00  0.00     0.131 A 
ATOM     87  C   UNL A   1      42.397  28.047  35.882  1.00  0.00     0.055 A 
ATOM     88  C   UNL A   1      43.867  29.880  36.309  1.00  0.00     0.041 A 
ATOM     89  F   UNL A   1      43.566  31.904  35.228  1.00  0.00    -0.206 F 
ATOM     90  C   UNL A   1      43.462  28.585  36.597  1.00  0.00     0.022 A 
BRANCH  87  91
ATOM     91  S   UNL A   1      41.634  26.483  36.363  1.00  0.00     0.124 S 
ATOM     92  O   UNL A   1      40.896  26.131  35.152  1.00  0.00    -0.237 OA
ATOM     93  O   UNL A   1      42.790  25.645  36.661  1.00  0.00    -0.237 OA
ATOM     94  O   UNL A   1      40.807  26.844  37.511  1.00  0.00    -0.744 OA
ENDBRANCH  87  91
ENDBRANCH  61  84
ENDBRANCH  35  36
ENDBRANCH  28  30
ENDBRANCH  27  28
ENDBRANCH  26  27
ENDBRANCH   1  26
TORSDOF 17
ENDMDL
MODEL 2
REMARK VINA RESULT:     -13.2      3.555      4.985
REMARK SMILES Cc1ccc(N2C(=O)C[C@H](Sc3ccccc3C(=O)OCCOC(=O)c3ccc(-c4c5nc(c(-c6cc(S(=O)(=O)[O-])ccc6F)c6ccc([nH]6)c(-c6cc(S(=O)(=O)[O-])ccc6F)c6nc(c(-c7cc(S(=O)(=O)[O-])ccc7F)c7ccc4[nH]7)C=C6)C=C5)cc3)C2=O)cc1
REMARK SMILES IDX 21 1 20 2 18 3 19 4 17 5 12 6 13 7 14 8 16 9 15 10 11 11
REMARK SMILES IDX 10 12 6 13 7 14 89 15 8 16 9 17 90 18 5 19 1 20 2 21 3 22
REMARK SMILES IDX 92 23 4 24 91 25 22 26 23 27 24 28 25 29 26 30 27 31 88 32
REMARK SMILES IDX 28 33 87 34 29 35 30 36 31 37 81 38 32 39 86 40 80 41 82 42
REMARK SMILES IDX 33 43 85 44 79 45 78 46 34 48 66 49 46 50 65 51 47 52 50 53
REMARK SMILES IDX 64 54 83 55 48 56 49 57 63 59 84 60 51 61 35 62 36 63 44 64
REMARK SMILES IDX 37 65 43 66 45 67 42 68 38 69 39 70 40 71 41 72 67 73 68 74
REMARK SMILES IDX 76 75 69 76 75 77 77 78 74 79 70 80 71 81 72 82 73 83 52 84
REMARK SMILES IDX 53 85 61 86 54 87 60 88 62 89 59 90 55 91 56 92 57 93 58 94
REMARK H PARENT 82 47 50 58
REMARK Flexibility Score: inf
ROOT
ATOM      1  C   UNL A   1      32.991  29.783  26.398  1.00  0.00     0.275 C 
ENDROOT
BRANCH   1   2
ATOM      2  O   UNL A   1      33.173  29.546  24.980  1.00  0.00    -0.458 OA
BRANCH   2   3
ATOM      3  C   UNL A   1      32.964  28.259  24.576  1.00  0.00     0.339 C 
ATOM      4  O   UNL A   1      33.781  27.555  24.001  1.00  0.00    -0.246 OA
BRANCH   3   5
ATOM      5  C   UNL A   1      31.526  27.919  24.521  1.00  0.00     0.073 A 
ATOM      6  C   UNL A   1      30.860  26.849  25.175  1.00  0.00     0.023 A 
ATOM      7  C   UNL A   1      29.597  26.481  24.664  1.00  0.00     0.016 A 
ATOM      8  C   UNL A   1      29.043  27.103  23.535  1.00  0.00     0.001 A 
ATOM      9  C   UNL A   1      30.925  28.576  23.424  1.00  0.00     0.017 A 
ATOM     10  C   UNL A   1      29.705  28.152  22.915  1.00  0.00     0.001 A 
BRANCH   6  11
ATOM     11  S   UNL A   1      31.616  25.562  26.183  1.00  0.00    -0.111 SA
BRANCH  11  12
ATOM     12  C   UNL A   1      32.073  24.055  25.209  1.00  0.00     0.151 C 
ATOM     13  N   UNL A   1      34.295  23.520  24.853  1.00  0.00    -0.250 N 
ATOM     14  C   UNL A   1      33.875  23.966  23.627  1.00  0.00     0.235 C 
ATOM     15  C   UNL A   1      33.264  23.323  25.747  1.00  0.00     0.247 C 
ATOM     16  O   UNL A   1      34.544  24.022  22.601  1.00  0.00    -0.274 OA
ATOM     17  C   UNL A   1      32.402  24.254  23.723  1.00  0.00     0.126 C 
ATOM     18  O   UNL A   1      33.250  22.621  26.728  1.00  0.00    -0.273 OA
BRANCH  13  19
ATOM     19  C   UNL A   1      35.563  22.986  25.067  1.00  0.00     0.052 A 
ATOM     20  C   UNL A   1      39.399  21.304  25.944  1.00  0.00     0.044 C 
ATOM     21  C   UNL A   1      38.067  21.907  25.624  1.00  0.00    -0.051 A 
ATOM     22  C   UNL A   1      37.063  21.106  25.062  1.00  0.00     0.005 A 
ATOM     23  C   UNL A   1      37.813  23.262  25.874  1.00  0.00     0.005 A 
ATOM     24  C   UNL A   1      35.813  21.645  24.778  1.00  0.00     0.027 A 
ATOM     25  C   UNL A   1      36.559  23.803  25.602  1.00  0.00     0.027 A 
ENDBRANCH  13  19
ENDBRANCH  11  12
ENDBRANCH   6  11
ENDBRANCH   3   5
ENDBRANCH   2   3
ENDBRANCH   1   2
BRANCH   1  26
ATOM     26  C   UNL A   1      33.878  28.875  27.286  1.00  0.00     0.275 C 
BRANCH  26  27
ATOM     27  O   UNL A   1      35.307  29.043  27.233  1.00  0.00    -0.458 OA
BRANCH  27  28
ATOM     28  C   UNL A   1      35.786  30.159  27.819  1.00  0.00     0.338 C 
ATOM     29  O   UNL A   1      35.077  31.053  28.263  1.00  0.00    -0.246 OA
BRANCH  28  30
ATOM     30  C   UNL A   1      37.164  29.903  28.286  1.00  0.00     0.060 A 
ATOM     31  C   UNL A   1      37.328  29.041  29.375  1.00  0.00     0.016 A 
ATOM     32  C   UNL A   1      38.197  30.109  27.379  1.00  0.00     0.016 A 
ATOM     33  C   UNL A   1      38.404  28.188  29.449  1.00  0.00     0.010 A 
ATOM     34  C   UNL A   1      39.249  29.243  27.399  1.00  0.00     0.010 A 
ATOM     35  C   UNL A   1      39.339  28.300  28.433  1.00  0.00    -0.014 A 
BRANCH  35  36
ATOM     36  C   UNL A   1      40.661  27.756  28.597  1.00  0.00     0.031 A 
ATOM     37  C   UNL A   1      40.919  26.393  28.115  1.00  0.00     0.074 A 
ATOM     38  C   UNL A   1      41.467  28.715  29.108  1.00  0.00     0.049 A 
ATOM     39  N   UNL A   1      41.713  25.548  28.670  1.00  0.00    -0.248 NA
ATOM     40  C   UNL A   1      40.182  25.802  26.986  1.00  0.00     0.031 C 
ATOM     41  C   UNL A   1      42.904  28.822  29.209  1.00  0.00     0.029 A 
ATOM     42  N   UNL A   1      41.015  29.845  29.830  1.00  0.00    -0.354 N 
ATOM     43  C   UNL A   1      41.944  24.574  27.714  1.00  0.00     0.074 A 
ATOM     44  C   UNL A   1      40.817  24.634  26.822  1.00  0.00     0.031 C 
ATOM     45  C   UNL A   1      43.184  29.689  30.208  1.00  0.00     0.029 A 
ATOM     46  C   UNL A   1      41.919  30.037  30.859  1.00  0.00     0.049 A 
ATOM     47  H   UNL A   1      40.215  30.386  29.639  1.00  0.00     0.167 HD
ATOM     48  C   UNL A   1      43.210  24.081  27.579  1.00  0.00     0.034 A 
ATOM     49  C   UNL A   1      41.562  29.737  32.144  1.00  0.00     0.034 A 
ATOM     50  C   UNL A   1      44.087  24.757  28.532  1.00  0.00     0.049 A 
ATOM     51  C   UNL A   1      42.403  28.581  32.619  1.00  0.00     0.074 A 
ATOM     52  C   UNL A   1      44.881  25.883  28.376  1.00  0.00     0.029 A 
ATOM     53  N   UNL A   1      43.896  24.587  29.894  1.00  0.00    -0.354 N 
ATOM     54  N   UNL A   1      42.767  27.581  31.861  1.00  0.00    -0.248 NA
ATOM     55  C   UNL A   1      42.951  28.527  33.965  1.00  0.00     0.031 C 
ATOM     56  C   UNL A   1      45.093  26.440  29.661  1.00  0.00     0.029 A 
ATOM     57  C   UNL A   1      44.416  25.663  30.586  1.00  0.00     0.049 A 
ATOM     58  H   UNL A   1      43.453  23.811  30.309  1.00  0.00     0.167 HD
ATOM     59  C   UNL A   1      43.656  26.809  32.559  1.00  0.00     0.074 A 
ATOM     60  C   UNL A   1      43.725  27.434  33.874  1.00  0.00     0.031 C 
ATOM     61  C   UNL A   1      44.306  25.732  32.027  1.00  0.00     0.034 A 
BRANCH  48  62
ATOM     62  C   UNL A   1      43.745  23.379  26.352  1.00  0.00     0.023 A 
ATOM     63  C   UNL A   1      43.643  21.972  26.292  1.00  0.00     0.031 A 
ATOM     64  C   UNL A   1      44.360  23.988  25.244  1.00  0.00     0.131 A 
ATOM     65  C   UNL A   1      44.197  21.227  25.240  1.00  0.00     0.055 A 
ATOM     66  C   UNL A   1      44.934  23.245  24.197  1.00  0.00     0.041 A 
ATOM     67  F   UNL A   1      44.400  25.321  25.109  1.00  0.00    -0.206 F 
ATOM     68  C   UNL A   1      44.864  21.855  24.196  1.00  0.00     0.022 A 
BRANCH  65  69
ATOM     69  S   UNL A   1      44.014  19.422  25.268  1.00  0.00     0.124 S 
ATOM     70  O   UNL A   1      45.362  18.983  25.616  1.00  0.00    -0.237 OA
ATOM     71  O   UNL A   1      42.989  19.228  26.287  1.00  0.00    -0.237 OA
ATOM     72  O   UNL A   1      43.594  19.105  23.904  1.00  0.00    -0.744 OA
ENDBRANCH  65  69
ENDBRANCH  48  62
BRANCH  49  73
ATOM     73  C   UNL A   1      40.120  29.919  32.538  1.00  0.00     0.023 A 
ATOM     74  C   UNL A   1      39.527  31.196  32.419  1.00  0.00     0.031 A 
ATOM     75  C   UNL A   1      39.259  28.843  32.818  1.00  0.00     0.131 A 
ATOM     76  C   UNL A   1      38.131  31.352  32.481  1.00  0.00     0.055 A 
ATOM     77  C   UNL A   1      37.869  29.010  32.923  1.00  0.00     0.041 A 
ATOM     78  F   UNL A   1      39.731  27.594  32.923  1.00  0.00    -0.206 F 
ATOM     79  C   UNL A   1      37.297  30.266  32.740  1.00  0.00     0.022 A 
BRANCH  76  80
ATOM     80  S   UNL A   1      37.406  32.958  32.034  1.00  0.00     0.124 S 
ATOM     81  O   UNL A   1      38.569  33.700  31.560  1.00  0.00    -0.237 OA
ATOM     82  O   UNL A   1      36.430  32.571  31.019  1.00  0.00    -0.237 OA
ATOM     83  O   UNL A   1      36.833  33.428  33.293  1.00  0.00    -0.744 OA
ENDBRANCH  76  80
ENDBRANCH  49  73
BRANCH  61  84
ATOM     84  C   UNL A   1      45.012  24.701  32.855  1.00  0.00     0.023 A 
ATOM     85  C   UNL A   1      46.263  24.958  33.418  1.00  0.00     0.031 A 
ATOM     86  C   UNL A   1      44.424  23.457  33.174  1.00  0.00     0.131 A 
ATOM     87  C   UNL A   1      46.962  23.956  34.090  1.00  0.00     0.055 A 
ATOM     88  C   UNL A   1      45.066  22.509  33.970  1.00  0.00     0.041 A 
ATOM     89  F   UNL A   1      43.205  23.111  32.731  1.00  0.00    -0.206 F 
ATOM     90  C   UNL A   1      46.363  22.740  34.402  1.00  0.00     0.022 A 
BRANCH  87  91
ATOM     91  S   UNL A   1      48.721  24.241  34.377  1.00  0.00     0.124 S 
ATOM     92  O   UNL A   1      49.256  22.883  34.297  1.00  0.00    -0.237 OA
ATOM     93  O   UNL A   1      49.083  25.126  33.275  1.00  0.00    -0.237 OA
ATOM     94  O   UNL A   1      48.758  24.846  35.706  1.00  0.00    -0.744 OA
ENDBRANCH  87  91
ENDBRANCH  61  84
ENDBRANCH  35  36
ENDBRANCH  28  30
ENDBRANCH  27  28
ENDBRANCH  26  27
ENDBRANCH   1  26
TORSDOF 17
ENDMDL
MODEL 3
REMARK VINA RESULT:     -12.8      3.326      5.347
REMARK SMILES Cc1ccc(N2C(=O)C[C@H](Sc3ccccc3C(=O)OCCOC(=O)c3ccc(-c4c5nc(c(-c6cc(S(=O)(=O)[O-])ccc6F)c6ccc([nH]6)c(-c6cc(S(=O)(=O)[O-])ccc6F)c6nc(c(-c7cc(S(=O)(=O)[O-])ccc7F)c7ccc4[nH]7)C=C6)C=C5)cc3)C2=O)cc1
REMARK SMILES IDX 21 1 20 2 18 3 19 4 17 5 12 6 13 7 14 8 16 9 15 10 11 11
REMARK SMILES IDX 10 12 6 13 7 14 89 15 8 16 9 17 90 18 5 19 1 20 2 21 3 22
REMARK SMILES IDX 92 23 4 24 91 25 22 26 23 27 24 28 25 29 26 30 27 31 88 32
REMARK SMILES IDX 28 33 87 34 29 35 30 36 31 37 81 38 32 39 86 40 80 41 82 42
REMARK SMILES IDX 33 43 85 44 79 45 78 46 34 48 66 49 46 50 65 51 47 52 50 53
REMARK SMILES IDX 64 54 83 55 48 56 49 57 63 59 84 60 51 61 35 62 36 63 44 64
REMARK SMILES IDX 37 65 43 66 45 67 42 68 38 69 39 70 40 71 41 72 67 73 68 74
REMARK SMILES IDX 76 75 69 76 75 77 77 78 74 79 70 80 71 81 72 82 73 83 52 84
REMARK SMILES IDX 53 85 61 86 54 87 60 88 62 89 59 90 55 91 56 92 57 93 58 94
REMARK H PARENT 82 47 50 58
REMARK Flexibility Score: inf
ROOT
ATOM      1  C   UNL A   1      33.015  29.796  26.373  1.00  0.00     0.275 C 
ENDROOT
BRANCH   1   2
ATOM      2  O   UNL A   1      33.232  29.593  24.955  1.00  0.00    -0.458 OA
BRANCH   2   3
ATOM      3  C   UNL A   1      32.855  28.372  24.479  1.00  0.00     0.339 C 
ATOM      4  O   UNL A   1      33.609  27.526  24.019  1.00  0.00    -0.246 OA
BRANCH   3   5
ATOM      5  C   UNL A   1      31.408  28.311  24.184  1.00  0.00     0.073 A 
ATOM      6  C   UNL A   1      30.466  27.351  24.641  1.00  0.00     0.023 A 
ATOM      7  C   UNL A   1      29.257  27.255  23.919  1.00  0.00     0.016 A 
ATOM      8  C   UNL A   1      29.011  28.030  22.776  1.00  0.00     0.001 A 
ATOM      9  C   UNL A   1      31.117  29.127  23.067  1.00  0.00     0.017 A 
ATOM     10  C   UNL A   1      29.940  28.968  22.350  1.00  0.00     0.001 A 
BRANCH   6  11
ATOM     11  S   UNL A   1      30.809  25.893  25.640  1.00  0.00    -0.111 SA
BRANCH  11  12
ATOM     12  C   UNL A   1      31.317  24.427  24.630  1.00  0.00     0.151 C 
ATOM     13  N   UNL A   1      33.554  23.899  24.374  1.00  0.00    -0.250 N 
ATOM     14  C   UNL A   1      33.203  24.397  23.146  1.00  0.00     0.235 C 
ATOM     15  C   UNL A   1      32.475  23.668  25.201  1.00  0.00     0.247 C 
ATOM     16  O   UNL A   1      33.927  24.494  22.162  1.00  0.00    -0.274 OA
ATOM     17  C   UNL A   1      31.726  24.686  23.174  1.00  0.00     0.126 C 
ATOM     18  O   UNL A   1      32.407  22.926  26.150  1.00  0.00    -0.273 OA
BRANCH  13  19
ATOM     19  C   UNL A   1      34.808  23.352  24.634  1.00  0.00     0.052 A 
ATOM     20  C   UNL A   1      38.585  21.612  25.645  1.00  0.00     0.044 C 
ATOM     21  C   UNL A   1      37.274  22.236  25.279  1.00  0.00    -0.051 A 
ATOM     22  C   UNL A   1      36.316  21.479  24.591  1.00  0.00     0.005 A 
ATOM     23  C   UNL A   1      36.995  23.568  25.614  1.00  0.00     0.005 A 
ATOM     24  C   UNL A   1      35.086  22.037  24.262  1.00  0.00     0.027 A 
ATOM     25  C   UNL A   1      35.759  24.127  25.297  1.00  0.00     0.027 A 
ENDBRANCH  13  19
ENDBRANCH  11  12
ENDBRANCH   6  11
ENDBRANCH   3   5
ENDBRANCH   2   3
ENDBRANCH   1   2
BRANCH   1  26
ATOM     26  C   UNL A   1      34.057  29.068  27.259  1.00  0.00     0.275 C 
BRANCH  26  27
ATOM     27  O   UNL A   1      35.456  29.271  26.985  1.00  0.00    -0.458 OA
BRANCH  27  28
ATOM     28  C   UNL A   1      36.034  30.305  27.630  1.00  0.00     0.338 C 
ATOM     29  O   UNL A   1      35.405  31.194  28.191  1.00  0.00    -0.246 OA
BRANCH  28  30
ATOM     30  C   UNL A   1      37.418  29.936  27.987  1.00  0.00     0.060 A 
ATOM     31  C   UNL A   1      37.613  29.229  29.178  1.00  0.00     0.016 A 
ATOM     32  C   UNL A   1      38.348  29.863  26.956  1.00  0.00     0.016 A 
ATOM     33  C   UNL A   1      38.581  28.257  29.277  1.00  0.00     0.010 A 
ATOM     34  C   UNL A   1      39.285  28.874  27.007  1.00  0.00     0.010 A 
ATOM     35  C   UNL A   1      39.390  28.090  28.165  1.00  0.00    -0.014 A 
BRANCH  35  36
ATOM     36  C   UNL A   1      40.649  27.402  28.276  1.00  0.00     0.031 A 
ATOM     37  C   UNL A   1      40.638  25.934  28.331  1.00  0.00     0.074 A 
ATOM     38  C   UNL A   1      41.650  28.309  28.205  1.00  0.00     0.049 A 
ATOM     39  N   UNL A   1      41.454  25.212  29.014  1.00  0.00    -0.248 NA
ATOM     40  C   UNL A   1      39.588  25.127  27.689  1.00  0.00     0.031 C 
ATOM     41  C   UNL A   1      43.070  28.171  27.981  1.00  0.00     0.029 A 
ATOM     42  N   UNL A   1      41.509  29.687  28.494  1.00  0.00    -0.354 N 
ATOM     43  C   UNL A   1      41.341  23.934  28.494  1.00  0.00     0.074 A 
ATOM     44  C   UNL A   1      40.039  23.881  27.882  1.00  0.00     0.031 C 
ATOM     45  C   UNL A   1      43.677  29.269  28.485  1.00  0.00     0.029 A 
ATOM     46  C   UNL A   1      42.655  30.062  29.172  1.00  0.00     0.049 A 
ATOM     47  H   UNL A   1      40.747  30.264  28.260  1.00  0.00     0.167 HD
ATOM     48  C   UNL A   1      42.476  23.195  28.327  1.00  0.00     0.034 A 
ATOM     49  C   UNL A   1      42.598  30.320  30.514  1.00  0.00     0.034 A 
ATOM     50  C   UNL A   1      43.627  23.989  28.752  1.00  0.00     0.049 A 
ATOM     51  C   UNL A   1      43.408  29.275  31.237  1.00  0.00     0.074 A 
ATOM     52  C   UNL A   1      44.468  24.811  28.017  1.00  0.00     0.029 A 
ATOM     53  N   UNL A   1      43.762  24.362  30.080  1.00  0.00    -0.354 N 
ATOM     54  N   UNL A   1      43.469  28.019  30.882  1.00  0.00    -0.248 NA
ATOM     55  C   UNL A   1      44.264  29.606  32.366  1.00  0.00     0.031 C 
ATOM     56  C   UNL A   1      45.048  25.743  28.913  1.00  0.00     0.029 A 
ATOM     57  C   UNL A   1      44.545  25.495  30.179  1.00  0.00     0.049 A 
ATOM     58  H   UNL A   1      43.359  23.887  30.843  1.00  0.00     0.167 HD
ATOM     59  C   UNL A   1      44.419  27.397  31.645  1.00  0.00     0.074 A 
ATOM     60  C   UNL A   1      44.875  28.429  32.568  1.00  0.00     0.031 C 
ATOM     61  C   UNL A   1      44.803  26.099  31.468  1.00  0.00     0.034 A 
BRANCH  48  62
ATOM     62  C   UNL A   1      42.616  22.010  27.400  1.00  0.00     0.023 A 
ATOM     63  C   UNL A   1      43.665  22.024  26.454  1.00  0.00     0.031 A 
ATOM     64  C   UNL A   1      41.790  20.872  27.369  1.00  0.00     0.131 A 
ATOM     65  C   UNL A   1      43.815  21.015  25.490  1.00  0.00     0.055 A 
ATOM     66  C   UNL A   1      41.925  19.869  26.393  1.00  0.00     0.041 A 
ATOM     67  F   UNL A   1      40.845  20.667  28.298  1.00  0.00    -0.206 F 
ATOM     68  C   UNL A   1      42.935  19.941  25.439  1.00  0.00     0.022 A 
BRANCH  65  69
ATOM     69  S   UNL A   1      45.193  21.138  24.317  1.00  0.00     0.124 S 
ATOM     70  O   UNL A   1      44.819  20.157  23.303  1.00  0.00    -0.237 OA
ATOM     71  O   UNL A   1      45.134  22.538  23.912  1.00  0.00    -0.237 OA
ATOM     72  O   UNL A   1      46.357  20.779  25.124  1.00  0.00    -0.744 OA
ENDBRANCH  65  69
ENDBRANCH  48  62
BRANCH  49  73
ATOM     73  C   UNL A   1      41.326  30.901  31.070  1.00  0.00     0.023 A 
ATOM     74  C   UNL A   1      40.348  30.033  31.607  1.00  0.00     0.031 A 
ATOM     75  C   UNL A   1      41.139  32.278  31.283  1.00  0.00     0.131 A 
ATOM     76  C   UNL A   1      39.298  30.532  32.400  1.00  0.00     0.055 A 
ATOM     77  C   UNL A   1      40.065  32.775  32.039  1.00  0.00     0.041 A 
ATOM     78  F   UNL A   1      42.029  33.170  30.831  1.00  0.00    -0.206 F 
ATOM     79  C   UNL A   1      39.146  31.901  32.613  1.00  0.00     0.022 A 
BRANCH  76  80
ATOM     80  S   UNL A   1      38.244  29.358  33.301  1.00  0.00     0.124 S 
ATOM     81  O   UNL A   1      39.044  28.139  33.271  1.00  0.00    -0.237 OA
ATOM     82  O   UNL A   1      38.112  30.012  34.600  1.00  0.00    -0.237 OA
ATOM     83  O   UNL A   1      37.022  29.324  32.501  1.00  0.00    -0.744 OA
ENDBRANCH  76  80
ENDBRANCH  49  73
BRANCH  61  84
ATOM     84  C   UNL A   1      45.582  25.322  32.486  1.00  0.00     0.023 A 
ATOM     85  C   UNL A   1      44.993  24.285  33.212  1.00  0.00     0.031 A 
ATOM     86  C   UNL A   1      46.960  25.539  32.709  1.00  0.00     0.131 A 
ATOM     87  C   UNL A   1      45.690  23.644  34.235  1.00  0.00     0.055 A 
ATOM     88  C   UNL A   1      47.694  24.796  33.634  1.00  0.00     0.041 A 
ATOM     89  F   UNL A   1      47.650  26.476  32.041  1.00  0.00    -0.206 F 
ATOM     90  C   UNL A   1      47.049  23.867  34.435  1.00  0.00     0.022 A 
BRANCH  87  91
ATOM     91  S   UNL A   1      44.717  22.658  35.392  1.00  0.00     0.124 S 
ATOM     92  O   UNL A   1      44.938  21.305  34.884  1.00  0.00    -0.237 OA
ATOM     93  O   UNL A   1      45.344  22.960  36.673  1.00  0.00    -0.237 OA
ATOM     94  O   UNL A   1      43.360  23.171  35.220  1.00  0.00    -0.744 OA
ENDBRANCH  87  91
ENDBRANCH  61  84
ENDBRANCH  35  36
ENDBRANCH  28  30
ENDBRANCH  27  28
ENDBRANCH  26  27
ENDBRANCH   1  26
TORSDOF 17
ENDMDL
