MODEL 1
REMARK VINA RESULT:     -10.9      0.000      0.000
REMARK SMILES O=C(Cc1ccn(C(F)F)c(=O)c1)OCCOC(=O)c1ccc(-c2c3nc(c(-c4cc(S(=O)(=O)[O-])ccc4F)c4ccc([nH]4)c(-c4cc(S(=O)(=O)[O-])ccc4F)c4nc(c(-c5cc(S(=O)(=O)[O-])ccc5F)c5ccc2[nH]5)C=C4)C=C3)cc1
REMARK SMILES IDX 16 1 15 2 14 3 2 4 1 5 3 6 4 7 5 8 13 9 6 10 11 11 7 12
REMARK SMILES IDX 12 13 8 14 9 15 10 16 17 17 18 18 19 19 20 20 21 21 82 22
REMARK SMILES IDX 22 23 81 24 23 25 24 26 25 27 75 28 26 29 80 30 74 31 76 32
REMARK SMILES IDX 27 33 79 34 73 35 72 36 28 38 60 39 40 40 59 41 41 42 44 43
REMARK SMILES IDX 58 44 77 45 42 46 43 47 57 49 78 50 45 51 29 52 30 53 38 54
REMARK SMILES IDX 31 55 37 56 39 57 36 58 32 59 33 60 34 61 35 62 61 63 62 64
REMARK SMILES IDX 70 65 63 66 69 67 71 68 68 69 64 70 65 71 66 72 67 73 46 74
REMARK SMILES IDX 47 75 55 76 48 77 54 78 56 79 53 80 49 81 50 82 51 83 52 84
REMARK H PARENT 76 37 44 48
REMARK Flexibility Score: inf
ROOT
ATOM      1  C   UNL A   1      36.293  20.926  25.301  1.00  0.00     0.275 C 
ENDROOT
BRANCH   1   2
ATOM      2  C   UNL A   1      35.191  21.817  24.726  1.00  0.00     0.274 C 
BRANCH   2   3
ATOM      3  O   UNL A   1      34.056  21.883  25.616  1.00  0.00    -0.462 OA
BRANCH   3   4
ATOM      4  C   UNL A   1      32.767  21.684  25.261  1.00  0.00     0.310 C 
ATOM      5  O   UNL A   1      31.865  22.224  25.900  1.00  0.00    -0.252 OA
BRANCH   4   6
ATOM      6  C   UNL A   1      32.452  20.786  24.079  1.00  0.00     0.158 C 
BRANCH   6   7
ATOM      7  C   UNL A   1      32.720  19.321  24.261  1.00  0.00    -0.030 A 
ATOM      8  C   UNL A   1      32.487  18.706  25.550  1.00  0.00     0.023 A 
ATOM      9  C   UNL A   1      33.240  18.582  23.266  1.00  0.00     0.076 A 
ATOM     10  C   UNL A   1      32.825  17.428  25.757  1.00  0.00     0.095 A 
ATOM     11  C   UNL A   1      33.586  17.147  23.469  1.00  0.00     0.255 A 
ATOM     12  N   UNL A   1      33.381  16.661  24.749  1.00  0.00    -0.258 N 
ATOM     13  O   UNL A   1      34.011  16.510  22.512  1.00  0.00    -0.269 OA
BRANCH  12  14
ATOM     14  C   UNL A   1      33.802  15.308  25.003  1.00  0.00     0.451 C 
ATOM     15  F   UNL A   1      35.064  15.276  25.497  1.00  0.00    -0.185 F 
ATOM     16  F   UNL A   1      32.985  14.703  25.897  1.00  0.00    -0.185 F 
ENDBRANCH  12  14
ENDBRANCH   6   7
ENDBRANCH   4   6
ENDBRANCH   3   4
ENDBRANCH   2   3
ENDBRANCH   1   2
BRANCH   1  17
ATOM     17  O   UNL A   1      37.580  21.461  24.952  1.00  0.00    -0.458 OA
BRANCH  17  18
ATOM     18  C   UNL A   1      38.616  21.147  25.770  1.00  0.00     0.338 C 
ATOM     19  O   UNL A   1      39.084  20.036  25.952  1.00  0.00    -0.246 OA
BRANCH  18  20
ATOM     20  C   UNL A   1      39.260  22.415  26.197  1.00  0.00     0.060 A 
ATOM     21  C   UNL A   1      38.665  23.658  25.950  1.00  0.00     0.016 A 
ATOM     22  C   UNL A   1      40.549  22.349  26.742  1.00  0.00     0.016 A 
ATOM     23  C   UNL A   1      39.369  24.831  26.227  1.00  0.00     0.010 A 
ATOM     24  C   UNL A   1      41.252  23.525  27.015  1.00  0.00     0.010 A 
ATOM     25  C   UNL A   1      40.667  24.774  26.757  1.00  0.00    -0.014 A 
BRANCH  25  26
ATOM     26  C   UNL A   1      41.348  26.020  27.178  1.00  0.00     0.031 A 
ATOM     27  C   UNL A   1      42.758  26.330  26.781  1.00  0.00     0.074 A 
ATOM     28  C   UNL A   1      40.657  26.881  27.950  1.00  0.00     0.049 A 
ATOM     29  N   UNL A   1      43.454  27.411  27.023  1.00  0.00    -0.248 NA
ATOM     30  C   UNL A   1      43.484  25.303  26.018  1.00  0.00     0.031 C 
ATOM     31  C   UNL A   1      39.286  26.661  28.410  1.00  0.00     0.029 A 
ATOM     32  N   UNL A   1      41.006  28.092  28.488  1.00  0.00    -0.354 N 
ATOM     33  C   UNL A   1      44.692  27.212  26.424  1.00  0.00     0.074 A 
ATOM     34  C   UNL A   1      44.666  25.885  25.843  1.00  0.00     0.031 C 
ATOM     35  C   UNL A   1      38.912  27.702  29.168  1.00  0.00     0.029 A 
ATOM     36  C   UNL A   1      40.021  28.649  29.267  1.00  0.00     0.049 A 
ATOM     37  H   UNL A   1      41.878  28.523  28.329  1.00  0.00     0.167 HD
ATOM     38  C   UNL A   1      45.738  28.070  26.357  1.00  0.00     0.034 A 
ATOM     39  C   UNL A   1      40.008  29.787  29.990  1.00  0.00     0.034 A 
ATOM     40  C   UNL A   1      45.742  29.387  26.948  1.00  0.00     0.049 A 
ATOM     41  C   UNL A   1      41.199  30.705  29.930  1.00  0.00     0.074 A 
ATOM     42  C   UNL A   1      46.728  30.355  26.860  1.00  0.00     0.029 A 
ATOM     43  N   UNL A   1      44.737  29.917  27.742  1.00  0.00    -0.354 N 
ATOM     44  N   UNL A   1      42.314  30.561  29.253  1.00  0.00    -0.248 NA
ATOM     45  C   UNL A   1      41.130  31.949  30.709  1.00  0.00     0.031 C 
ATOM     46  C   UNL A   1      46.354  31.437  27.656  1.00  0.00     0.029 A 
ATOM     47  C   UNL A   1      45.100  31.180  28.186  1.00  0.00     0.049 A 
ATOM     48  H   UNL A   1      43.890  29.463  27.959  1.00  0.00     0.167 HD
ATOM     49  C   UNL A   1      43.069  31.701  29.507  1.00  0.00     0.074 A 
ATOM     50  C   UNL A   1      42.275  32.538  30.381  1.00  0.00     0.031 C 
ATOM     51  C   UNL A   1      44.308  32.020  29.054  1.00  0.00     0.034 A 
BRANCH  38  52
ATOM     52  C   UNL A   1      46.972  27.663  25.592  1.00  0.00     0.023 A 
ATOM     53  C   UNL A   1      47.110  28.015  24.235  1.00  0.00     0.031 A 
ATOM     54  C   UNL A   1      47.907  26.774  26.149  1.00  0.00     0.131 A 
ATOM     55  C   UNL A   1      48.135  27.443  23.470  1.00  0.00     0.055 A 
ATOM     56  C   UNL A   1      48.946  26.234  25.392  1.00  0.00     0.041 A 
ATOM     57  F   UNL A   1      47.807  26.401  27.436  1.00  0.00    -0.206 F 
ATOM     58  C   UNL A   1      49.054  26.557  24.041  1.00  0.00     0.022 A 
BRANCH  55  59
ATOM     59  S   UNL A   1      48.271  27.767  21.691  1.00  0.00     0.124 S 
ATOM     60  O   UNL A   1      48.556  26.434  21.164  1.00  0.00    -0.237 OA
ATOM     61  O   UNL A   1      46.946  28.292  21.373  1.00  0.00    -0.237 OA
ATOM     62  O   UNL A   1      49.370  28.720  21.590  1.00  0.00    -0.744 OA
ENDBRANCH  55  59
ENDBRANCH  38  52
BRANCH  39  63
ATOM     63  C   UNL A   1      38.787  30.116  30.778  1.00  0.00     0.023 A 
ATOM     64  C   UNL A   1      37.801  30.967  30.246  1.00  0.00     0.031 A 
ATOM     65  C   UNL A   1      38.655  29.698  32.111  1.00  0.00     0.131 A 
ATOM     66  C   UNL A   1      36.767  31.433  31.067  1.00  0.00     0.055 A 
ATOM     67  C   UNL A   1      37.583  30.109  32.905  1.00  0.00     0.041 A 
ATOM     68  F   UNL A   1      39.580  28.900  32.665  1.00  0.00    -0.206 F 
ATOM     69  C   UNL A   1      36.643  30.997  32.390  1.00  0.00     0.022 A 
BRANCH  66  70
ATOM     70  S   UNL A   1      35.641  32.735  30.492  1.00  0.00     0.124 S 
ATOM     71  O   UNL A   1      34.433  32.451  31.259  1.00  0.00    -0.237 OA
ATOM     72  O   UNL A   1      36.363  33.945  30.876  1.00  0.00    -0.237 OA
ATOM     73  O   UNL A   1      35.547  32.500  29.054  1.00  0.00    -0.744 OA
ENDBRANCH  66  70
ENDBRANCH  39  63
BRANCH  51  74
ATOM     74  C   UNL A   1      44.925  33.328  29.487  1.00  0.00     0.023 A 
ATOM     75  C   UNL A   1      44.805  34.471  28.673  1.00  0.00     0.031 A 
ATOM     76  C   UNL A   1      45.762  33.401  30.614  1.00  0.00     0.131 A 
ATOM     77  C   UNL A   1      45.547  35.621  28.971  1.00  0.00     0.055 A 
ATOM     78  C   UNL A   1      46.463  34.565  30.933  1.00  0.00     0.041 A 
ATOM     79  F   UNL A   1      45.916  32.336  31.417  1.00  0.00    -0.206 F 
ATOM     80  C   UNL A   1      46.370  35.677  30.100  1.00  0.00     0.022 A 
BRANCH  77  81
ATOM     81  S   UNL A   1      45.540  37.057  27.861  1.00  0.00     0.124 S 
ATOM     82  O   UNL A   1      46.112  36.497  26.638  1.00  0.00    -0.237 OA
ATOM     83  O   UNL A   1      44.119  37.385  27.791  1.00  0.00    -0.237 OA
ATOM     84  O   UNL A   1      46.378  38.036  28.546  1.00  0.00    -0.744 OA
ENDBRANCH  77  81
ENDBRANCH  51  74
ENDBRANCH  25  26
ENDBRANCH  18  20
ENDBRANCH  17  18
ENDBRANCH   1  17
TORSDOF 16
ENDMDL
MODEL 2
REMARK VINA RESULT:     -10.9      1.132      7.901
REMARK SMILES O=C(Cc1ccn(C(F)F)c(=O)c1)OCCOC(=O)c1ccc(-c2c3nc(c(-c4cc(S(=O)(=O)[O-])ccc4F)c4ccc([nH]4)c(-c4cc(S(=O)(=O)[O-])ccc4F)c4nc(c(-c5cc(S(=O)(=O)[O-])ccc5F)c5ccc2[nH]5)C=C4)C=C3)cc1
REMARK SMILES IDX 16 1 15 2 14 3 2 4 1 5 3 6 4 7 5 8 13 9 6 10 11 11 7 12
REMARK SMILES IDX 12 13 8 14 9 15 10 16 17 17 18 18 19 19 20 20 21 21 82 22
REMARK SMILES IDX 22 23 81 24 23 25 24 26 25 27 75 28 26 29 80 30 74 31 76 32
REMARK SMILES IDX 27 33 79 34 73 35 72 36 28 38 60 39 40 40 59 41 41 42 44 43
REMARK SMILES IDX 58 44 77 45 42 46 43 47 57 49 78 50 45 51 29 52 30 53 38 54
REMARK SMILES IDX 31 55 37 56 39 57 36 58 32 59 33 60 34 61 35 62 61 63 62 64
REMARK SMILES IDX 70 65 63 66 69 67 71 68 68 69 64 70 65 71 66 72 67 73 46 74
REMARK SMILES IDX 47 75 55 76 48 77 54 78 56 79 53 80 49 81 50 82 51 83 52 84
REMARK H PARENT 76 37 44 48
REMARK Flexibility Score: inf
ROOT
ATOM      1  C   UNL A   1      38.926  19.920  25.333  1.00  0.00     0.275 C 
ENDROOT
BRANCH   1   2
ATOM      2  C   UNL A   1      37.842  20.992  25.451  1.00  0.00     0.274 C 
BRANCH   2   3
ATOM      3  O   UNL A   1      36.571  20.504  24.970  1.00  0.00    -0.462 OA
BRANCH   3   4
ATOM      4  C   UNL A   1      35.358  20.959  25.355  1.00  0.00     0.310 C 
ATOM      5  O   UNL A   1      35.258  21.665  26.358  1.00  0.00    -0.252 OA
BRANCH   4   6
ATOM      6  C   UNL A   1      34.132  20.581  24.545  1.00  0.00     0.158 C 
BRANCH   6   7
ATOM      7  C   UNL A   1      33.675  19.155  24.647  1.00  0.00    -0.030 A 
ATOM      8  C   UNL A   1      32.818  18.755  25.742  1.00  0.00     0.023 A 
ATOM      9  C   UNL A   1      34.106  18.225  23.777  1.00  0.00     0.076 A 
ATOM     10  C   UNL A   1      32.495  17.467  25.907  1.00  0.00     0.095 A 
ATOM     11  C   UNL A   1      33.722  16.794  23.924  1.00  0.00     0.255 A 
ATOM     12  N   UNL A   1      32.948  16.497  25.032  1.00  0.00    -0.258 N 
ATOM     13  O   UNL A   1      34.104  15.999  23.073  1.00  0.00    -0.269 OA
BRANCH  12  14
ATOM     14  C   UNL A   1      32.648  15.107  25.258  1.00  0.00     0.451 C 
ATOM     15  F   UNL A   1      33.773  14.407  25.545  1.00  0.00    -0.185 F 
ATOM     16  F   UNL A   1      31.785  14.956  26.291  1.00  0.00    -0.185 F 
ENDBRANCH  12  14
ENDBRANCH   6   7
ENDBRANCH   4   6
ENDBRANCH   3   4
ENDBRANCH   2   3
ENDBRANCH   1   2
BRANCH   1  17
ATOM     17  O   UNL A   1      39.679  19.857  26.556  1.00  0.00    -0.458 OA
BRANCH  17  18
ATOM     18  C   UNL A   1      41.030  19.922  26.446  1.00  0.00     0.338 C 
ATOM     19  O   UNL A   1      41.759  19.072  25.965  1.00  0.00    -0.246 OA
BRANCH  18  20
ATOM     20  C   UNL A   1      41.446  21.312  26.759  1.00  0.00     0.060 A 
ATOM     21  C   UNL A   1      41.609  21.748  28.080  1.00  0.00     0.016 A 
ATOM     22  C   UNL A   1      41.547  22.225  25.701  1.00  0.00     0.016 A 
ATOM     23  C   UNL A   1      41.851  23.098  28.340  1.00  0.00     0.010 A 
ATOM     24  C   UNL A   1      41.785  23.577  25.965  1.00  0.00     0.010 A 
ATOM     25  C   UNL A   1      41.936  24.022  27.286  1.00  0.00    -0.014 A 
BRANCH  25  26
ATOM     26  C   UNL A   1      42.332  25.422  27.564  1.00  0.00     0.031 A 
ATOM     27  C   UNL A   1      41.380  26.414  28.158  1.00  0.00     0.074 A 
ATOM     28  C   UNL A   1      43.589  25.790  27.254  1.00  0.00     0.049 A 
ATOM     29  N   UNL A   1      41.610  27.652  28.513  1.00  0.00    -0.248 NA
ATOM     30  C   UNL A   1      39.996  25.970  28.382  1.00  0.00     0.031 C 
ATOM     31  C   UNL A   1      44.585  24.906  26.651  1.00  0.00     0.029 A 
ATOM     32  N   UNL A   1      44.238  26.991  27.389  1.00  0.00    -0.354 N 
ATOM     33  C   UNL A   1      40.413  28.133  29.027  1.00  0.00     0.074 A 
ATOM     34  C   UNL A   1      39.444  27.063  28.897  1.00  0.00     0.031 C 
ATOM     35  C   UNL A   1      45.719  25.596  26.461  1.00  0.00     0.029 A 
ATOM     36  C   UNL A   1      45.524  26.975  26.906  1.00  0.00     0.049 A 
ATOM     37  H   UNL A   1      43.823  27.786  27.795  1.00  0.00     0.167 HD
ATOM     38  C   UNL A   1      40.162  29.348  29.571  1.00  0.00     0.034 A 
ATOM     39  C   UNL A   1      46.444  27.956  26.819  1.00  0.00     0.034 A 
ATOM     40  C   UNL A   1      41.143  30.400  29.687  1.00  0.00     0.049 A 
ATOM     41  C   UNL A   1      46.126  29.310  27.395  1.00  0.00     0.074 A 
ATOM     42  C   UNL A   1      40.998  31.635  30.297  1.00  0.00     0.029 A 
ATOM     43  N   UNL A   1      42.432  30.359  29.176  1.00  0.00    -0.354 N 
ATOM     44  N   UNL A   1      45.030  29.710  27.996  1.00  0.00    -0.248 NA
ATOM     45  C   UNL A   1      47.169  30.342  27.306  1.00  0.00     0.031 C 
ATOM     46  C   UNL A   1      42.168  32.365  30.094  1.00  0.00     0.029 A 
ATOM     47  C   UNL A   1      43.075  31.563  29.419  1.00  0.00     0.049 A 
ATOM     48  H   UNL A   1      42.830  29.590  28.710  1.00  0.00     0.167 HD
ATOM     49  C   UNL A   1      45.257  31.030  28.373  1.00  0.00     0.074 A 
ATOM     50  C   UNL A   1      46.605  31.354  27.955  1.00  0.00     0.031 C 
ATOM     51  C   UNL A   1      44.421  31.889  29.009  1.00  0.00     0.034 A 
BRANCH  38  52
ATOM     52  C   UNL A   1      38.790  29.632  30.131  1.00  0.00     0.023 A 
ATOM     53  C   UNL A   1      37.910  30.489  29.444  1.00  0.00     0.031 A 
ATOM     54  C   UNL A   1      38.438  29.211  31.425  1.00  0.00     0.131 A 
ATOM     55  C   UNL A   1      36.740  30.933  30.073  1.00  0.00     0.055 A 
ATOM     56  C   UNL A   1      37.254  29.629  32.033  1.00  0.00     0.041 A 
ATOM     57  F   UNL A   1      39.252  28.403  32.123  1.00  0.00    -0.206 F 
ATOM     58  C   UNL A   1      36.407  30.506  31.362  1.00  0.00     0.022 A 
BRANCH  55  59
ATOM     59  S   UNL A   1      35.645  32.139  29.274  1.00  0.00     0.124 S 
ATOM     60  O   UNL A   1      35.357  33.058  30.374  1.00  0.00    -0.237 OA
ATOM     61  O   UNL A   1      36.498  32.677  28.219  1.00  0.00    -0.237 OA
ATOM     62  O   UNL A   1      34.510  31.339  28.824  1.00  0.00    -0.744 OA
ENDBRANCH  55  59
ENDBRANCH  38  52
BRANCH  39  63
ATOM     63  C   UNL A   1      47.764  27.642  26.204  1.00  0.00     0.023 A 
ATOM     64  C   UNL A   1      47.960  27.790  24.819  1.00  0.00     0.031 A 
ATOM     65  C   UNL A   1      48.795  27.067  26.963  1.00  0.00     0.131 A 
ATOM     66  C   UNL A   1      49.129  27.299  24.224  1.00  0.00     0.055 A 
ATOM     67  C   UNL A   1      49.988  26.643  26.376  1.00  0.00     0.041 A 
ATOM     68  F   UNL A   1      48.645  26.891  28.284  1.00  0.00    -0.206 F 
ATOM     69  C   UNL A   1      50.151  26.740  24.997  1.00  0.00     0.022 A 
BRANCH  66  70
ATOM     70  S   UNL A   1      49.294  27.231  22.419  1.00  0.00     0.124 S 
ATOM     71  O   UNL A   1      50.743  27.205  22.247  1.00  0.00    -0.237 OA
ATOM     72  O   UNL A   1      48.598  25.986  22.102  1.00  0.00    -0.237 OA
ATOM     73  O   UNL A   1      48.625  28.446  21.965  1.00  0.00    -0.744 OA
ENDBRANCH  66  70
ENDBRANCH  39  63
BRANCH  51  74
ATOM     74  C   UNL A   1      44.905  33.289  29.300  1.00  0.00     0.023 A 
ATOM     75  C   UNL A   1      44.786  34.297  28.323  1.00  0.00     0.031 A 
ATOM     76  C   UNL A   1      45.623  33.583  30.472  1.00  0.00     0.131 A 
ATOM     77  C   UNL A   1      45.418  35.532  28.514  1.00  0.00     0.055 A 
ATOM     78  C   UNL A   1      46.211  34.832  30.679  1.00  0.00     0.041 A 
ATOM     79  F   UNL A   1      45.770  32.654  31.431  1.00  0.00    -0.206 F 
ATOM     80  C   UNL A   1      46.123  35.808  29.690  1.00  0.00     0.022 A 
BRANCH  77  81
ATOM     81  S   UNL A   1      45.421  36.797  27.213  1.00  0.00     0.124 S 
ATOM     82  O   UNL A   1      43.994  36.957  26.942  1.00  0.00    -0.237 OA
ATOM     83  O   UNL A   1      46.058  37.927  27.884  1.00  0.00    -0.237 OA
ATOM     84  O   UNL A   1      46.193  36.191  26.134  1.00  0.00    -0.744 OA
ENDBRANCH  77  81
ENDBRANCH  51  74
ENDBRANCH  25  26
ENDBRANCH  18  20
ENDBRANCH  17  18
ENDBRANCH   1  17
TORSDOF 16
ENDMDL
MODEL 3
REMARK VINA RESULT:     -10.9      3.012      3.895
REMARK SMILES O=C(Cc1ccn(C(F)F)c(=O)c1)OCCOC(=O)c1ccc(-c2c3nc(c(-c4cc(S(=O)(=O)[O-])ccc4F)c4ccc([nH]4)c(-c4cc(S(=O)(=O)[O-])ccc4F)c4nc(c(-c5cc(S(=O)(=O)[O-])ccc5F)c5ccc2[nH]5)C=C4)C=C3)cc1
REMARK SMILES IDX 16 1 15 2 14 3 2 4 1 5 3 6 4 7 5 8 13 9 6 10 11 11 7 12
REMARK SMILES IDX 12 13 8 14 9 15 10 16 17 17 18 18 19 19 20 20 21 21 82 22
REMARK SMILES IDX 22 23 81 24 23 25 24 26 25 27 75 28 26 29 80 30 74 31 76 32
REMARK SMILES IDX 27 33 79 34 73 35 72 36 28 38 60 39 40 40 59 41 41 42 44 43
REMARK SMILES IDX 58 44 77 45 42 46 43 47 57 49 78 50 45 51 29 52 30 53 38 54
REMARK SMILES IDX 31 55 37 56 39 57 36 58 32 59 33 60 34 61 35 62 61 63 62 64
REMARK SMILES IDX 70 65 63 66 69 67 71 68 68 69 64 70 65 71 66 72 67 73 46 74
REMARK SMILES IDX 47 75 55 76 48 77 54 78 56 79 53 80 49 81 50 82 51 83 52 84
REMARK H PARENT 76 37 44 48
REMARK Flexibility Score: inf
ROOT
ATOM      1  C   UNL A   1      37.400  20.557  25.007  1.00  0.00     0.275 C 
ENDROOT
BRANCH   1   2
ATOM      2  C   UNL A   1      35.882  20.743  25.026  1.00  0.00     0.274 C 
BRANCH   2   3
ATOM      3  O   UNL A   1      35.512  21.934  25.754  1.00  0.00    -0.462 OA
BRANCH   3   4
ATOM      4  C   UNL A   1      34.266  22.451  25.834  1.00  0.00     0.310 C 
ATOM      5  O   UNL A   1      33.306  21.804  25.414  1.00  0.00    -0.252 OA
BRANCH   4   6
ATOM      6  C   UNL A   1      34.071  23.831  26.435  1.00  0.00     0.158 C 
BRANCH   6   7
ATOM      7  C   UNL A   1      33.887  24.963  25.467  1.00  0.00    -0.030 A 
ATOM      8  C   UNL A   1      33.440  26.251  25.950  1.00  0.00     0.023 A 
ATOM      9  C   UNL A   1      34.062  24.781  24.146  1.00  0.00     0.076 A 
ATOM     10  C   UNL A   1      33.166  27.235  25.085  1.00  0.00     0.095 A 
ATOM     11  C   UNL A   1      33.799  25.879  23.175  1.00  0.00     0.255 A 
ATOM     12  N   UNL A   1      33.321  27.056  23.723  1.00  0.00    -0.258 N 
ATOM     13  O   UNL A   1      34.024  25.671  21.988  1.00  0.00    -0.269 OA
BRANCH  12  14
ATOM     14  C   UNL A   1      32.960  28.100  22.799  1.00  0.00     0.451 C 
ATOM     15  F   UNL A   1      31.641  28.400  22.896  1.00  0.00    -0.185 F 
ATOM     16  F   UNL A   1      33.666  29.230  23.040  1.00  0.00    -0.185 F 
ENDBRANCH  12  14
ENDBRANCH   6   7
ENDBRANCH   4   6
ENDBRANCH   3   4
ENDBRANCH   2   3
ENDBRANCH   1   2
BRANCH   1  17
ATOM     17  O   UNL A   1      38.026  21.609  25.761  1.00  0.00    -0.458 OA
BRANCH  17  18
ATOM     18  C   UNL A   1      39.266  21.355  26.251  1.00  0.00     0.338 C 
ATOM     19  O   UNL A   1      39.866  20.296  26.189  1.00  0.00    -0.246 OA
BRANCH  18  20
ATOM     20  C   UNL A   1      39.879  22.653  26.632  1.00  0.00     0.060 A 
ATOM     21  C   UNL A   1      40.878  22.732  27.610  1.00  0.00     0.016 A 
ATOM     22  C   UNL A   1      39.341  23.823  26.081  1.00  0.00     0.016 A 
ATOM     23  C   UNL A   1      41.320  23.981  28.051  1.00  0.00     0.010 A 
ATOM     24  C   UNL A   1      39.784  25.072  26.526  1.00  0.00     0.010 A 
ATOM     25  C   UNL A   1      40.774  25.158  27.516  1.00  0.00    -0.014 A 
BRANCH  25  26
ATOM     26  C   UNL A   1      41.349  26.472  27.887  1.00  0.00     0.031 A 
ATOM     27  C   UNL A   1      42.775  26.827  27.595  1.00  0.00     0.074 A 
ATOM     28  C   UNL A   1      40.546  27.352  28.513  1.00  0.00     0.049 A 
ATOM     29  N   UNL A   1      43.391  27.961  27.805  1.00  0.00    -0.248 NA
ATOM     30  C   UNL A   1      43.620  25.783  26.996  1.00  0.00     0.031 C 
ATOM     31  C   UNL A   1      39.149  27.094  28.863  1.00  0.00     0.029 A 
ATOM     32  N   UNL A   1      40.782  28.622  28.973  1.00  0.00    -0.354 N 
ATOM     33  C   UNL A   1      44.689  27.784  27.343  1.00  0.00     0.074 A 
ATOM     34  C   UNL A   1      44.784  26.415  26.880  1.00  0.00     0.031 C 
ATOM     35  C   UNL A   1      38.653  28.171  29.489  1.00  0.00     0.029 A 
ATOM     36  C   UNL A   1      39.701  29.185  29.607  1.00  0.00     0.049 A 
ATOM     37  H   UNL A   1      41.643  29.086  28.858  1.00  0.00     0.167 HD
ATOM     38  C   UNL A   1      45.693  28.692  27.297  1.00  0.00     0.034 A 
ATOM     39  C   UNL A   1      39.563  30.376  30.223  1.00  0.00     0.034 A 
ATOM     40  C   UNL A   1      45.577  30.052  27.769  1.00  0.00     0.049 A 
ATOM     41  C   UNL A   1      40.708  31.352  30.193  1.00  0.00     0.074 A 
ATOM     42  C   UNL A   1      46.518  31.064  27.688  1.00  0.00     0.029 A 
ATOM     43  N   UNL A   1      44.474  30.587  28.418  1.00  0.00    -0.354 N 
ATOM     44  N   UNL A   1      41.889  31.215  29.636  1.00  0.00    -0.248 NA
ATOM     45  C   UNL A   1      40.504  32.650  30.850  1.00  0.00     0.031 C 
ATOM     46  C   UNL A   1      46.017  32.184  28.348  1.00  0.00     0.029 A 
ATOM     47  C   UNL A   1      44.731  31.901  28.780  1.00  0.00     0.049 A 
ATOM     48  H   UNL A   1      43.634  30.106  28.595  1.00  0.00     0.167 HD
ATOM     49  C   UNL A   1      42.560  32.414  29.858  1.00  0.00     0.074 A 
ATOM     50  C   UNL A   1      41.645  33.273  30.579  1.00  0.00     0.031 C 
ATOM     51  C   UNL A   1      43.819  32.764  29.495  1.00  0.00     0.034 A 
BRANCH  38  52
ATOM     52  C   UNL A   1      47.014  28.294  26.688  1.00  0.00     0.023 A 
ATOM     53  C   UNL A   1      47.160  28.245  25.288  1.00  0.00     0.031 A 
ATOM     54  C   UNL A   1      48.053  27.785  27.486  1.00  0.00     0.131 A 
ATOM     55  C   UNL A   1      48.301  27.656  24.729  1.00  0.00     0.055 A 
ATOM     56  C   UNL A   1      49.203  27.231  26.924  1.00  0.00     0.041 A 
ATOM     57  F   UNL A   1      47.952  27.800  28.825  1.00  0.00    -0.206 F 
ATOM     58  C   UNL A   1      49.324  27.151  25.539  1.00  0.00     0.022 A 
BRANCH  55  59
ATOM     59  S   UNL A   1      48.470  27.455  22.934  1.00  0.00     0.124 S 
ATOM     60  O   UNL A   1      47.325  28.215  22.438  1.00  0.00    -0.237 OA
ATOM     61  O   UNL A   1      49.775  28.058  22.679  1.00  0.00    -0.237 OA
ATOM     62  O   UNL A   1      48.389  26.012  22.733  1.00  0.00    -0.744 OA
ENDBRANCH  55  59
ENDBRANCH  38  52
BRANCH  39  63
ATOM     63  C   UNL A   1      38.257  30.699  30.863  1.00  0.00     0.023 A 
ATOM     64  C   UNL A   1      37.252  31.366  30.139  1.00  0.00     0.031 A 
ATOM     65  C   UNL A   1      38.048  30.469  32.232  1.00  0.00     0.131 A 
ATOM     66  C   UNL A   1      36.117  31.847  30.804  1.00  0.00     0.055 A 
ATOM     67  C   UNL A   1      36.883  30.888  32.876  1.00  0.00     0.041 A 
ATOM     68  F   UNL A   1      38.986  29.852  32.965  1.00  0.00    -0.206 F 
ATOM     69  C   UNL A   1      35.919  31.598  32.166  1.00  0.00     0.022 A 
BRANCH  66  70
ATOM     70  S   UNL A   1      34.939  32.938  29.959  1.00  0.00     0.124 S 
ATOM     71  O   UNL A   1      34.389  32.055  28.935  1.00  0.00    -0.237 OA
ATOM     72  O   UNL A   1      34.028  33.291  31.044  1.00  0.00    -0.237 OA
ATOM     73  O   UNL A   1      35.772  34.032  29.469  1.00  0.00    -0.744 OA
ENDBRANCH  66  70
ENDBRANCH  39  63
BRANCH  51  74
ATOM     74  C   UNL A   1      44.327  34.136  29.867  1.00  0.00     0.023 A 
ATOM     75  C   UNL A   1      44.077  35.236  29.023  1.00  0.00     0.031 A 
ATOM     76  C   UNL A   1      45.189  34.322  30.962  1.00  0.00     0.131 A 
ATOM     77  C   UNL A   1      44.721  36.457  29.261  1.00  0.00     0.055 A 
ATOM     78  C   UNL A   1      45.790  35.554  31.221  1.00  0.00     0.041 A 
ATOM     79  F   UNL A   1      45.465  33.302  31.792  1.00  0.00    -0.206 F 
ATOM     80  C   UNL A   1      45.570  36.625  30.359  1.00  0.00     0.022 A 
BRANCH  77  81
ATOM     81  S   UNL A   1      44.547  37.849  28.109  1.00  0.00     0.124 S 
ATOM     82  O   UNL A   1      43.851  37.227  26.984  1.00  0.00    -0.237 OA
ATOM     83  O   UNL A   1      43.752  38.796  28.887  1.00  0.00    -0.237 OA
ATOM     84  O   UNL A   1      45.923  38.257  27.839  1.00  0.00    -0.744 OA
ENDBRANCH  77  81
ENDBRANCH  51  74
ENDBRANCH  25  26
ENDBRANCH  18  20
ENDBRANCH  17  18
ENDBRANCH   1  17
TORSDOF 16
ENDMDL
