MODEL 1
REMARK VINA RESULT:      -9.7      0.000      0.000
REMARK SMILES C=CC[N@@H+](CC(=O)OCCOC(=O)c1ccc(-c2c3nc(c(-c4cc(S(=O)(=O)[O-])ccc4F)c4ccc([nH]4)c(-c4cc(S(=O)(=O)[O-])ccc4F)c4nc(c(-c5cc(S(=O)(=O)[O-])ccc5F)c5ccc2[nH]5)C=C4)C=C3)cc1)C[C@H]1CCC[C@H](C)C1
REMARK SMILES IDX 9 1 8 2 6 3 7 4 5 5 4 6 3 8 2 9 1 10 77 11 78 12 79 13 84 14
REMARK SMILES IDX 80 15 82 16 81 17 83 18 10 19 11 20 12 21 13 22 14 23 15 24
REMARK SMILES IDX 76 25 16 26 75 27 17 28 18 29 19 30 69 31 20 32 74 33 68 34
REMARK SMILES IDX 70 35 21 36 73 37 67 38 66 39 22 41 54 42 34 43 53 44 35 45
REMARK SMILES IDX 38 46 52 47 71 48 36 49 37 50 51 52 72 53 39 54 23 55 24 56
REMARK SMILES IDX 32 57 25 58 31 59 33 60 30 61 26 62 27 63 28 64 29 65 55 66
REMARK SMILES IDX 56 67 64 68 57 69 63 70 65 71 62 72 58 73 59 74 60 75 61 76
REMARK SMILES IDX 40 77 41 78 49 79 42 80 48 81 50 82 47 83 43 84 44 85 45 86
REMARK SMILES IDX 46 87
REMARK H PARENT 4 7 70 40 38 51
REMARK Flexibility Score: inf
ROOT
ATOM      1  C   UNL A   1      31.822  29.479  26.771  1.00  0.00     0.274 C 
ENDROOT
BRANCH   1   2
ATOM      2  O   UNL A   1      32.540  28.988  25.621  1.00  0.00    -0.458 OA
BRANCH   2   3
ATOM      3  C   UNL A   1      31.816  28.605  24.536  1.00  0.00     0.361 C 
ATOM      4  O   UNL A   1      30.751  29.122  24.212  1.00  0.00    -0.245 OA
BRANCH   3   5
ATOM      5  C   UNL A   1      32.430  27.441  23.733  1.00  0.00     0.386 C 
BRANCH   5   6
ATOM      6  N   UNL A   1      32.542  26.111  24.405  1.00  0.00    -0.322 N 
ATOM      7  H   UNL A   1      32.508  25.344  23.734  1.00  0.00     0.348 HD
BRANCH   6   8
ATOM      8  C   UNL A   1      31.365  25.847  25.237  1.00  0.00     0.290 C 
BRANCH   8   9
ATOM      9  C   UNL A   1      30.522  24.718  24.730  1.00  0.00     0.025 C 
ATOM     10  C   UNL A   1      30.801  24.024  23.618  1.00  0.00     0.010 C 
ENDBRANCH   8   9
ENDBRANCH   6   8
BRANCH   6  11
ATOM     11  C   UNL A   1      33.883  25.959  25.015  1.00  0.00     0.266 C 
BRANCH  11  12
ATOM     12  C   UNL A   1      34.543  24.567  25.041  1.00  0.00     0.044 C 
ATOM     13  C   UNL A   1      34.002  23.599  26.100  1.00  0.00     0.009 C 
ATOM     14  C   UNL A   1      34.412  23.850  23.682  1.00  0.00     0.012 C 
ATOM     15  C   UNL A   1      34.910  22.367  26.160  1.00  0.00     0.001 C 
ATOM     16  C   UNL A   1      35.305  22.600  23.622  1.00  0.00    -0.014 C 
ATOM     17  C   UNL A   1      35.018  21.660  24.806  1.00  0.00     0.003 C 
ATOM     18  C   UNL A   1      36.788  22.980  23.537  1.00  0.00     0.007 C 
ENDBRANCH  11  12
ENDBRANCH   6  11
ENDBRANCH   5   6
ENDBRANCH   3   5
ENDBRANCH   2   3
ENDBRANCH   1   2
BRANCH   1  19
ATOM     19  C   UNL A   1      32.121  30.957  26.973  1.00  0.00     0.275 C 
BRANCH  19  20
ATOM     20  O   UNL A   1      33.545  31.132  26.953  1.00  0.00    -0.458 OA
BRANCH  20  21
ATOM     21  C   UNL A   1      34.027  32.065  27.800  1.00  0.00     0.338 C 
ATOM     22  O   UNL A   1      33.502  33.124  28.117  1.00  0.00    -0.246 OA
BRANCH  21  23
ATOM     23  C   UNL A   1      35.342  31.632  28.279  1.00  0.00     0.060 A 
ATOM     24  C   UNL A   1      36.401  32.540  28.373  1.00  0.00     0.016 A 
ATOM     25  C   UNL A   1      35.516  30.292  28.621  1.00  0.00     0.016 A 
ATOM     26  C   UNL A   1      37.647  32.106  28.820  1.00  0.00     0.010 A 
ATOM     27  C   UNL A   1      36.746  29.875  29.124  1.00  0.00     0.010 A 
ATOM     28  C   UNL A   1      37.818  30.779  29.234  1.00  0.00    -0.014 A 
BRANCH  28  29
ATOM     29  C   UNL A   1      39.090  30.322  29.844  1.00  0.00     0.031 A 
ATOM     30  C   UNL A   1      39.874  29.214  29.206  1.00  0.00     0.074 A 
ATOM     31  C   UNL A   1      39.483  30.854  31.018  1.00  0.00     0.049 A 
ATOM     32  N   UNL A   1      40.869  28.520  29.690  1.00  0.00    -0.248 NA
ATOM     33  C   UNL A   1      39.471  28.829  27.844  1.00  0.00     0.031 C 
ATOM     34  C   UNL A   1      38.813  31.957  31.712  1.00  0.00     0.029 A 
ATOM     35  N   UNL A   1      40.520  30.519  31.851  1.00  0.00    -0.354 N 
ATOM     36  C   UNL A   1      41.198  27.593  28.707  1.00  0.00     0.074 A 
ATOM     37  C   UNL A   1      40.282  27.808  27.605  1.00  0.00     0.031 C 
ATOM     38  C   UNL A   1      39.450  32.200  32.866  1.00  0.00     0.029 A 
ATOM     39  C   UNL A   1      40.520  31.223  33.033  1.00  0.00     0.049 A 
ATOM     40  H   UNL A   1      41.199  29.843  31.625  1.00  0.00     0.167 HD
ATOM     41  C   UNL A   1      42.175  26.653  28.731  1.00  0.00     0.034 A 
ATOM     42  C   UNL A   1      41.256  31.061  34.149  1.00  0.00     0.034 A 
ATOM     43  C   UNL A   1      43.074  26.464  29.845  1.00  0.00     0.049 A 
ATOM     44  C   UNL A   1      42.273  29.953  34.188  1.00  0.00     0.074 A 
ATOM     45  C   UNL A   1      44.123  25.569  29.966  1.00  0.00     0.029 A 
ATOM     46  N   UNL A   1      43.024  27.177  31.037  1.00  0.00    -0.354 N 
ATOM     47  N   UNL A   1      42.573  29.074  33.257  1.00  0.00    -0.248 NA
ATOM     48  C   UNL A   1      43.046  29.806  35.427  1.00  0.00     0.031 C 
ATOM     49  C   UNL A   1      44.659  25.692  31.253  1.00  0.00     0.029 A 
ATOM     50  C   UNL A   1      43.995  26.714  31.913  1.00  0.00     0.049 A 
ATOM     51  H   UNL A   1      42.390  27.906  31.233  1.00  0.00     0.167 HD
ATOM     52  C   UNL A   1      43.581  28.282  33.795  1.00  0.00     0.074 A 
ATOM     53  C   UNL A   1      43.849  28.796  35.124  1.00  0.00     0.031 C 
ATOM     54  C   UNL A   1      44.230  27.227  33.242  1.00  0.00     0.034 A 
BRANCH  41  55
ATOM     55  C   UNL A   1      42.279  25.724  27.547  1.00  0.00     0.023 A 
ATOM     56  C   UNL A   1      41.560  24.518  27.481  1.00  0.00     0.031 A 
ATOM     57  C   UNL A   1      43.129  26.044  26.472  1.00  0.00     0.131 A 
ATOM     58  C   UNL A   1      41.750  23.648  26.395  1.00  0.00     0.055 A 
ATOM     59  C   UNL A   1      43.259  25.209  25.361  1.00  0.00     0.041 A 
ATOM     60  F   UNL A   1      43.857  27.172  26.489  1.00  0.00    -0.206 F 
ATOM     61  C   UNL A   1      42.578  23.996  25.324  1.00  0.00     0.022 A 
BRANCH  58  62
ATOM     62  S   UNL A   1      41.001  21.998  26.463  1.00  0.00     0.124 S 
ATOM     63  O   UNL A   1      41.968  21.201  25.714  1.00  0.00    -0.237 OA
ATOM     64  O   UNL A   1      40.934  21.741  27.897  1.00  0.00    -0.237 OA
ATOM     65  O   UNL A   1      39.710  22.180  25.802  1.00  0.00    -0.744 OA
ENDBRANCH  58  62
ENDBRANCH  41  55
BRANCH  42  66
ATOM     66  C   UNL A   1      41.006  31.915  35.344  1.00  0.00     0.023 A 
ATOM     67  C   UNL A   1      39.862  31.735  36.136  1.00  0.00     0.031 A 
ATOM     68  C   UNL A   1      41.897  32.946  35.697  1.00  0.00     0.131 A 
ATOM     69  C   UNL A   1      39.619  32.595  37.218  1.00  0.00     0.055 A 
ATOM     70  C   UNL A   1      41.679  33.763  36.806  1.00  0.00     0.041 A 
ATOM     71  F   UNL A   1      43.008  33.161  34.973  1.00  0.00    -0.206 F 
ATOM     72  C   UNL A   1      40.527  33.597  37.568  1.00  0.00     0.022 A 
BRANCH  69  73
ATOM     73  S   UNL A   1      38.054  32.432  38.121  1.00  0.00     0.124 S 
ATOM     74  O   UNL A   1      37.545  31.165  37.607  1.00  0.00    -0.237 OA
ATOM     75  O   UNL A   1      38.504  32.428  39.509  1.00  0.00    -0.237 OA
ATOM     76  O   UNL A   1      37.303  33.618  37.714  1.00  0.00    -0.744 OA
ENDBRANCH  69  73
ENDBRANCH  42  66
BRANCH  54  77
ATOM     77  C   UNL A   1      45.314  26.587  34.072  1.00  0.00     0.023 A 
ATOM     78  C   UNL A   1      46.646  27.030  34.010  1.00  0.00     0.031 A 
ATOM     79  C   UNL A   1      45.008  25.513  34.926  1.00  0.00     0.131 A 
ATOM     80  C   UNL A   1      47.634  26.370  34.755  1.00  0.00     0.055 A 
ATOM     81  C   UNL A   1      45.987  24.895  35.705  1.00  0.00     0.041 A 
ATOM     82  F   UNL A   1      43.751  25.050  35.018  1.00  0.00    -0.206 F 
ATOM     83  C   UNL A   1      47.310  25.316  35.614  1.00  0.00     0.022 A 
BRANCH  80  84
ATOM     84  S   UNL A   1      49.367  26.861  34.535  1.00  0.00     0.124 S 
ATOM     85  O   UNL A   1      49.876  26.795  35.900  1.00  0.00    -0.237 OA
ATOM     86  O   UNL A   1      49.867  25.841  33.617  1.00  0.00    -0.237 OA
ATOM     87  O   UNL A   1      49.274  28.206  33.971  1.00  0.00    -0.744 OA
ENDBRANCH  80  84
ENDBRANCH  54  77
ENDBRANCH  28  29
ENDBRANCH  21  23
ENDBRANCH  20  21
ENDBRANCH  19  20
ENDBRANCH   1  19
TORSDOF 19
ENDMDL
MODEL 2
REMARK VINA RESULT:      -9.5      4.729      9.897
REMARK SMILES C=CC[N@@H+](CC(=O)OCCOC(=O)c1ccc(-c2c3nc(c(-c4cc(S(=O)(=O)[O-])ccc4F)c4ccc([nH]4)c(-c4cc(S(=O)(=O)[O-])ccc4F)c4nc(c(-c5cc(S(=O)(=O)[O-])ccc5F)c5ccc2[nH]5)C=C4)C=C3)cc1)C[C@H]1CCC[C@H](C)C1
REMARK SMILES IDX 9 1 8 2 6 3 7 4 5 5 4 6 3 8 2 9 1 10 77 11 78 12 79 13 84 14
REMARK SMILES IDX 80 15 82 16 81 17 83 18 10 19 11 20 12 21 13 22 14 23 15 24
REMARK SMILES IDX 76 25 16 26 75 27 17 28 18 29 19 30 69 31 20 32 74 33 68 34
REMARK SMILES IDX 70 35 21 36 73 37 67 38 66 39 22 41 54 42 34 43 53 44 35 45
REMARK SMILES IDX 38 46 52 47 71 48 36 49 37 50 51 52 72 53 39 54 23 55 24 56
REMARK SMILES IDX 32 57 25 58 31 59 33 60 30 61 26 62 27 63 28 64 29 65 55 66
REMARK SMILES IDX 56 67 64 68 57 69 63 70 65 71 62 72 58 73 59 74 60 75 61 76
REMARK SMILES IDX 40 77 41 78 49 79 42 80 48 81 50 82 47 83 43 84 44 85 45 86
REMARK SMILES IDX 46 87
REMARK H PARENT 4 7 70 40 38 51
REMARK Flexibility Score: inf
ROOT
ATOM      1  C   UNL A   1      35.947  20.557  25.279  1.00  0.00     0.274 C 
ENDROOT
BRANCH   1   2
ATOM      2  O   UNL A   1      34.731  20.826  24.553  1.00  0.00    -0.458 OA
BRANCH   2   3
ATOM      3  C   UNL A   1      33.765  21.550  25.177  1.00  0.00     0.361 C 
ATOM      4  O   UNL A   1      33.477  21.421  26.364  1.00  0.00    -0.245 OA
BRANCH   3   5
ATOM      5  C   UNL A   1      33.028  22.554  24.269  1.00  0.00     0.386 C 
BRANCH   5   6
ATOM      6  N   UNL A   1      32.204  23.614  24.924  1.00  0.00    -0.322 N 
ATOM      7  H   UNL A   1      32.561  23.856  25.848  1.00  0.00     0.348 HD
BRANCH   6   8
ATOM      8  C   UNL A   1      30.861  23.115  25.232  1.00  0.00     0.290 C 
BRANCH   8   9
ATOM      9  C   UNL A   1      30.605  22.972  26.701  1.00  0.00     0.025 C 
ATOM     10  C   UNL A   1      29.379  22.931  27.241  1.00  0.00     0.010 C 
ENDBRANCH   8   9
ENDBRANCH   6   8
BRANCH   6  11
ATOM     11  C   UNL A   1      32.326  24.889  24.178  1.00  0.00     0.266 C 
BRANCH  11  12
ATOM     12  C   UNL A   1      32.590  26.192  24.956  1.00  0.00     0.044 C 
ATOM     13  C   UNL A   1      33.719  27.073  24.406  1.00  0.00     0.009 C 
ATOM     14  C   UNL A   1      31.332  27.080  25.021  1.00  0.00     0.012 C 
ATOM     15  C   UNL A   1      34.016  28.189  25.412  1.00  0.00     0.001 C 
ATOM     16  C   UNL A   1      31.512  28.230  26.026  1.00  0.00    -0.014 C 
ATOM     17  C   UNL A   1      32.781  29.042  25.713  1.00  0.00     0.003 C 
ATOM     18  C   UNL A   1      31.502  27.714  27.470  1.00  0.00     0.007 C 
ENDBRANCH  11  12
ENDBRANCH   6  11
ENDBRANCH   5   6
ENDBRANCH   3   5
ENDBRANCH   2   3
ENDBRANCH   1   2
BRANCH   1  19
ATOM     19  C   UNL A   1      36.603  21.868  25.689  1.00  0.00     0.275 C 
BRANCH  19  20
ATOM     20  O   UNL A   1      37.935  21.886  25.155  1.00  0.00    -0.458 OA
BRANCH  20  21
ATOM     21  C   UNL A   1      38.904  21.476  26.000  1.00  0.00     0.338 C 
ATOM     22  O   UNL A   1      39.184  20.325  26.307  1.00  0.00    -0.246 OA
BRANCH  21  23
ATOM     23  C   UNL A   1      39.579  22.654  26.551  1.00  0.00     0.060 A 
ATOM     24  C   UNL A   1      40.527  22.520  27.569  1.00  0.00     0.016 A 
ATOM     25  C   UNL A   1      39.239  23.909  26.050  1.00  0.00     0.016 A 
ATOM     26  C   UNL A   1      41.148  23.654  28.089  1.00  0.00     0.010 A 
ATOM     27  C   UNL A   1      39.906  25.034  26.530  1.00  0.00     0.010 A 
ATOM     28  C   UNL A   1      40.870  24.915  27.546  1.00  0.00    -0.014 A 
BRANCH  28  29
ATOM     29  C   UNL A   1      41.616  26.120  27.982  1.00  0.00     0.031 A 
ATOM     30  C   UNL A   1      40.909  27.212  28.729  1.00  0.00     0.074 A 
ATOM     31  C   UNL A   1      42.907  26.258  27.622  1.00  0.00     0.049 A 
ATOM     32  N   UNL A   1      41.310  28.427  28.992  1.00  0.00    -0.248 NA
ATOM     33  C   UNL A   1      39.565  26.893  29.235  1.00  0.00     0.031 C 
ATOM     34  C   UNL A   1      43.701  25.246  26.921  1.00  0.00     0.029 A 
ATOM     35  N   UNL A   1      43.769  27.315  27.767  1.00  0.00    -0.354 N 
ATOM     36  C   UNL A   1      40.259  29.034  29.670  1.00  0.00     0.074 A 
ATOM     37  C   UNL A   1      39.197  28.052  29.762  1.00  0.00     0.031 C 
ATOM     38  C   UNL A   1      44.928  25.734  26.689  1.00  0.00     0.029 A 
ATOM     39  C   UNL A   1      44.984  27.116  27.152  1.00  0.00     0.049 A 
ATOM     40  H   UNL A   1      43.543  28.135  28.264  1.00  0.00     0.167 HD
ATOM     41  C   UNL A   1      40.194  30.295  30.165  1.00  0.00     0.034 A 
ATOM     42  C   UNL A   1      46.004  27.968  26.930  1.00  0.00     0.034 A 
ATOM     43  C   UNL A   1      41.271  31.251  30.058  1.00  0.00     0.049 A 
ATOM     44  C   UNL A   1      45.874  29.389  27.410  1.00  0.00     0.074 A 
ATOM     45  C   UNL A   1      41.331  32.543  30.553  1.00  0.00     0.029 A 
ATOM     46  N   UNL A   1      42.475  31.023  29.403  1.00  0.00    -0.354 N 
ATOM     47  N   UNL A   1      44.872  29.958  28.042  1.00  0.00    -0.248 NA
ATOM     48  C   UNL A   1      47.004  30.285  27.139  1.00  0.00     0.031 C 
ATOM     49  C   UNL A   1      42.538  33.116  30.136  1.00  0.00     0.029 A 
ATOM     50  C   UNL A   1      43.265  32.161  29.444  1.00  0.00     0.049 A 
ATOM     51  H   UNL A   1      42.730  30.175  28.970  1.00  0.00     0.167 HD
ATOM     52  C   UNL A   1      45.261  31.276  28.259  1.00  0.00     0.074 A 
ATOM     53  C   UNL A   1      46.594  31.412  27.704  1.00  0.00     0.031 C 
ATOM     54  C   UNL A   1      44.582  32.282  28.864  1.00  0.00     0.034 A 
BRANCH  41  55
ATOM     55  C   UNL A   1      38.899  30.726  30.809  1.00  0.00     0.023 A 
ATOM     56  C   UNL A   1      37.930  31.465  30.109  1.00  0.00     0.031 A 
ATOM     57  C   UNL A   1      38.640  30.406  32.154  1.00  0.00     0.131 A 
ATOM     58  C   UNL A   1      36.776  31.912  30.774  1.00  0.00     0.055 A 
ATOM     59  C   UNL A   1      37.458  30.793  32.790  1.00  0.00     0.041 A 
ATOM     60  F   UNL A   1      39.539  29.721  32.879  1.00  0.00    -0.206 F 
ATOM     61  C   UNL A   1      36.524  31.562  32.103  1.00  0.00     0.022 A 
BRANCH  58  62
ATOM     62  S   UNL A   1      35.673  33.068  29.916  1.00  0.00     0.124 S 
ATOM     63  O   UNL A   1      34.503  32.230  29.664  1.00  0.00    -0.237 OA
ATOM     64  O   UNL A   1      35.500  34.129  30.900  1.00  0.00    -0.237 OA
ATOM     65  O   UNL A   1      36.430  33.442  28.722  1.00  0.00    -0.744 OA
ENDBRANCH  58  62
ENDBRANCH  41  55
BRANCH  42  66
ATOM     66  C   UNL A   1      47.198  27.525  26.157  1.00  0.00     0.023 A 
ATOM     67  C   UNL A   1      47.317  27.804  24.787  1.00  0.00     0.031 A 
ATOM     68  C   UNL A   1      48.228  26.790  26.773  1.00  0.00     0.131 A 
ATOM     69  C   UNL A   1      48.422  27.321  24.070  1.00  0.00     0.055 A 
ATOM     70  C   UNL A   1      49.351  26.359  26.067  1.00  0.00     0.041 A 
ATOM     71  F   UNL A   1      48.164  26.496  28.082  1.00  0.00    -0.206 F 
ATOM     72  C   UNL A   1      49.447  26.614  24.703  1.00  0.00     0.022 A 
BRANCH  69  73
ATOM     73  S   UNL A   1      48.463  27.565  22.273  1.00  0.00     0.124 S 
ATOM     74  O   UNL A   1      47.144  28.135  22.020  1.00  0.00    -0.237 OA
ATOM     75  O   UNL A   1      49.595  28.472  22.117  1.00  0.00    -0.237 OA
ATOM     76  O   UNL A   1      48.671  26.216  21.752  1.00  0.00    -0.744 OA
ENDBRANCH  69  73
ENDBRANCH  42  66
BRANCH  54  77
ATOM     77  C   UNL A   1      45.294  33.606  28.980  1.00  0.00     0.023 A 
ATOM     78  C   UNL A   1      46.117  33.906  30.079  1.00  0.00     0.031 A 
ATOM     79  C   UNL A   1      45.135  34.582  27.981  1.00  0.00     0.131 A 
ATOM     80  C   UNL A   1      46.715  35.171  30.176  1.00  0.00     0.055 A 
ATOM     81  C   UNL A   1      45.775  35.820  28.057  1.00  0.00     0.041 A 
ATOM     82  F   UNL A   1      44.356  34.347  26.913  1.00  0.00    -0.206 F 
ATOM     83  C   UNL A   1      46.562  36.124  29.165  1.00  0.00     0.022 A 
BRANCH  80  84
ATOM     84  S   UNL A   1      47.641  35.585  31.680  1.00  0.00     0.124 S 
ATOM     85  O   UNL A   1      49.017  35.331  31.268  1.00  0.00    -0.237 OA
ATOM     86  O   UNL A   1      47.287  36.986  31.891  1.00  0.00    -0.237 OA
ATOM     87  O   UNL A   1      47.110  34.657  32.677  1.00  0.00    -0.744 OA
ENDBRANCH  80  84
ENDBRANCH  54  77
ENDBRANCH  28  29
ENDBRANCH  21  23
ENDBRANCH  20  21
ENDBRANCH  19  20
ENDBRANCH   1  19
TORSDOF 19
ENDMDL
MODEL 3
REMARK VINA RESULT:      -9.5      2.171      2.993
REMARK SMILES C=CC[N@@H+](CC(=O)OCCOC(=O)c1ccc(-c2c3nc(c(-c4cc(S(=O)(=O)[O-])ccc4F)c4ccc([nH]4)c(-c4cc(S(=O)(=O)[O-])ccc4F)c4nc(c(-c5cc(S(=O)(=O)[O-])ccc5F)c5ccc2[nH]5)C=C4)C=C3)cc1)C[C@H]1CCC[C@H](C)C1
REMARK SMILES IDX 9 1 8 2 6 3 7 4 5 5 4 6 3 8 2 9 1 10 77 11 78 12 79 13 84 14
REMARK SMILES IDX 80 15 82 16 81 17 83 18 10 19 11 20 12 21 13 22 14 23 15 24
REMARK SMILES IDX 76 25 16 26 75 27 17 28 18 29 19 30 69 31 20 32 74 33 68 34
REMARK SMILES IDX 70 35 21 36 73 37 67 38 66 39 22 41 54 42 34 43 53 44 35 45
REMARK SMILES IDX 38 46 52 47 71 48 36 49 37 50 51 52 72 53 39 54 23 55 24 56
REMARK SMILES IDX 32 57 25 58 31 59 33 60 30 61 26 62 27 63 28 64 29 65 55 66
REMARK SMILES IDX 56 67 64 68 57 69 63 70 65 71 62 72 58 73 59 74 60 75 61 76
REMARK SMILES IDX 40 77 41 78 49 79 42 80 48 81 50 82 47 83 43 84 44 85 45 86
REMARK SMILES IDX 46 87
REMARK H PARENT 4 7 70 40 38 51
REMARK Flexibility Score: inf
ROOT
ATOM      1  C   UNL A   1      31.110  31.666  26.722  1.00  0.00     0.274 C 
ENDROOT
BRANCH   1   2
ATOM      2  O   UNL A   1      31.008  31.330  25.323  1.00  0.00    -0.458 OA
BRANCH   2   3
ATOM      3  C   UNL A   1      31.360  30.074  24.943  1.00  0.00     0.361 C 
ATOM      4  O   UNL A   1      30.590  29.286  24.402  1.00  0.00    -0.245 OA
BRANCH   3   5
ATOM      5  C   UNL A   1      32.819  29.693  25.260  1.00  0.00     0.386 C 
BRANCH   5   6
ATOM      6  N   UNL A   1      33.103  28.280  25.653  1.00  0.00    -0.322 N 
ATOM      7  H   UNL A   1      32.252  27.719  25.693  1.00  0.00     0.348 HD
BRANCH   6   8
ATOM      8  C   UNL A   1      33.585  28.210  27.035  1.00  0.00     0.290 C 
BRANCH   8   9
ATOM      9  C   UNL A   1      34.361  29.421  27.453  1.00  0.00     0.025 C 
ATOM     10  C   UNL A   1      35.690  29.428  27.626  1.00  0.00     0.010 C 
ENDBRANCH   8   9
ENDBRANCH   6   8
BRANCH   6  11
ATOM     11  C   UNL A   1      33.894  27.605  24.597  1.00  0.00     0.266 C 
BRANCH  11  12
ATOM     12  C   UNL A   1      33.623  26.121  24.287  1.00  0.00     0.044 C 
ATOM     13  C   UNL A   1      33.655  25.739  22.802  1.00  0.00     0.009 C 
ATOM     14  C   UNL A   1      34.630  25.198  25.001  1.00  0.00     0.012 C 
ATOM     15  C   UNL A   1      33.135  24.307  22.644  1.00  0.00     0.001 C 
ATOM     16  C   UNL A   1      34.192  23.726  24.923  1.00  0.00    -0.014 C 
ATOM     17  C   UNL A   1      33.945  23.301  23.465  1.00  0.00     0.003 C 
ATOM     18  C   UNL A   1      32.971  23.462  25.813  1.00  0.00     0.007 C 
ENDBRANCH  11  12
ENDBRANCH   6  11
ENDBRANCH   5   6
ENDBRANCH   3   5
ENDBRANCH   2   3
ENDBRANCH   1   2
BRANCH   1  19
ATOM     19  C   UNL A   1      31.660  33.076  26.875  1.00  0.00     0.275 C 
BRANCH  19  20
ATOM     20  O   UNL A   1      33.040  32.978  27.256  1.00  0.00    -0.458 OA
BRANCH  20  21
ATOM     21  C   UNL A   1      33.413  33.759  28.291  1.00  0.00     0.338 C 
ATOM     22  O   UNL A   1      32.862  34.774  28.693  1.00  0.00    -0.246 OA
BRANCH  21  23
ATOM     23  C   UNL A   1      34.645  33.218  28.870  1.00  0.00     0.060 A 
ATOM     24  C   UNL A   1      35.895  33.636  28.405  1.00  0.00     0.016 A 
ATOM     25  C   UNL A   1      34.542  32.263  29.880  1.00  0.00     0.016 A 
ATOM     26  C   UNL A   1      37.055  33.101  28.960  1.00  0.00     0.010 A 
ATOM     27  C   UNL A   1      35.703  31.774  30.473  1.00  0.00     0.010 A 
ATOM     28  C   UNL A   1      36.967  32.194  30.024  1.00  0.00    -0.014 A 
BRANCH  28  29
ATOM     29  C   UNL A   1      38.182  31.714  30.726  1.00  0.00     0.031 A 
ATOM     30  C   UNL A   1      39.015  30.622  30.125  1.00  0.00     0.074 A 
ATOM     31  C   UNL A   1      38.474  32.209  31.945  1.00  0.00     0.049 A 
ATOM     32  N   UNL A   1      39.964  29.909  30.671  1.00  0.00    -0.248 NA
ATOM     33  C   UNL A   1      38.729  30.279  28.723  1.00  0.00     0.031 C 
ATOM     34  C   UNL A   1      37.749  33.294  32.612  1.00  0.00     0.029 A 
ATOM     35  N   UNL A   1      39.436  31.845  32.853  1.00  0.00    -0.354 N 
ATOM     36  C   UNL A   1      40.374  29.011  29.693  1.00  0.00     0.074 A 
ATOM     37  C   UNL A   1      39.556  29.262  28.523  1.00  0.00     0.031 C 
ATOM     38  C   UNL A   1      38.285  33.500  33.823  1.00  0.00     0.029 A 
ATOM     39  C   UNL A   1      39.335  32.514  34.051  1.00  0.00     0.049 A 
ATOM     40  H   UNL A   1      40.130  31.172  32.666  1.00  0.00     0.167 HD
ATOM     41  C   UNL A   1      41.344  28.065  29.772  1.00  0.00     0.034 A 
ATOM     42  C   UNL A   1      39.973  32.315  35.222  1.00  0.00     0.034 A 
ATOM     43  C   UNL A   1      42.143  27.840  30.953  1.00  0.00     0.049 A 
ATOM     44  C   UNL A   1      40.981  31.202  35.314  1.00  0.00     0.074 A 
ATOM     45  C   UNL A   1      43.176  26.936  31.137  1.00  0.00     0.029 A 
ATOM     46  N   UNL A   1      41.993  28.517  32.157  1.00  0.00    -0.354 N 
ATOM     47  N   UNL A   1      41.357  30.350  34.386  1.00  0.00    -0.248 NA
ATOM     48  C   UNL A   1      41.645  31.015  36.609  1.00  0.00     0.031 C 
ATOM     49  C   UNL A   1      43.601  27.019  32.468  1.00  0.00     0.029 A 
ATOM     50  C   UNL A   1      42.885  28.024  33.098  1.00  0.00     0.049 A 
ATOM     51  H   UNL A   1      41.346  29.242  32.320  1.00  0.00     0.167 HD
ATOM     52  C   UNL A   1      42.314  29.537  34.985  1.00  0.00     0.074 A 
ATOM     53  C   UNL A   1      42.469  30.011  36.346  1.00  0.00     0.031 C 
ATOM     54  C   UNL A   1      43.006  28.496  34.458  1.00  0.00     0.034 A 
BRANCH  41  55
ATOM     55  C   UNL A   1      41.546  27.171  28.574  1.00  0.00     0.023 A 
ATOM     56  C   UNL A   1      42.570  27.400  27.639  1.00  0.00     0.031 A 
ATOM     57  C   UNL A   1      40.683  26.082  28.354  1.00  0.00     0.131 A 
ATOM     58  C   UNL A   1      42.669  26.588  26.497  1.00  0.00     0.055 A 
ATOM     59  C   UNL A   1      40.831  25.235  27.253  1.00  0.00     0.041 A 
ATOM     60  F   UNL A   1      39.673  25.828  29.201  1.00  0.00    -0.206 F 
ATOM     61  C   UNL A   1      41.820  25.494  26.309  1.00  0.00     0.022 A 
BRANCH  58  62
ATOM     62  S   UNL A   1      43.840  27.061  25.195  1.00  0.00     0.124 S 
ATOM     63  O   UNL A   1      44.808  27.859  25.941  1.00  0.00    -0.237 OA
ATOM     64  O   UNL A   1      44.312  25.769  24.711  1.00  0.00    -0.237 OA
ATOM     65  O   UNL A   1      43.016  27.817  24.251  1.00  0.00    -0.744 OA
ENDBRANCH  58  62
ENDBRANCH  41  55
BRANCH  42  66
ATOM     66  C   UNL A   1      39.623  33.135  36.416  1.00  0.00     0.023 A 
ATOM     67  C   UNL A   1      38.798  32.623  37.429  1.00  0.00     0.031 A 
ATOM     68  C   UNL A   1      40.088  34.457  36.549  1.00  0.00     0.131 A 
ATOM     69  C   UNL A   1      38.434  33.437  38.511  1.00  0.00     0.055 A 
ATOM     70  C   UNL A   1      39.767  35.244  37.653  1.00  0.00     0.041 A 
ATOM     71  F   UNL A   1      40.881  34.995  35.608  1.00  0.00    -0.206 F 
ATOM     72  C   UNL A   1      38.924  34.739  38.639  1.00  0.00     0.022 A 
BRANCH  69  73
ATOM     73  S   UNL A   1      37.241  32.795  39.717  1.00  0.00     0.124 S 
ATOM     74  O   UNL A   1      36.027  32.703  38.914  1.00  0.00    -0.237 OA
ATOM     75  O   UNL A   1      37.853  31.528  40.103  1.00  0.00    -0.237 OA
ATOM     76  O   UNL A   1      37.225  33.820  40.757  1.00  0.00    -0.744 OA
ENDBRANCH  69  73
ENDBRANCH  42  66
BRANCH  54  77
ATOM     77  C   UNL A   1      44.014  27.827  35.357  1.00  0.00     0.023 A 
ATOM     78  C   UNL A   1      45.342  28.278  35.438  1.00  0.00     0.031 A 
ATOM     79  C   UNL A   1      43.639  26.717  36.134  1.00  0.00     0.131 A 
ATOM     80  C   UNL A   1      46.263  27.592  36.244  1.00  0.00     0.055 A 
ATOM     81  C   UNL A   1      44.546  26.072  36.975  1.00  0.00     0.041 A 
ATOM     82  F   UNL A   1      42.383  26.245  36.091  1.00  0.00    -0.206 F 
ATOM     83  C   UNL A   1      45.869  26.502  37.025  1.00  0.00     0.022 A 
BRANCH  80  84
ATOM     84  S   UNL A   1      48.004  28.099  36.205  1.00  0.00     0.124 S 
ATOM     85  O   UNL A   1      48.419  27.656  34.879  1.00  0.00    -0.237 OA
ATOM     86  O   UNL A   1      47.914  29.544  36.396  1.00  0.00    -0.237 OA
ATOM     87  O   UNL A   1      48.600  27.365  37.320  1.00  0.00    -0.744 OA
ENDBRANCH  80  84
ENDBRANCH  54  77
ENDBRANCH  28  29
ENDBRANCH  21  23
ENDBRANCH  20  21
ENDBRANCH  19  20
ENDBRANCH   1  19
TORSDOF 19
ENDMDL
