MODEL 1
REMARK VINA RESULT:     -10.3      0.000      0.000
REMARK SMILES CCCS[C@@H]1CC[C@@]([NH2+]CC)(C(=O)OCCOC(=O)c2ccc(-c3c4nc(c(-c5cc(S(=O)(=O)[O-])ccc5F)c5ccc([nH]5)c(-c5cc(S(=O)(=O)[O-])ccc5F)c5nc(c(-c6cc(S(=O)(=O)[O-])ccc6F)c6ccc3[nH]6)C=C5)C=C4)cc2)C1
REMARK SMILES IDX 15 1 14 2 12 3 13 4 8 5 5 6 6 7 83 8 7 9 4 10 3 11 2 12 1 13
REMARK SMILES IDX 9 14 10 17 11 18 16 19 17 20 18 21 19 22 20 23 21 24 82 25
REMARK SMILES IDX 22 26 81 27 23 28 24 29 25 30 75 31 26 32 80 33 74 34 76 35
REMARK SMILES IDX 27 36 79 37 73 38 72 39 28 41 60 42 40 43 59 44 41 45 44 46
REMARK SMILES IDX 58 47 77 48 42 49 43 50 57 52 78 53 45 54 29 55 30 56 38 57
REMARK SMILES IDX 31 58 37 59 39 60 36 61 32 62 33 63 34 64 35 65 61 66 62 67
REMARK SMILES IDX 70 68 63 69 69 70 71 71 68 72 64 73 65 74 66 75 67 76 46 77
REMARK SMILES IDX 47 78 55 79 48 80 54 81 56 82 53 83 49 84 50 85 51 86 52 87
REMARK H PARENT 9 15 9 16 76 40 44 51
REMARK Flexibility Score: inf
ROOT
ATOM      1  C   UNL A   1      31.789  28.413  27.515  1.00  0.00     0.274 C 
ENDROOT
BRANCH   1   2
ATOM      2  O   UNL A   1      32.473  27.431  26.710  1.00  0.00    -0.457 OA
BRANCH   2   3
ATOM      3  C   UNL A   1      31.679  26.627  25.949  1.00  0.00     0.368 C 
ATOM      4  O   UNL A   1      30.761  25.958  26.414  1.00  0.00    -0.245 OA
BRANCH   3   5
ATOM      5  C   UNL A   1      32.087  26.588  24.439  1.00  0.00     0.195 C 
ATOM      6  C   UNL A   1      31.336  28.678  23.435  1.00  0.00     0.053 C 
ATOM      7  C   UNL A   1      32.819  28.579  23.137  1.00  0.00     0.022 C 
ATOM      8  C   UNL A   1      30.962  27.201  23.569  1.00  0.00     0.095 C 
ATOM      9  C   UNL A   1      33.312  27.493  24.101  1.00  0.00     0.082 C 
BRANCH   6  10
ATOM     10  S   UNL A   1      30.167  29.501  22.300  1.00  0.00    -0.158 SA
BRANCH  10  11
ATOM     11  C   UNL A   1      29.108  30.544  23.354  1.00  0.00     0.069 C 
BRANCH  11  12
ATOM     12  C   UNL A   1      27.615  30.271  23.176  1.00  0.00     0.007 C 
ATOM     13  C   UNL A   1      27.252  28.799  23.093  1.00  0.00     0.005 C 
ENDBRANCH  11  12
ENDBRANCH  10  11
ENDBRANCH   6  10
BRANCH   5  14
ATOM     14  N   UNL A   1      32.416  25.194  24.025  1.00  0.00    -0.332 N 
ATOM     15  H   UNL A   1      31.613  24.833  23.512  1.00  0.00     0.347 HD
ATOM     16  H   UNL A   1      32.636  24.714  24.898  1.00  0.00     0.347 HD
BRANCH  14  17
ATOM     17  C   UNL A   1      33.601  24.990  23.184  1.00  0.00     0.257 C 
ATOM     18  C   UNL A   1      34.507  23.822  23.554  1.00  0.00     0.071 C 
ENDBRANCH  14  17
ENDBRANCH   5  14
ENDBRANCH   3   5
ENDBRANCH   2   3
ENDBRANCH   1   2
BRANCH   1  19
ATOM     19  C   UNL A   1      31.744  29.767  26.811  1.00  0.00     0.275 C 
BRANCH  19  20
ATOM     20  O   UNL A   1      33.080  30.203  26.514  1.00  0.00    -0.458 OA
BRANCH  20  21
ATOM     21  C   UNL A   1      33.547  31.238  27.245  1.00  0.00     0.338 C 
ATOM     22  O   UNL A   1      32.956  32.280  27.497  1.00  0.00    -0.246 OA
BRANCH  21  23
ATOM     23  C   UNL A   1      34.911  30.943  27.722  1.00  0.00     0.060 A 
ATOM     24  C   UNL A   1      35.276  29.638  28.052  1.00  0.00     0.016 A 
ATOM     25  C   UNL A   1      35.804  31.988  27.951  1.00  0.00     0.016 A 
ATOM     26  C   UNL A   1      36.483  29.384  28.701  1.00  0.00     0.010 A 
ATOM     27  C   UNL A   1      37.061  31.716  28.502  1.00  0.00     0.010 A 
ATOM     28  C   UNL A   1      37.403  30.415  28.918  1.00  0.00    -0.014 A 
BRANCH  28  29
ATOM     29  C   UNL A   1      38.695  30.166  29.621  1.00  0.00     0.031 A 
ATOM     30  C   UNL A   1      39.710  29.245  28.996  1.00  0.00     0.074 A 
ATOM     31  C   UNL A   1      38.969  30.738  30.811  1.00  0.00     0.049 A 
ATOM     32  N   UNL A   1      40.717  28.620  29.549  1.00  0.00    -0.248 NA
ATOM     33  C   UNL A   1      39.546  28.974  27.560  1.00  0.00     0.031 C 
ATOM     34  C   UNL A   1      38.131  31.723  31.499  1.00  0.00     0.029 A 
ATOM     35  N   UNL A   1      40.035  30.565  31.661  1.00  0.00    -0.354 N 
ATOM     36  C   UNL A   1      41.260  27.820  28.548  1.00  0.00     0.074 A 
ATOM     37  C   UNL A   1      40.470  28.048  27.355  1.00  0.00     0.031 C 
ATOM     38  C   UNL A   1      38.728  32.087  32.644  1.00  0.00     0.029 A 
ATOM     39  C   UNL A   1      39.926  31.279  32.832  1.00  0.00     0.049 A 
ATOM     40  H   UNL A   1      40.804  29.987  31.452  1.00  0.00     0.167 HD
ATOM     41  C   UNL A   1      42.311  26.966  28.629  1.00  0.00     0.034 A 
ATOM     42  C   UNL A   1      40.660  31.238  33.962  1.00  0.00     0.034 A 
ATOM     43  C   UNL A   1      43.120  26.807  29.816  1.00  0.00     0.049 A 
ATOM     44  C   UNL A   1      41.795  30.253  34.054  1.00  0.00     0.074 A 
ATOM     45  C   UNL A   1      44.198  25.962  30.023  1.00  0.00     0.029 A 
ATOM     46  N   UNL A   1      42.953  27.529  30.991  1.00  0.00    -0.354 N 
ATOM     47  N   UNL A   1      42.215  29.391  33.156  1.00  0.00    -0.248 NA
ATOM     48  C   UNL A   1      42.538  30.214  35.320  1.00  0.00     0.031 C 
ATOM     49  C   UNL A   1      44.655  26.145  31.335  1.00  0.00     0.029 A 
ATOM     50  C   UNL A   1      43.900  27.144  31.927  1.00  0.00     0.049 A 
ATOM     51  H   UNL A   1      42.261  28.213  31.138  1.00  0.00     0.167 HD
ATOM     52  C   UNL A   1      43.274  28.713  33.749  1.00  0.00     0.074 A 
ATOM     53  C   UNL A   1      43.441  29.277  35.073  1.00  0.00     0.031 C 
ATOM     54  C   UNL A   1      44.040  27.713  33.246  1.00  0.00     0.034 A 
BRANCH  41  55
ATOM     55  C   UNL A   1      42.592  26.090  27.432  1.00  0.00     0.023 A 
ATOM     56  C   UNL A   1      42.118  24.770  27.338  1.00  0.00     0.031 A 
ATOM     57  C   UNL A   1      43.385  26.581  26.379  1.00  0.00     0.131 A 
ATOM     58  C   UNL A   1      42.498  23.967  26.251  1.00  0.00     0.055 A 
ATOM     59  C   UNL A   1      43.697  25.803  25.263  1.00  0.00     0.041 A 
ATOM     60  F   UNL A   1      43.884  27.827  26.422  1.00  0.00    -0.206 F 
ATOM     61  C   UNL A   1      43.265  24.481  25.202  1.00  0.00     0.022 A 
BRANCH  58  62
ATOM     62  S   UNL A   1      42.088  22.201  26.288  1.00  0.00     0.124 S 
ATOM     63  O   UNL A   1      40.635  22.228  26.140  1.00  0.00    -0.237 OA
ATOM     64  O   UNL A   1      42.836  21.677  25.151  1.00  0.00    -0.237 OA
ATOM     65  O   UNL A   1      42.564  21.765  27.600  1.00  0.00    -0.744 OA
ENDBRANCH  58  62
ENDBRANCH  41  55
BRANCH  42  66
ATOM     66  C   UNL A   1      40.286  32.081  35.133  1.00  0.00     0.023 A 
ATOM     67  C   UNL A   1      39.323  31.650  36.059  1.00  0.00     0.031 A 
ATOM     68  C   UNL A   1      40.872  33.345  35.331  1.00  0.00     0.131 A 
ATOM     69  C   UNL A   1      38.955  32.487  37.124  1.00  0.00     0.055 A 
ATOM     70  C   UNL A   1      40.542  34.151  36.420  1.00  0.00     0.041 A 
ATOM     71  F   UNL A   1      41.795  33.807  34.471  1.00  0.00    -0.206 F 
ATOM     72  C   UNL A   1      39.570  33.726  37.321  1.00  0.00     0.022 A 
BRANCH  69  73
ATOM     73  S   UNL A   1      37.608  31.962  38.220  1.00  0.00     0.124 S 
ATOM     74  O   UNL A   1      36.588  32.966  37.940  1.00  0.00    -0.237 OA
ATOM     75  O   UNL A   1      37.332  30.613  37.737  1.00  0.00    -0.237 OA
ATOM     76  O   UNL A   1      38.205  32.035  39.553  1.00  0.00    -0.744 OA
ENDBRANCH  69  73
ENDBRANCH  42  66
BRANCH  54  77
ATOM     77  C   UNL A   1      45.153  27.208  34.125  1.00  0.00     0.023 A 
ATOM     78  C   UNL A   1      46.437  27.779  34.088  1.00  0.00     0.031 A 
ATOM     79  C   UNL A   1      44.925  26.130  34.997  1.00  0.00     0.131 A 
ATOM     80  C   UNL A   1      47.461  27.236  34.880  1.00  0.00     0.055 A 
ATOM     81  C   UNL A   1      45.936  25.624  35.814  1.00  0.00     0.041 A 
ATOM     82  F   UNL A   1      43.716  25.552  35.065  1.00  0.00    -0.206 F 
ATOM     83  C   UNL A   1      47.215  26.171  35.752  1.00  0.00     0.022 A 
BRANCH  80  84
ATOM     84  S   UNL A   1      49.140  27.904  34.716  1.00  0.00     0.124 S 
ATOM     85  O   UNL A   1      49.031  29.175  35.425  1.00  0.00    -0.237 OA
ATOM     86  O   UNL A   1      49.950  26.879  35.366  1.00  0.00    -0.237 OA
ATOM     87  O   UNL A   1      49.325  28.015  33.270  1.00  0.00    -0.744 OA
ENDBRANCH  80  84
ENDBRANCH  54  77
ENDBRANCH  28  29
ENDBRANCH  21  23
ENDBRANCH  20  21
ENDBRANCH  19  20
ENDBRANCH   1  19
TORSDOF 19
ENDMDL
MODEL 2
REMARK VINA RESULT:     -10.2      1.525      1.907
REMARK SMILES CCCS[C@@H]1CC[C@@]([NH2+]CC)(C(=O)OCCOC(=O)c2ccc(-c3c4nc(c(-c5cc(S(=O)(=O)[O-])ccc5F)c5ccc([nH]5)c(-c5cc(S(=O)(=O)[O-])ccc5F)c5nc(c(-c6cc(S(=O)(=O)[O-])ccc6F)c6ccc3[nH]6)C=C5)C=C4)cc2)C1
REMARK SMILES IDX 15 1 14 2 12 3 13 4 8 5 5 6 6 7 83 8 7 9 4 10 3 11 2 12 1 13
REMARK SMILES IDX 9 14 10 17 11 18 16 19 17 20 18 21 19 22 20 23 21 24 82 25
REMARK SMILES IDX 22 26 81 27 23 28 24 29 25 30 75 31 26 32 80 33 74 34 76 35
REMARK SMILES IDX 27 36 79 37 73 38 72 39 28 41 60 42 40 43 59 44 41 45 44 46
REMARK SMILES IDX 58 47 77 48 42 49 43 50 57 52 78 53 45 54 29 55 30 56 38 57
REMARK SMILES IDX 31 58 37 59 39 60 36 61 32 62 33 63 34 64 35 65 61 66 62 67
REMARK SMILES IDX 70 68 63 69 69 70 71 71 68 72 64 73 65 74 66 75 67 76 46 77
REMARK SMILES IDX 47 78 55 79 48 80 54 81 56 82 53 83 49 84 50 85 51 86 52 87
REMARK H PARENT 9 15 9 16 76 40 44 51
REMARK Flexibility Score: inf
ROOT
ATOM      1  C   UNL A   1      31.770  28.257  27.005  1.00  0.00     0.274 C 
ENDROOT
BRANCH   1   2
ATOM      2  O   UNL A   1      31.850  27.407  25.843  1.00  0.00    -0.457 OA
BRANCH   2   3
ATOM      3  C   UNL A   1      30.819  26.533  25.672  1.00  0.00     0.368 C 
ATOM      4  O   UNL A   1      30.257  25.969  26.607  1.00  0.00    -0.245 OA
BRANCH   3   5
ATOM      5  C   UNL A   1      30.462  26.268  24.173  1.00  0.00     0.195 C 
ATOM      6  C   UNL A   1      29.239  28.216  23.368  1.00  0.00     0.053 C 
ATOM      7  C   UNL A   1      30.404  28.030  22.416  1.00  0.00     0.022 C 
ATOM      8  C   UNL A   1      29.034  26.785  23.867  1.00  0.00     0.095 C 
ATOM      9  C   UNL A   1      31.341  27.077  23.170  1.00  0.00     0.082 C 
BRANCH   6  10
ATOM     10  S   UNL A   1      27.638  28.905  22.824  1.00  0.00    -0.158 SA
BRANCH  10  11
ATOM     11  C   UNL A   1      28.048  30.373  21.826  1.00  0.00     0.069 C 
BRANCH  11  12
ATOM     12  C   UNL A   1      28.995  31.344  22.531  1.00  0.00     0.007 C 
ATOM     13  C   UNL A   1      28.558  32.797  22.476  1.00  0.00     0.005 C 
ENDBRANCH  11  12
ENDBRANCH  10  11
ENDBRANCH   6  10
BRANCH   5  14
ATOM     14  N   UNL A   1      30.611  24.820  23.850  1.00  0.00    -0.332 N 
ATOM     15  H   UNL A   1      29.759  24.526  23.373  1.00  0.00     0.347 HD
ATOM     16  H   UNL A   1      30.789  24.375  24.751  1.00  0.00     0.347 HD
BRANCH  14  17
ATOM     17  C   UNL A   1      31.745  24.417  23.010  1.00  0.00     0.257 C 
ATOM     18  C   UNL A   1      32.263  22.997  23.199  1.00  0.00     0.071 C 
ENDBRANCH  14  17
ENDBRANCH   5  14
ENDBRANCH   3   5
ENDBRANCH   2   3
ENDBRANCH   1   2
BRANCH   1  19
ATOM     19  C   UNL A   1      31.733  29.731  26.608  1.00  0.00     0.275 C 
BRANCH  19  20
ATOM     20  O   UNL A   1      33.070  30.205  26.386  1.00  0.00    -0.458 OA
BRANCH  20  21
ATOM     21  C   UNL A   1      33.492  31.202  27.193  1.00  0.00     0.338 C 
ATOM     22  O   UNL A   1      32.863  32.205  27.507  1.00  0.00    -0.246 OA
BRANCH  21  23
ATOM     23  C   UNL A   1      34.860  30.920  27.670  1.00  0.00     0.060 A 
ATOM     24  C   UNL A   1      35.240  29.617  27.991  1.00  0.00     0.016 A 
ATOM     25  C   UNL A   1      35.739  31.974  27.907  1.00  0.00     0.016 A 
ATOM     26  C   UNL A   1      36.449  29.373  28.640  1.00  0.00     0.010 A 
ATOM     27  C   UNL A   1      36.998  31.713  28.458  1.00  0.00     0.010 A 
ATOM     28  C   UNL A   1      37.356  30.414  28.865  1.00  0.00    -0.014 A 
BRANCH  28  29
ATOM     29  C   UNL A   1      38.650  30.175  29.567  1.00  0.00     0.031 A 
ATOM     30  C   UNL A   1      39.669  29.256  28.946  1.00  0.00     0.074 A 
ATOM     31  C   UNL A   1      38.923  30.754  30.754  1.00  0.00     0.049 A 
ATOM     32  N   UNL A   1      40.680  28.639  29.500  1.00  0.00    -0.248 NA
ATOM     33  C   UNL A   1      39.504  28.976  27.512  1.00  0.00     0.031 C 
ATOM     34  C   UNL A   1      38.081  31.739  31.438  1.00  0.00     0.029 A 
ATOM     35  N   UNL A   1      39.991  30.592  31.604  1.00  0.00    -0.354 N 
ATOM     36  C   UNL A   1      41.226  27.836  28.503  1.00  0.00     0.074 A 
ATOM     37  C   UNL A   1      40.433  28.053  27.310  1.00  0.00     0.031 C 
ATOM     38  C   UNL A   1      38.677  32.112  32.580  1.00  0.00     0.029 A 
ATOM     39  C   UNL A   1      39.879  31.311  32.771  1.00  0.00     0.049 A 
ATOM     40  H   UNL A   1      40.763  30.016  31.396  1.00  0.00     0.167 HD
ATOM     41  C   UNL A   1      42.282  26.988  28.588  1.00  0.00     0.034 A 
ATOM     42  C   UNL A   1      40.616  31.280  33.900  1.00  0.00     0.034 A 
ATOM     43  C   UNL A   1      43.093  26.840  29.774  1.00  0.00     0.049 A 
ATOM     44  C   UNL A   1      41.756  30.301  33.996  1.00  0.00     0.074 A 
ATOM     45  C   UNL A   1      44.176  26.001  29.985  1.00  0.00     0.029 A 
ATOM     46  N   UNL A   1      42.923  27.567  30.946  1.00  0.00    -0.354 N 
ATOM     47  N   UNL A   1      42.178  29.436  33.102  1.00  0.00    -0.248 NA
ATOM     48  C   UNL A   1      42.500  30.273  35.261  1.00  0.00     0.031 C 
ATOM     49  C   UNL A   1      44.633  26.193  31.295  1.00  0.00     0.029 A 
ATOM     50  C   UNL A   1      43.873  27.192  31.883  1.00  0.00     0.049 A 
ATOM     51  H   UNL A   1      42.228  28.249  31.090  1.00  0.00     0.167 HD
ATOM     52  C   UNL A   1      43.242  28.767  33.697  1.00  0.00     0.074 A 
ATOM     53  C   UNL A   1      43.408  29.339  35.018  1.00  0.00     0.031 C 
ATOM     54  C   UNL A   1      44.013  27.768  33.199  1.00  0.00     0.034 A 
BRANCH  41  55
ATOM     55  C   UNL A   1      42.565  26.107  27.395  1.00  0.00     0.023 A 
ATOM     56  C   UNL A   1      42.106  24.781  27.313  1.00  0.00     0.031 A 
ATOM     57  C   UNL A   1      43.346  26.600  26.334  1.00  0.00     0.131 A 
ATOM     58  C   UNL A   1      42.489  23.975  26.229  1.00  0.00     0.055 A 
ATOM     59  C   UNL A   1      43.660  25.817  25.222  1.00  0.00     0.041 A 
ATOM     60  F   UNL A   1      43.832  27.851  26.366  1.00  0.00    -0.206 F 
ATOM     61  C   UNL A   1      43.243  24.491  25.172  1.00  0.00     0.022 A 
BRANCH  58  62
ATOM     62  S   UNL A   1      42.099  22.204  26.281  1.00  0.00     0.124 S 
ATOM     63  O   UNL A   1      42.887  21.692  25.162  1.00  0.00    -0.237 OA
ATOM     64  O   UNL A   1      42.555  21.819  27.612  1.00  0.00    -0.237 OA
ATOM     65  O   UNL A   1      40.652  22.165  26.083  1.00  0.00    -0.744 OA
ENDBRANCH  58  62
ENDBRANCH  41  55
BRANCH  42  66
ATOM     66  C   UNL A   1      40.238  32.127  35.067  1.00  0.00     0.023 A 
ATOM     67  C   UNL A   1      39.302  31.683  36.013  1.00  0.00     0.031 A 
ATOM     68  C   UNL A   1      40.794  33.408  35.240  1.00  0.00     0.131 A 
ATOM     69  C   UNL A   1      38.930  32.523  37.075  1.00  0.00     0.055 A 
ATOM     70  C   UNL A   1      40.461  34.219  36.325  1.00  0.00     0.041 A 
ATOM     71  F   UNL A   1      41.691  33.883  34.360  1.00  0.00    -0.206 F 
ATOM     72  C   UNL A   1      39.516  33.780  37.246  1.00  0.00     0.022 A 
BRANCH  69  73
ATOM     73  S   UNL A   1      37.615  31.977  38.199  1.00  0.00     0.124 S 
ATOM     74  O   UNL A   1      37.353  30.626  37.717  1.00  0.00    -0.237 OA
ATOM     75  O   UNL A   1      38.266  32.080  39.501  1.00  0.00    -0.237 OA
ATOM     76  O   UNL A   1      36.543  32.943  37.962  1.00  0.00    -0.744 OA
ENDBRANCH  69  73
ENDBRANCH  42  66
BRANCH  54  77
ATOM     77  C   UNL A   1      45.130  27.274  34.078  1.00  0.00     0.023 A 
ATOM     78  C   UNL A   1      44.960  26.176  34.938  1.00  0.00     0.031 A 
ATOM     79  C   UNL A   1      46.374  27.927  34.065  1.00  0.00     0.131 A 
ATOM     80  C   UNL A   1      46.009  25.788  35.785  1.00  0.00     0.055 A 
ATOM     81  C   UNL A   1      47.428  27.509  34.878  1.00  0.00     0.041 A 
ATOM     82  F   UNL A   1      46.583  28.982  33.262  1.00  0.00    -0.206 F 
ATOM     83  C   UNL A   1      47.245  26.440  35.752  1.00  0.00     0.022 A 
BRANCH  80  84
ATOM     84  S   UNL A   1      45.720  24.453  36.980  1.00  0.00     0.124 S 
ATOM     85  O   UNL A   1      44.433  23.925  36.539  1.00  0.00    -0.237 OA
ATOM     86  O   UNL A   1      46.873  23.584  36.764  1.00  0.00    -0.237 OA
ATOM     87  O   UNL A   1      45.698  25.144  38.268  1.00  0.00    -0.744 OA
ENDBRANCH  80  84
ENDBRANCH  54  77
ENDBRANCH  28  29
ENDBRANCH  21  23
ENDBRANCH  20  21
ENDBRANCH  19  20
ENDBRANCH   1  19
TORSDOF 19
ENDMDL
MODEL 3
REMARK VINA RESULT:     -10.0      2.400      3.439
REMARK SMILES CCCS[C@@H]1CC[C@@]([NH2+]CC)(C(=O)OCCOC(=O)c2ccc(-c3c4nc(c(-c5cc(S(=O)(=O)[O-])ccc5F)c5ccc([nH]5)c(-c5cc(S(=O)(=O)[O-])ccc5F)c5nc(c(-c6cc(S(=O)(=O)[O-])ccc6F)c6ccc3[nH]6)C=C5)C=C4)cc2)C1
REMARK SMILES IDX 15 1 14 2 12 3 13 4 8 5 5 6 6 7 83 8 7 9 4 10 3 11 2 12 1 13
REMARK SMILES IDX 9 14 10 17 11 18 16 19 17 20 18 21 19 22 20 23 21 24 82 25
REMARK SMILES IDX 22 26 81 27 23 28 24 29 25 30 75 31 26 32 80 33 74 34 76 35
REMARK SMILES IDX 27 36 79 37 73 38 72 39 28 41 60 42 40 43 59 44 41 45 44 46
REMARK SMILES IDX 58 47 77 48 42 49 43 50 57 52 78 53 45 54 29 55 30 56 38 57
REMARK SMILES IDX 31 58 37 59 39 60 36 61 32 62 33 63 34 64 35 65 61 66 62 67
REMARK SMILES IDX 70 68 63 69 69 70 71 71 68 72 64 73 65 74 66 75 67 76 46 77
REMARK SMILES IDX 47 78 55 79 48 80 54 81 56 82 53 83 49 84 50 85 51 86 52 87
REMARK H PARENT 9 15 9 16 76 40 44 51
REMARK Flexibility Score: inf
ROOT
ATOM      1  C   UNL A   1      31.601  28.054  26.697  1.00  0.00     0.274 C 
ENDROOT
BRANCH   1   2
ATOM      2  O   UNL A   1      31.029  27.080  25.800  1.00  0.00    -0.457 OA
BRANCH   2   3
ATOM      3  C   UNL A   1      31.576  25.833  25.846  1.00  0.00     0.368 C 
ATOM      4  O   UNL A   1      31.326  25.025  26.735  1.00  0.00    -0.245 OA
BRANCH   3   5
ATOM      5  C   UNL A   1      32.599  25.553  24.696  1.00  0.00     0.195 C 
ATOM      6  C   UNL A   1      32.762  23.134  24.449  1.00  0.00     0.053 C 
ATOM      7  C   UNL A   1      32.403  23.672  23.078  1.00  0.00     0.022 C 
ATOM      8  C   UNL A   1      33.486  24.336  25.059  1.00  0.00     0.095 C 
ATOM      9  C   UNL A   1      31.929  25.103  23.361  1.00  0.00     0.082 C 
BRANCH   6  10
ATOM     10  S   UNL A   1      33.779  21.635  24.671  1.00  0.00    -0.158 SA
BRANCH  10  11
ATOM     11  C   UNL A   1      35.322  22.199  25.457  1.00  0.00     0.069 C 
BRANCH  11  12
ATOM     12  C   UNL A   1      36.544  22.093  24.545  1.00  0.00     0.007 C 
ATOM     13  C   UNL A   1      36.454  22.922  23.276  1.00  0.00     0.005 C 
ENDBRANCH  11  12
ENDBRANCH  10  11
ENDBRANCH   6  10
BRANCH   5  14
ATOM     14  N   UNL A   1      33.413  26.771  24.415  1.00  0.00    -0.332 N 
ATOM     15  H   UNL A   1      34.393  26.491  24.431  1.00  0.00     0.347 HD
ATOM     16  H   UNL A   1      33.131  27.437  25.135  1.00  0.00     0.347 HD
BRANCH  14  17
ATOM     17  C   UNL A   1      33.179  27.475  23.149  1.00  0.00     0.257 C 
ATOM     18  C   UNL A   1      33.968  28.759  22.927  1.00  0.00     0.071 C 
ENDBRANCH  14  17
ENDBRANCH   5  14
ENDBRANCH   3   5
ENDBRANCH   2   3
ENDBRANCH   1   2
BRANCH   1  19
ATOM     19  C   UNL A   1      31.557  29.454  26.090  1.00  0.00     0.275 C 
BRANCH  19  20
ATOM     20  O   UNL A   1      32.884  30.002  26.043  1.00  0.00    -0.458 OA
BRANCH  20  21
ATOM     21  C   UNL A   1      33.160  30.978  26.935  1.00  0.00     0.338 C 
ATOM     22  O   UNL A   1      32.419  31.894  27.269  1.00  0.00    -0.246 OA
BRANCH  21  23
ATOM     23  C   UNL A   1      34.518  30.794  27.480  1.00  0.00     0.060 A 
ATOM     24  C   UNL A   1      35.009  29.513  27.733  1.00  0.00     0.016 A 
ATOM     25  C   UNL A   1      35.272  31.906  27.847  1.00  0.00     0.016 A 
ATOM     26  C   UNL A   1      36.196  29.338  28.441  1.00  0.00     0.010 A 
ATOM     27  C   UNL A   1      36.517  31.727  28.460  1.00  0.00     0.010 A 
ATOM     28  C   UNL A   1      36.979  30.440  28.798  1.00  0.00    -0.014 A 
BRANCH  28  29
ATOM     29  C   UNL A   1      38.247  30.275  29.566  1.00  0.00     0.031 A 
ATOM     30  C   UNL A   1      39.363  29.450  28.979  1.00  0.00     0.074 A 
ATOM     31  C   UNL A   1      38.412  30.837  30.780  1.00  0.00     0.049 A 
ATOM     32  N   UNL A   1      40.385  28.891  29.574  1.00  0.00    -0.248 NA
ATOM     33  C   UNL A   1      39.297  29.202  27.532  1.00  0.00     0.031 C 
ATOM     34  C   UNL A   1      37.465  31.739  31.440  1.00  0.00     0.029 A 
ATOM     35  N   UNL A   1      39.442  30.727  31.683  1.00  0.00    -0.354 N 
ATOM     36  C   UNL A   1      41.041  28.159  28.589  1.00  0.00     0.074 A 
ATOM     37  C   UNL A   1      40.300  28.354  27.359  1.00  0.00     0.031 C 
ATOM     38  C   UNL A   1      37.969  32.120  32.623  1.00  0.00     0.029 A 
ATOM     39  C   UNL A   1      39.215  31.402  32.860  1.00  0.00     0.049 A 
ATOM     40  H   UNL A   1      40.264  30.215  31.505  1.00  0.00     0.167 HD
ATOM     41  C   UNL A   1      42.150  27.387  28.711  1.00  0.00     0.034 A 
ATOM     42  C   UNL A   1      39.889  31.391  34.027  1.00  0.00     0.034 A 
ATOM     43  C   UNL A   1      42.905  27.263  29.936  1.00  0.00     0.049 A 
ATOM     44  C   UNL A   1      41.091  30.495  34.163  1.00  0.00     0.074 A 
ATOM     45  C   UNL A   1      44.033  26.499  30.186  1.00  0.00     0.029 A 
ATOM     46  N   UNL A   1      42.619  27.941  31.115  1.00  0.00    -0.354 N 
ATOM     47  N   UNL A   1      41.624  29.689  33.272  1.00  0.00    -0.248 NA
ATOM     48  C   UNL A   1      41.766  30.482  35.467  1.00  0.00     0.031 C 
ATOM     49  C   UNL A   1      44.404  26.685  31.524  1.00  0.00     0.029 A 
ATOM     50  C   UNL A   1      43.542  27.608  32.094  1.00  0.00     0.049 A 
ATOM     51  H   UNL A   1      41.869  28.567  31.237  1.00  0.00     0.167 HD
ATOM     52  C   UNL A   1      42.700  29.081  33.909  1.00  0.00     0.074 A 
ATOM     53  C   UNL A   1      42.752  29.624  35.251  1.00  0.00     0.031 C 
ATOM     54  C   UNL A   1      43.568  28.154  33.429  1.00  0.00     0.034 A 
BRANCH  41  55
ATOM     55  C   UNL A   1      42.561  26.564  27.514  1.00  0.00     0.023 A 
ATOM     56  C   UNL A   1      42.122  25.243  27.322  1.00  0.00     0.031 A 
ATOM     57  C   UNL A   1      43.446  27.107  26.565  1.00  0.00     0.131 A 
ATOM     58  C   UNL A   1      42.620  24.489  26.247  1.00  0.00     0.055 A 
ATOM     59  C   UNL A   1      43.879  26.379  25.455  1.00  0.00     0.041 A 
ATOM     60  F   UNL A   1      43.918  28.357  26.706  1.00  0.00    -0.206 F 
ATOM     61  C   UNL A   1      43.477  25.056  25.300  1.00  0.00     0.022 A 
BRANCH  58  62
ATOM     62  S   UNL A   1      42.238  22.718  26.175  1.00  0.00     0.124 S 
ATOM     63  O   UNL A   1      40.778  22.724  26.244  1.00  0.00    -0.237 OA
ATOM     64  O   UNL A   1      42.815  22.321  24.895  1.00  0.00    -0.237 OA
ATOM     65  O   UNL A   1      42.907  22.173  27.354  1.00  0.00    -0.744 OA
ENDBRANCH  58  62
ENDBRANCH  41  55
BRANCH  42  66
ATOM     66  C   UNL A   1      39.388  32.174  35.193  1.00  0.00     0.023 A 
ATOM     67  C   UNL A   1      39.826  33.487  35.427  1.00  0.00     0.031 A 
ATOM     68  C   UNL A   1      38.480  31.609  36.106  1.00  0.00     0.131 A 
ATOM     69  C   UNL A   1      39.374  34.181  36.561  1.00  0.00     0.055 A 
ATOM     70  C   UNL A   1      37.993  32.321  37.203  1.00  0.00     0.041 A 
ATOM     71  F   UNL A   1      38.033  30.354  35.931  1.00  0.00    -0.206 F 
ATOM     72  C   UNL A   1      38.448  33.613  37.440  1.00  0.00     0.022 A 
BRANCH  69  73
ATOM     73  S   UNL A   1      40.067  35.821  36.912  1.00  0.00     0.124 S 
ATOM     74  O   UNL A   1      39.713  36.558  35.704  1.00  0.00    -0.237 OA
ATOM     75  O   UNL A   1      39.352  36.199  38.127  1.00  0.00    -0.237 OA
ATOM     76  O   UNL A   1      41.494  35.557  37.087  1.00  0.00    -0.744 OA
ENDBRANCH  69  73
ENDBRANCH  42  66
BRANCH  54  77
ATOM     77  C   UNL A   1      44.669  27.716  34.358  1.00  0.00     0.023 A 
ATOM     78  C   UNL A   1      44.512  26.618  35.220  1.00  0.00     0.031 A 
ATOM     79  C   UNL A   1      45.884  28.422  34.388  1.00  0.00     0.131 A 
ATOM     80  C   UNL A   1      45.542  26.284  36.112  1.00  0.00     0.055 A 
ATOM     81  C   UNL A   1      46.921  28.057  35.246  1.00  0.00     0.041 A 
ATOM     82  F   UNL A   1      46.079  29.479  33.583  1.00  0.00    -0.206 F 
ATOM     83  C   UNL A   1      46.750  26.988  36.122  1.00  0.00     0.022 A 
BRANCH  80  84
ATOM     84  S   UNL A   1      45.264  24.947  37.307  1.00  0.00     0.124 S 
ATOM     85  O   UNL A   1      45.213  23.772  36.442  1.00  0.00    -0.237 OA
ATOM     86  O   UNL A   1      46.434  25.050  38.173  1.00  0.00    -0.237 OA
ATOM     87  O   UNL A   1      43.995  25.308  37.936  1.00  0.00    -0.744 OA
ENDBRANCH  80  84
ENDBRANCH  54  77
ENDBRANCH  28  29
ENDBRANCH  21  23
ENDBRANCH  20  21
ENDBRANCH  19  20
ENDBRANCH   1  19
TORSDOF 19
ENDMDL
