MODEL 1
REMARK VINA RESULT:     -11.7      0.000      0.000
REMARK SMILES CC(=O)N[C@@H](C(=O)OCCOC(=O)c1ccc(-c2c3nc(c(-c4cc(S(=O)(=O)[O-])ccc4F)c4ccc([nH]4)c(-c4cc(S(=O)(=O)[O-])ccc4F)c4nc(c(-c5cc(S(=O)(=O)[O-])ccc5F)c5ccc2[nH]5)C=C4)C=C3)cc1)C(c1ccccc1)c1ccccc1
REMARK SMILES IDX 10 1 9 2 8 3 6 4 7 5 5 6 4 7 1 8 2 9 3 10 77 12 78 13 79 14
REMARK SMILES IDX 83 15 80 16 82 17 81 18 84 19 85 20 89 21 86 22 88 23 87 24
REMARK SMILES IDX 11 25 12 26 13 27 14 28 15 29 76 30 16 31 75 32 17 33 18 34
REMARK SMILES IDX 19 35 69 36 20 37 74 38 68 39 70 40 21 41 73 42 67 43 66 44
REMARK SMILES IDX 22 46 54 47 34 48 53 49 35 50 38 51 52 52 71 53 36 54 37 55
REMARK SMILES IDX 51 57 72 58 39 59 23 60 24 61 32 62 25 63 31 64 33 65 30 66
REMARK SMILES IDX 26 67 27 68 28 69 29 70 55 71 56 72 64 73 57 74 63 75 65 76
REMARK SMILES IDX 62 77 58 78 59 79 60 80 61 81 40 82 41 83 49 84 42 85 48 86
REMARK SMILES IDX 50 87 47 88 43 89 44 90 45 91 46 92
REMARK H PARENT 4 11 70 45 38 56
REMARK Flexibility Score: inf
ROOT
ATOM      1  C   UNL A   1      36.718  22.494  23.870  1.00  0.00     0.275 C 
ENDROOT
BRANCH   1   2
ATOM      2  C   UNL A   1      35.287  22.642  23.348  1.00  0.00     0.274 C 
BRANCH   2   3
ATOM      3  O   UNL A   1      34.864  24.023  23.299  1.00  0.00    -0.461 OA
BRANCH   3   4
ATOM      4  C   UNL A   1      33.637  24.268  22.742  1.00  0.00     0.329 C 
ATOM      5  O   UNL A   1      33.376  23.980  21.582  1.00  0.00    -0.250 OA
BRANCH   4   6
ATOM      6  C   UNL A   1      32.696  25.086  23.693  1.00  0.00     0.204 C 
BRANCH   6   7
ATOM      7  N   UNL A   1      32.216  26.288  22.973  1.00  0.00    -0.342 N 
ATOM      8  C   UNL A   1      29.849  26.103  23.675  1.00  0.00     0.114 C 
ATOM      9  C   UNL A   1      30.930  26.725  22.830  1.00  0.00     0.217 C 
ATOM     10  O   UNL A   1      30.669  27.617  22.026  1.00  0.00    -0.275 OA
ATOM     11  H   UNL A   1      32.909  26.840  22.545  1.00  0.00     0.164 HD
ENDBRANCH   6   7
BRANCH   6  12
ATOM     12  C   UNL A   1      33.375  25.405  25.086  1.00  0.00     0.083 C 
BRANCH  12  13
ATOM     13  C   UNL A   1      33.132  26.779  25.746  1.00  0.00    -0.038 A 
ATOM     14  C   UNL A   1      31.960  26.969  26.513  1.00  0.00     0.004 A 
ATOM     15  C   UNL A   1      34.030  27.851  25.698  1.00  0.00     0.004 A 
ATOM     16  C   UNL A   1      31.703  28.163  27.192  1.00  0.00     0.000 A 
ATOM     17  C   UNL A   1      33.788  29.041  26.399  1.00  0.00     0.000 A 
ATOM     18  C   UNL A   1      32.623  29.198  27.143  1.00  0.00     0.000 A 
ENDBRANCH  12  13
BRANCH  12  19
ATOM     19  C   UNL A   1      33.195  24.264  26.105  1.00  0.00    -0.038 A 
ATOM     20  C   UNL A   1      31.940  23.715  26.407  1.00  0.00     0.004 A 
ATOM     21  C   UNL A   1      34.324  23.716  26.741  1.00  0.00     0.004 A 
ATOM     22  C   UNL A   1      31.833  22.616  27.264  1.00  0.00     0.000 A 
ATOM     23  C   UNL A   1      34.211  22.645  27.626  1.00  0.00     0.000 A 
ATOM     24  C   UNL A   1      32.965  22.082  27.874  1.00  0.00     0.000 A 
ENDBRANCH  12  19
ENDBRANCH   6  12
ENDBRANCH   4   6
ENDBRANCH   3   4
ENDBRANCH   2   3
ENDBRANCH   1   2
BRANCH   1  25
ATOM     25  O   UNL A   1      36.729  21.978  25.211  1.00  0.00    -0.458 OA
BRANCH  25  26
ATOM     26  C   UNL A   1      37.920  21.479  25.611  1.00  0.00     0.338 C 
ATOM     27  O   UNL A   1      38.373  20.369  25.368  1.00  0.00    -0.246 OA
BRANCH  26  28
ATOM     28  C   UNL A   1      38.737  22.551  26.194  1.00  0.00     0.060 A 
ATOM     29  C   UNL A   1      38.223  23.837  26.061  1.00  0.00     0.016 A 
ATOM     30  C   UNL A   1      39.995  22.350  26.755  1.00  0.00     0.016 A 
ATOM     31  C   UNL A   1      38.947  24.939  26.498  1.00  0.00     0.010 A 
ATOM     32  C   UNL A   1      40.733  23.460  27.195  1.00  0.00     0.010 A 
ATOM     33  C   UNL A   1      40.210  24.762  27.070  1.00  0.00    -0.014 A 
BRANCH  33  34
ATOM     34  C   UNL A   1      40.989  25.971  27.435  1.00  0.00     0.031 A 
ATOM     35  C   UNL A   1      40.355  27.022  28.299  1.00  0.00     0.074 A 
ATOM     36  C   UNL A   1      42.290  26.067  27.103  1.00  0.00     0.049 A 
ATOM     37  N   UNL A   1      40.839  28.169  28.699  1.00  0.00    -0.248 NA
ATOM     38  C   UNL A   1      38.999  26.732  28.791  1.00  0.00     0.031 C 
ATOM     39  C   UNL A   1      43.046  25.051  26.369  1.00  0.00     0.029 A 
ATOM     40  N   UNL A   1      43.213  27.050  27.358  1.00  0.00    -0.354 N 
ATOM     41  C   UNL A   1      39.841  28.752  29.472  1.00  0.00     0.074 A 
ATOM     42  C   UNL A   1      38.725  27.826  29.484  1.00  0.00     0.031 C 
ATOM     43  C   UNL A   1      44.321  25.458  26.249  1.00  0.00     0.029 A 
ATOM     44  C   UNL A   1      44.460  26.788  26.837  1.00  0.00     0.049 A 
ATOM     45  H   UNL A   1      43.002  27.867  27.866  1.00  0.00     0.167 HD
ATOM     46  C   UNL A   1      39.851  29.954  30.100  1.00  0.00     0.034 A 
ATOM     47  C   UNL A   1      45.573  27.551  26.806  1.00  0.00     0.034 A 
ATOM     48  C   UNL A   1      40.966  30.868  30.067  1.00  0.00     0.049 A 
ATOM     49  C   UNL A   1      45.524  28.930  27.420  1.00  0.00     0.074 A 
ATOM     50  C   UNL A   1      41.060  32.140  30.610  1.00  0.00     0.029 A 
ATOM     51  N   UNL A   1      42.186  30.611  29.453  1.00  0.00    -0.354 N 
ATOM     52  N   UNL A   1      44.542  29.511  28.069  1.00  0.00    -0.248 NA
ATOM     53  C   UNL A   1      46.728  29.761  27.282  1.00  0.00     0.031 C 
ATOM     54  C   UNL A   1      42.311  32.670  30.274  1.00  0.00     0.029 A 
ATOM     55  C   UNL A   1      43.026  31.708  29.580  1.00  0.00     0.049 A 
ATOM     56  H   UNL A   1      42.421  29.772  28.995  1.00  0.00     0.167 HD
ATOM     57  C   UNL A   1      45.013  30.774  28.421  1.00  0.00     0.074 A 
ATOM     58  C   UNL A   1      46.376  30.857  27.938  1.00  0.00     0.031 C 
ATOM     59  C   UNL A   1      44.376  31.779  29.075  1.00  0.00     0.034 A 
BRANCH  46  60
ATOM     60  C   UNL A   1      38.577  30.377  30.783  1.00  0.00     0.023 A 
ATOM     61  C   UNL A   1      37.557  31.064  30.102  1.00  0.00     0.031 A 
ATOM     62  C   UNL A   1      38.409  30.137  32.158  1.00  0.00     0.131 A 
ATOM     63  C   UNL A   1      36.444  31.542  30.813  1.00  0.00     0.055 A 
ATOM     64  C   UNL A   1      37.269  30.554  32.846  1.00  0.00     0.041 A 
ATOM     65  F   UNL A   1      39.363  29.508  32.862  1.00  0.00    -0.206 F 
ATOM     66  C   UNL A   1      36.285  31.273  32.175  1.00  0.00     0.022 A 
BRANCH  63  67
ATOM     67  S   UNL A   1      35.275  32.638  29.965  1.00  0.00     0.124 S 
ATOM     68  O   UNL A   1      34.288  32.885  31.013  1.00  0.00    -0.237 OA
ATOM     69  O   UNL A   1      36.115  33.772  29.597  1.00  0.00    -0.237 OA
ATOM     70  O   UNL A   1      34.796  31.828  28.847  1.00  0.00    -0.744 OA
ENDBRANCH  63  67
ENDBRANCH  46  60
BRANCH  47  71
ATOM     71  C   UNL A   1      46.802  27.081  26.100  1.00  0.00     0.023 A 
ATOM     72  C   UNL A   1      47.879  26.517  26.804  1.00  0.00     0.031 A 
ATOM     73  C   UNL A   1      46.948  27.265  24.712  1.00  0.00     0.131 A 
ATOM     74  C   UNL A   1      49.068  26.199  26.126  1.00  0.00     0.055 A 
ATOM     75  C   UNL A   1      48.109  26.892  24.035  1.00  0.00     0.041 A 
ATOM     76  F   UNL A   1      45.957  27.811  23.991  1.00  0.00    -0.206 F 
ATOM     77  C   UNL A   1      49.184  26.368  24.744  1.00  0.00     0.022 A 
BRANCH  74  78
ATOM     78  S   UNL A   1      50.503  25.651  27.092  1.00  0.00     0.124 S 
ATOM     79  O   UNL A   1      50.631  26.726  28.070  1.00  0.00    -0.237 OA
ATOM     80  O   UNL A   1      50.046  24.365  27.609  1.00  0.00    -0.237 OA
ATOM     81  O   UNL A   1      51.573  25.578  26.101  1.00  0.00    -0.744 OA
ENDBRANCH  74  78
ENDBRANCH  47  71
BRANCH  59  82
ATOM     82  C   UNL A   1      45.166  33.039  29.321  1.00  0.00     0.023 A 
ATOM     83  C   UNL A   1      45.145  34.110  28.409  1.00  0.00     0.031 A 
ATOM     84  C   UNL A   1      45.957  33.167  30.476  1.00  0.00     0.131 A 
ATOM     85  C   UNL A   1      45.938  35.243  28.645  1.00  0.00     0.055 A 
ATOM     86  C   UNL A   1      46.705  34.317  30.730  1.00  0.00     0.041 A 
ATOM     87  F   UNL A   1      46.013  32.174  31.378  1.00  0.00    -0.206 F 
ATOM     88  C   UNL A   1      46.708  35.359  29.806  1.00  0.00     0.022 A 
BRANCH  85  89
ATOM     89  S   UNL A   1      46.010  36.537  27.375  1.00  0.00     0.124 S 
ATOM     90  O   UNL A   1      44.598  36.777  27.103  1.00  0.00    -0.237 OA
ATOM     91  O   UNL A   1      46.719  37.611  28.064  1.00  0.00    -0.237 OA
ATOM     92  O   UNL A   1      46.754  35.907  26.285  1.00  0.00    -0.744 OA
ENDBRANCH  85  89
ENDBRANCH  59  82
ENDBRANCH  33  34
ENDBRANCH  26  28
ENDBRANCH  25  26
ENDBRANCH   1  25
TORSDOF 18
ENDMDL
MODEL 2
REMARK VINA RESULT:     -11.6      4.920      9.640
REMARK SMILES CC(=O)N[C@@H](C(=O)OCCOC(=O)c1ccc(-c2c3nc(c(-c4cc(S(=O)(=O)[O-])ccc4F)c4ccc([nH]4)c(-c4cc(S(=O)(=O)[O-])ccc4F)c4nc(c(-c5cc(S(=O)(=O)[O-])ccc5F)c5ccc2[nH]5)C=C4)C=C3)cc1)C(c1ccccc1)c1ccccc1
REMARK SMILES IDX 10 1 9 2 8 3 6 4 7 5 5 6 4 7 1 8 2 9 3 10 77 12 78 13 79 14
REMARK SMILES IDX 83 15 80 16 82 17 81 18 84 19 85 20 89 21 86 22 88 23 87 24
REMARK SMILES IDX 11 25 12 26 13 27 14 28 15 29 76 30 16 31 75 32 17 33 18 34
REMARK SMILES IDX 19 35 69 36 20 37 74 38 68 39 70 40 21 41 73 42 67 43 66 44
REMARK SMILES IDX 22 46 54 47 34 48 53 49 35 50 38 51 52 52 71 53 36 54 37 55
REMARK SMILES IDX 51 57 72 58 39 59 23 60 24 61 32 62 25 63 31 64 33 65 30 66
REMARK SMILES IDX 26 67 27 68 28 69 29 70 55 71 56 72 64 73 57 74 63 75 65 76
REMARK SMILES IDX 62 77 58 78 59 79 60 80 61 81 40 82 41 83 49 84 42 85 48 86
REMARK SMILES IDX 50 87 47 88 43 89 44 90 45 91 46 92
REMARK H PARENT 4 11 70 45 38 56
REMARK Flexibility Score: inf
ROOT
ATOM      1  C   UNL A   1      31.820  30.715  26.066  1.00  0.00     0.275 C 
ENDROOT
BRANCH   1   2
ATOM      2  C   UNL A   1      31.697  29.470  25.185  1.00  0.00     0.274 C 
BRANCH   2   3
ATOM      3  O   UNL A   1      32.309  28.310  25.793  1.00  0.00    -0.461 OA
BRANCH   3   4
ATOM      4  C   UNL A   1      33.506  27.902  25.266  1.00  0.00     0.329 C 
ATOM      5  O   UNL A   1      34.517  28.587  25.331  1.00  0.00    -0.250 OA
BRANCH   4   6
ATOM      6  C   UNL A   1      33.382  26.567  24.453  1.00  0.00     0.204 C 
BRANCH   6   7
ATOM      7  N   UNL A   1      32.094  26.570  23.721  1.00  0.00    -0.342 N 
ATOM      8  C   UNL A   1      33.061  26.314  21.457  1.00  0.00     0.114 C 
ATOM      9  C   UNL A   1      31.893  26.581  22.371  1.00  0.00     0.217 C 
ATOM     10  O   UNL A   1      30.772  26.799  21.916  1.00  0.00    -0.275 OA
ATOM     11  H   UNL A   1      31.282  26.564  24.277  1.00  0.00     0.164 HD
ENDBRANCH   6   7
BRANCH   6  12
ATOM     12  C   UNL A   1      33.599  25.287  25.356  1.00  0.00     0.083 C 
BRANCH  12  13
ATOM     13  C   UNL A   1      32.393  24.381  25.684  1.00  0.00    -0.038 A 
ATOM     14  C   UNL A   1      32.425  23.029  25.275  1.00  0.00     0.004 A 
ATOM     15  C   UNL A   1      31.278  24.785  26.425  1.00  0.00     0.004 A 
ATOM     16  C   UNL A   1      31.400  22.133  25.590  1.00  0.00     0.000 A 
ATOM     17  C   UNL A   1      30.259  23.883  26.767  1.00  0.00     0.000 A 
ATOM     18  C   UNL A   1      30.319  22.559  26.346  1.00  0.00     0.000 A 
ENDBRANCH  12  13
BRANCH  12  19
ATOM     19  C   UNL A   1      34.813  24.450  24.910  1.00  0.00    -0.038 A 
ATOM     20  C   UNL A   1      35.836  24.076  25.793  1.00  0.00     0.004 A 
ATOM     21  C   UNL A   1      34.897  24.005  23.577  1.00  0.00     0.004 A 
ATOM     22  C   UNL A   1      36.869  23.234  25.368  1.00  0.00     0.000 A 
ATOM     23  C   UNL A   1      35.949  23.198  23.145  1.00  0.00     0.000 A 
ATOM     24  C   UNL A   1      36.927  22.796  24.047  1.00  0.00     0.000 A 
ENDBRANCH  12  19
ENDBRANCH   6  12
ENDBRANCH   4   6
ENDBRANCH   3   4
ENDBRANCH   2   3
ENDBRANCH   1   2
BRANCH   1  25
ATOM     25  O   UNL A   1      32.838  30.544  27.065  1.00  0.00    -0.458 OA
BRANCH  25  26
ATOM     26  C   UNL A   1      33.518  31.672  27.373  1.00  0.00     0.338 C 
ATOM     27  O   UNL A   1      33.077  32.813  27.406  1.00  0.00    -0.246 OA
BRANCH  26  28
ATOM     28  C   UNL A   1      34.838  31.323  27.915  1.00  0.00     0.060 A 
ATOM     29  C   UNL A   1      34.941  30.054  28.477  1.00  0.00     0.016 A 
ATOM     30  C   UNL A   1      35.909  32.210  27.977  1.00  0.00     0.016 A 
ATOM     31  C   UNL A   1      36.115  29.645  29.094  1.00  0.00     0.010 A 
ATOM     32  C   UNL A   1      37.098  31.803  28.604  1.00  0.00     0.010 A 
ATOM     33  C   UNL A   1      37.207  30.516  29.165  1.00  0.00    -0.014 A 
BRANCH  33  34
ATOM     34  C   UNL A   1      38.406  30.073  29.917  1.00  0.00     0.031 A 
ATOM     35  C   UNL A   1      39.378  29.131  29.267  1.00  0.00     0.074 A 
ATOM     36  C   UNL A   1      38.689  30.608  31.120  1.00  0.00     0.049 A 
ATOM     37  N   UNL A   1      40.462  28.590  29.757  1.00  0.00    -0.248 NA
ATOM     38  C   UNL A   1      39.097  28.766  27.870  1.00  0.00     0.031 C 
ATOM     39  C   UNL A   1      37.883  31.624  31.798  1.00  0.00     0.029 A 
ATOM     40  N   UNL A   1      39.742  30.394  31.974  1.00  0.00    -0.354 N 
ATOM     41  C   UNL A   1      40.984  27.800  28.740  1.00  0.00     0.074 A 
ATOM     42  C   UNL A   1      40.095  27.937  27.603  1.00  0.00     0.031 C 
ATOM     43  C   UNL A   1      38.480  31.954  32.955  1.00  0.00     0.029 A 
ATOM     44  C   UNL A   1      39.674  31.132  33.134  1.00  0.00     0.049 A 
ATOM     45  H   UNL A   1      40.477  29.769  31.776  1.00  0.00     0.167 HD
ATOM     46  C   UNL A   1      42.094  27.020  28.759  1.00  0.00     0.034 A 
ATOM     47  C   UNL A   1      40.463  31.118  34.228  1.00  0.00     0.034 A 
ATOM     48  C   UNL A   1      42.962  26.886  29.903  1.00  0.00     0.049 A 
ATOM     49  C   UNL A   1      41.633  30.162  34.265  1.00  0.00     0.074 A 
ATOM     50  C   UNL A   1      44.074  26.073  30.055  1.00  0.00     0.029 A 
ATOM     51  N   UNL A   1      42.814  27.580  31.097  1.00  0.00    -0.354 N 
ATOM     52  N   UNL A   1      42.065  29.347  33.331  1.00  0.00    -0.248 NA
ATOM     53  C   UNL A   1      42.410  30.112  35.512  1.00  0.00     0.031 C 
ATOM     54  C   UNL A   1      44.561  26.234  31.358  1.00  0.00     0.029 A 
ATOM     55  C   UNL A   1      43.796  27.195  31.999  1.00  0.00     0.049 A 
ATOM     56  H   UNL A   1      42.115  28.249  31.278  1.00  0.00     0.167 HD
ATOM     57  C   UNL A   1      43.166  28.693  33.876  1.00  0.00     0.074 A 
ATOM     58  C   UNL A   1      43.351  29.230  35.208  1.00  0.00     0.031 C 
ATOM     59  C   UNL A   1      43.952  27.729  33.331  1.00  0.00     0.034 A 
BRANCH  46  60
ATOM     60  C   UNL A   1      42.360  26.183  27.534  1.00  0.00     0.023 A 
ATOM     61  C   UNL A   1      41.899  24.860  27.420  1.00  0.00     0.031 A 
ATOM     62  C   UNL A   1      43.141  26.705  26.488  1.00  0.00     0.131 A 
ATOM     63  C   UNL A   1      42.278  24.084  26.312  1.00  0.00     0.055 A 
ATOM     64  C   UNL A   1      43.458  25.951  25.358  1.00  0.00     0.041 A 
ATOM     65  F   UNL A   1      43.629  27.954  26.559  1.00  0.00    -0.206 F 
ATOM     66  C   UNL A   1      43.036  24.628  25.272  1.00  0.00     0.022 A 
BRANCH  63  67
ATOM     67  S   UNL A   1      41.883  22.314  26.314  1.00  0.00     0.124 S 
ATOM     68  O   UNL A   1      42.310  21.917  27.653  1.00  0.00    -0.237 OA
ATOM     69  O   UNL A   1      40.445  22.312  26.074  1.00  0.00    -0.237 OA
ATOM     70  O   UNL A   1      42.698  21.781  25.225  1.00  0.00    -0.744 OA
ENDBRANCH  63  67
ENDBRANCH  46  60
BRANCH  47  71
ATOM     71  C   UNL A   1      40.139  31.961  35.417  1.00  0.00     0.023 A 
ATOM     72  C   UNL A   1      39.192  31.551  36.368  1.00  0.00     0.031 A 
ATOM     73  C   UNL A   1      40.721  33.233  35.575  1.00  0.00     0.131 A 
ATOM     74  C   UNL A   1      38.821  32.420  37.408  1.00  0.00     0.055 A 
ATOM     75  C   UNL A   1      40.393  34.069  36.642  1.00  0.00     0.041 A 
ATOM     76  F   UNL A   1      41.623  33.683  34.689  1.00  0.00    -0.206 F 
ATOM     77  C   UNL A   1      39.427  33.671  37.559  1.00  0.00     0.022 A 
BRANCH  74  78
ATOM     78  S   UNL A   1      37.461  31.937  38.507  1.00  0.00     0.124 S 
ATOM     79  O   UNL A   1      36.440  32.923  38.168  1.00  0.00    -0.237 OA
ATOM     80  O   UNL A   1      37.198  30.568  38.079  1.00  0.00    -0.237 OA
ATOM     81  O   UNL A   1      38.038  32.072  39.842  1.00  0.00    -0.744 OA
ENDBRANCH  74  78
ENDBRANCH  47  71
BRANCH  59  82
ATOM     82  C   UNL A   1      45.091  27.219  34.177  1.00  0.00     0.023 A 
ATOM     83  C   UNL A   1      44.927  26.132  35.053  1.00  0.00     0.031 A 
ATOM     84  C   UNL A   1      46.353  27.835  34.112  1.00  0.00     0.131 A 
ATOM     85  C   UNL A   1      45.995  25.723  35.865  1.00  0.00     0.055 A 
ATOM     86  C   UNL A   1      47.426  27.393  34.886  1.00  0.00     0.041 A 
ATOM     87  F   UNL A   1      46.562  28.878  33.292  1.00  0.00    -0.206 F 
ATOM     88  C   UNL A   1      47.248  26.338  35.778  1.00  0.00     0.022 A 
BRANCH  85  89
ATOM     89  S   UNL A   1      45.708  24.422  37.096  1.00  0.00     0.124 S 
ATOM     90  O   UNL A   1      44.661  25.010  37.924  1.00  0.00    -0.237 OA
ATOM     91  O   UNL A   1      45.305  23.290  36.267  1.00  0.00    -0.237 OA
ATOM     92  O   UNL A   1      47.007  24.275  37.751  1.00  0.00    -0.744 OA
ENDBRANCH  85  89
ENDBRANCH  59  82
ENDBRANCH  33  34
ENDBRANCH  26  28
ENDBRANCH  25  26
ENDBRANCH   1  25
TORSDOF 18
ENDMDL
MODEL 3
REMARK VINA RESULT:     -11.5      1.796      2.880
REMARK SMILES CC(=O)N[C@@H](C(=O)OCCOC(=O)c1ccc(-c2c3nc(c(-c4cc(S(=O)(=O)[O-])ccc4F)c4ccc([nH]4)c(-c4cc(S(=O)(=O)[O-])ccc4F)c4nc(c(-c5cc(S(=O)(=O)[O-])ccc5F)c5ccc2[nH]5)C=C4)C=C3)cc1)C(c1ccccc1)c1ccccc1
REMARK SMILES IDX 10 1 9 2 8 3 6 4 7 5 5 6 4 7 1 8 2 9 3 10 77 12 78 13 79 14
REMARK SMILES IDX 83 15 80 16 82 17 81 18 84 19 85 20 89 21 86 22 88 23 87 24
REMARK SMILES IDX 11 25 12 26 13 27 14 28 15 29 76 30 16 31 75 32 17 33 18 34
REMARK SMILES IDX 19 35 69 36 20 37 74 38 68 39 70 40 21 41 73 42 67 43 66 44
REMARK SMILES IDX 22 46 54 47 34 48 53 49 35 50 38 51 52 52 71 53 36 54 37 55
REMARK SMILES IDX 51 57 72 58 39 59 23 60 24 61 32 62 25 63 31 64 33 65 30 66
REMARK SMILES IDX 26 67 27 68 28 69 29 70 55 71 56 72 64 73 57 74 63 75 65 76
REMARK SMILES IDX 62 77 58 78 59 79 60 80 61 81 40 82 41 83 49 84 42 85 48 86
REMARK SMILES IDX 50 87 47 88 43 89 44 90 45 91 46 92
REMARK H PARENT 4 11 70 45 38 56
REMARK Flexibility Score: inf
ROOT
ATOM      1  C   UNL A   1      36.768  21.020  24.964  1.00  0.00     0.275 C 
ENDROOT
BRANCH   1   2
ATOM      2  C   UNL A   1      35.385  21.655  24.807  1.00  0.00     0.274 C 
BRANCH   2   3
ATOM      3  O   UNL A   1      35.369  23.038  25.229  1.00  0.00    -0.461 OA
BRANCH   3   4
ATOM      4  C   UNL A   1      34.640  23.326  26.352  1.00  0.00     0.329 C 
ATOM      5  O   UNL A   1      34.966  22.934  27.464  1.00  0.00    -0.250 OA
BRANCH   4   6
ATOM      6  C   UNL A   1      33.293  24.059  26.023  1.00  0.00     0.204 C 
BRANCH   6   7
ATOM      7  N   UNL A   1      32.374  23.101  25.368  1.00  0.00    -0.342 N 
ATOM      8  C   UNL A   1      30.494  23.392  26.952  1.00  0.00     0.114 C 
ATOM      9  C   UNL A   1      31.154  22.670  25.805  1.00  0.00     0.217 C 
ATOM     10  O   UNL A   1      30.607  21.713  25.262  1.00  0.00    -0.275 OA
ATOM     11  H   UNL A   1      32.680  22.727  24.510  1.00  0.00     0.164 HD
ENDBRANCH   6   7
BRANCH   6  12
ATOM     12  C   UNL A   1      33.516  25.393  25.202  1.00  0.00     0.083 C 
BRANCH  12  13
ATOM     13  C   UNL A   1      32.950  25.500  23.770  1.00  0.00    -0.038 A 
ATOM     14  C   UNL A   1      31.807  26.301  23.546  1.00  0.00     0.004 A 
ATOM     15  C   UNL A   1      33.531  24.908  22.643  1.00  0.00     0.004 A 
ATOM     16  C   UNL A   1      31.276  26.496  22.268  1.00  0.00     0.000 A 
ATOM     17  C   UNL A   1      33.017  25.123  21.356  1.00  0.00     0.000 A 
ATOM     18  C   UNL A   1      31.888  25.914  21.169  1.00  0.00     0.000 A 
ENDBRANCH  12  13
BRANCH  12  19
ATOM     19  C   UNL A   1      33.181  26.653  26.022  1.00  0.00    -0.038 A 
ATOM     20  C   UNL A   1      34.054  27.747  26.112  1.00  0.00     0.004 A 
ATOM     21  C   UNL A   1      31.943  26.742  26.686  1.00  0.00     0.004 A 
ATOM     22  C   UNL A   1      33.670  28.910  26.787  1.00  0.00     0.000 A 
ATOM     23  C   UNL A   1      31.578  27.887  27.392  1.00  0.00     0.000 A 
ATOM     24  C   UNL A   1      32.434  28.980  27.427  1.00  0.00     0.000 A 
ENDBRANCH  12  19
ENDBRANCH   6  12
ENDBRANCH   4   6
ENDBRANCH   3   4
ENDBRANCH   2   3
ENDBRANCH   1   2
BRANCH   1  25
ATOM     25  O   UNL A   1      37.776  22.021  25.175  1.00  0.00    -0.458 OA
BRANCH  25  26
ATOM     26  C   UNL A   1      38.805  21.627  25.961  1.00  0.00     0.338 C 
ATOM     27  O   UNL A   1      39.294  20.508  26.028  1.00  0.00    -0.246 OA
BRANCH  26  28
ATOM     28  C   UNL A   1      39.440  22.802  26.570  1.00  0.00     0.060 A 
ATOM     29  C   UNL A   1      39.032  24.034  26.070  1.00  0.00     0.016 A 
ATOM     30  C   UNL A   1      40.463  22.728  27.513  1.00  0.00     0.016 A 
ATOM     31  C   UNL A   1      39.624  25.210  26.510  1.00  0.00     0.010 A 
ATOM     32  C   UNL A   1      41.068  23.914  27.959  1.00  0.00     0.010 A 
ATOM     33  C   UNL A   1      40.649  25.163  27.460  1.00  0.00    -0.014 A 
BRANCH  33  34
ATOM     34  C   UNL A   1      41.319  26.434  27.831  1.00  0.00     0.031 A 
ATOM     35  C   UNL A   1      40.575  27.446  28.654  1.00  0.00     0.074 A 
ATOM     36  C   UNL A   1      42.620  26.625  27.544  1.00  0.00     0.049 A 
ATOM     37  N   UNL A   1      40.955  28.632  29.051  1.00  0.00    -0.248 NA
ATOM     38  C   UNL A   1      39.228  27.059  29.102  1.00  0.00     0.031 C 
ATOM     39  C   UNL A   1      43.478  25.660  26.856  1.00  0.00     0.029 A 
ATOM     40  N   UNL A   1      43.455  27.680  27.815  1.00  0.00    -0.354 N 
ATOM     41  C   UNL A   1      39.887  29.147  29.777  1.00  0.00     0.074 A 
ATOM     42  C   UNL A   1      38.846  28.139  29.766  1.00  0.00     0.031 C 
ATOM     43  C   UNL A   1      44.722  26.162  26.774  1.00  0.00     0.029 A 
ATOM     44  C   UNL A   1      44.737  27.507  27.343  1.00  0.00     0.049 A 
ATOM     45  H   UNL A   1      43.164  28.485  28.300  1.00  0.00     0.167 HD
ATOM     46  C   UNL A   1      39.783  30.356  30.384  1.00  0.00     0.034 A 
ATOM     47  C   UNL A   1      45.788  28.353  27.338  1.00  0.00     0.034 A 
ATOM     48  C   UNL A   1      40.825  31.353  30.375  1.00  0.00     0.049 A 
ATOM     49  C   UNL A   1      45.612  29.733  27.926  1.00  0.00     0.074 A 
ATOM     50  C   UNL A   1      40.800  32.636  30.898  1.00  0.00     0.029 A 
ATOM     51  N   UNL A   1      42.082  31.182  29.809  1.00  0.00    -0.354 N 
ATOM     52  N   UNL A   1      44.564  30.247  28.529  1.00  0.00    -0.248 NA
ATOM     53  C   UNL A   1      46.752  30.653  27.816  1.00  0.00     0.031 C 
ATOM     54  C   UNL A   1      42.019  33.256  30.598  1.00  0.00     0.029 A 
ATOM     55  C   UNL A   1      42.831  32.341  29.946  1.00  0.00     0.049 A 
ATOM     56  H   UNL A   1      42.397  30.356  29.374  1.00  0.00     0.167 HD
ATOM     57  C   UNL A   1      44.924  31.547  28.875  1.00  0.00     0.074 A 
ATOM     58  C   UNL A   1      46.294  31.728  28.440  1.00  0.00     0.031 C 
ATOM     59  C   UNL A   1      44.189  32.509  29.488  1.00  0.00     0.034 A 
BRANCH  46  60
ATOM     60  C   UNL A   1      38.455  30.690  31.014  1.00  0.00     0.023 A 
ATOM     61  C   UNL A   1      37.428  31.327  30.297  1.00  0.00     0.031 A 
ATOM     62  C   UNL A   1      38.239  30.414  32.376  1.00  0.00     0.131 A 
ATOM     63  C   UNL A   1      36.257  31.725  30.963  1.00  0.00     0.055 A 
ATOM     64  C   UNL A   1      37.047  30.750  33.016  1.00  0.00     0.041 A 
ATOM     65  F   UNL A   1      39.198  29.830  33.113  1.00  0.00    -0.206 F 
ATOM     66  C   UNL A   1      36.052  31.422  32.312  1.00  0.00     0.022 A 
BRANCH  63  67
ATOM     67  S   UNL A   1      35.063  32.765  30.079  1.00  0.00     0.124 S 
ATOM     68  O   UNL A   1      34.582  31.851  29.047  1.00  0.00    -0.237 OA
ATOM     69  O   UNL A   1      34.107  33.108  31.126  1.00  0.00    -0.237 OA
ATOM     70  O   UNL A   1      35.875  33.877  29.588  1.00  0.00    -0.744 OA
ENDBRANCH  63  67
ENDBRANCH  46  60
BRANCH  47  71
ATOM     71  C   UNL A   1      47.075  27.969  26.685  1.00  0.00     0.023 A 
ATOM     72  C   UNL A   1      47.233  28.023  25.291  1.00  0.00     0.031 A 
ATOM     73  C   UNL A   1      48.146  27.467  27.448  1.00  0.00     0.131 A 
ATOM     74  C   UNL A   1      48.412  27.541  24.700  1.00  0.00     0.055 A 
ATOM     75  C   UNL A   1      49.339  27.044  26.861  1.00  0.00     0.041 A 
ATOM     76  F   UNL A   1      48.047  27.380  28.783  1.00  0.00    -0.206 F 
ATOM     77  C   UNL A   1      49.472  27.066  25.477  1.00  0.00     0.022 A 
BRANCH  74  78
ATOM     78  S   UNL A   1      48.508  27.449  22.890  1.00  0.00     0.124 S 
ATOM     79  O   UNL A   1      49.777  28.118  22.625  1.00  0.00    -0.237 OA
ATOM     80  O   UNL A   1      48.481  26.008  22.659  1.00  0.00    -0.237 OA
ATOM     81  O   UNL A   1      47.318  28.172  22.449  1.00  0.00    -0.744 OA
ENDBRANCH  74  78
ENDBRANCH  47  71
BRANCH  59  82
ATOM     82  C   UNL A   1      44.870  33.831  29.740  1.00  0.00     0.023 A 
ATOM     83  C   UNL A   1      44.746  34.905  28.841  1.00  0.00     0.031 A 
ATOM     84  C   UNL A   1      45.661  34.014  30.888  1.00  0.00     0.131 A 
ATOM     85  C   UNL A   1      45.442  36.099  29.081  1.00  0.00     0.055 A 
ATOM     86  C   UNL A   1      46.311  35.221  31.146  1.00  0.00     0.041 A 
ATOM     87  F   UNL A   1      45.814  33.019  31.777  1.00  0.00    -0.206 F 
ATOM     88  C   UNL A   1      46.212  36.269  30.235  1.00  0.00     0.022 A 
BRANCH  85  89
ATOM     89  S   UNL A   1      45.386  37.409  27.826  1.00  0.00     0.124 S 
ATOM     90  O   UNL A   1      45.009  38.574  28.617  1.00  0.00    -0.237 OA
ATOM     91  O   UNL A   1      46.751  37.403  27.309  1.00  0.00    -0.237 OA
ATOM     92  O   UNL A   1      44.369  36.940  26.886  1.00  0.00    -0.744 OA
ENDBRANCH  85  89
ENDBRANCH  59  82
ENDBRANCH  33  34
ENDBRANCH  26  28
ENDBRANCH  25  26
ENDBRANCH   1  25
TORSDOF 18
ENDMDL
