MODEL 1
REMARK VINA RESULT:     -12.8      0.000      0.000
REMARK SMILES Cc1ccnc(-n2c(C)nc3c(C(=O)OCCOC(=O)c4ccc(-c5c6nc(c(-c7cc(S(=O)(=O)[O-])ccc7F)c7ccc([nH]7)c(-c7cc(S(=O)(=O)[O-])ccc7F)c7nc(c(-c8cc(S(=O)(=O)[O-])ccc8F)c8ccc5[nH]8)C=C7)C=C6)cc4)cccc32)c1
REMARK SMILES IDX 17 1 16 2 15 3 13 4 14 5 12 6 7 7 8 8 87 9 9 10 10 11 11 12
REMARK SMILES IDX 86 13 85 14 84 15 6 16 1 17 2 18 3 19 88 20 4 21 5 22 18 23
REMARK SMILES IDX 19 24 20 25 21 26 22 27 83 28 23 29 82 30 24 31 25 32 26 33
REMARK SMILES IDX 76 34 27 35 81 36 75 37 77 38 28 39 80 40 74 41 73 42 29 44
REMARK SMILES IDX 61 45 41 46 60 47 42 48 45 49 59 50 78 51 43 52 44 53 58 55
REMARK SMILES IDX 79 56 46 57 30 58 31 59 39 60 32 61 38 62 40 63 37 64 33 65
REMARK SMILES IDX 34 66 35 67 36 68 62 69 63 70 71 71 64 72 70 73 72 74 69 75
REMARK SMILES IDX 65 76 66 77 67 78 68 79 47 80 48 81 56 82 49 83 55 84 57 85
REMARK SMILES IDX 54 86 50 87 51 88 52 89 53 90
REMARK H PARENT 77 43 45 54
REMARK Flexibility Score: inf
ROOT
ATOM      1  C   UNL A   1      33.104  31.578  27.248  1.00  0.00     0.275 C 
ENDROOT
BRANCH   1   2
ATOM      2  C   UNL A   1      32.166  30.389  26.999  1.00  0.00     0.275 C 
BRANCH   2   3
ATOM      3  O   UNL A   1      32.781  29.103  27.296  1.00  0.00    -0.458 OA
BRANCH   3   4
ATOM      4  C   UNL A   1      31.951  28.036  27.153  1.00  0.00     0.340 C 
ATOM      5  O   UNL A   1      31.065  27.758  27.945  1.00  0.00    -0.246 OA
BRANCH   4   6
ATOM      6  C   UNL A   1      32.352  27.073  26.105  1.00  0.00     0.087 A 
ATOM      7  N   UNL A   1      31.934  23.550  25.773  1.00  0.00    -0.281 N 
ATOM      8  C   UNL A   1      30.780  23.925  26.457  1.00  0.00     0.112 A 
ATOM      9  C   UNL A   1      32.590  24.736  25.444  1.00  0.00     0.075 A 
ATOM     10  C   UNL A   1      29.881  22.953  27.153  1.00  0.00     0.088 C 
ATOM     11  N   UNL A   1      30.705  25.233  26.603  1.00  0.00    -0.232 NA
ATOM     12  C   UNL A   1      31.860  25.749  26.085  1.00  0.00     0.104 A 
ATOM     13  C   UNL A   1      33.712  25.038  24.657  1.00  0.00     0.029 A 
ATOM     14  C   UNL A   1      34.104  26.385  24.572  1.00  0.00     0.003 A 
ATOM     15  C   UNL A   1      33.470  27.381  25.318  1.00  0.00     0.018 A 
BRANCH   7  16
ATOM     16  C   UNL A   1      32.315  22.181  25.603  1.00  0.00     0.138 A 
ATOM     17  C   UNL A   1      32.261  19.489  22.929  1.00  0.00     0.044 C 
ATOM     18  C   UNL A   1      32.592  20.293  24.153  1.00  0.00    -0.046 A 
ATOM     19  C   UNL A   1      33.657  19.874  24.953  1.00  0.00     0.023 A 
ATOM     20  C   UNL A   1      31.877  21.453  24.502  1.00  0.00     0.051 A 
ATOM     21  C   UNL A   1      33.973  20.618  26.067  1.00  0.00     0.114 A 
ATOM     22  N   UNL A   1      33.326  21.750  26.413  1.00  0.00    -0.239 NA
ENDBRANCH   7  16
ENDBRANCH   4   6
ENDBRANCH   3   4
ENDBRANCH   2   3
ENDBRANCH   1   2
BRANCH   1  23
ATOM     23  O   UNL A   1      34.297  31.104  27.896  1.00  0.00    -0.458 OA
BRANCH  23  24
ATOM     24  C   UNL A   1      35.364  31.936  27.830  1.00  0.00     0.338 C 
ATOM     25  O   UNL A   1      35.346  33.126  27.580  1.00  0.00    -0.246 OA
BRANCH  24  26
ATOM     26  C   UNL A   1      36.463  31.210  28.498  1.00  0.00     0.060 A 
ATOM     27  C   UNL A   1      37.606  31.840  29.010  1.00  0.00     0.016 A 
ATOM     28  C   UNL A   1      36.437  29.835  28.335  1.00  0.00     0.016 A 
ATOM     29  C   UNL A   1      38.767  31.089  29.256  1.00  0.00     0.010 A 
ATOM     30  C   UNL A   1      37.609  29.122  28.529  1.00  0.00     0.010 A 
ATOM     31  C   UNL A   1      38.787  29.726  28.952  1.00  0.00    -0.014 A 
BRANCH  31  32
ATOM     32  C   UNL A   1      39.956  28.853  29.142  1.00  0.00     0.031 A 
ATOM     33  C   UNL A   1      40.373  28.609  30.561  1.00  0.00     0.074 A 
ATOM     34  C   UNL A   1      40.490  28.028  28.207  1.00  0.00     0.049 A 
ATOM     35  N   UNL A   1      41.552  28.758  31.070  1.00  0.00    -0.248 NA
ATOM     36  C   UNL A   1      39.381  28.132  31.539  1.00  0.00     0.031 C 
ATOM     37  C   UNL A   1      40.030  27.736  26.849  1.00  0.00     0.029 A 
ATOM     38  N   UNL A   1      41.565  27.187  28.330  1.00  0.00    -0.354 N 
ATOM     39  C   UNL A   1      41.490  28.279  32.376  1.00  0.00     0.074 A 
ATOM     40  C   UNL A   1      40.122  27.924  32.626  1.00  0.00     0.031 C 
ATOM     41  C   UNL A   1      40.701  26.672  26.341  1.00  0.00     0.029 A 
ATOM     42  C   UNL A   1      41.765  26.316  27.261  1.00  0.00     0.049 A 
ATOM     43  H   UNL A   1      42.154  27.196  29.119  1.00  0.00     0.167 HD
ATOM     44  C   UNL A   1      42.594  28.126  33.156  1.00  0.00     0.034 A 
ATOM     45  C   UNL A   1      42.753  25.393  27.122  1.00  0.00     0.034 A 
ATOM     46  C   UNL A   1      43.679  28.937  32.682  1.00  0.00     0.049 A 
ATOM     47  C   UNL A   1      43.831  25.755  28.065  1.00  0.00     0.074 A 
ATOM     48  C   UNL A   1      43.810  30.295  32.456  1.00  0.00     0.029 A 
ATOM     49  N   UNL A   1      44.698  28.351  31.977  1.00  0.00    -0.354 N 
ATOM     50  N   UNL A   1      44.631  26.773  27.931  1.00  0.00    -0.248 NA
ATOM     51  C   UNL A   1      43.809  25.134  29.376  1.00  0.00     0.031 C 
ATOM     52  C   UNL A   1      44.515  30.385  31.224  1.00  0.00     0.029 A 
ATOM     53  C   UNL A   1      44.835  29.085  30.824  1.00  0.00     0.049 A 
ATOM     54  H   UNL A   1      45.226  27.564  32.243  1.00  0.00     0.167 HD
ATOM     55  C   UNL A   1      44.855  27.202  29.225  1.00  0.00     0.074 A 
ATOM     56  C   UNL A   1      44.436  26.085  30.070  1.00  0.00     0.031 C 
ATOM     57  C   UNL A   1      45.095  28.516  29.514  1.00  0.00     0.034 A 
BRANCH  44  58
ATOM     58  C   UNL A   1      42.726  27.095  34.239  1.00  0.00     0.023 A 
ATOM     59  C   UNL A   1      43.482  25.915  34.073  1.00  0.00     0.031 A 
ATOM     60  C   UNL A   1      42.279  27.372  35.546  1.00  0.00     0.131 A 
ATOM     61  C   UNL A   1      43.750  25.067  35.156  1.00  0.00     0.055 A 
ATOM     62  C   UNL A   1      42.592  26.553  36.635  1.00  0.00     0.041 A 
ATOM     63  F   UNL A   1      41.567  28.479  35.813  1.00  0.00    -0.206 F 
ATOM     64  C   UNL A   1      43.332  25.393  36.444  1.00  0.00     0.022 A 
BRANCH  61  65
ATOM     65  S   UNL A   1      44.665  23.517  34.918  1.00  0.00     0.124 S 
ATOM     66  O   UNL A   1      45.865  23.978  34.228  1.00  0.00    -0.237 OA
ATOM     67  O   UNL A   1      44.862  23.070  36.295  1.00  0.00    -0.237 OA
ATOM     68  O   UNL A   1      43.756  22.693  34.126  1.00  0.00    -0.744 OA
ENDBRANCH  61  65
ENDBRANCH  44  58
BRANCH  45  69
ATOM     69  C   UNL A   1      42.828  24.100  26.400  1.00  0.00     0.023 A 
ATOM     70  C   UNL A   1      41.792  23.159  26.529  1.00  0.00     0.031 A 
ATOM     71  C   UNL A   1      44.066  23.637  25.905  1.00  0.00     0.131 A 
ATOM     72  C   UNL A   1      42.039  21.801  26.257  1.00  0.00     0.055 A 
ATOM     73  C   UNL A   1      44.306  22.287  25.633  1.00  0.00     0.041 A 
ATOM     74  F   UNL A   1      45.102  24.478  25.758  1.00  0.00    -0.206 F 
ATOM     75  C   UNL A   1      43.295  21.357  25.832  1.00  0.00     0.022 A 
BRANCH  72  76
ATOM     76  S   UNL A   1      40.771  20.540  26.569  1.00  0.00     0.124 S 
ATOM     77  O   UNL A   1      39.568  21.178  26.041  1.00  0.00    -0.237 OA
ATOM     78  O   UNL A   1      41.273  19.411  25.794  1.00  0.00    -0.237 OA
ATOM     79  O   UNL A   1      40.801  20.372  28.020  1.00  0.00    -0.744 OA
ENDBRANCH  72  76
ENDBRANCH  45  69
BRANCH  57  80
ATOM     80  C   UNL A   1      45.360  29.513  28.395  1.00  0.00     0.023 A 
ATOM     81  C   UNL A   1      46.711  29.809  28.119  1.00  0.00     0.031 A 
ATOM     82  C   UNL A   1      44.392  30.339  27.790  1.00  0.00     0.131 A 
ATOM     83  C   UNL A   1      47.059  30.924  27.347  1.00  0.00     0.055 A 
ATOM     84  C   UNL A   1      44.743  31.397  26.941  1.00  0.00     0.041 A 
ATOM     85  F   UNL A   1      43.086  30.223  28.063  1.00  0.00    -0.206 F 
ATOM     86  C   UNL A   1      46.081  31.711  26.737  1.00  0.00     0.022 A 
BRANCH  83  87
ATOM     87  S   UNL A   1      48.780  31.490  27.288  1.00  0.00     0.124 S 
ATOM     88  O   UNL A   1      48.699  32.634  26.385  1.00  0.00    -0.237 OA
ATOM     89  O   UNL A   1      49.051  31.815  28.688  1.00  0.00    -0.237 OA
ATOM     90  O   UNL A   1      49.514  30.338  26.773  1.00  0.00    -0.744 OA
ENDBRANCH  83  87
ENDBRANCH  57  80
ENDBRANCH  31  32
ENDBRANCH  24  26
ENDBRANCH  23  24
ENDBRANCH   1  23
TORSDOF 15
ENDMDL
MODEL 2
REMARK VINA RESULT:     -12.7      3.167      7.634
REMARK SMILES Cc1ccnc(-n2c(C)nc3c(C(=O)OCCOC(=O)c4ccc(-c5c6nc(c(-c7cc(S(=O)(=O)[O-])ccc7F)c7ccc([nH]7)c(-c7cc(S(=O)(=O)[O-])ccc7F)c7nc(c(-c8cc(S(=O)(=O)[O-])ccc8F)c8ccc5[nH]8)C=C7)C=C6)cc4)cccc32)c1
REMARK SMILES IDX 17 1 16 2 15 3 13 4 14 5 12 6 7 7 8 8 87 9 9 10 10 11 11 12
REMARK SMILES IDX 86 13 85 14 84 15 6 16 1 17 2 18 3 19 88 20 4 21 5 22 18 23
REMARK SMILES IDX 19 24 20 25 21 26 22 27 83 28 23 29 82 30 24 31 25 32 26 33
REMARK SMILES IDX 76 34 27 35 81 36 75 37 77 38 28 39 80 40 74 41 73 42 29 44
REMARK SMILES IDX 61 45 41 46 60 47 42 48 45 49 59 50 78 51 43 52 44 53 58 55
REMARK SMILES IDX 79 56 46 57 30 58 31 59 39 60 32 61 38 62 40 63 37 64 33 65
REMARK SMILES IDX 34 66 35 67 36 68 62 69 63 70 71 71 64 72 70 73 72 74 69 75
REMARK SMILES IDX 65 76 66 77 67 78 68 79 47 80 48 81 56 82 49 83 55 84 57 85
REMARK SMILES IDX 54 86 50 87 51 88 52 89 53 90
REMARK H PARENT 77 43 45 54
REMARK Flexibility Score: inf
ROOT
ATOM      1  C   UNL A   1      35.445  20.484  25.031  1.00  0.00     0.275 C 
ENDROOT
BRANCH   1   2
ATOM      2  C   UNL A   1      34.445  21.492  24.449  1.00  0.00     0.275 C 
BRANCH   2   3
ATOM      3  O   UNL A   1      33.090  20.965  24.360  1.00  0.00    -0.458 OA
BRANCH   3   4
ATOM      4  C   UNL A   1      32.227  21.749  23.659  1.00  0.00     0.340 C 
ATOM      5  O   UNL A   1      32.156  21.755  22.441  1.00  0.00    -0.246 OA
BRANCH   4   6
ATOM      6  C   UNL A   1      31.549  22.793  24.457  1.00  0.00     0.087 A 
ATOM      7  N   UNL A   1      32.152  26.278  24.888  1.00  0.00    -0.281 N 
ATOM      8  C   UNL A   1      32.547  26.068  23.569  1.00  0.00     0.112 A 
ATOM      9  C   UNL A   1      31.598  25.075  25.322  1.00  0.00     0.075 A 
ATOM     10  C   UNL A   1      33.359  27.047  22.783  1.00  0.00     0.088 C 
ATOM     11  N   UNL A   1      32.314  24.828  23.184  1.00  0.00    -0.232 NA
ATOM     12  C   UNL A   1      31.831  24.166  24.279  1.00  0.00     0.104 A 
ATOM     13  C   UNL A   1      30.914  24.685  26.484  1.00  0.00     0.029 A 
ATOM     14  C   UNL A   1      30.512  23.342  26.583  1.00  0.00     0.003 A 
ATOM     15  C   UNL A   1      30.863  22.399  25.614  1.00  0.00     0.018 A 
BRANCH   7  16
ATOM     16  C   UNL A   1      32.421  27.501  25.583  1.00  0.00     0.138 A 
ATOM     17  C   UNL A   1      35.291  29.222  27.371  1.00  0.00     0.044 C 
ATOM     18  C   UNL A   1      34.007  28.952  26.642  1.00  0.00    -0.046 A 
ATOM     19  C   UNL A   1      33.231  30.042  26.240  1.00  0.00     0.023 A 
ATOM     20  C   UNL A   1      33.578  27.646  26.341  1.00  0.00     0.051 A 
ATOM     21  C   UNL A   1      32.061  29.798  25.558  1.00  0.00     0.114 A 
ATOM     22  N   UNL A   1      31.637  28.560  25.228  1.00  0.00    -0.239 NA
ENDBRANCH   7  16
ENDBRANCH   4   6
ENDBRANCH   3   4
ENDBRANCH   2   3
ENDBRANCH   1   2
BRANCH   1  23
ATOM     23  O   UNL A   1      36.651  21.179  25.395  1.00  0.00    -0.458 OA
BRANCH  23  24
ATOM     24  C   UNL A   1      37.771  20.418  25.431  1.00  0.00     0.338 C 
ATOM     25  O   UNL A   1      37.912  19.306  24.959  1.00  0.00    -0.246 OA
BRANCH  24  26
ATOM     26  C   UNL A   1      38.859  21.349  25.791  1.00  0.00     0.060 A 
ATOM     27  C   UNL A   1      40.069  20.936  26.367  1.00  0.00     0.016 A 
ATOM     28  C   UNL A   1      38.505  22.688  25.793  1.00  0.00     0.016 A 
ATOM     29  C   UNL A   1      40.874  21.867  27.045  1.00  0.00     0.010 A 
ATOM     30  C   UNL A   1      39.282  23.578  26.516  1.00  0.00     0.010 A 
ATOM     31  C   UNL A   1      40.443  23.189  27.175  1.00  0.00    -0.014 A 
BRANCH  31  32
ATOM     32  C   UNL A   1      41.191  24.237  27.888  1.00  0.00     0.031 A 
ATOM     33  C   UNL A   1      40.461  25.525  28.121  1.00  0.00     0.074 A 
ATOM     34  C   UNL A   1      42.330  24.051  28.602  1.00  0.00     0.049 A 
ATOM     35  N   UNL A   1      40.865  26.719  27.831  1.00  0.00    -0.248 NA
ATOM     36  C   UNL A   1      39.136  25.505  28.760  1.00  0.00     0.031 C 
ATOM     37  C   UNL A   1      43.047  22.814  28.907  1.00  0.00     0.029 A 
ATOM     38  N   UNL A   1      43.059  24.982  29.293  1.00  0.00    -0.354 N 
ATOM     39  C   UNL A   1      39.923  27.600  28.358  1.00  0.00     0.074 A 
ATOM     40  C   UNL A   1      38.862  26.801  28.902  1.00  0.00     0.031 C 
ATOM     41  C   UNL A   1      43.993  23.037  29.853  1.00  0.00     0.029 A 
ATOM     42  C   UNL A   1      44.078  24.466  30.093  1.00  0.00     0.049 A 
ATOM     43  H   UNL A   1      42.878  25.947  29.231  1.00  0.00     0.167 HD
ATOM     44  C   UNL A   1      40.113  28.947  28.387  1.00  0.00     0.034 A 
ATOM     45  C   UNL A   1      44.950  25.160  30.868  1.00  0.00     0.034 A 
ATOM     46  C   UNL A   1      41.094  29.353  27.421  1.00  0.00     0.049 A 
ATOM     47  C   UNL A   1      44.943  26.561  30.396  1.00  0.00     0.074 A 
ATOM     48  C   UNL A   1      41.189  29.190  26.051  1.00  0.00     0.029 A 
ATOM     49  N   UNL A   1      42.363  29.659  27.840  1.00  0.00    -0.354 N 
ATOM     50  N   UNL A   1      45.460  26.974  29.276  1.00  0.00    -0.248 NA
ATOM     51  C   UNL A   1      44.042  27.485  31.058  1.00  0.00     0.031 C 
ATOM     52  C   UNL A   1      42.553  28.857  25.825  1.00  0.00     0.029 A 
ATOM     53  C   UNL A   1      43.212  28.917  27.056  1.00  0.00     0.049 A 
ATOM     54  H   UNL A   1      42.614  30.284  28.557  1.00  0.00     0.167 HD
ATOM     55  C   UNL A   1      44.614  27.986  28.864  1.00  0.00     0.074 A 
ATOM     56  C   UNL A   1      43.845  28.341  30.056  1.00  0.00     0.031 C 
ATOM     57  C   UNL A   1      44.412  28.257  27.540  1.00  0.00     0.034 A 
BRANCH  44  58
ATOM     58  C   UNL A   1      39.529  29.859  29.426  1.00  0.00     0.023 A 
ATOM     59  C   UNL A   1      38.471  30.749  29.145  1.00  0.00     0.031 A 
ATOM     60  C   UNL A   1      39.870  29.704  30.784  1.00  0.00     0.131 A 
ATOM     61  C   UNL A   1      37.816  31.445  30.169  1.00  0.00     0.055 A 
ATOM     62  C   UNL A   1      39.181  30.359  31.810  1.00  0.00     0.041 A 
ATOM     63  F   UNL A   1      40.852  28.868  31.159  1.00  0.00    -0.206 F 
ATOM     64  C   UNL A   1      38.147  31.235  31.505  1.00  0.00     0.022 A 
BRANCH  61  65
ATOM     65  S   UNL A   1      36.501  32.639  29.789  1.00  0.00     0.124 S 
ATOM     66  O   UNL A   1      35.312  31.795  29.811  1.00  0.00    -0.237 OA
ATOM     67  O   UNL A   1      36.625  33.584  30.897  1.00  0.00    -0.237 OA
ATOM     68  O   UNL A   1      36.878  33.169  28.482  1.00  0.00    -0.744 OA
ENDBRANCH  61  65
ENDBRANCH  44  58
BRANCH  45  69
ATOM     69  C   UNL A   1      45.679  24.822  32.114  1.00  0.00     0.023 A 
ATOM     70  C   UNL A   1      45.035  24.102  33.135  1.00  0.00     0.031 A 
ATOM     71  C   UNL A   1      46.855  25.523  32.459  1.00  0.00     0.131 A 
ATOM     72  C   UNL A   1      45.515  24.174  34.456  1.00  0.00     0.055 A 
ATOM     73  C   UNL A   1      47.330  25.588  33.772  1.00  0.00     0.041 A 
ATOM     74  F   UNL A   1      47.522  26.235  31.537  1.00  0.00    -0.206 F 
ATOM     75  C   UNL A   1      46.644  24.931  34.784  1.00  0.00     0.022 A 
BRANCH  72  76
ATOM     76  S   UNL A   1      44.613  23.389  35.822  1.00  0.00     0.124 S 
ATOM     77  O   UNL A   1      44.678  21.976  35.459  1.00  0.00    -0.237 OA
ATOM     78  O   UNL A   1      45.417  23.778  36.976  1.00  0.00    -0.237 OA
ATOM     79  O   UNL A   1      43.284  23.990  35.747  1.00  0.00    -0.744 OA
ENDBRANCH  72  76
ENDBRANCH  45  69
BRANCH  57  80
ATOM     80  C   UNL A   1      45.291  27.613  26.480  1.00  0.00     0.023 A 
ATOM     81  C   UNL A   1      44.977  26.287  26.118  1.00  0.00     0.031 A 
ATOM     82  C   UNL A   1      46.521  28.124  26.015  1.00  0.00     0.131 A 
ATOM     83  C   UNL A   1      45.890  25.501  25.404  1.00  0.00     0.055 A 
ATOM     84  C   UNL A   1      47.389  27.364  25.220  1.00  0.00     0.041 A 
ATOM     85  F   UNL A   1      46.975  29.328  26.383  1.00  0.00    -0.206 F 
ATOM     86  C   UNL A   1      47.088  26.038  24.933  1.00  0.00     0.022 A 
BRANCH  83  87
ATOM     87  S   UNL A   1      45.627  23.714  25.248  1.00  0.00     0.124 S 
ATOM     88  O   UNL A   1      46.543  23.178  26.250  1.00  0.00    -0.237 OA
ATOM     89  O   UNL A   1      44.205  23.577  25.563  1.00  0.00    -0.237 OA
ATOM     90  O   UNL A   1      45.978  23.424  23.860  1.00  0.00    -0.744 OA
ENDBRANCH  83  87
ENDBRANCH  57  80
ENDBRANCH  31  32
ENDBRANCH  24  26
ENDBRANCH  23  24
ENDBRANCH   1  23
TORSDOF 15
ENDMDL
MODEL 3
REMARK VINA RESULT:     -12.5      3.629      9.114
REMARK SMILES Cc1ccnc(-n2c(C)nc3c(C(=O)OCCOC(=O)c4ccc(-c5c6nc(c(-c7cc(S(=O)(=O)[O-])ccc7F)c7ccc([nH]7)c(-c7cc(S(=O)(=O)[O-])ccc7F)c7nc(c(-c8cc(S(=O)(=O)[O-])ccc8F)c8ccc5[nH]8)C=C7)C=C6)cc4)cccc32)c1
REMARK SMILES IDX 17 1 16 2 15 3 13 4 14 5 12 6 7 7 8 8 87 9 9 10 10 11 11 12
REMARK SMILES IDX 86 13 85 14 84 15 6 16 1 17 2 18 3 19 88 20 4 21 5 22 18 23
REMARK SMILES IDX 19 24 20 25 21 26 22 27 83 28 23 29 82 30 24 31 25 32 26 33
REMARK SMILES IDX 76 34 27 35 81 36 75 37 77 38 28 39 80 40 74 41 73 42 29 44
REMARK SMILES IDX 61 45 41 46 60 47 42 48 45 49 59 50 78 51 43 52 44 53 58 55
REMARK SMILES IDX 79 56 46 57 30 58 31 59 39 60 32 61 38 62 40 63 37 64 33 65
REMARK SMILES IDX 34 66 35 67 36 68 62 69 63 70 71 71 64 72 70 73 72 74 69 75
REMARK SMILES IDX 65 76 66 77 67 78 68 79 47 80 48 81 56 82 49 83 55 84 57 85
REMARK SMILES IDX 54 86 50 87 51 88 52 89 53 90
REMARK H PARENT 77 43 45 54
REMARK Flexibility Score: inf
ROOT
ATOM      1  C   UNL A   1      38.526  21.556  25.551  1.00  0.00     0.275 C 
ENDROOT
BRANCH   1   2
ATOM      2  C   UNL A   1      37.009  21.786  25.576  1.00  0.00     0.275 C 
BRANCH   2   3
ATOM      3  O   UNL A   1      36.637  23.176  25.346  1.00  0.00    -0.458 OA
BRANCH   3   4
ATOM      4  C   UNL A   1      35.351  23.475  25.670  1.00  0.00     0.340 C 
ATOM      5  O   UNL A   1      34.799  23.077  26.683  1.00  0.00    -0.246 OA
BRANCH   4   6
ATOM      6  C   UNL A   1      34.569  24.109  24.587  1.00  0.00     0.087 A 
ATOM      7  N   UNL A   1      32.005  26.583  24.588  1.00  0.00    -0.281 N 
ATOM      8  C   UNL A   1      32.796  26.972  25.667  1.00  0.00     0.112 A 
ATOM      9  C   UNL A   1      32.679  25.527  23.976  1.00  0.00     0.075 A 
ATOM     10  C   UNL A   1      32.352  27.953  26.705  1.00  0.00     0.088 C 
ATOM     11  N   UNL A   1      33.869  26.214  25.781  1.00  0.00    -0.232 NA
ATOM     12  C   UNL A   1      33.766  25.248  24.819  1.00  0.00     0.104 A 
ATOM     13  C   UNL A   1      32.477  24.805  22.791  1.00  0.00     0.029 A 
ATOM     14  C   UNL A   1      33.374  23.762  22.502  1.00  0.00     0.003 A 
ATOM     15  C   UNL A   1      34.374  23.386  23.402  1.00  0.00     0.018 A 
BRANCH   7  16
ATOM     16  C   UNL A   1      30.721  27.161  24.331  1.00  0.00     0.138 A 
ATOM     17  C   UNL A   1      29.189  29.988  22.317  1.00  0.00     0.044 C 
ATOM     18  C   UNL A   1      29.383  28.723  23.100  1.00  0.00    -0.046 A 
ATOM     19  C   UNL A   1      28.306  27.839  23.210  1.00  0.00     0.023 A 
ATOM     20  C   UNL A   1      30.611  28.398  23.704  1.00  0.00     0.051 A 
ATOM     21  C   UNL A   1      28.486  26.670  23.914  1.00  0.00     0.114 A 
ATOM     22  N   UNL A   1      29.658  26.316  24.480  1.00  0.00    -0.239 NA
ENDBRANCH   7  16
ENDBRANCH   4   6
ENDBRANCH   3   4
ENDBRANCH   2   3
ENDBRANCH   1   2
BRANCH   1  23
ATOM     23  O   UNL A   1      39.146  22.423  26.517  1.00  0.00    -0.458 OA
BRANCH  23  24
ATOM     24  C   UNL A   1      40.500  22.390  26.541  1.00  0.00     0.338 C 
ATOM     25  O   UNL A   1      41.219  21.554  26.027  1.00  0.00    -0.246 OA
BRANCH  24  26
ATOM     26  C   UNL A   1      40.912  23.746  26.958  1.00  0.00     0.060 A 
ATOM     27  C   UNL A   1      41.873  23.990  27.949  1.00  0.00     0.016 A 
ATOM     28  C   UNL A   1      40.088  24.768  26.517  1.00  0.00     0.016 A 
ATOM     29  C   UNL A   1      41.927  25.247  28.575  1.00  0.00     0.010 A 
ATOM     30  C   UNL A   1      40.118  25.980  27.186  1.00  0.00     0.010 A 
ATOM     31  C   UNL A   1      40.997  26.231  28.233  1.00  0.00    -0.014 A 
BRANCH  31  32
ATOM     32  C   UNL A   1      40.945  27.568  28.846  1.00  0.00     0.031 A 
ATOM     33  C   UNL A   1      41.890  28.588  28.285  1.00  0.00     0.074 A 
ATOM     34  C   UNL A   1      39.946  28.041  29.633  1.00  0.00     0.049 A 
ATOM     35  N   UNL A   1      42.726  29.327  28.939  1.00  0.00    -0.248 NA
ATOM     36  C   UNL A   1      41.916  28.836  26.835  1.00  0.00     0.031 C 
ATOM     37  C   UNL A   1      38.679  27.415  30.008  1.00  0.00     0.029 A 
ATOM     38  N   UNL A   1      39.838  29.275  30.218  1.00  0.00    -0.354 N 
ATOM     39  C   UNL A   1      43.282  30.214  28.020  1.00  0.00     0.074 A 
ATOM     40  C   UNL A   1      42.766  29.855  26.730  1.00  0.00     0.031 C 
ATOM     41  C   UNL A   1      37.861  28.321  30.600  1.00  0.00     0.029 A 
ATOM     42  C   UNL A   1      38.608  29.546  30.814  1.00  0.00     0.049 A 
ATOM     43  H   UNL A   1      40.577  29.926  30.217  1.00  0.00     0.167 HD
ATOM     44  C   UNL A   1      44.080  31.251  28.391  1.00  0.00     0.034 A 
ATOM     45  C   UNL A   1      38.239  30.678  31.467  1.00  0.00     0.034 A 
ATOM     46  C   UNL A   1      44.646  31.030  29.691  1.00  0.00     0.049 A 
ATOM     47  C   UNL A   1      39.476  31.400  31.834  1.00  0.00     0.074 A 
ATOM     48  C   UNL A   1      45.422  30.014  30.219  1.00  0.00     0.029 A 
ATOM     49  N   UNL A   1      44.122  31.687  30.774  1.00  0.00    -0.354 N 
ATOM     50  N   UNL A   1      40.314  31.026  32.755  1.00  0.00    -0.248 NA
ATOM     51  C   UNL A   1      39.955  32.413  30.912  1.00  0.00     0.031 C 
ATOM     52  C   UNL A   1      44.876  29.783  31.511  1.00  0.00     0.029 A 
ATOM     53  C   UNL A   1      43.860  30.721  31.715  1.00  0.00     0.049 A 
ATOM     54  H   UNL A   1      43.964  32.655  30.860  1.00  0.00     0.167 HD
ATOM     55  C   UNL A   1      41.550  31.399  32.264  1.00  0.00     0.074 A 
ATOM     56  C   UNL A   1      41.257  32.359  31.199  1.00  0.00     0.031 C 
ATOM     57  C   UNL A   1      42.683  30.699  32.565  1.00  0.00     0.034 A 
BRANCH  44  58
ATOM     58  C   UNL A   1      44.188  32.544  27.636  1.00  0.00     0.023 A 
ATOM     59  C   UNL A   1      43.461  33.697  28.000  1.00  0.00     0.031 A 
ATOM     60  C   UNL A   1      45.192  32.720  26.663  1.00  0.00     0.131 A 
ATOM     61  C   UNL A   1      43.723  34.939  27.406  1.00  0.00     0.055 A 
ATOM     62  C   UNL A   1      45.489  33.969  26.109  1.00  0.00     0.041 A 
ATOM     63  F   UNL A   1      45.952  31.689  26.260  1.00  0.00    -0.206 F 
ATOM     64  C   UNL A   1      44.753  35.088  26.480  1.00  0.00     0.022 A 
BRANCH  61  65
ATOM     65  S   UNL A   1      42.735  36.401  27.832  1.00  0.00     0.124 S 
ATOM     66  O   UNL A   1      43.585  37.063  28.815  1.00  0.00    -0.237 OA
ATOM     67  O   UNL A   1      42.622  37.074  26.540  1.00  0.00    -0.237 OA
ATOM     68  O   UNL A   1      41.489  35.842  28.347  1.00  0.00    -0.744 OA
ENDBRANCH  61  65
ENDBRANCH  44  58
BRANCH  45  69
ATOM     69  C   UNL A   1      36.928  31.341  31.670  1.00  0.00     0.023 A 
ATOM     70  C   UNL A   1      36.226  31.867  30.573  1.00  0.00     0.031 A 
ATOM     71  C   UNL A   1      36.556  31.794  32.955  1.00  0.00     0.131 A 
ATOM     72  C   UNL A   1      35.261  32.872  30.772  1.00  0.00     0.055 A 
ATOM     73  C   UNL A   1      35.594  32.789  33.149  1.00  0.00     0.041 A 
ATOM     74  F   UNL A   1      37.185  31.337  34.050  1.00  0.00    -0.206 F 
ATOM     75  C   UNL A   1      34.957  33.351  32.050  1.00  0.00     0.022 A 
BRANCH  72  76
ATOM     76  S   UNL A   1      34.454  33.685  29.364  1.00  0.00     0.124 S 
ATOM     77  O   UNL A   1      35.530  34.517  28.833  1.00  0.00    -0.237 OA
ATOM     78  O   UNL A   1      34.077  32.544  28.535  1.00  0.00    -0.237 OA
ATOM     79  O   UNL A   1      33.346  34.414  29.975  1.00  0.00    -0.744 OA
ENDBRANCH  72  76
ENDBRANCH  45  69
BRANCH  57  80
ATOM     80  C   UNL A   1      42.660  29.626  33.643  1.00  0.00     0.023 A 
ATOM     81  C   UNL A   1      43.190  29.982  34.901  1.00  0.00     0.031 A 
ATOM     82  C   UNL A   1      42.391  28.259  33.431  1.00  0.00     0.131 A 
ATOM     83  C   UNL A   1      43.507  29.003  35.850  1.00  0.00     0.055 A 
ATOM     84  C   UNL A   1      42.621  27.293  34.420  1.00  0.00     0.041 A 
ATOM     85  F   UNL A   1      41.990  27.789  32.243  1.00  0.00    -0.206 F 
ATOM     86  C   UNL A   1      43.207  27.659  35.626  1.00  0.00     0.022 A 
BRANCH  83  87
ATOM     87  S   UNL A   1      44.498  29.432  37.306  1.00  0.00     0.124 S 
ATOM     88  O   UNL A   1      44.618  28.147  37.989  1.00  0.00    -0.237 OA
ATOM     89  O   UNL A   1      45.731  29.940  36.707  1.00  0.00    -0.237 OA
ATOM     90  O   UNL A   1      43.693  30.436  37.998  1.00  0.00    -0.744 OA
ENDBRANCH  83  87
ENDBRANCH  57  80
ENDBRANCH  31  32
ENDBRANCH  24  26
ENDBRANCH  23  24
ENDBRANCH   1  23
TORSDOF 15
ENDMDL
