MODEL 1
REMARK VINA RESULT:     -11.7      0.000      0.000
REMARK SMILES C[C@@H](C(=O)OCCOC(=O)c1ccc(-c2c3nc(c(-c4cc(S(=O)(=O)[O-])ccc4F)c4ccc([nH]4)c(-c4cc(S(=O)(=O)[O-])ccc4F)c4nc(c(-c5cc(S(=O)(=O)[O-])ccc5F)c5ccc2[nH]5)C=C4)C=C3)cc1)c1ccc(C[C@@H]2CCC[C@@H]2O)cc1
REMARK SMILES IDX 6 1 5 2 3 3 4 4 2 5 1 6 74 7 75 8 86 9 76 10 85 11 77 12
REMARK SMILES IDX 78 13 79 14 80 15 83 16 81 17 82 18 84 19 7 21 8 22 9 23
REMARK SMILES IDX 10 24 11 25 12 26 73 27 13 28 72 29 14 30 15 31 16 32 66 33
REMARK SMILES IDX 17 34 71 35 65 36 67 37 18 38 70 39 64 40 63 41 19 43 51 44
REMARK SMILES IDX 31 45 50 46 32 47 35 48 49 49 68 50 33 51 34 52 48 54 69 55
REMARK SMILES IDX 36 56 20 57 21 58 29 59 22 60 28 61 30 62 27 63 23 64 24 65
REMARK SMILES IDX 25 66 26 67 52 68 53 69 61 70 54 71 60 72 62 73 59 74 55 75
REMARK SMILES IDX 56 76 57 77 58 78 37 79 38 80 46 81 39 82 45 83 47 84 44 85
REMARK SMILES IDX 40 86 41 87 42 88 43 89
REMARK H PARENT 84 20 67 42 35 53
REMARK Flexibility Score: inf
ROOT
ATOM      1  C   UNL A   1      34.572  20.473  25.386  1.00  0.00     0.274 C 
ENDROOT
BRANCH   1   2
ATOM      2  O   UNL A   1      33.733  20.502  24.213  1.00  0.00    -0.462 OA
BRANCH   2   3
ATOM      3  C   UNL A   1      32.412  20.779  24.414  1.00  0.00     0.313 C 
ATOM      4  O   UNL A   1      31.786  20.422  25.406  1.00  0.00    -0.252 OA
BRANCH   3   5
ATOM      5  C   UNL A   1      31.792  21.500  23.208  1.00  0.00     0.126 C 
ATOM      6  C   UNL A   1      32.039  20.798  21.871  1.00  0.00     0.025 C 
BRANCH   5   7
ATOM      7  C   UNL A   1      32.237  22.955  23.147  1.00  0.00    -0.034 A 
ATOM      8  C   UNL A   1      33.592  23.300  23.057  1.00  0.00     0.005 A 
ATOM      9  C   UNL A   1      31.291  23.984  23.237  1.00  0.00     0.005 A 
ATOM     10  C   UNL A   1      33.997  24.637  23.139  1.00  0.00     0.004 A 
ATOM     11  C   UNL A   1      31.699  25.320  23.305  1.00  0.00     0.004 A 
ATOM     12  C   UNL A   1      33.056  25.659  23.302  1.00  0.00    -0.048 A 
BRANCH  12  13
ATOM     13  C   UNL A   1      33.488  27.096  23.469  1.00  0.00     0.041 C 
BRANCH  13  14
ATOM     14  C   UNL A   1      33.742  27.639  24.894  1.00  0.00     0.022 C 
ATOM     15  C   UNL A   1      33.501  26.634  26.016  1.00  0.00     0.007 C 
ATOM     16  C   UNL A   1      32.927  28.844  25.373  1.00  0.00     0.117 C 
ATOM     17  C   UNL A   1      32.087  26.896  26.539  1.00  0.00     0.003 C 
ATOM     18  C   UNL A   1      31.671  28.260  26.001  1.00  0.00     0.032 C 
BRANCH  16  19
ATOM     19  O   UNL A   1      32.635  29.775  24.350  1.00  0.00    -0.393 OA
ATOM     20  H   UNL A   1      31.991  30.423  24.678  1.00  0.00     0.210 HD
ENDBRANCH  16  19
ENDBRANCH  13  14
ENDBRANCH  12  13
ENDBRANCH   5   7
ENDBRANCH   3   5
ENDBRANCH   2   3
ENDBRANCH   1   2
BRANCH   1  21
ATOM     21  C   UNL A   1      36.036  20.355  24.967  1.00  0.00     0.275 C 
BRANCH  21  22
ATOM     22  O   UNL A   1      36.783  21.404  25.600  1.00  0.00    -0.458 OA
BRANCH  22  23
ATOM     23  C   UNL A   1      38.125  21.238  25.652  1.00  0.00     0.338 C 
ATOM     24  O   UNL A   1      38.739  20.229  25.333  1.00  0.00    -0.246 OA
BRANCH  23  25
ATOM     25  C   UNL A   1      38.765  22.469  26.175  1.00  0.00     0.060 A 
ATOM     26  C   UNL A   1      38.201  23.722  25.940  1.00  0.00     0.016 A 
ATOM     27  C   UNL A   1      39.981  22.386  26.864  1.00  0.00     0.016 A 
ATOM     28  C   UNL A   1      38.888  24.872  26.324  1.00  0.00     0.010 A 
ATOM     29  C   UNL A   1      40.632  23.550  27.308  1.00  0.00     0.010 A 
ATOM     30  C   UNL A   1      40.110  24.817  27.010  1.00  0.00    -0.014 A 
BRANCH  30  31
ATOM     31  C   UNL A   1      40.848  26.089  27.291  1.00  0.00     0.031 A 
ATOM     32  C   UNL A   1      40.362  27.023  28.374  1.00  0.00     0.074 A 
ATOM     33  C   UNL A   1      42.033  26.347  26.693  1.00  0.00     0.049 A 
ATOM     34  N   UNL A   1      40.837  28.187  28.739  1.00  0.00    -0.248 NA
ATOM     35  C   UNL A   1      39.183  26.596  29.141  1.00  0.00     0.031 C 
ATOM     36  C   UNL A   1      42.675  25.488  25.698  1.00  0.00     0.029 A 
ATOM     37  N   UNL A   1      42.956  27.346  26.903  1.00  0.00    -0.354 N 
ATOM     38  C   UNL A   1      39.956  28.678  29.697  1.00  0.00     0.074 A 
ATOM     39  C   UNL A   1      38.950  27.658  29.898  1.00  0.00     0.031 C 
ATOM     40  C   UNL A   1      43.940  25.895  25.519  1.00  0.00     0.029 A 
ATOM     41  C   UNL A   1      44.173  27.109  26.296  1.00  0.00     0.049 A 
ATOM     42  H   UNL A   1      42.768  28.152  27.436  1.00  0.00     0.167 HD
ATOM     43  C   UNL A   1      39.965  29.888  30.312  1.00  0.00     0.034 A 
ATOM     44  C   UNL A   1      45.343  27.781  26.379  1.00  0.00     0.034 A 
ATOM     45  C   UNL A   1      41.009  30.868  30.144  1.00  0.00     0.049 A 
ATOM     46  C   UNL A   1      45.364  29.093  27.128  1.00  0.00     0.074 A 
ATOM     47  C   UNL A   1      41.065  32.170  30.614  1.00  0.00     0.029 A 
ATOM     48  N   UNL A   1      42.203  30.641  29.474  1.00  0.00    -0.354 N 
ATOM     49  N   UNL A   1      44.435  29.633  27.882  1.00  0.00    -0.248 NA
ATOM     50  C   UNL A   1      46.575  29.915  26.984  1.00  0.00     0.031 C 
ATOM     51  C   UNL A   1      42.270  32.743  30.188  1.00  0.00     0.029 A 
ATOM     52  C   UNL A   1      42.995  31.778  29.507  1.00  0.00     0.049 A 
ATOM     53  H   UNL A   1      42.453  29.794  29.039  1.00  0.00     0.167 HD
ATOM     54  C   UNL A   1      44.935  30.875  28.263  1.00  0.00     0.074 A 
ATOM     55  C   UNL A   1      46.279  30.967  27.733  1.00  0.00     0.031 C 
ATOM     56  C   UNL A   1      44.320  31.873  28.946  1.00  0.00     0.034 A 
BRANCH  43  57
ATOM     57  C   UNL A   1      38.733  30.264  31.099  1.00  0.00     0.023 A 
ATOM     58  C   UNL A   1      37.636  30.932  30.532  1.00  0.00     0.031 A 
ATOM     59  C   UNL A   1      38.695  29.984  32.479  1.00  0.00     0.131 A 
ATOM     60  C   UNL A   1      36.576  31.351  31.354  1.00  0.00     0.055 A 
ATOM     61  C   UNL A   1      37.609  30.340  33.276  1.00  0.00     0.041 A 
ATOM     62  F   UNL A   1      39.729  29.372  33.079  1.00  0.00    -0.206 F 
ATOM     63  C   UNL A   1      36.546  31.039  32.718  1.00  0.00     0.022 A 
BRANCH  60  64
ATOM     64  S   UNL A   1      35.298  32.431  30.652  1.00  0.00     0.124 S 
ATOM     65  O   UNL A   1      34.277  32.398  31.697  1.00  0.00    -0.237 OA
ATOM     66  O   UNL A   1      36.008  33.694  30.490  1.00  0.00    -0.237 OA
ATOM     67  O   UNL A   1      34.927  31.760  29.408  1.00  0.00    -0.744 OA
ENDBRANCH  60  64
ENDBRANCH  43  57
BRANCH  44  68
ATOM     68  C   UNL A   1      46.597  27.268  25.743  1.00  0.00     0.023 A 
ATOM     69  C   UNL A   1      46.984  27.737  24.473  1.00  0.00     0.031 A 
ATOM     70  C   UNL A   1      47.387  26.266  26.332  1.00  0.00     0.131 A 
ATOM     71  C   UNL A   1      48.094  27.178  23.821  1.00  0.00     0.055 A 
ATOM     72  C   UNL A   1      48.537  25.769  25.713  1.00  0.00     0.041 A 
ATOM     73  F   UNL A   1      47.054  25.749  27.525  1.00  0.00    -0.206 F 
ATOM     74  C   UNL A   1      48.888  26.214  24.443  1.00  0.00     0.022 A 
BRANCH  71  75
ATOM     75  S   UNL A   1      48.414  27.643  22.096  1.00  0.00     0.124 S 
ATOM     76  O   UNL A   1      49.669  28.378  22.216  1.00  0.00    -0.237 OA
ATOM     77  O   UNL A   1      48.494  26.341  21.443  1.00  0.00    -0.237 OA
ATOM     78  O   UNL A   1      47.250  28.450  21.739  1.00  0.00    -0.744 OA
ENDBRANCH  71  75
ENDBRANCH  44  68
BRANCH  56  79
ATOM     79  C   UNL A   1      45.081  33.165  29.103  1.00  0.00     0.023 A 
ATOM     80  C   UNL A   1      44.819  34.263  28.262  1.00  0.00     0.031 A 
ATOM     81  C   UNL A   1      46.069  33.308  30.091  1.00  0.00     0.131 A 
ATOM     82  C   UNL A   1      45.569  35.440  28.391  1.00  0.00     0.055 A 
ATOM     83  C   UNL A   1      46.780  34.500  30.247  1.00  0.00     0.041 A 
ATOM     84  F   UNL A   1      46.357  32.295  30.922  1.00  0.00    -0.206 F 
ATOM     85  C   UNL A   1      46.539  35.571  29.388  1.00  0.00     0.022 A 
BRANCH  82  86
ATOM     86  S   UNL A   1      45.304  36.777  27.194  1.00  0.00     0.124 S 
ATOM     87  O   UNL A   1      44.003  36.430  26.632  1.00  0.00    -0.237 OA
ATOM     88  O   UNL A   1      45.337  37.966  28.040  1.00  0.00    -0.237 OA
ATOM     89  O   UNL A   1      46.432  36.642  26.273  1.00  0.00    -0.744 OA
ENDBRANCH  82  86
ENDBRANCH  56  79
ENDBRANCH  30  31
ENDBRANCH  23  25
ENDBRANCH  22  23
ENDBRANCH  21  22
ENDBRANCH   1  21
TORSDOF 18
ENDMDL
MODEL 2
REMARK VINA RESULT:     -11.7      4.989     10.357
REMARK SMILES C[C@@H](C(=O)OCCOC(=O)c1ccc(-c2c3nc(c(-c4cc(S(=O)(=O)[O-])ccc4F)c4ccc([nH]4)c(-c4cc(S(=O)(=O)[O-])ccc4F)c4nc(c(-c5cc(S(=O)(=O)[O-])ccc5F)c5ccc2[nH]5)C=C4)C=C3)cc1)c1ccc(C[C@@H]2CCC[C@@H]2O)cc1
REMARK SMILES IDX 6 1 5 2 3 3 4 4 2 5 1 6 74 7 75 8 86 9 76 10 85 11 77 12
REMARK SMILES IDX 78 13 79 14 80 15 83 16 81 17 82 18 84 19 7 21 8 22 9 23
REMARK SMILES IDX 10 24 11 25 12 26 73 27 13 28 72 29 14 30 15 31 16 32 66 33
REMARK SMILES IDX 17 34 71 35 65 36 67 37 18 38 70 39 64 40 63 41 19 43 51 44
REMARK SMILES IDX 31 45 50 46 32 47 35 48 49 49 68 50 33 51 34 52 48 54 69 55
REMARK SMILES IDX 36 56 20 57 21 58 29 59 22 60 28 61 30 62 27 63 23 64 24 65
REMARK SMILES IDX 25 66 26 67 52 68 53 69 61 70 54 71 60 72 62 73 59 74 55 75
REMARK SMILES IDX 56 76 57 77 58 78 37 79 38 80 46 81 39 82 45 83 47 84 44 85
REMARK SMILES IDX 40 86 41 87 42 88 43 89
REMARK H PARENT 84 20 67 42 35 53
REMARK Flexibility Score: inf
ROOT
ATOM      1  C   UNL A   1      32.471  29.318  24.732  1.00  0.00     0.274 C 
ENDROOT
BRANCH   1   2
ATOM      2  O   UNL A   1      31.831  28.782  23.555  1.00  0.00    -0.462 OA
BRANCH   2   3
ATOM      3  C   UNL A   1      32.612  28.037  22.720  1.00  0.00     0.313 C 
ATOM      4  O   UNL A   1      33.636  28.458  22.194  1.00  0.00    -0.252 OA
BRANCH   3   5
ATOM      5  C   UNL A   1      32.001  26.654  22.452  1.00  0.00     0.126 C 
ATOM      6  C   UNL A   1      30.626  26.449  23.093  1.00  0.00     0.025 C 
BRANCH   5   7
ATOM      7  C   UNL A   1      32.958  25.541  22.853  1.00  0.00    -0.034 A 
ATOM      8  C   UNL A   1      33.102  24.386  22.074  1.00  0.00     0.005 A 
ATOM      9  C   UNL A   1      33.678  25.630  24.052  1.00  0.00     0.005 A 
ATOM     10  C   UNL A   1      33.880  23.313  22.522  1.00  0.00     0.004 A 
ATOM     11  C   UNL A   1      34.465  24.560  24.491  1.00  0.00     0.004 A 
ATOM     12  C   UNL A   1      34.539  23.373  23.753  1.00  0.00    -0.048 A 
BRANCH  12  13
ATOM     13  C   UNL A   1      35.317  22.192  24.281  1.00  0.00     0.041 C 
BRANCH  13  14
ATOM     14  C   UNL A   1      34.577  21.121  25.115  1.00  0.00     0.022 C 
ATOM     15  C   UNL A   1      33.248  20.656  24.526  1.00  0.00     0.007 C 
ATOM     16  C   UNL A   1      34.179  21.462  26.554  1.00  0.00     0.117 C 
ATOM     17  C   UNL A   1      32.154  21.466  25.227  1.00  0.00     0.003 C 
ATOM     18  C   UNL A   1      32.801  22.097  26.455  1.00  0.00     0.032 C 
BRANCH  16  19
ATOM     19  O   UNL A   1      35.109  22.294  27.218  1.00  0.00    -0.393 OA
ATOM     20  H   UNL A   1      35.001  23.208  26.912  1.00  0.00     0.210 HD
ENDBRANCH  16  19
ENDBRANCH  13  14
ENDBRANCH  12  13
ENDBRANCH   5   7
ENDBRANCH   3   5
ENDBRANCH   2   3
ENDBRANCH   1   2
BRANCH   1  21
ATOM     21  C   UNL A   1      31.551  30.341  25.395  1.00  0.00     0.275 C 
BRANCH  21  22
ATOM     22  O   UNL A   1      31.920  30.465  26.777  1.00  0.00    -0.458 OA
BRANCH  22  23
ATOM     23  C   UNL A   1      32.626  31.570  27.112  1.00  0.00     0.338 C 
ATOM     24  O   UNL A   1      32.269  32.729  26.954  1.00  0.00    -0.246 OA
BRANCH  23  25
ATOM     25  C   UNL A   1      33.929  31.175  27.698  1.00  0.00     0.060 A 
ATOM     26  C   UNL A   1      34.283  29.832  27.813  1.00  0.00     0.016 A 
ATOM     27  C   UNL A   1      34.796  32.156  28.198  1.00  0.00     0.016 A 
ATOM     28  C   UNL A   1      35.451  29.481  28.488  1.00  0.00     0.010 A 
ATOM     29  C   UNL A   1      36.006  31.792  28.816  1.00  0.00     0.010 A 
ATOM     30  C   UNL A   1      36.333  30.442  29.003  1.00  0.00    -0.014 A 
BRANCH  30  31
ATOM     31  C   UNL A   1      37.510  29.994  29.814  1.00  0.00     0.031 A 
ATOM     32  C   UNL A   1      38.702  29.364  29.134  1.00  0.00     0.074 A 
ATOM     33  C   UNL A   1      37.588  30.279  31.133  1.00  0.00     0.049 A 
ATOM     34  N   UNL A   1      39.795  28.875  29.665  1.00  0.00    -0.248 NA
ATOM     35  C   UNL A   1      38.657  29.264  27.668  1.00  0.00     0.031 C 
ATOM     36  C   UNL A   1      36.554  30.970  31.905  1.00  0.00     0.029 A 
ATOM     37  N   UNL A   1      38.614  30.120  32.036  1.00  0.00    -0.354 N 
ATOM     38  C   UNL A   1      40.513  28.314  28.613  1.00  0.00     0.074 A 
ATOM     39  C   UNL A   1      39.759  28.576  27.407  1.00  0.00     0.031 C 
ATOM     40  C   UNL A   1      37.061  31.325  33.095  1.00  0.00     0.029 A 
ATOM     41  C   UNL A   1      38.415  30.795  33.224  1.00  0.00     0.049 A 
ATOM     42  H   UNL A   1      39.415  29.577  31.853  1.00  0.00     0.167 HD
ATOM     43  C   UNL A   1      41.670  27.606  28.663  1.00  0.00     0.034 A 
ATOM     44  C   UNL A   1      39.238  30.981  34.278  1.00  0.00     0.034 A 
ATOM     45  C   UNL A   1      42.439  27.406  29.867  1.00  0.00     0.049 A 
ATOM     46  C   UNL A   1      40.559  30.246  34.295  1.00  0.00     0.074 A 
ATOM     47  C   UNL A   1      43.554  26.609  30.066  1.00  0.00     0.029 A 
ATOM     48  N   UNL A   1      42.191  28.041  31.076  1.00  0.00    -0.354 N 
ATOM     49  N   UNL A   1      41.136  29.556  33.340  1.00  0.00    -0.248 NA
ATOM     50  C   UNL A   1      41.311  30.269  35.560  1.00  0.00     0.031 C 
ATOM     51  C   UNL A   1      43.949  26.725  31.405  1.00  0.00     0.029 A 
ATOM     52  C   UNL A   1      43.120  27.644  32.025  1.00  0.00     0.049 A 
ATOM     53  H   UNL A   1      41.460  28.680  31.237  1.00  0.00     0.167 HD
ATOM     54  C   UNL A   1      42.293  29.026  33.905  1.00  0.00     0.074 A 
ATOM     55  C   UNL A   1      42.380  29.550  35.252  1.00  0.00     0.031 C 
ATOM     56  C   UNL A   1      43.178  28.145  33.376  1.00  0.00     0.034 A 
BRANCH  43  57
ATOM     57  C   UNL A   1      42.080  26.875  27.408  1.00  0.00     0.023 A 
ATOM     58  C   UNL A   1      41.933  25.489  27.245  1.00  0.00     0.031 A 
ATOM     59  C   UNL A   1      42.689  27.603  26.366  1.00  0.00     0.131 A 
ATOM     60  C   UNL A   1      42.444  24.867  26.094  1.00  0.00     0.055 A 
ATOM     61  C   UNL A   1      43.131  26.989  25.196  1.00  0.00     0.041 A 
ATOM     62  F   UNL A   1      42.880  28.927  26.480  1.00  0.00    -0.206 F 
ATOM     63  C   UNL A   1      43.022  25.610  25.059  1.00  0.00     0.022 A 
BRANCH  60  64
ATOM     64  S   UNL A   1      42.475  23.053  26.020  1.00  0.00     0.124 S 
ATOM     65  O   UNL A   1      42.994  22.821  24.675  1.00  0.00    -0.237 OA
ATOM     66  O   UNL A   1      43.367  22.709  27.120  1.00  0.00    -0.237 OA
ATOM     67  O   UNL A   1      41.075  22.679  26.211  1.00  0.00    -0.744 OA
ENDBRANCH  60  64
ENDBRANCH  43  57
BRANCH  44  68
ATOM     68  C   UNL A   1      38.872  31.875  35.421  1.00  0.00     0.023 A 
ATOM     69  C   UNL A   1      38.310  31.329  36.590  1.00  0.00     0.031 A 
ATOM     70  C   UNL A   1      38.997  33.274  35.356  1.00  0.00     0.131 A 
ATOM     71  C   UNL A   1      37.858  32.171  37.618  1.00  0.00     0.055 A 
ATOM     72  C   UNL A   1      38.617  34.103  36.414  1.00  0.00     0.041 A 
ATOM     73  F   UNL A   1      39.491  33.863  34.255  1.00  0.00    -0.206 F 
ATOM     74  C   UNL A   1      38.030  33.554  37.549  1.00  0.00     0.022 A 
BRANCH  71  75
ATOM     75  S   UNL A   1      36.929  31.440  38.996  1.00  0.00     0.124 S 
ATOM     76  O   UNL A   1      35.731  32.272  39.020  1.00  0.00    -0.237 OA
ATOM     77  O   UNL A   1      36.746  30.065  38.540  1.00  0.00    -0.237 OA
ATOM     78  O   UNL A   1      37.826  31.604  40.137  1.00  0.00    -0.744 OA
ENDBRANCH  71  75
ENDBRANCH  44  68
BRANCH  56  79
ATOM     79  C   UNL A   1      44.280  27.655  34.282  1.00  0.00     0.023 A 
ATOM     80  C   UNL A   1      44.149  26.442  34.985  1.00  0.00     0.031 A 
ATOM     81  C   UNL A   1      45.463  28.392  34.448  1.00  0.00     0.131 A 
ATOM     82  C   UNL A   1      45.162  26.025  35.859  1.00  0.00     0.055 A 
ATOM     83  C   UNL A   1      46.491  27.948  35.284  1.00  0.00     0.041 A 
ATOM     84  F   UNL A   1      45.642  29.553  33.800  1.00  0.00    -0.206 F 
ATOM     85  C   UNL A   1      46.339  26.764  36.003  1.00  0.00     0.022 A 
BRANCH  82  86
ATOM     86  S   UNL A   1      44.892  24.535  36.858  1.00  0.00     0.124 S 
ATOM     87  O   UNL A   1      44.119  23.695  35.949  1.00  0.00    -0.237 OA
ATOM     88  O   UNL A   1      46.255  24.091  37.134  1.00  0.00    -0.237 OA
ATOM     89  O   UNL A   1      44.156  25.029  38.020  1.00  0.00    -0.744 OA
ENDBRANCH  82  86
ENDBRANCH  56  79
ENDBRANCH  30  31
ENDBRANCH  23  25
ENDBRANCH  22  23
ENDBRANCH  21  22
ENDBRANCH   1  21
TORSDOF 18
ENDMDL
MODEL 3
REMARK VINA RESULT:     -11.6      3.529      9.896
REMARK SMILES C[C@@H](C(=O)OCCOC(=O)c1ccc(-c2c3nc(c(-c4cc(S(=O)(=O)[O-])ccc4F)c4ccc([nH]4)c(-c4cc(S(=O)(=O)[O-])ccc4F)c4nc(c(-c5cc(S(=O)(=O)[O-])ccc5F)c5ccc2[nH]5)C=C4)C=C3)cc1)c1ccc(C[C@@H]2CCC[C@@H]2O)cc1
REMARK SMILES IDX 6 1 5 2 3 3 4 4 2 5 1 6 74 7 75 8 86 9 76 10 85 11 77 12
REMARK SMILES IDX 78 13 79 14 80 15 83 16 81 17 82 18 84 19 7 21 8 22 9 23
REMARK SMILES IDX 10 24 11 25 12 26 73 27 13 28 72 29 14 30 15 31 16 32 66 33
REMARK SMILES IDX 17 34 71 35 65 36 67 37 18 38 70 39 64 40 63 41 19 43 51 44
REMARK SMILES IDX 31 45 50 46 32 47 35 48 49 49 68 50 33 51 34 52 48 54 69 55
REMARK SMILES IDX 36 56 20 57 21 58 29 59 22 60 28 61 30 62 27 63 23 64 24 65
REMARK SMILES IDX 25 66 26 67 52 68 53 69 61 70 54 71 60 72 62 73 59 74 55 75
REMARK SMILES IDX 56 76 57 77 58 78 37 79 38 80 46 81 39 82 45 83 47 84 44 85
REMARK SMILES IDX 40 86 41 87 42 88 43 89
REMARK H PARENT 84 20 67 42 35 53
REMARK Flexibility Score: inf
ROOT
ATOM      1  C   UNL A   1      42.025  19.461  26.088  1.00  0.00     0.274 C 
ENDROOT
BRANCH   1   2
ATOM      2  O   UNL A   1      42.672  20.750  26.091  1.00  0.00    -0.462 OA
BRANCH   2   3
ATOM      3  C   UNL A   1      43.927  20.805  25.558  1.00  0.00     0.313 C 
ATOM      4  O   UNL A   1      44.645  19.824  25.407  1.00  0.00    -0.252 OA
BRANCH   3   5
ATOM      5  C   UNL A   1      44.357  22.250  25.264  1.00  0.00     0.126 C 
ATOM      6  C   UNL A   1      45.374  22.375  24.126  1.00  0.00     0.025 C 
BRANCH   5   7
ATOM      7  C   UNL A   1      44.863  22.942  26.522  1.00  0.00    -0.034 A 
ATOM      8  C   UNL A   1      44.154  22.873  27.728  1.00  0.00     0.005 A 
ATOM      9  C   UNL A   1      46.031  23.714  26.479  1.00  0.00     0.005 A 
ATOM     10  C   UNL A   1      44.556  23.623  28.838  1.00  0.00     0.004 A 
ATOM     11  C   UNL A   1      46.438  24.452  27.595  1.00  0.00     0.004 A 
ATOM     12  C   UNL A   1      45.681  24.451  28.772  1.00  0.00    -0.048 A 
BRANCH  12  13
ATOM     13  C   UNL A   1      46.079  25.323  29.939  1.00  0.00     0.041 C 
BRANCH  13  14
ATOM     14  C   UNL A   1      44.971  26.013  30.767  1.00  0.00     0.022 C 
ATOM     15  C   UNL A   1      45.198  27.499  31.028  1.00  0.00     0.007 C 
ATOM     16  C   UNL A   1      44.679  25.489  32.176  1.00  0.00     0.117 C 
ATOM     17  C   UNL A   1      45.828  27.606  32.418  1.00  0.00     0.003 C 
ATOM     18  C   UNL A   1      45.614  26.258  33.097  1.00  0.00     0.032 C 
BRANCH  16  19
ATOM     19  O   UNL A   1      44.829  24.089  32.304  1.00  0.00    -0.393 OA
ATOM     20  H   UNL A   1      44.036  23.647  31.964  1.00  0.00     0.210 HD
ENDBRANCH  16  19
ENDBRANCH  13  14
ENDBRANCH  12  13
ENDBRANCH   5   7
ENDBRANCH   3   5
ENDBRANCH   2   3
ENDBRANCH   1   2
BRANCH   1  21
ATOM     21  C   UNL A   1      40.526  19.639  25.861  1.00  0.00     0.275 C 
BRANCH  21  22
ATOM     22  O   UNL A   1      40.035  20.627  26.780  1.00  0.00    -0.458 OA
BRANCH  22  23
ATOM     23  C   UNL A   1      39.279  21.616  26.249  1.00  0.00     0.338 C 
ATOM     24  O   UNL A   1      38.433  21.488  25.374  1.00  0.00    -0.246 OA
BRANCH  23  25
ATOM     25  C   UNL A   1      39.636  22.913  26.875  1.00  0.00     0.060 A 
ATOM     26  C   UNL A   1      39.067  24.103  26.425  1.00  0.00     0.016 A 
ATOM     27  C   UNL A   1      40.598  22.956  27.892  1.00  0.00     0.016 A 
ATOM     28  C   UNL A   1      39.515  25.319  26.936  1.00  0.00     0.010 A 
ATOM     29  C   UNL A   1      40.993  24.185  28.449  1.00  0.00     0.010 A 
ATOM     30  C   UNL A   1      40.482  25.392  27.950  1.00  0.00    -0.014 A 
BRANCH  30  31
ATOM     31  C   UNL A   1      41.000  26.732  28.372  1.00  0.00     0.031 A 
ATOM     32  C   UNL A   1      42.339  27.218  27.871  1.00  0.00     0.074 A 
ATOM     33  C   UNL A   1      40.220  27.583  29.076  1.00  0.00     0.049 A 
ATOM     34  N   UNL A   1      42.977  28.326  28.155  1.00  0.00    -0.248 NA
ATOM     35  C   UNL A   1      43.059  26.340  26.937  1.00  0.00     0.031 C 
ATOM     36  C   UNL A   1      38.866  27.288  29.544  1.00  0.00     0.029 A 
ATOM     37  N   UNL A   1      40.407  28.899  29.434  1.00  0.00    -0.354 N 
ATOM     38  C   UNL A   1      44.214  28.229  27.524  1.00  0.00     0.074 A 
ATOM     39  C   UNL A   1      44.212  26.979  26.796  1.00  0.00     0.031 C 
ATOM     40  C   UNL A   1      38.290  28.424  29.963  1.00  0.00     0.029 A 
ATOM     41  C   UNL A   1      39.262  29.512  29.902  1.00  0.00     0.049 A 
ATOM     42  H   UNL A   1      41.274  29.360  29.362  1.00  0.00     0.167 HD
ATOM     43  C   UNL A   1      45.266  29.084  27.591  1.00  0.00     0.034 A 
ATOM     44  C   UNL A   1      39.023  30.803  30.220  1.00  0.00     0.034 A 
ATOM     45  C   UNL A   1      45.228  30.354  28.273  1.00  0.00     0.049 A 
ATOM     46  C   UNL A   1      40.186  31.768  30.222  1.00  0.00     0.074 A 
ATOM     47  C   UNL A   1      46.261  31.244  28.514  1.00  0.00     0.029 A 
ATOM     48  N   UNL A   1      44.081  30.933  28.799  1.00  0.00    -0.354 N 
ATOM     49  N   UNL A   1      41.413  31.590  29.789  1.00  0.00    -0.248 NA
ATOM     50  C   UNL A   1      39.943  33.093  30.812  1.00  0.00     0.031 C 
ATOM     51  C   UNL A   1      45.748  32.336  29.225  1.00  0.00     0.029 A 
ATOM     52  C   UNL A   1      44.383  32.158  29.373  1.00  0.00     0.049 A 
ATOM     53  H   UNL A   1      43.183  30.531  28.770  1.00  0.00     0.167 HD
ATOM     54  C   UNL A   1      42.095  32.763  30.099  1.00  0.00     0.074 A 
ATOM     55  C   UNL A   1      41.125  33.674  30.669  1.00  0.00     0.031 C 
ATOM     56  C   UNL A   1      43.416  33.045  29.971  1.00  0.00     0.034 A 
BRANCH  43  57
ATOM     57  C   UNL A   1      46.581  28.595  27.035  1.00  0.00     0.023 A 
ATOM     58  C   UNL A   1      46.826  28.449  25.661  1.00  0.00     0.031 A 
ATOM     59  C   UNL A   1      47.598  28.214  27.933  1.00  0.00     0.131 A 
ATOM     60  C   UNL A   1      48.035  27.879  25.227  1.00  0.00     0.055 A 
ATOM     61  C   UNL A   1      48.823  27.715  27.493  1.00  0.00     0.041 A 
ATOM     62  F   UNL A   1      47.408  28.307  29.258  1.00  0.00    -0.206 F 
ATOM     63  C   UNL A   1      49.043  27.532  26.133  1.00  0.00     0.022 A 
BRANCH  60  64
ATOM     64  S   UNL A   1      48.226  27.463  23.471  1.00  0.00     0.124 S 
ATOM     65  O   UNL A   1      47.128  28.214  22.869  1.00  0.00    -0.237 OA
ATOM     66  O   UNL A   1      49.570  27.946  23.178  1.00  0.00    -0.237 OA
ATOM     67  O   UNL A   1      48.065  26.010  23.443  1.00  0.00    -0.744 OA
ENDBRANCH  60  64
ENDBRANCH  43  57
BRANCH  44  68
ATOM     68  C   UNL A   1      37.654  31.290  30.579  1.00  0.00     0.023 A 
ATOM     69  C   UNL A   1      36.757  31.676  29.565  1.00  0.00     0.031 A 
ATOM     70  C   UNL A   1      37.235  31.452  31.910  1.00  0.00     0.131 A 
ATOM     71  C   UNL A   1      35.516  32.241  29.898  1.00  0.00     0.055 A 
ATOM     72  C   UNL A   1      35.968  31.942  32.235  1.00  0.00     0.041 A 
ATOM     73  F   UNL A   1      38.055  31.137  32.925  1.00  0.00    -0.206 F 
ATOM     74  C   UNL A   1      35.104  32.354  31.226  1.00  0.00     0.022 A 
BRANCH  71  75
ATOM     75  S   UNL A   1      34.495  32.940  28.569  1.00  0.00     0.124 S 
ATOM     76  O   UNL A   1      33.717  33.942  29.289  1.00  0.00    -0.237 OA
ATOM     77  O   UNL A   1      35.506  33.453  27.650  1.00  0.00    -0.237 OA
ATOM     78  O   UNL A   1      33.735  31.791  28.082  1.00  0.00    -0.744 OA
ENDBRANCH  71  75
ENDBRANCH  44  68
BRANCH  56  79
ATOM     79  C   UNL A   1      43.888  34.371  30.512  1.00  0.00     0.023 A 
ATOM     80  C   UNL A   1      43.850  35.529  29.714  1.00  0.00     0.031 A 
ATOM     81  C   UNL A   1      44.375  34.486  31.824  1.00  0.00     0.131 A 
ATOM     82  C   UNL A   1      44.337  36.744  30.216  1.00  0.00     0.055 A 
ATOM     83  C   UNL A   1      44.815  35.709  32.336  1.00  0.00     0.041 A 
ATOM     84  F   UNL A   1      44.430  33.414  32.630  1.00  0.00    -0.206 F 
ATOM     85  C   UNL A   1      44.807  36.844  31.528  1.00  0.00     0.022 A 
BRANCH  82  86
ATOM     86  S   UNL A   1      44.409  38.178  29.108  1.00  0.00     0.124 S 
ATOM     87  O   UNL A   1      45.331  37.719  28.074  1.00  0.00    -0.237 OA
ATOM     88  O   UNL A   1      43.016  38.329  28.700  1.00  0.00    -0.237 OA
ATOM     89  O   UNL A   1      44.922  39.247  29.963  1.00  0.00    -0.744 OA
ENDBRANCH  82  86
ENDBRANCH  56  79
ENDBRANCH  30  31
ENDBRANCH  23  25
ENDBRANCH  22  23
ENDBRANCH  21  22
ENDBRANCH   1  21
TORSDOF 18
ENDMDL
