MODEL 1
REMARK VINA RESULT:     -12.6      0.000      0.000
REMARK SMILES Cc1ccc(S(=O)(=O)n2cc(C(=O)C(=O)NCC(=O)NCC(=O)OCCOC(=O)c3ccc(-c4c5nc(c(-c6cc(S(=O)(=O)[O-])ccc6F)c6ccc([nH]6)c(-c6cc(S(=O)(=O)[O-])ccc6F)c6nc(c(-c7cc(S(=O)(=O)[O-])ccc7F)c7ccc4[nH]7)C=C6)C=C5)cc3)c3ccccc32)cc1
REMARK SMILES IDX 22 1 23 2 21 3 20 4 18 5 19 6 17 8 16 9 14 10 15 11 12 13
REMARK SMILES IDX 13 14 11 15 9 16 10 17 98 18 93 19 97 20 94 21 96 22 95 23
REMARK SMILES IDX 6 24 7 25 8 26 5 27 1 28 2 29 3 30 100 31 4 32 99 33 24 34
REMARK SMILES IDX 25 35 26 36 27 37 28 38 29 39 30 40 31 41 92 42 32 43 91 44
REMARK SMILES IDX 33 45 34 46 35 47 85 48 36 49 90 50 84 51 86 52 37 53 89 54
REMARK SMILES IDX 83 55 82 56 38 58 70 59 50 60 69 61 51 62 54 63 68 64 87 65
REMARK SMILES IDX 52 66 53 67 67 69 88 70 55 71 39 72 40 73 48 74 41 75 47 76
REMARK SMILES IDX 49 77 46 78 42 79 43 80 44 81 45 82 71 83 72 84 80 85 73 86
REMARK SMILES IDX 79 87 81 88 78 89 74 90 75 91 76 92 77 93 56 94 57 95 65 96
REMARK SMILES IDX 58 97 64 98 66 99 63 100 59 101 60 102 61 103 62 104
REMARK H PARENT 20 7 16 12 86 57 54 68
REMARK Flexibility Score: inf
ROOT
ATOM      1  C   UNL A   1      34.913  33.007  28.290  1.00  0.00     0.325 C 
ATOM      2  O   UNL A   1      34.652  34.146  27.804  1.00  0.00    -0.250 OA
ENDROOT
BRANCH   1   3
ATOM      3  C   UNL A   1      34.579  31.006  27.508  1.00  0.00     0.238 C 
BRANCH   3   4
ATOM      4  N   UNL A   1      33.317  29.945  27.542  1.00  0.00    -0.344 N 
ATOM      5  C   UNL A   1      32.907  28.879  26.819  1.00  0.00     0.239 C 
ATOM      6  O   UNL A   1      31.903  28.285  27.237  1.00  0.00    -0.273 OA
ATOM      7  H   UNL A   1      32.699  30.138  28.284  1.00  0.00     0.164 HD
BRANCH   5   8
ATOM      8  C   UNL A   1      33.677  28.293  25.651  1.00  0.00     0.216 C 
BRANCH   8   9
ATOM      9  N   UNL A   1      33.137  28.526  24.333  1.00  0.00    -0.340 N 
ATOM     10  C   UNL A   1      32.842  27.629  23.325  1.00  0.00     0.292 C 
ATOM     11  O   UNL A   1      32.013  28.001  22.504  1.00  0.00    -0.265 OA
ATOM     12  H   UNL A   1      32.951  29.469  24.120  1.00  0.00     0.164 HD
BRANCH  10  13
ATOM     13  C   UNL A   1      33.443  26.187  23.273  1.00  0.00     0.252 C 
ATOM     14  O   UNL A   1      34.125  25.948  22.277  1.00  0.00    -0.283 OA
BRANCH  13  15
ATOM     15  C   UNL A   1      33.388  25.171  24.371  1.00  0.00     0.054 A 
ATOM     16  N   UNL A   1      33.803  23.465  25.758  1.00  0.00    -0.240 N 
ATOM     17  C   UNL A   1      34.372  24.542  25.117  1.00  0.00     0.117 A 
ATOM     18  C   UNL A   1      32.485  23.721  25.964  1.00  0.00     0.065 A 
ATOM     19  C   UNL A   1      32.188  24.777  25.089  1.00  0.00     0.012 A 
ATOM     20  C   UNL A   1      31.558  23.136  26.832  1.00  0.00     0.028 A 
ATOM     21  C   UNL A   1      30.871  25.266  25.096  1.00  0.00     0.011 A 
ATOM     22  C   UNL A   1      30.282  23.678  26.844  1.00  0.00     0.002 A 
ATOM     23  C   UNL A   1      29.943  24.728  25.994  1.00  0.00     0.001 A 
BRANCH  16  24
ATOM     24  S   UNL A   1      34.674  22.185  26.431  1.00  0.00     0.268 S 
ATOM     25  O   UNL A   1      34.122  22.024  27.760  1.00  0.00    -0.201 OA
ATOM     26  O   UNL A   1      36.049  22.525  26.135  1.00  0.00    -0.201 OA
BRANCH  24  27
ATOM     27  C   UNL A   1      34.349  20.714  25.497  1.00  0.00     0.088 A 
ATOM     28  C   UNL A   1      33.177  16.949  23.755  1.00  0.00     0.044 C 
ATOM     29  C   UNL A   1      33.628  18.268  24.309  1.00  0.00    -0.051 A 
ATOM     30  C   UNL A   1      32.662  19.113  24.842  1.00  0.00     0.005 A 
ATOM     31  C   UNL A   1      34.967  18.679  24.342  1.00  0.00     0.005 A 
ATOM     32  C   UNL A   1      33.017  20.330  25.414  1.00  0.00     0.022 A 
ATOM     33  C   UNL A   1      35.334  19.898  24.944  1.00  0.00     0.022 A 
ENDBRANCH  24  27
ENDBRANCH  16  24
ENDBRANCH  13  15
ENDBRANCH  10  13
ENDBRANCH   8   9
ENDBRANCH   5   8
ENDBRANCH   3   4
ENDBRANCH   1   3
BRANCH   1  34
ATOM     34  O   UNL A   1      35.613  33.269  29.518  1.00  0.00    -0.461 OA
BRANCH  34  35
ATOM     35  C   UNL A   1      36.981  33.678  29.396  1.00  0.00     0.274 C 
BRANCH  35  36
ATOM     36  C   UNL A   1      37.866  32.424  29.383  1.00  0.00     0.275 C 
BRANCH  36  37
ATOM     37  O   UNL A   1      38.383  31.949  30.663  1.00  0.00    -0.458 OA
BRANCH  37  38
ATOM     38  C   UNL A   1      37.780  31.044  31.479  1.00  0.00     0.338 C 
ATOM     39  O   UNL A   1      36.974  31.314  32.355  1.00  0.00    -0.246 OA
BRANCH  38  40
ATOM     40  C   UNL A   1      38.329  29.683  31.402  1.00  0.00     0.060 A 
ATOM     41  C   UNL A   1      39.934  29.406  32.184  1.00  0.00     0.016 A 
ATOM     42  C   UNL A   1      37.800  28.648  30.018  1.00  0.00     0.016 A 
ATOM     43  C   UNL A   1      41.117  28.258  31.392  1.00  0.00     0.010 A 
ATOM     44  C   UNL A   1      38.965  27.494  29.267  1.00  0.00     0.010 A 
ATOM     45  C   UNL A   1      40.659  27.398  29.882  1.00  0.00    -0.014 A 
BRANCH  45  46
ATOM     46  C   UNL A   1      41.580  27.275  28.702  1.00  0.00     0.031 A 
ATOM     47  C   UNL A   1      41.856  25.913  28.208  1.00  0.00     0.074 A 
ATOM     48  C   UNL A   1      42.032  28.337  28.007  1.00  0.00     0.049 A 
ATOM     49  N   UNL A   1      41.901  25.418  27.019  1.00  0.00    -0.248 NA
ATOM     50  C   UNL A   1      42.081  24.927  29.237  1.00  0.00     0.031 C 
ATOM     51  C   UNL A   1      42.635  28.326  26.679  1.00  0.00     0.029 A 
ATOM     52  N   UNL A   1      42.179  29.646  28.436  1.00  0.00    -0.354 N 
ATOM     53  C   UNL A   1      42.318  24.102  27.184  1.00  0.00     0.074 A 
ATOM     54  C   UNL A   1      42.206  23.793  28.584  1.00  0.00     0.031 C 
ATOM     55  C   UNL A   1      43.264  29.491  26.469  1.00  0.00     0.029 A 
ATOM     56  C   UNL A   1      43.217  30.242  27.707  1.00  0.00     0.049 A 
ATOM     57  H   UNL A   1      41.644  30.085  29.136  1.00  0.00     0.167 HD
ATOM     58  C   UNL A   1      43.405  23.556  26.590  1.00  0.00     0.034 A 
ATOM     59  C   UNL A   1      44.313  30.724  28.358  1.00  0.00     0.034 A 
ATOM     60  C   UNL A   1      44.309  24.552  26.034  1.00  0.00     0.049 A 
ATOM     61  C   UNL A   1      45.537  29.871  28.083  1.00  0.00     0.074 A 
ATOM     62  C   UNL A   1      44.199  25.365  24.923  1.00  0.00     0.029 A 
ATOM     63  N   UNL A   1      45.343  25.098  26.802  1.00  0.00    -0.354 N 
ATOM     64  N   UNL A   1      45.504  28.668  27.559  1.00  0.00    -0.248 NA
ATOM     65  C   UNL A   1      46.895  30.350  28.282  1.00  0.00     0.031 C 
ATOM     66  C   UNL A   1      45.135  26.430  25.051  1.00  0.00     0.029 A 
ATOM     67  C   UNL A   1      45.883  26.242  26.204  1.00  0.00     0.049 A 
ATOM     68  H   UNL A   1      45.653  24.724  27.658  1.00  0.00     0.167 HD
ATOM     69  C   UNL A   1      46.780  28.220  27.307  1.00  0.00     0.074 A 
ATOM     70  C   UNL A   1      47.605  29.341  27.750  1.00  0.00     0.031 C 
ATOM     71  C   UNL A   1      47.042  26.974  26.772  1.00  0.00     0.034 A 
BRANCH  58  72
ATOM     72  C   UNL A   1      43.357  22.058  26.363  1.00  0.00     0.023 A 
ATOM     73  C   UNL A   1      44.555  21.450  25.992  1.00  0.00     0.031 A 
ATOM     74  C   UNL A   1      42.195  21.226  26.288  1.00  0.00     0.131 A 
ATOM     75  C   UNL A   1      44.563  20.150  25.462  1.00  0.00     0.055 A 
ATOM     76  C   UNL A   1      42.222  19.904  25.834  1.00  0.00     0.041 A 
ATOM     77  F   UNL A   1      40.958  21.654  26.584  1.00  0.00    -0.206 F 
ATOM     78  C   UNL A   1      43.410  19.369  25.380  1.00  0.00     0.022 A 
BRANCH  75  79
ATOM     79  S   UNL A   1      46.101  19.567  24.721  1.00  0.00     0.124 S 
ATOM     80  O   UNL A   1      45.618  18.878  23.528  1.00  0.00    -0.237 OA
ATOM     81  O   UNL A   1      46.825  20.813  24.505  1.00  0.00    -0.237 OA
ATOM     82  O   UNL A   1      46.661  18.691  25.749  1.00  0.00    -0.744 OA
ENDBRANCH  75  79
ENDBRANCH  58  72
BRANCH  59  83
ATOM     83  C   UNL A   1      43.924  31.514  29.567  1.00  0.00     0.023 A 
ATOM     84  C   UNL A   1      44.228  30.892  30.806  1.00  0.00     0.031 A 
ATOM     85  C   UNL A   1      43.822  32.911  29.555  1.00  0.00     0.131 A 
ATOM     86  C   UNL A   1      44.689  31.656  31.887  1.00  0.00     0.055 A 
ATOM     87  C   UNL A   1      44.169  33.672  30.686  1.00  0.00     0.041 A 
ATOM     88  F   UNL A   1      43.579  33.571  28.415  1.00  0.00    -0.206 F 
ATOM     89  C   UNL A   1      44.680  33.049  31.827  1.00  0.00     0.022 A 
BRANCH  86  90
ATOM     90  S   UNL A   1      45.578  30.804  33.232  1.00  0.00     0.124 S 
ATOM     91  O   UNL A   1      46.920  30.680  32.672  1.00  0.00    -0.237 OA
ATOM     92  O   UNL A   1      45.445  31.737  34.349  1.00  0.00    -0.237 OA
ATOM     93  O   UNL A   1      44.849  29.547  33.383  1.00  0.00    -0.744 OA
ENDBRANCH  86  90
ENDBRANCH  59  83
BRANCH  71  94
ATOM     94  C   UNL A   1      48.441  26.335  26.684  1.00  0.00     0.023 A 
ATOM     95  C   UNL A   1      49.428  26.737  25.766  1.00  0.00     0.031 A 
ATOM     96  C   UNL A   1      48.901  25.408  27.652  1.00  0.00     0.131 A 
ATOM     97  C   UNL A   1      50.765  26.297  25.834  1.00  0.00     0.055 A 
ATOM     98  C   UNL A   1      50.225  24.937  27.705  1.00  0.00     0.041 A 
ATOM     99  F   UNL A   1      48.116  24.972  28.646  1.00  0.00    -0.206 F 
ATOM    100  C   UNL A   1      51.170  25.377  26.791  1.00  0.00     0.022 A 
BRANCH  97 101
ATOM    101  S   UNL A   1      52.006  27.238  24.882  1.00  0.00     0.124 S 
ATOM    102  O   UNL A   1      51.195  28.268  24.244  1.00  0.00    -0.237 OA
ATOM    103  O   UNL A   1      52.907  27.703  25.933  1.00  0.00    -0.237 OA
ATOM    104  O   UNL A   1      52.580  26.235  23.989  1.00  0.00    -0.744 OA
ENDBRANCH  97 101
ENDBRANCH  71  94
ENDBRANCH  45  46
ENDBRANCH  38  40
ENDBRANCH  37  38
ENDBRANCH  36  37
ENDBRANCH  35  36
ENDBRANCH  34  35
ENDBRANCH   1  34
TORSDOF 21
ENDMDL
MODEL 2
REMARK VINA RESULT:     -11.6      4.445     11.448
REMARK SMILES Cc1ccc(S(=O)(=O)n2cc(C(=O)C(=O)NCC(=O)NCC(=O)OCCOC(=O)c3ccc(-c4c5nc(c(-c6cc(S(=O)(=O)[O-])ccc6F)c6ccc([nH]6)c(-c6cc(S(=O)(=O)[O-])ccc6F)c6nc(c(-c7cc(S(=O)(=O)[O-])ccc7F)c7ccc4[nH]7)C=C6)C=C5)cc3)c3ccccc32)cc1
REMARK SMILES IDX 22 1 23 2 21 3 20 4 18 5 19 6 17 8 16 9 14 10 15 11 12 13
REMARK SMILES IDX 13 14 11 15 9 16 10 17 98 18 93 19 97 20 94 21 96 22 95 23
REMARK SMILES IDX 6 24 7 25 8 26 5 27 1 28 2 29 3 30 100 31 4 32 99 33 24 34
REMARK SMILES IDX 25 35 26 36 27 37 28 38 29 39 30 40 31 41 92 42 32 43 91 44
REMARK SMILES IDX 33 45 34 46 35 47 85 48 36 49 90 50 84 51 86 52 37 53 89 54
REMARK SMILES IDX 83 55 82 56 38 58 70 59 50 60 69 61 51 62 54 63 68 64 87 65
REMARK SMILES IDX 52 66 53 67 67 69 88 70 55 71 39 72 40 73 48 74 41 75 47 76
REMARK SMILES IDX 49 77 46 78 42 79 43 80 44 81 45 82 71 83 72 84 80 85 73 86
REMARK SMILES IDX 79 87 81 88 78 89 74 90 75 91 76 92 77 93 56 94 57 95 65 96
REMARK SMILES IDX 58 97 64 98 66 99 63 100 59 101 60 102 61 103 62 104
REMARK H PARENT 20 7 16 12 86 57 54 68
REMARK Flexibility Score: inf
ROOT
ATOM      1  C   UNL A   1      38.349  21.528  25.718  1.00  0.00     0.325 C 
ATOM      2  O   UNL A   1      37.851  22.688  25.640  1.00  0.00    -0.250 OA
ENDROOT
BRANCH   1   3
ATOM      3  C   UNL A   1      37.714  19.635  24.858  1.00  0.00     0.238 C 
BRANCH   3   4
ATOM      4  N   UNL A   1      37.434  18.125  25.458  1.00  0.00    -0.344 N 
ATOM      5  C   UNL A   1      36.447  17.205  25.389  1.00  0.00     0.239 C 
ATOM      6  O   UNL A   1      36.668  16.120  25.945  1.00  0.00    -0.273 OA
ATOM      7  H   UNL A   1      38.184  17.810  26.013  1.00  0.00     0.164 HD
BRANCH   5   8
ATOM      8  C   UNL A   1      35.186  17.365  24.560  1.00  0.00     0.216 C 
BRANCH   8   9
ATOM      9  N   UNL A   1      33.933  17.368  25.275  1.00  0.00    -0.340 N 
ATOM     10  C   UNL A   1      32.698  17.859  24.897  1.00  0.00     0.292 C 
ATOM     11  O   UNL A   1      31.731  17.366  25.463  1.00  0.00    -0.265 OA
ATOM     12  H   UNL A   1      33.963  16.959  26.170  1.00  0.00     0.164 HD
BRANCH  10  13
ATOM     13  C   UNL A   1      32.520  18.906  23.751  1.00  0.00     0.252 C 
ATOM     14  O   UNL A   1      31.986  18.470  22.731  1.00  0.00    -0.283 OA
BRANCH  13  15
ATOM     15  C   UNL A   1      32.791  20.375  23.852  1.00  0.00     0.054 A 
ATOM     16  N   UNL A   1      33.279  22.516  23.423  1.00  0.00    -0.240 N 
ATOM     17  C   UNL A   1      32.540  21.436  22.997  1.00  0.00     0.117 A 
ATOM     18  C   UNL A   1      33.476  22.414  24.762  1.00  0.00     0.065 A 
ATOM     19  C   UNL A   1      33.197  21.072  25.061  1.00  0.00     0.012 A 
ATOM     20  C   UNL A   1      33.854  23.367  25.713  1.00  0.00     0.028 A 
ATOM     21  C   UNL A   1      33.311  20.675  26.403  1.00  0.00     0.011 A 
ATOM     22  C   UNL A   1      33.908  22.948  27.034  1.00  0.00     0.002 A 
ATOM     23  C   UNL A   1      33.637  21.626  27.376  1.00  0.00     0.001 A 
BRANCH  16  24
ATOM     24  S   UNL A   1      33.615  23.875  22.479  1.00  0.00     0.268 S 
ATOM     25  O   UNL A   1      33.352  23.453  21.120  1.00  0.00    -0.201 OA
ATOM     26  O   UNL A   1      34.897  24.321  22.980  1.00  0.00    -0.201 OA
BRANCH  24  27
ATOM     27  C   UNL A   1      32.477  25.167  22.905  1.00  0.00     0.088 A 
ATOM     28  C   UNL A   1      29.294  28.013  23.490  1.00  0.00     0.044 C 
ATOM     29  C   UNL A   1      30.441  27.061  23.325  1.00  0.00    -0.051 A 
ATOM     30  C   UNL A   1      30.167  25.700  23.368  1.00  0.00     0.005 A 
ATOM     31  C   UNL A   1      31.763  27.470  23.106  1.00  0.00     0.005 A 
ATOM     32  C   UNL A   1      31.176  24.763  23.177  1.00  0.00     0.022 A 
ATOM     33  C   UNL A   1      32.784  26.526  22.885  1.00  0.00     0.022 A 
ENDBRANCH  24  27
ENDBRANCH  16  24
ENDBRANCH  13  15
ENDBRANCH  10  13
ENDBRANCH   8   9
ENDBRANCH   5   8
ENDBRANCH   3   4
ENDBRANCH   1   3
BRANCH   1  34
ATOM     34  O   UNL A   1      39.568  21.687  26.464  1.00  0.00    -0.461 OA
BRANCH  34  35
ATOM     35  C   UNL A   1      39.831  22.997  26.981  1.00  0.00     0.274 C 
BRANCH  35  36
ATOM     36  C   UNL A   1      41.342  23.257  26.906  1.00  0.00     0.275 C 
BRANCH  36  37
ATOM     37  O   UNL A   1      41.829  24.551  27.378  1.00  0.00    -0.458 OA
BRANCH  37  38
ATOM     38  C   UNL A   1      42.577  25.429  26.659  1.00  0.00     0.338 C 
ATOM     39  O   UNL A   1      43.642  25.170  26.121  1.00  0.00    -0.246 OA
BRANCH  38  40
ATOM     40  C   UNL A   1      42.137  26.828  26.743  1.00  0.00     0.060 A 
ATOM     41  C   UNL A   1      43.240  27.980  27.591  1.00  0.00     0.016 A 
ATOM     42  C   UNL A   1      40.359  27.147  26.684  1.00  0.00     0.016 A 
ATOM     43  C   UNL A   1      42.513  29.314  28.609  1.00  0.00     0.010 A 
ATOM     44  C   UNL A   1      39.657  28.487  27.666  1.00  0.00     0.010 A 
ATOM     45  C   UNL A   1      40.727  29.485  28.722  1.00  0.00    -0.014 A 
BRANCH  45  46
ATOM     46  C   UNL A   1      40.011  29.726  30.020  1.00  0.00     0.031 A 
ATOM     47  C   UNL A   1      38.895  30.690  29.999  1.00  0.00     0.074 A 
ATOM     48  C   UNL A   1      40.248  29.009  31.136  1.00  0.00     0.049 A 
ATOM     49  N   UNL A   1      37.714  30.655  30.514  1.00  0.00    -0.248 NA
ATOM     50  C   UNL A   1      39.137  31.884  29.227  1.00  0.00     0.031 C 
ATOM     51  C   UNL A   1      39.402  28.925  32.322  1.00  0.00     0.029 A 
ATOM     52  N   UNL A   1      41.397  28.321  31.489  1.00  0.00    -0.354 N 
ATOM     53  C   UNL A   1      37.159  31.901  30.246  1.00  0.00     0.074 A 
ATOM     54  C   UNL A   1      37.997  32.538  29.266  1.00  0.00     0.031 C 
ATOM     55  C   UNL A   1      40.114  28.412  33.336  1.00  0.00     0.029 A 
ATOM     56  C   UNL A   1      41.484  28.282  32.887  1.00  0.00     0.049 A 
ATOM     57  H   UNL A   1      42.045  27.924  30.863  1.00  0.00     0.167 HD
ATOM     58  C   UNL A   1      36.674  32.748  31.184  1.00  0.00     0.034 A 
ATOM     59  C   UNL A   1      42.557  28.839  33.515  1.00  0.00     0.034 A 
ATOM     60  C   UNL A   1      37.096  32.403  32.533  1.00  0.00     0.049 A 
ATOM     61  C   UNL A   1      42.166  30.099  34.263  1.00  0.00     0.074 A 
ATOM     62  C   UNL A   1      36.720  31.373  33.372  1.00  0.00     0.029 A 
ATOM     63  N   UNL A   1      38.279  32.918  33.074  1.00  0.00    -0.354 N 
ATOM     64  N   UNL A   1      41.039  30.750  34.088  1.00  0.00    -0.248 NA
ATOM     65  C   UNL A   1      42.967  30.662  35.337  1.00  0.00     0.031 C 
ATOM     66  C   UNL A   1      37.706  31.237  34.389  1.00  0.00     0.029 A 
ATOM     67  C   UNL A   1      38.662  32.230  34.231  1.00  0.00     0.049 A 
ATOM     68  H   UNL A   1      38.782  33.671  32.688  1.00  0.00     0.167 HD
ATOM     69  C   UNL A   1      40.922  31.763  35.010  1.00  0.00     0.074 A 
ATOM     70  C   UNL A   1      42.150  31.628  35.789  1.00  0.00     0.031 C 
ATOM     71  C   UNL A   1      39.840  32.620  35.045  1.00  0.00     0.034 A 
BRANCH  58  72
ATOM     72  C   UNL A   1      35.590  33.702  30.722  1.00  0.00     0.023 A 
ATOM     73  C   UNL A   1      35.284  34.753  31.584  1.00  0.00     0.031 A 
ATOM     74  C   UNL A   1      34.706  33.542  29.608  1.00  0.00     0.131 A 
ATOM     75  C   UNL A   1      34.108  35.501  31.411  1.00  0.00     0.055 A 
ATOM     76  C   UNL A   1      33.579  34.341  29.396  1.00  0.00     0.041 A 
ATOM     77  F   UNL A   1      34.837  32.567  28.695  1.00  0.00    -0.206 F 
ATOM     78  C   UNL A   1      33.252  35.308  30.326  1.00  0.00     0.022 A 
BRANCH  75  79
ATOM     79  S   UNL A   1      33.636  36.624  32.741  1.00  0.00     0.124 S 
ATOM     80  O   UNL A   1      34.450  36.135  33.850  1.00  0.00    -0.237 OA
ATOM     81  O   UNL A   1      34.002  37.922  32.188  1.00  0.00    -0.237 OA
ATOM     82  O   UNL A   1      32.200  36.391  32.887  1.00  0.00    -0.744 OA
ENDBRANCH  75  79
ENDBRANCH  58  72
BRANCH  59  83
ATOM     83  C   UNL A   1      43.839  28.461  32.842  1.00  0.00     0.023 A 
ATOM     84  C   UNL A   1      44.502  29.529  32.184  1.00  0.00     0.031 A 
ATOM     85  C   UNL A   1      44.621  27.378  33.263  1.00  0.00     0.131 A 
ATOM     86  C   UNL A   1      45.900  29.623  32.220  1.00  0.00     0.055 A 
ATOM     87  C   UNL A   1      46.024  27.425  33.184  1.00  0.00     0.041 A 
ATOM     88  F   UNL A   1      44.073  26.352  33.927  1.00  0.00    -0.206 F 
ATOM     89  C   UNL A   1      46.668  28.581  32.736  1.00  0.00     0.022 A 
BRANCH  86  90
ATOM     90  S   UNL A   1      46.668  31.240  31.870  1.00  0.00     0.124 S 
ATOM     91  O   UNL A   1      48.020  31.046  32.382  1.00  0.00    -0.237 OA
ATOM     92  O   UNL A   1      46.552  31.345  30.417  1.00  0.00    -0.237 OA
ATOM     93  O   UNL A   1      45.846  32.181  32.628  1.00  0.00    -0.744 OA
ENDBRANCH  86  90
ENDBRANCH  59  83
BRANCH  71  94
ATOM     94  C   UNL A   1      39.764  33.901  35.897  1.00  0.00     0.023 A 
ATOM     95  C   UNL A   1      39.411  33.915  37.259  1.00  0.00     0.031 A 
ATOM     96  C   UNL A   1      40.224  35.150  35.411  1.00  0.00     0.131 A 
ATOM     97  C   UNL A   1      39.552  35.053  38.077  1.00  0.00     0.055 A 
ATOM     98  C   UNL A   1      40.332  36.301  36.213  1.00  0.00     0.041 A 
ATOM     99  F   UNL A   1      40.668  35.303  34.157  1.00  0.00    -0.206 F 
ATOM    100  C   UNL A   1      39.992  36.262  37.557  1.00  0.00     0.022 A 
BRANCH  97 101
ATOM    101  S   UNL A   1      39.493  34.799  39.884  1.00  0.00     0.124 S 
ATOM    102  O   UNL A   1      38.852  36.022  40.351  1.00  0.00    -0.237 OA
ATOM    103  O   UNL A   1      38.691  33.583  39.993  1.00  0.00    -0.237 OA
ATOM    104  O   UNL A   1      40.898  34.636  40.249  1.00  0.00    -0.744 OA
ENDBRANCH  97 101
ENDBRANCH  71  94
ENDBRANCH  45  46
ENDBRANCH  38  40
ENDBRANCH  37  38
ENDBRANCH  36  37
ENDBRANCH  35  36
ENDBRANCH  34  35
ENDBRANCH   1  34
TORSDOF 21
ENDMDL
MODEL 3
REMARK VINA RESULT:     -11.6      5.512      9.017
REMARK SMILES Cc1ccc(S(=O)(=O)n2cc(C(=O)C(=O)NCC(=O)NCC(=O)OCCOC(=O)c3ccc(-c4c5nc(c(-c6cc(S(=O)(=O)[O-])ccc6F)c6ccc([nH]6)c(-c6cc(S(=O)(=O)[O-])ccc6F)c6nc(c(-c7cc(S(=O)(=O)[O-])ccc7F)c7ccc4[nH]7)C=C6)C=C5)cc3)c3ccccc32)cc1
REMARK SMILES IDX 22 1 23 2 21 3 20 4 18 5 19 6 17 8 16 9 14 10 15 11 12 13
REMARK SMILES IDX 13 14 11 15 9 16 10 17 98 18 93 19 97 20 94 21 96 22 95 23
REMARK SMILES IDX 6 24 7 25 8 26 5 27 1 28 2 29 3 30 100 31 4 32 99 33 24 34
REMARK SMILES IDX 25 35 26 36 27 37 28 38 29 39 30 40 31 41 92 42 32 43 91 44
REMARK SMILES IDX 33 45 34 46 35 47 85 48 36 49 90 50 84 51 86 52 37 53 89 54
REMARK SMILES IDX 83 55 82 56 38 58 70 59 50 60 69 61 51 62 54 63 68 64 87 65
REMARK SMILES IDX 52 66 53 67 67 69 88 70 55 71 39 72 40 73 48 74 41 75 47 76
REMARK SMILES IDX 49 77 46 78 42 79 43 80 44 81 45 82 71 83 72 84 80 85 73 86
REMARK SMILES IDX 79 87 81 88 78 89 74 90 75 91 76 92 77 93 56 94 57 95 65 96
REMARK SMILES IDX 58 97 64 98 66 99 63 100 59 101 60 102 61 103 62 104
REMARK H PARENT 20 7 16 12 86 57 54 68
REMARK Flexibility Score: inf
ROOT
ATOM      1  C   UNL A   1      34.025  32.228  28.123  1.00  0.00     0.325 C 
ATOM      2  O   UNL A   1      33.775  33.435  27.840  1.00  0.00    -0.250 OA
ENDROOT
BRANCH   1   3
ATOM      3  C   UNL A   1      33.431  30.376  27.151  1.00  0.00     0.238 C 
BRANCH   3   4
ATOM      4  N   UNL A   1      32.461  29.108  27.566  1.00  0.00    -0.344 N 
ATOM      5  C   UNL A   1      31.982  27.996  26.965  1.00  0.00     0.239 C 
ATOM      6  O   UNL A   1      31.318  27.230  27.678  1.00  0.00    -0.273 OA
ATOM      7  H   UNL A   1      32.148  29.180  28.497  1.00  0.00     0.164 HD
BRANCH   5   8
ATOM      8  C   UNL A   1      32.334  27.571  25.553  1.00  0.00     0.216 C 
BRANCH   8   9
ATOM      9  N   UNL A   1      31.263  27.032  24.749  1.00  0.00    -0.340 N 
ATOM     10  C   UNL A   1      31.254  25.942  23.901  1.00  0.00     0.292 C 
ATOM     11  O   UNL A   1      30.158  25.440  23.687  1.00  0.00    -0.265 OA
ATOM     12  H   UNL A   1      30.408  27.516  24.815  1.00  0.00     0.164 HD
BRANCH  10  13
ATOM     13  C   UNL A   1      32.561  25.313  23.318  1.00  0.00     0.252 C 
ATOM     14  O   UNL A   1      32.871  25.714  22.197  1.00  0.00    -0.283 OA
BRANCH  13  15
ATOM     15  C   UNL A   1      33.510  24.418  24.053  1.00  0.00     0.054 A 
ATOM     16  N   UNL A   1      35.166  23.023  24.616  1.00  0.00    -0.240 N 
ATOM     17  C   UNL A   1      34.863  24.161  23.903  1.00  0.00     0.117 A 
ATOM     18  C   UNL A   1      34.296  22.909  25.652  1.00  0.00     0.065 A 
ATOM     19  C   UNL A   1      33.232  23.759  25.318  1.00  0.00     0.012 A 
ATOM     20  C   UNL A   1      34.361  22.158  26.830  1.00  0.00     0.028 A 
ATOM     21  C   UNL A   1      32.170  23.850  26.233  1.00  0.00     0.011 A 
ATOM     22  C   UNL A   1      33.317  22.312  27.730  1.00  0.00     0.002 A 
ATOM     23  C   UNL A   1      32.241  23.147  27.440  1.00  0.00     0.001 A 
BRANCH  16  24
ATOM     24  S   UNL A   1      36.568  22.106  24.401  1.00  0.00     0.268 S 
ATOM     25  O   UNL A   1      37.037  22.459  23.078  1.00  0.00    -0.201 OA
ATOM     26  O   UNL A   1      36.166  20.781  24.817  1.00  0.00    -0.201 OA
BRANCH  24  27
ATOM     27  C   UNL A   1      37.778  22.619  25.590  1.00  0.00     0.088 A 
ATOM     28  C   UNL A   1      40.791  24.418  28.094  1.00  0.00     0.044 C 
ATOM     29  C   UNL A   1      39.747  23.736  27.261  1.00  0.00    -0.051 A 
ATOM     30  C   UNL A   1      38.646  24.483  26.860  1.00  0.00     0.005 A 
ATOM     31  C   UNL A   1      39.835  22.401  26.846  1.00  0.00     0.005 A 
ATOM     32  C   UNL A   1      37.664  23.926  26.048  1.00  0.00     0.022 A 
ATOM     33  C   UNL A   1      38.858  21.840  26.001  1.00  0.00     0.022 A 
ENDBRANCH  24  27
ENDBRANCH  16  24
ENDBRANCH  13  15
ENDBRANCH  10  13
ENDBRANCH   8   9
ENDBRANCH   5   8
ENDBRANCH   3   4
ENDBRANCH   1   3
BRANCH   1  34
ATOM     34  O   UNL A   1      34.922  32.278  29.245  1.00  0.00    -0.461 OA
BRANCH  34  35
ATOM     35  C   UNL A   1      36.104  33.072  29.078  1.00  0.00     0.274 C 
BRANCH  35  36
ATOM     36  C   UNL A   1      37.231  32.167  28.562  1.00  0.00     0.275 C 
BRANCH  36  37
ATOM     37  O   UNL A   1      37.508  30.941  29.305  1.00  0.00    -0.458 OA
BRANCH  37  38
ATOM     38  C   UNL A   1      37.433  29.677  28.812  1.00  0.00     0.338 C 
ATOM     39  O   UNL A   1      36.681  29.313  27.921  1.00  0.00    -0.246 OA
BRANCH  38  40
ATOM     40  C   UNL A   1      38.177  28.669  29.580  1.00  0.00     0.060 A 
ATOM     41  C   UNL A   1      37.720  28.467  31.316  1.00  0.00     0.016 A 
ATOM     42  C   UNL A   1      39.850  28.267  29.026  1.00  0.00     0.016 A 
ATOM     43  C   UNL A   1      39.032  28.114  32.541  1.00  0.00     0.010 A 
ATOM     44  C   UNL A   1      41.127  27.886  30.241  1.00  0.00     0.010 A 
ATOM     45  C   UNL A   1      40.738  27.936  32.003  1.00  0.00    -0.014 A 
BRANCH  45  46
ATOM     46  C   UNL A   1      41.890  28.577  32.720  1.00  0.00     0.031 A 
ATOM     47  C   UNL A   1      42.613  27.747  33.701  1.00  0.00     0.074 A 
ATOM     48  C   UNL A   1      42.367  29.797  32.404  1.00  0.00     0.049 A 
ATOM     49  N   UNL A   1      43.870  27.577  33.931  1.00  0.00    -0.248 NA
ATOM     50  C   UNL A   1      41.772  26.932  34.545  1.00  0.00     0.031 C 
ATOM     51  C   UNL A   1      43.656  30.363  32.788  1.00  0.00     0.029 A 
ATOM     52  N   UNL A   1      41.704  30.848  31.790  1.00  0.00    -0.354 N 
ATOM     53  C   UNL A   1      43.932  26.758  35.052  1.00  0.00     0.074 A 
ATOM     54  C   UNL A   1      42.615  26.218  35.258  1.00  0.00     0.031 C 
ATOM     55  C   UNL A   1      43.631  31.690  32.594  1.00  0.00     0.029 A 
ATOM     56  C   UNL A   1      42.281  32.051  32.217  1.00  0.00     0.049 A 
ATOM     57  H   UNL A   1      40.955  30.763  31.158  1.00  0.00     0.167 HD
ATOM     58  C   UNL A   1      44.580  27.068  36.199  1.00  0.00     0.034 A 
ATOM     59  C   UNL A   1      41.519  32.974  32.870  1.00  0.00     0.034 A 
ATOM     60  C   UNL A   1      44.918  28.480  36.298  1.00  0.00     0.049 A 
ATOM     61  C   UNL A   1      41.904  33.069  34.335  1.00  0.00     0.074 A 
ATOM     62  C   UNL A   1      45.866  29.239  35.642  1.00  0.00     0.029 A 
ATOM     63  N   UNL A   1      44.032  29.397  36.874  1.00  0.00    -0.354 N 
ATOM     64  N   UNL A   1      42.638  32.186  34.971  1.00  0.00    -0.248 NA
ATOM     65  C   UNL A   1      41.579  34.218  35.163  1.00  0.00     0.031 C 
ATOM     66  C   UNL A   1      45.519  30.613  35.782  1.00  0.00     0.029 A 
ATOM     67  C   UNL A   1      44.396  30.717  36.589  1.00  0.00     0.049 A 
ATOM     68  H   UNL A   1      43.247  29.144  37.413  1.00  0.00     0.167 HD
ATOM     69  C   UNL A   1      42.925  32.628  36.241  1.00  0.00     0.074 A 
ATOM     70  C   UNL A   1      42.261  33.928  36.284  1.00  0.00     0.031 C 
ATOM     71  C   UNL A   1      43.668  31.888  37.139  1.00  0.00     0.034 A 
BRANCH  58  72
ATOM     72  C   UNL A   1      45.075  25.894  37.021  1.00  0.00     0.023 A 
ATOM     73  C   UNL A   1      45.753  24.894  36.325  1.00  0.00     0.031 A 
ATOM     74  C   UNL A   1      44.759  25.591  38.384  1.00  0.00     0.131 A 
ATOM     75  C   UNL A   1      45.977  23.639  36.915  1.00  0.00     0.055 A 
ATOM     76  C   UNL A   1      45.056  24.366  38.990  1.00  0.00     0.041 A 
ATOM     77  F   UNL A   1      44.089  26.427  39.191  1.00  0.00    -0.206 F 
ATOM     78  C   UNL A   1      45.637  23.364  38.240  1.00  0.00     0.022 A 
BRANCH  75  79
ATOM     79  S   UNL A   1      46.572  22.315  35.844  1.00  0.00     0.124 S 
ATOM     80  O   UNL A   1      45.740  21.192  36.264  1.00  0.00    -0.237 OA
ATOM     81  O   UNL A   1      46.311  22.858  34.516  1.00  0.00    -0.237 OA
ATOM     82  O   UNL A   1      47.985  22.200  36.202  1.00  0.00    -0.744 OA
ENDBRANCH  75  79
ENDBRANCH  58  72
BRANCH  59  83
ATOM     83  C   UNL A   1      40.200  33.168  32.192  1.00  0.00     0.023 A 
ATOM     84  C   UNL A   1      39.071  32.821  32.978  1.00  0.00     0.031 A 
ATOM     85  C   UNL A   1      40.009  34.105  31.168  1.00  0.00     0.131 A 
ATOM     86  C   UNL A   1      37.903  33.594  32.919  1.00  0.00     0.055 A 
ATOM     87  C   UNL A   1      38.790  34.792  31.034  1.00  0.00     0.041 A 
ATOM     88  F   UNL A   1      41.037  34.513  30.411  1.00  0.00    -0.206 F 
ATOM     89  C   UNL A   1      37.763  34.595  31.960  1.00  0.00     0.022 A 
BRANCH  86  90
ATOM     90  S   UNL A   1      36.716  33.475  34.298  1.00  0.00     0.124 S 
ATOM     91  O   UNL A   1      35.748  32.514  33.778  1.00  0.00    -0.237 OA
ATOM     92  O   UNL A   1      37.548  32.999  35.401  1.00  0.00    -0.237 OA
ATOM     93  O   UNL A   1      36.218  34.842  34.442  1.00  0.00    -0.744 OA
ENDBRANCH  86  90
ENDBRANCH  59  83
BRANCH  71  94
ATOM     94  C   UNL A   1      43.825  32.225  38.634  1.00  0.00     0.023 A 
ATOM     95  C   UNL A   1      42.771  32.171  39.563  1.00  0.00     0.031 A 
ATOM     96  C   UNL A   1      45.097  32.446  39.221  1.00  0.00     0.131 A 
ATOM     97  C   UNL A   1      42.967  32.272  40.955  1.00  0.00     0.055 A 
ATOM     98  C   UNL A   1      45.296  32.584  40.606  1.00  0.00     0.041 A 
ATOM     99  F   UNL A   1      46.221  32.456  38.494  1.00  0.00    -0.206 F 
ATOM    100  C   UNL A   1      44.228  32.502  41.487  1.00  0.00     0.022 A 
BRANCH  97 101
ATOM    101  S   UNL A   1      41.599  31.732  42.036  1.00  0.00     0.124 S 
ATOM    102  O   UNL A   1      41.618  32.739  43.090  1.00  0.00    -0.237 OA
ATOM    103  O   UNL A   1      40.455  31.787  41.129  1.00  0.00    -0.237 OA
ATOM    104  O   UNL A   1      41.994  30.383  42.435  1.00  0.00    -0.744 OA
ENDBRANCH  97 101
ENDBRANCH  71  94
ENDBRANCH  45  46
ENDBRANCH  38  40
ENDBRANCH  37  38
ENDBRANCH  36  37
ENDBRANCH  35  36
ENDBRANCH  34  35
ENDBRANCH   1  34
TORSDOF 21
ENDMDL
