MODEL 1
REMARK VINA RESULT:     -12.3      0.000      0.000
REMARK SMILES CCCCc1ncc(C[N@H+]2C[C@@H]3c4ccccc4OC[C@]3(C(=O)OCCOC(=O)c3ccc(-c4c5nc(c(-c6cc(S(=O)(=O)[O-])ccc6F)c6ccc([nH]6)c(-c6cc(S(=O)(=O)[O-])ccc6F)c6nc(c(-c7cc(S(=O)(=O)[O-])ccc7F)c7ccc4[nH]7)C=C6)C=C5)cc3)C2)[nH]1
REMARK SMILES IDX 25 1 24 2 22 3 23 4 21 5 10 6 11 7 93 8 12 10 13 11 20 12
REMARK SMILES IDX 14 13 18 14 19 15 15 16 17 17 16 18 9 19 8 20 5 21 6 22
REMARK SMILES IDX 94 23 7 24 4 26 3 27 2 28 1 29 26 30 27 31 28 32 29 33 30 34
REMARK SMILES IDX 31 35 92 36 32 37 91 38 33 39 34 40 35 41 85 42 36 43 90 44
REMARK SMILES IDX 84 45 86 46 37 47 89 48 83 49 82 50 38 52 70 53 50 54 69 55
REMARK SMILES IDX 51 56 54 57 68 58 87 59 52 60 53 61 67 63 88 64 55 65 39 66
REMARK SMILES IDX 40 67 48 68 41 69 47 70 49 71 46 72 42 73 43 74 44 75 45 76
REMARK SMILES IDX 71 77 72 78 80 79 73 80 79 81 81 82 78 83 74 84 75 85 76 86
REMARK SMILES IDX 77 87 56 88 57 89 65 90 58 91 64 92 66 93 63 94 59 95 60 96
REMARK SMILES IDX 61 97 62 98
REMARK H PARENT 10 9 94 25 86 51 54 62
REMARK Flexibility Score: inf
ROOT
ATOM      1  C   UNL A   1      36.559  20.881  24.579  1.00  0.00     0.274 C 
ENDROOT
BRANCH   1   2
ATOM      2  O   UNL A   1      36.064  21.955  25.408  1.00  0.00    -0.461 OA
BRANCH   2   3
ATOM      3  C   UNL A   1      35.377  22.983  24.815  1.00  0.00     0.322 C 
ATOM      4  O   UNL A   1      35.889  23.922  24.233  1.00  0.00    -0.251 OA
BRANCH   3   5
ATOM      5  C   UNL A   1      33.883  22.750  25.010  1.00  0.00     0.162 C 
ATOM      6  N   UNL A   1      32.013  24.073  24.186  1.00  0.00    -0.328 N 
ATOM      7  C   UNL A   1      31.780  22.671  23.859  1.00  0.00     0.272 C 
ATOM      8  C   UNL A   1      33.270  24.166  24.921  1.00  0.00     0.286 C 
ATOM      9  H   UNL A   1      31.261  24.395  24.795  1.00  0.00     0.348 HD
ATOM     10  C   UNL A   1      33.160  22.000  23.889  1.00  0.00     0.105 C 
ATOM     11  C   UNL A   1      32.971  20.534  24.120  1.00  0.00     0.004 A 
ATOM     12  C   UNL A   1      33.736  22.068  26.387  1.00  0.00     0.255 C 
ATOM     13  C   UNL A   1      32.650  19.674  23.055  1.00  0.00     0.008 A 
ATOM     14  C   UNL A   1      32.950  20.036  25.416  1.00  0.00     0.123 A 
ATOM     15  O   UNL A   1      33.020  20.843  26.507  1.00  0.00    -0.492 OA
ATOM     16  C   UNL A   1      32.356  18.331  23.294  1.00  0.00     0.001 A 
ATOM     17  C   UNL A   1      32.698  18.685  25.652  1.00  0.00     0.047 A 
ATOM     18  C   UNL A   1      32.405  17.829  24.592  1.00  0.00     0.004 A 
BRANCH   6  19
ATOM     19  C   UNL A   1      31.839  25.020  23.087  1.00  0.00     0.319 C 
BRANCH  19  20
ATOM     20  C   UNL A   1      30.725  26.001  23.215  1.00  0.00     0.090 A 
ATOM     21  C   UNL A   1      29.531  27.873  23.044  1.00  0.00     0.106 A 
ATOM     22  N   UNL A   1      28.838  27.088  23.844  1.00  0.00    -0.241 NA
ATOM     23  N   UNL A   1      30.675  27.239  22.625  1.00  0.00    -0.341 N 
ATOM     24  C   UNL A   1      29.554  25.927  23.939  1.00  0.00     0.140 A 
ATOM     25  H   UNL A   1      31.346  27.610  22.005  1.00  0.00     0.168 HD
BRANCH  21  26
ATOM     26  C   UNL A   1      29.125  29.237  22.591  1.00  0.00     0.075 C 
BRANCH  26  27
ATOM     27  C   UNL A   1      29.597  30.373  23.506  1.00  0.00     0.008 C 
BRANCH  27  28
ATOM     28  C   UNL A   1      28.743  31.646  23.512  1.00  0.00    -0.003 C 
ATOM     29  C   UNL A   1      27.280  31.403  23.843  1.00  0.00     0.004 C 
ENDBRANCH  27  28
ENDBRANCH  26  27
ENDBRANCH  21  26
ENDBRANCH  19  20
ENDBRANCH   6  19
ENDBRANCH   3   5
ENDBRANCH   2   3
ENDBRANCH   1   2
BRANCH   1  30
ATOM     30  C   UNL A   1      37.911  20.446  25.143  1.00  0.00     0.275 C 
BRANCH  30  31
ATOM     31  O   UNL A   1      38.492  21.607  25.751  1.00  0.00    -0.458 OA
BRANCH  31  32
ATOM     32  C   UNL A   1      39.702  21.465  26.333  1.00  0.00     0.338 C 
ATOM     33  O   UNL A   1      40.380  20.447  26.372  1.00  0.00    -0.246 OA
BRANCH  32  34
ATOM     34  C   UNL A   1      40.039  22.756  26.963  1.00  0.00     0.060 A 
ATOM     35  C   UNL A   1      39.451  23.924  26.485  1.00  0.00     0.016 A 
ATOM     36  C   UNL A   1      40.977  22.818  28.001  1.00  0.00     0.016 A 
ATOM     37  C   UNL A   1      39.897  25.155  26.968  1.00  0.00     0.010 A 
ATOM     38  C   UNL A   1      41.362  24.040  28.537  1.00  0.00     0.010 A 
ATOM     39  C   UNL A   1      40.878  25.224  27.977  1.00  0.00    -0.014 A 
BRANCH  39  40
ATOM     40  C   UNL A   1      41.428  26.535  28.402  1.00  0.00     0.031 A 
ATOM     41  C   UNL A   1      42.835  26.925  28.031  1.00  0.00     0.074 A 
ATOM     42  C   UNL A   1      40.643  27.380  29.095  1.00  0.00     0.049 A 
ATOM     43  N   UNL A   1      43.440  28.073  28.194  1.00  0.00    -0.248 NA
ATOM     44  C   UNL A   1      43.685  25.891  27.414  1.00  0.00     0.031 C 
ATOM     45  C   UNL A   1      39.295  27.064  29.565  1.00  0.00     0.029 A 
ATOM     46  N   UNL A   1      40.848  28.673  29.503  1.00  0.00    -0.354 N 
ATOM     47  C   UNL A   1      44.728  27.901  27.701  1.00  0.00     0.074 A 
ATOM     48  C   UNL A   1      44.846  26.520  27.298  1.00  0.00     0.031 C 
ATOM     49  C   UNL A   1      38.766  28.155  30.138  1.00  0.00     0.029 A 
ATOM     50  C   UNL A   1      39.750  29.237  30.111  1.00  0.00     0.049 A 
ATOM     51  H   UNL A   1      41.698  29.152  29.372  1.00  0.00     0.167 HD
ATOM     52  C   UNL A   1      45.710  28.823  27.562  1.00  0.00     0.034 A 
ATOM     53  C   UNL A   1      39.549  30.489  30.572  1.00  0.00     0.034 A 
ATOM     54  C   UNL A   1      45.555  30.201  27.948  1.00  0.00     0.049 A 
ATOM     55  C   UNL A   1      40.641  31.511  30.378  1.00  0.00     0.074 A 
ATOM     56  C   UNL A   1      46.460  31.236  27.801  1.00  0.00     0.029 A 
ATOM     57  N   UNL A   1      44.424  30.737  28.552  1.00  0.00    -0.354 N 
ATOM     58  N   UNL A   1      41.815  31.361  29.807  1.00  0.00    -0.248 NA
ATOM     59  C   UNL A   1      40.387  32.872  30.869  1.00  0.00     0.031 C 
ATOM     60  C   UNL A   1      45.905  32.380  28.374  1.00  0.00     0.029 A 
ATOM     61  C   UNL A   1      44.619  32.083  28.804  1.00  0.00     0.049 A 
ATOM     62  H   UNL A   1      43.606  30.234  28.768  1.00  0.00     0.167 HD
ATOM     63  C   UNL A   1      42.426  32.610  29.848  1.00  0.00     0.074 A 
ATOM     64  C   UNL A   1      41.484  33.511  30.479  1.00  0.00     0.031 C 
ATOM     65  C   UNL A   1      43.657  32.976  29.406  1.00  0.00     0.034 A 
BRANCH  52  66
ATOM     66  C   UNL A   1      47.022  28.410  26.936  1.00  0.00     0.023 A 
ATOM     67  C   UNL A   1      47.127  28.263  25.540  1.00  0.00     0.031 A 
ATOM     68  C   UNL A   1      48.122  28.029  27.725  1.00  0.00     0.131 A 
ATOM     69  C   UNL A   1      48.290  27.719  24.980  1.00  0.00     0.055 A 
ATOM     70  C   UNL A   1      49.298  27.533  27.159  1.00  0.00     0.041 A 
ATOM     71  F   UNL A   1      48.075  28.141  29.063  1.00  0.00    -0.206 F 
ATOM     72  C   UNL A   1      49.380  27.363  25.782  1.00  0.00     0.022 A 
BRANCH  69  73
ATOM     73  S   UNL A   1      48.414  27.384  23.202  1.00  0.00     0.124 S 
ATOM     74  O   UNL A   1      47.289  28.152  22.673  1.00  0.00    -0.237 OA
ATOM     75  O   UNL A   1      49.736  27.917  22.882  1.00  0.00    -0.237 OA
ATOM     76  O   UNL A   1      48.276  25.936  23.105  1.00  0.00    -0.744 OA
ENDBRANCH  69  73
ENDBRANCH  52  66
BRANCH  53  77
ATOM     77  C   UNL A   1      38.223  30.836  31.164  1.00  0.00     0.023 A 
ATOM     78  C   UNL A   1      37.218  31.435  30.380  1.00  0.00     0.031 A 
ATOM     79  C   UNL A   1      37.991  30.704  32.543  1.00  0.00     0.131 A 
ATOM     80  C   UNL A   1      36.067  31.947  30.993  1.00  0.00     0.055 A 
ATOM     81  C   UNL A   1      36.807  31.148  33.138  1.00  0.00     0.041 A 
ATOM     82  F   UNL A   1      38.924  30.157  33.337  1.00  0.00    -0.206 F 
ATOM     83  C   UNL A   1      35.846  31.792  32.364  1.00  0.00     0.022 A 
BRANCH  80  84
ATOM     84  S   UNL A   1      34.895  32.967  30.056  1.00  0.00     0.124 S 
ATOM     85  O   UNL A   1      34.031  33.485  31.111  1.00  0.00    -0.237 OA
ATOM     86  O   UNL A   1      35.782  33.945  29.430  1.00  0.00    -0.237 OA
ATOM     87  O   UNL A   1      34.272  32.020  29.137  1.00  0.00    -0.744 OA
ENDBRANCH  80  84
ENDBRANCH  53  77
BRANCH  65  88
ATOM     88  C   UNL A   1      44.094  34.412  29.563  1.00  0.00     0.023 A 
ATOM     89  C   UNL A   1      43.719  35.362  28.593  1.00  0.00     0.031 A 
ATOM     90  C   UNL A   1      45.043  34.784  30.530  1.00  0.00     0.131 A 
ATOM     91  C   UNL A   1      44.341  36.615  28.570  1.00  0.00     0.055 A 
ATOM     92  C   UNL A   1      45.619  36.054  30.535  1.00  0.00     0.041 A 
ATOM     93  F   UNL A   1      45.442  33.907  31.466  1.00  0.00    -0.206 F 
ATOM     94  C   UNL A   1      45.284  36.968  29.539  1.00  0.00     0.022 A 
BRANCH  91  95
ATOM     95  S   UNL A   1      44.039  37.783  27.214  1.00  0.00     0.124 S 
ATOM     96  O   UNL A   1      43.751  39.018  27.938  1.00  0.00    -0.237 OA
ATOM     97  O   UNL A   1      45.313  37.760  26.501  1.00  0.00    -0.237 OA
ATOM     98  O   UNL A   1      42.906  37.207  26.497  1.00  0.00    -0.744 OA
ENDBRANCH  91  95
ENDBRANCH  65  88
ENDBRANCH  39  40
ENDBRANCH  32  34
ENDBRANCH  31  32
ENDBRANCH  30  31
ENDBRANCH   1  30
TORSDOF 19
ENDMDL
MODEL 2
REMARK VINA RESULT:     -12.2      4.824     10.371
REMARK SMILES CCCCc1ncc(C[N@H+]2C[C@@H]3c4ccccc4OC[C@]3(C(=O)OCCOC(=O)c3ccc(-c4c5nc(c(-c6cc(S(=O)(=O)[O-])ccc6F)c6ccc([nH]6)c(-c6cc(S(=O)(=O)[O-])ccc6F)c6nc(c(-c7cc(S(=O)(=O)[O-])ccc7F)c7ccc4[nH]7)C=C6)C=C5)cc3)C2)[nH]1
REMARK SMILES IDX 25 1 24 2 22 3 23 4 21 5 10 6 11 7 93 8 12 10 13 11 20 12
REMARK SMILES IDX 14 13 18 14 19 15 15 16 17 17 16 18 9 19 8 20 5 21 6 22
REMARK SMILES IDX 94 23 7 24 4 26 3 27 2 28 1 29 26 30 27 31 28 32 29 33 30 34
REMARK SMILES IDX 31 35 92 36 32 37 91 38 33 39 34 40 35 41 85 42 36 43 90 44
REMARK SMILES IDX 84 45 86 46 37 47 89 48 83 49 82 50 38 52 70 53 50 54 69 55
REMARK SMILES IDX 51 56 54 57 68 58 87 59 52 60 53 61 67 63 88 64 55 65 39 66
REMARK SMILES IDX 40 67 48 68 41 69 47 70 49 71 46 72 42 73 43 74 44 75 45 76
REMARK SMILES IDX 71 77 72 78 80 79 73 80 79 81 81 82 78 83 74 84 75 85 76 86
REMARK SMILES IDX 77 87 56 88 57 89 65 90 58 91 64 92 66 93 63 94 59 95 60 96
REMARK SMILES IDX 61 97 62 98
REMARK H PARENT 10 9 94 25 86 51 54 62
REMARK Flexibility Score: inf
ROOT
ATOM      1  C   UNL A   1      31.792  28.961  27.112  1.00  0.00     0.274 C 
ENDROOT
BRANCH   1   2
ATOM      2  O   UNL A   1      31.588  28.114  25.960  1.00  0.00    -0.461 OA
BRANCH   2   3
ATOM      3  C   UNL A   1      32.663  27.814  25.163  1.00  0.00     0.322 C 
ATOM      4  O   UNL A   1      33.820  27.763  25.540  1.00  0.00    -0.251 OA
BRANCH   3   5
ATOM      5  C   UNL A   1      32.165  27.558  23.745  1.00  0.00     0.162 C 
ATOM      6  N   UNL A   1      32.390  25.549  22.389  1.00  0.00    -0.328 N 
ATOM      7  C   UNL A   1      30.996  25.979  22.370  1.00  0.00     0.272 C 
ATOM      8  C   UNL A   1      33.150  26.504  23.189  1.00  0.00     0.286 C 
ATOM      9  H   UNL A   1      32.751  25.571  21.436  1.00  0.00     0.348 HD
ATOM     10  C   UNL A   1      30.813  26.855  23.616  1.00  0.00     0.105 C 
ATOM     11  C   UNL A   1      29.641  27.759  23.392  1.00  0.00     0.004 A 
ATOM     12  C   UNL A   1      32.209  28.925  23.028  1.00  0.00     0.255 C 
ATOM     13  C   UNL A   1      28.330  27.302  23.603  1.00  0.00     0.008 A 
ATOM     14  C   UNL A   1      29.834  29.009  22.817  1.00  0.00     0.123 A 
ATOM     15  O   UNL A   1      31.048  29.426  22.372  1.00  0.00    -0.492 OA
ATOM     16  C   UNL A   1      27.238  28.108  23.278  1.00  0.00     0.001 A 
ATOM     17  C   UNL A   1      28.745  29.833  22.531  1.00  0.00     0.047 A 
ATOM     18  C   UNL A   1      27.445  29.386  22.765  1.00  0.00     0.004 A 
BRANCH   6  19
ATOM     19  C   UNL A   1      32.617  24.137  22.687  1.00  0.00     0.319 C 
BRANCH  19  20
ATOM     20  C   UNL A   1      33.647  23.823  23.716  1.00  0.00     0.090 A 
ATOM     21  C   UNL A   1      35.619  23.509  24.703  1.00  0.00     0.106 A 
ATOM     22  N   UNL A   1      34.722  23.089  25.571  1.00  0.00    -0.241 NA
ATOM     23  N   UNL A   1      35.002  23.982  23.570  1.00  0.00    -0.341 N 
ATOM     24  C   UNL A   1      33.506  23.295  24.983  1.00  0.00     0.140 A 
ATOM     25  H   UNL A   1      35.456  24.370  22.786  1.00  0.00     0.168 HD
BRANCH  21  26
ATOM     26  C   UNL A   1      37.097  23.538  24.916  1.00  0.00     0.075 C 
BRANCH  26  27
ATOM     27  C   UNL A   1      37.521  23.824  26.362  1.00  0.00     0.008 C 
BRANCH  27  28
ATOM     28  C   UNL A   1      38.984  24.227  26.578  1.00  0.00    -0.003 C 
ATOM     29  C   UNL A   1      39.228  24.978  27.877  1.00  0.00     0.004 C 
ENDBRANCH  27  28
ENDBRANCH  26  27
ENDBRANCH  21  26
ENDBRANCH  19  20
ENDBRANCH   6  19
ENDBRANCH   3   5
ENDBRANCH   2   3
ENDBRANCH   1   2
BRANCH   1  30
ATOM     30  C   UNL A   1      31.644  30.411  26.654  1.00  0.00     0.275 C 
BRANCH  30  31
ATOM     31  O   UNL A   1      32.972  30.907  26.437  1.00  0.00    -0.458 OA
BRANCH  31  32
ATOM     32  C   UNL A   1      33.409  31.891  27.253  1.00  0.00     0.338 C 
ATOM     33  O   UNL A   1      32.821  32.927  27.530  1.00  0.00    -0.246 OA
BRANCH  32  34
ATOM     34  C   UNL A   1      34.758  31.510  27.713  1.00  0.00     0.060 A 
ATOM     35  C   UNL A   1      35.029  30.176  28.007  1.00  0.00     0.016 A 
ATOM     36  C   UNL A   1      35.747  32.483  27.902  1.00  0.00     0.016 A 
ATOM     37  C   UNL A   1      36.249  29.846  28.600  1.00  0.00     0.010 A 
ATOM     38  C   UNL A   1      36.991  32.141  28.417  1.00  0.00     0.010 A 
ATOM     39  C   UNL A   1      37.228  30.831  28.837  1.00  0.00    -0.014 A 
BRANCH  39  40
ATOM     40  C   UNL A   1      38.471  30.492  29.572  1.00  0.00     0.031 A 
ATOM     41  C   UNL A   1      38.667  30.957  30.992  1.00  0.00     0.074 A 
ATOM     42  C   UNL A   1      39.407  29.740  28.963  1.00  0.00     0.049 A 
ATOM     43  N   UNL A   1      39.619  30.649  31.834  1.00  0.00    -0.248 NA
ATOM     44  C   UNL A   1      37.679  31.906  31.537  1.00  0.00     0.031 C 
ATOM     45  C   UNL A   1      39.343  29.305  27.568  1.00  0.00     0.029 A 
ATOM     46  N   UNL A   1      40.571  29.190  29.435  1.00  0.00    -0.354 N 
ATOM     47  C   UNL A   1      39.344  31.357  32.998  1.00  0.00     0.074 A 
ATOM     48  C   UNL A   1      38.180  32.168  32.735  1.00  0.00     0.031 C 
ATOM     49  C   UNL A   1      40.385  28.500  27.315  1.00  0.00     0.029 A 
ATOM     50  C   UNL A   1      41.212  28.392  28.516  1.00  0.00     0.049 A 
ATOM     51  H   UNL A   1      40.915  29.350  30.343  1.00  0.00     0.167 HD
ATOM     52  C   UNL A   1      39.985  31.305  34.190  1.00  0.00     0.034 A 
ATOM     53  C   UNL A   1      42.325  27.638  28.634  1.00  0.00     0.034 A 
ATOM     54  C   UNL A   1      41.130  30.466  34.431  1.00  0.00     0.049 A 
ATOM     55  C   UNL A   1      43.006  27.566  29.978  1.00  0.00     0.074 A 
ATOM     56  C   UNL A   1      41.824  30.288  35.614  1.00  0.00     0.029 A 
ATOM     57  N   UNL A   1      41.745  29.664  33.479  1.00  0.00    -0.354 N 
ATOM     58  N   UNL A   1      42.669  28.156  31.102  1.00  0.00    -0.248 NA
ATOM     59  C   UNL A   1      44.203  26.720  30.083  1.00  0.00     0.031 C 
ATOM     60  C   UNL A   1      42.895  29.432  35.361  1.00  0.00     0.029 A 
ATOM     61  C   UNL A   1      42.823  29.007  34.043  1.00  0.00     0.049 A 
ATOM     62  H   UNL A   1      41.455  29.575  32.542  1.00  0.00     0.167 HD
ATOM     63  C   UNL A   1      43.594  27.733  32.052  1.00  0.00     0.074 A 
ATOM     64  C   UNL A   1      44.492  26.820  31.376  1.00  0.00     0.031 C 
ATOM     65  C   UNL A   1      43.692  28.074  33.362  1.00  0.00     0.034 A 
BRANCH  52  66
ATOM     66  C   UNL A   1      39.461  32.130  35.342  1.00  0.00     0.023 A 
ATOM     67  C   UNL A   1      39.909  33.451  35.531  1.00  0.00     0.031 A 
ATOM     68  C   UNL A   1      38.627  31.568  36.326  1.00  0.00     0.131 A 
ATOM     69  C   UNL A   1      39.551  34.151  36.691  1.00  0.00     0.055 A 
ATOM     70  C   UNL A   1      38.233  32.287  37.456  1.00  0.00     0.041 A 
ATOM     71  F   UNL A   1      38.175  30.309  36.201  1.00  0.00    -0.206 F 
ATOM     72  C   UNL A   1      38.707  33.580  37.649  1.00  0.00     0.022 A 
BRANCH  69  73
ATOM     73  S   UNL A   1      40.218  35.801  37.040  1.00  0.00     0.124 S 
ATOM     74  O   UNL A   1      39.674  36.070  38.369  1.00  0.00    -0.237 OA
ATOM     75  O   UNL A   1      41.659  35.564  36.994  1.00  0.00    -0.237 OA
ATOM     76  O   UNL A   1      39.680  36.632  35.969  1.00  0.00    -0.744 OA
ENDBRANCH  69  73
ENDBRANCH  52  66
BRANCH  53  77
ATOM     77  C   UNL A   1      42.780  26.833  27.461  1.00  0.00     0.023 A 
ATOM     78  C   UNL A   1      42.489  25.458  27.375  1.00  0.00     0.031 A 
ATOM     79  C   UNL A   1      43.624  27.390  26.486  1.00  0.00     0.131 A 
ATOM     80  C   UNL A   1      43.099  24.676  26.386  1.00  0.00     0.055 A 
ATOM     81  C   UNL A   1      44.169  26.620  25.456  1.00  0.00     0.041 A 
ATOM     82  F   UNL A   1      43.947  28.691  26.534  1.00  0.00    -0.206 F 
ATOM     83  C   UNL A   1      43.924  25.251  25.414  1.00  0.00     0.022 A 
BRANCH  80  84
ATOM     84  S   UNL A   1      42.967  22.867  26.422  1.00  0.00     0.124 S 
ATOM     85  O   UNL A   1      42.496  22.568  25.074  1.00  0.00    -0.237 OA
ATOM     86  O   UNL A   1      44.344  22.472  26.712  1.00  0.00    -0.237 OA
ATOM     87  O   UNL A   1      42.013  22.613  27.496  1.00  0.00    -0.744 OA
ENDBRANCH  80  84
ENDBRANCH  53  77
BRANCH  65  88
ATOM     88  C   UNL A   1      44.795  27.469  34.195  1.00  0.00     0.023 A 
ATOM     89  C   UNL A   1      44.559  26.269  34.895  1.00  0.00     0.031 A 
ATOM     90  C   UNL A   1      45.976  28.180  34.468  1.00  0.00     0.131 A 
ATOM     91  C   UNL A   1      45.460  25.851  35.881  1.00  0.00     0.055 A 
ATOM     92  C   UNL A   1      46.897  27.729  35.414  1.00  0.00     0.041 A 
ATOM     93  F   UNL A   1      46.237  29.336  33.837  1.00  0.00    -0.206 F 
ATOM     94  C   UNL A   1      46.630  26.571  36.140  1.00  0.00     0.022 A 
BRANCH  91  95
ATOM     95  S   UNL A   1      45.084  24.429  36.945  1.00  0.00     0.124 S 
ATOM     96  O   UNL A   1      44.321  25.053  38.023  1.00  0.00    -0.237 OA
ATOM     97  O   UNL A   1      44.312  23.573  36.050  1.00  0.00    -0.237 OA
ATOM     98  O   UNL A   1      46.396  23.919  37.329  1.00  0.00    -0.744 OA
ENDBRANCH  91  95
ENDBRANCH  65  88
ENDBRANCH  39  40
ENDBRANCH  32  34
ENDBRANCH  31  32
ENDBRANCH  30  31
ENDBRANCH   1  30
TORSDOF 19
ENDMDL
MODEL 3
REMARK VINA RESULT:     -12.1      1.860      2.303
REMARK SMILES CCCCc1ncc(C[N@H+]2C[C@@H]3c4ccccc4OC[C@]3(C(=O)OCCOC(=O)c3ccc(-c4c5nc(c(-c6cc(S(=O)(=O)[O-])ccc6F)c6ccc([nH]6)c(-c6cc(S(=O)(=O)[O-])ccc6F)c6nc(c(-c7cc(S(=O)(=O)[O-])ccc7F)c7ccc4[nH]7)C=C6)C=C5)cc3)C2)[nH]1
REMARK SMILES IDX 25 1 24 2 22 3 23 4 21 5 10 6 11 7 93 8 12 10 13 11 20 12
REMARK SMILES IDX 14 13 18 14 19 15 15 16 17 17 16 18 9 19 8 20 5 21 6 22
REMARK SMILES IDX 94 23 7 24 4 26 3 27 2 28 1 29 26 30 27 31 28 32 29 33 30 34
REMARK SMILES IDX 31 35 92 36 32 37 91 38 33 39 34 40 35 41 85 42 36 43 90 44
REMARK SMILES IDX 84 45 86 46 37 47 89 48 83 49 82 50 38 52 70 53 50 54 69 55
REMARK SMILES IDX 51 56 54 57 68 58 87 59 52 60 53 61 67 63 88 64 55 65 39 66
REMARK SMILES IDX 40 67 48 68 41 69 47 70 49 71 46 72 42 73 43 74 44 75 45 76
REMARK SMILES IDX 71 77 72 78 80 79 73 80 79 81 81 82 78 83 74 84 75 85 76 86
REMARK SMILES IDX 77 87 56 88 57 89 65 90 58 91 64 92 66 93 63 94 59 95 60 96
REMARK SMILES IDX 61 97 62 98
REMARK H PARENT 10 9 94 25 86 51 54 62
REMARK Flexibility Score: inf
ROOT
ATOM      1  C   UNL A   1      36.504  22.771  23.697  1.00  0.00     0.274 C 
ENDROOT
BRANCH   1   2
ATOM      2  O   UNL A   1      35.077  22.875  23.893  1.00  0.00    -0.461 OA
BRANCH   2   3
ATOM      3  C   UNL A   1      34.609  23.471  25.037  1.00  0.00     0.322 C 
ATOM      4  O   UNL A   1      35.002  24.535  25.481  1.00  0.00    -0.251 OA
BRANCH   3   5
ATOM      5  C   UNL A   1      33.531  22.582  25.645  1.00  0.00     0.162 C 
ATOM      6  N   UNL A   1      31.283  23.185  26.359  1.00  0.00    -0.328 N 
ATOM      7  C   UNL A   1      31.207  22.005  25.506  1.00  0.00     0.272 C 
ATOM      8  C   UNL A   1      32.687  23.554  26.502  1.00  0.00     0.286 C 
ATOM      9  H   UNL A   1      30.919  22.945  27.281  1.00  0.00     0.348 HD
ATOM     10  C   UNL A   1      32.497  22.007  24.675  1.00  0.00     0.105 C 
ATOM     11  C   UNL A   1      32.765  20.609  24.211  1.00  0.00     0.004 A 
ATOM     12  C   UNL A   1      34.278  21.496  26.448  1.00  0.00     0.255 C 
ATOM     13  C   UNL A   1      32.115  20.092  23.078  1.00  0.00     0.008 A 
ATOM     14  C   UNL A   1      33.535  19.758  24.992  1.00  0.00     0.123 A 
ATOM     15  O   UNL A   1      34.004  20.118  26.216  1.00  0.00    -0.492 OA
ATOM     16  C   UNL A   1      32.276  18.753  22.720  1.00  0.00     0.001 A 
ATOM     17  C   UNL A   1      33.731  18.431  24.613  1.00  0.00     0.047 A 
ATOM     18  C   UNL A   1      33.105  17.926  23.473  1.00  0.00     0.004 A 
BRANCH   6  19
ATOM     19  C   UNL A   1      30.363  24.271  26.027  1.00  0.00     0.319 C 
BRANCH  19  20
ATOM     20  C   UNL A   1      30.932  25.434  25.292  1.00  0.00     0.090 A 
ATOM     21  C   UNL A   1      31.507  27.519  24.758  1.00  0.00     0.106 A 
ATOM     22  N   UNL A   1      31.813  26.791  23.704  1.00  0.00    -0.241 NA
ATOM     23  N   UNL A   1      30.987  26.726  25.752  1.00  0.00    -0.341 N 
ATOM     24  C   UNL A   1      31.483  25.505  24.029  1.00  0.00     0.140 A 
ATOM     25  H   UNL A   1      30.703  27.032  26.645  1.00  0.00     0.168 HD
BRANCH  21  26
ATOM     26  C   UNL A   1      31.738  28.988  24.904  1.00  0.00     0.075 C 
BRANCH  26  27
ATOM     27  C   UNL A   1      33.214  29.387  25.008  1.00  0.00     0.008 C 
BRANCH  27  28
ATOM     28  C   UNL A   1      34.090  28.532  25.932  1.00  0.00    -0.003 C 
ATOM     29  C   UNL A   1      34.162  29.047  27.360  1.00  0.00     0.004 C 
ENDBRANCH  27  28
ENDBRANCH  26  27
ENDBRANCH  21  26
ENDBRANCH  19  20
ENDBRANCH   6  19
ENDBRANCH   3   5
ENDBRANCH   2   3
ENDBRANCH   1   2
BRANCH   1  30
ATOM     30  C   UNL A   1      36.947  21.406  24.223  1.00  0.00     0.275 C 
BRANCH  30  31
ATOM     31  O   UNL A   1      37.396  21.614  25.568  1.00  0.00    -0.458 OA
BRANCH  31  32
ATOM     32  C   UNL A   1      38.687  21.330  25.844  1.00  0.00     0.338 C 
ATOM     33  O   UNL A   1      39.271  20.280  25.610  1.00  0.00    -0.246 OA
BRANCH  32  34
ATOM     34  C   UNL A   1      39.256  22.505  26.531  1.00  0.00     0.060 A 
ATOM     35  C   UNL A   1      38.724  23.767  26.281  1.00  0.00     0.016 A 
ATOM     36  C   UNL A   1      40.355  22.365  27.388  1.00  0.00     0.016 A 
ATOM     37  C   UNL A   1      39.370  24.890  26.799  1.00  0.00     0.010 A 
ATOM     38  C   UNL A   1      40.948  23.479  27.968  1.00  0.00     0.010 A 
ATOM     39  C   UNL A   1      40.505  24.757  27.622  1.00  0.00    -0.014 A 
BRANCH  39  40
ATOM     40  C   UNL A   1      41.252  25.957  28.072  1.00  0.00     0.031 A 
ATOM     41  C   UNL A   1      42.663  26.197  27.598  1.00  0.00     0.074 A 
ATOM     42  C   UNL A   1      40.643  26.841  28.883  1.00  0.00     0.049 A 
ATOM     43  N   UNL A   1      43.421  27.248  27.773  1.00  0.00    -0.248 NA
ATOM     44  C   UNL A   1      43.319  25.113  26.845  1.00  0.00     0.031 C 
ATOM     45  C   UNL A   1      39.309  26.661  29.454  1.00  0.00     0.029 A 
ATOM     46  N   UNL A   1      41.045  28.068  29.346  1.00  0.00    -0.354 N 
ATOM     47  C   UNL A   1      44.631  26.954  27.155  1.00  0.00     0.074 A 
ATOM     48  C   UNL A   1      44.537  25.601  26.662  1.00  0.00     0.031 C 
ATOM     49  C   UNL A   1      38.974  27.765  30.136  1.00  0.00     0.029 A 
ATOM     50  C   UNL A   1      40.083  28.718  30.084  1.00  0.00     0.049 A 
ATOM     51  H   UNL A   1      41.936  28.447  29.168  1.00  0.00     0.167 HD
ATOM     52  C   UNL A   1      45.708  27.757  26.983  1.00  0.00     0.034 A 
ATOM     53  C   UNL A   1      40.083  29.949  30.635  1.00  0.00     0.034 A 
ATOM     54  C   UNL A   1      45.764  29.113  27.463  1.00  0.00     0.049 A 
ATOM     55  C   UNL A   1      41.278  30.841  30.404  1.00  0.00     0.074 A 
ATOM     56  C   UNL A   1      46.779  30.037  27.296  1.00  0.00     0.029 A 
ATOM     57  N   UNL A   1      44.766  29.739  28.198  1.00  0.00    -0.354 N 
ATOM     58  N   UNL A   1      42.371  30.588  29.720  1.00  0.00    -0.248 NA
ATOM     59  C   UNL A   1      41.242  32.185  30.996  1.00  0.00     0.031 C 
ATOM     60  C   UNL A   1      46.425  31.197  27.983  1.00  0.00     0.029 A 
ATOM     61  C   UNL A   1      45.152  31.031  28.510  1.00  0.00     0.049 A 
ATOM     62  H   UNL A   1      43.910  29.326  28.457  1.00  0.00     0.167 HD
ATOM     63  C   UNL A   1      43.139  31.747  29.779  1.00  0.00     0.074 A 
ATOM     64  C   UNL A   1      42.375  32.710  30.546  1.00  0.00     0.031 C 
ATOM     65  C   UNL A   1      44.365  31.989  29.250  1.00  0.00     0.034 A 
BRANCH  52  66
ATOM     66  C   UNL A   1      46.900  27.231  26.216  1.00  0.00     0.023 A 
ATOM     67  C   UNL A   1      47.939  26.562  26.890  1.00  0.00     0.031 A 
ATOM     68  C   UNL A   1      47.071  27.511  24.848  1.00  0.00     0.131 A 
ATOM     69  C   UNL A   1      49.114  26.227  26.205  1.00  0.00     0.055 A 
ATOM     70  C   UNL A   1      48.225  27.131  24.158  1.00  0.00     0.041 A 
ATOM     71  F   UNL A   1      46.116  28.153  24.156  1.00  0.00    -0.206 F 
ATOM     72  C   UNL A   1      49.258  26.499  24.840  1.00  0.00     0.022 A 
BRANCH  69  73
ATOM     73  S   UNL A   1      50.530  25.491  27.066  1.00  0.00     0.124 S 
ATOM     74  O   UNL A   1      49.929  24.306  27.675  1.00  0.00    -0.237 OA
ATOM     75  O   UNL A   1      51.452  25.224  25.965  1.00  0.00    -0.237 OA
ATOM     76  O   UNL A   1      50.949  26.526  28.004  1.00  0.00    -0.744 OA
ENDBRANCH  69  73
ENDBRANCH  52  66
BRANCH  53  77
ATOM     77  C   UNL A   1      38.866  30.414  31.365  1.00  0.00     0.023 A 
ATOM     78  C   UNL A   1      37.815  31.054  30.681  1.00  0.00     0.031 A 
ATOM     79  C   UNL A   1      38.797  30.351  32.767  1.00  0.00     0.131 A 
ATOM     80  C   UNL A   1      36.786  31.671  31.403  1.00  0.00     0.055 A 
ATOM     81  C   UNL A   1      37.728  30.902  33.478  1.00  0.00     0.041 A 
ATOM     82  F   UNL A   1      39.782  29.769  33.468  1.00  0.00    -0.206 F 
ATOM     83  C   UNL A   1      36.725  31.584  32.796  1.00  0.00     0.022 A 
BRANCH  80  84
ATOM     84  S   UNL A   1      35.578  32.737  30.567  1.00  0.00     0.124 S 
ATOM     85  O   UNL A   1      36.192  34.054  30.697  1.00  0.00    -0.237 OA
ATOM     86  O   UNL A   1      35.568  32.176  29.217  1.00  0.00    -0.237 OA
ATOM     87  O   UNL A   1      34.351  32.532  31.330  1.00  0.00    -0.744 OA
ENDBRANCH  80  84
ENDBRANCH  53  77
BRANCH  65  88
ATOM     88  C   UNL A   1      44.994  33.347  29.451  1.00  0.00     0.023 A 
ATOM     89  C   UNL A   1      44.756  34.369  28.511  1.00  0.00     0.031 A 
ATOM     90  C   UNL A   1      45.982  33.555  30.428  1.00  0.00     0.131 A 
ATOM     91  C   UNL A   1      45.544  35.525  28.527  1.00  0.00     0.055 A 
ATOM     92  C   UNL A   1      46.727  34.733  30.473  1.00  0.00     0.041 A 
ATOM     93  F   UNL A   1      46.255  32.603  31.336  1.00  0.00    -0.206 F 
ATOM     94  C   UNL A   1      46.524  35.715  29.506  1.00  0.00     0.022 A 
BRANCH  91  95
ATOM     95  S   UNL A   1      45.409  36.765  27.209  1.00  0.00     0.124 S 
ATOM     96  O   UNL A   1      44.006  36.642  26.822  1.00  0.00    -0.237 OA
ATOM     97  O   UNL A   1      45.757  37.997  27.911  1.00  0.00    -0.237 OA
ATOM     98  O   UNL A   1      46.370  36.320  26.205  1.00  0.00    -0.744 OA
ENDBRANCH  91  95
ENDBRANCH  65  88
ENDBRANCH  39  40
ENDBRANCH  32  34
ENDBRANCH  31  32
ENDBRANCH  30  31
ENDBRANCH   1  30
TORSDOF 19
ENDMDL
