MODEL 1
REMARK VINA RESULT:     -10.3      0.000      0.000
REMARK SMILES Cc1cc(OC(F)(F)F)cc2c1O[C@H](C(F)(F)F)C(C(=O)OCCOC(=O)c1ccc(-c3c4nc(c(-c5cc(S(=O)(=O)[O-])ccc5F)c5ccc([nH]5)c(-c5cc(S(=O)(=O)[O-])ccc5F)c5nc(c(-c6cc(S(=O)(=O)[O-])ccc6F)c6ccc3[nH]6)C=C5)C=C4)cc1)=C2
REMARK SMILES IDX 24 1 23 2 22 3 20 4 21 5 19 6 1 7 2 8 3 9 12 10 4 11 11 12
REMARK SMILES IDX 13 13 10 14 91 15 14 16 5 17 6 18 7 19 8 20 9 21 15 22 16 23
REMARK SMILES IDX 17 24 18 25 25 26 26 27 27 28 28 29 29 30 90 31 30 32 89 33
REMARK SMILES IDX 31 34 32 35 33 36 83 37 34 38 88 39 82 40 84 41 35 42 87 43
REMARK SMILES IDX 81 44 80 45 36 47 68 48 48 49 67 50 49 51 52 52 66 53 85 54
REMARK SMILES IDX 50 55 51 56 65 58 86 59 53 60 37 61 38 62 46 63 39 64 45 65
REMARK SMILES IDX 47 66 44 67 40 68 41 69 42 70 43 71 69 72 70 73 78 74 71 75
REMARK SMILES IDX 77 76 79 77 76 78 72 79 73 80 74 81 75 82 54 83 55 84 63 85
REMARK SMILES IDX 56 86 62 87 64 88 61 89 57 90 58 91 59 92 60 93
REMARK H PARENT 84 46 52 57
REMARK Flexibility Score: inf
ROOT
ATOM      1  C   UNL A   1      33.590  33.850  28.160  1.00  0.00     0.275 C 
ENDROOT
BRANCH   1   2
ATOM      2  C   UNL A   1      34.304  34.864  29.054  1.00  0.00     0.275 C 
BRANCH   2   3
ATOM      3  O   UNL A   1      34.041  34.605  30.449  1.00  0.00    -0.459 OA
BRANCH   3   4
ATOM      4  C   UNL A   1      34.724  33.564  30.981  1.00  0.00     0.338 C 
ATOM      5  O   UNL A   1      34.364  32.401  31.019  1.00  0.00    -0.246 OA
BRANCH   4   6
ATOM      6  C   UNL A   1      36.009  34.022  31.540  1.00  0.00     0.087 C 
ATOM      7  C   UNL A   1      39.837  35.275  34.718  1.00  0.00     0.048 C 
ATOM      8  C   UNL A   1      39.719  34.812  33.293  1.00  0.00    -0.005 A 
ATOM      9  C   UNL A   1      40.889  34.602  32.535  1.00  0.00     0.054 A 
ATOM     10  C   UNL A   1      38.466  34.620  32.696  1.00  0.00     0.131 A 
ATOM     11  C   UNL A   1      40.815  34.191  31.203  1.00  0.00     0.130 A 
ATOM     12  C   UNL A   1      38.390  34.198  31.370  1.00  0.00     0.021 A 
ATOM     13  O   UNL A   1      37.356  34.881  33.455  1.00  0.00    -0.475 OA
ATOM     14  C   UNL A   1      39.559  33.997  30.626  1.00  0.00     0.058 A 
ATOM     15  C   UNL A   1      37.098  33.923  30.772  1.00  0.00     0.027 C 
ATOM     16  C   UNL A   1      36.056  34.433  32.981  1.00  0.00     0.316 C 
BRANCH  11  17
ATOM     17  O   UNL A   1      41.862  33.942  30.364  1.00  0.00    -0.406 OA
BRANCH  17  18
ATOM     18  C   UNL A   1      42.422  32.642  30.364  1.00  0.00     0.573 C 
ATOM     19  F   UNL A   1      42.666  32.220  31.624  1.00  0.00    -0.132 F 
ATOM     20  F   UNL A   1      41.599  31.758  29.755  1.00  0.00    -0.132 F 
ATOM     21  F   UNL A   1      43.591  32.660  29.691  1.00  0.00    -0.132 F 
ENDBRANCH  17  18
ENDBRANCH  11  17
BRANCH  16  22
ATOM     22  C   UNL A   1      35.547  33.315  33.902  1.00  0.00     0.430 C 
ATOM     23  F   UNL A   1      34.195  33.221  33.858  1.00  0.00    -0.167 F 
ATOM     24  F   UNL A   1      36.024  32.103  33.528  1.00  0.00    -0.167 F 
ATOM     25  F   UNL A   1      35.896  33.509  35.193  1.00  0.00    -0.167 F 
ENDBRANCH  16  22
ENDBRANCH   4   6
ENDBRANCH   3   4
ENDBRANCH   2   3
ENDBRANCH   1   2
BRANCH   1  26
ATOM     26  O   UNL A   1      34.540  32.972  27.532  1.00  0.00    -0.458 OA
BRANCH  26  27
ATOM     27  C   UNL A   1      34.334  31.653  27.740  1.00  0.00     0.338 C 
ATOM     28  O   UNL A   1      33.294  31.033  27.588  1.00  0.00    -0.246 OA
BRANCH  27  29
ATOM     29  C   UNL A   1      35.593  31.011  28.139  1.00  0.00     0.060 A 
ATOM     30  C   UNL A   1      35.542  29.796  28.815  1.00  0.00     0.016 A 
ATOM     31  C   UNL A   1      36.806  31.675  27.976  1.00  0.00     0.016 A 
ATOM     32  C   UNL A   1      36.676  29.308  29.450  1.00  0.00     0.010 A 
ATOM     33  C   UNL A   1      37.975  31.106  28.494  1.00  0.00     0.010 A 
ATOM     34  C   UNL A   1      37.918  29.937  29.272  1.00  0.00    -0.014 A 
BRANCH  34  35
ATOM     35  C   UNL A   1      39.135  29.331  29.876  1.00  0.00     0.031 A 
ATOM     36  C   UNL A   1      39.661  29.800  31.207  1.00  0.00     0.074 A 
ATOM     37  C   UNL A   1      39.753  28.323  29.225  1.00  0.00     0.049 A 
ATOM     38  N   UNL A   1      40.719  29.390  31.860  1.00  0.00    -0.248 NA
ATOM     39  C   UNL A   1      38.915  30.869  31.890  1.00  0.00     0.031 C 
ATOM     40  C   UNL A   1      39.335  27.785  27.928  1.00  0.00     0.029 A 
ATOM     41  N   UNL A   1      40.840  27.556  29.564  1.00  0.00    -0.354 N 
ATOM     42  C   UNL A   1      40.785  30.171  33.010  1.00  0.00     0.074 A 
ATOM     43  C   UNL A   1      39.675  31.095  32.954  1.00  0.00     0.031 C 
ATOM     44  C   UNL A   1      40.111  26.740  27.613  1.00  0.00     0.029 A 
ATOM     45  C   UNL A   1      41.138  26.585  28.635  1.00  0.00     0.049 A 
ATOM     46  H   UNL A   1      41.356  27.689  30.391  1.00  0.00     0.167 HD
ATOM     47  C   UNL A   1      41.683  30.108  34.022  1.00  0.00     0.034 A 
ATOM     48  C   UNL A   1      42.137  25.680  28.592  1.00  0.00     0.034 A 
ATOM     49  C   UNL A   1      42.763  29.156  34.082  1.00  0.00     0.049 A 
ATOM     50  C   UNL A   1      43.122  25.639  29.725  1.00  0.00     0.074 A 
ATOM     51  C   UNL A   1      43.702  28.990  35.085  1.00  0.00     0.029 A 
ATOM     52  N   UNL A   1      43.046  28.204  33.112  1.00  0.00    -0.354 N 
ATOM     53  N   UNL A   1      43.148  26.364  30.819  1.00  0.00    -0.248 NA
ATOM     54  C   UNL A   1      44.215  24.664  29.622  1.00  0.00     0.031 C 
ATOM     55  C   UNL A   1      44.584  27.980  34.698  1.00  0.00     0.029 A 
ATOM     56  C   UNL A   1      44.161  27.469  33.480  1.00  0.00     0.049 A 
ATOM     57  H   UNL A   1      42.530  28.071  32.284  1.00  0.00     0.167 HD
ATOM     58  C   UNL A   1      44.259  25.933  31.535  1.00  0.00     0.074 A 
ATOM     59  C   UNL A   1      44.852  24.855  30.770  1.00  0.00     0.031 C 
ATOM     60  C   UNL A   1      44.748  26.399  32.710  1.00  0.00     0.034 A 
BRANCH  47  61
ATOM     61  C   UNL A   1      41.553  31.082  35.167  1.00  0.00     0.023 A 
ATOM     62  C   UNL A   1      40.367  31.120  35.923  1.00  0.00     0.031 A 
ATOM     63  C   UNL A   1      42.538  32.051  35.425  1.00  0.00     0.131 A 
ATOM     64  C   UNL A   1      40.180  32.131  36.875  1.00  0.00     0.055 A 
ATOM     65  C   UNL A   1      42.363  33.033  36.401  1.00  0.00     0.041 A 
ATOM     66  F   UNL A   1      43.690  32.053  34.733  1.00  0.00    -0.206 F 
ATOM     67  C   UNL A   1      41.174  33.083  37.122  1.00  0.00     0.022 A 
BRANCH  64  68
ATOM     68  S   UNL A   1      38.623  32.274  37.795  1.00  0.00     0.124 S 
ATOM     69  O   UNL A   1      38.097  33.546  37.303  1.00  0.00    -0.237 OA
ATOM     70  O   UNL A   1      37.899  31.087  37.351  1.00  0.00    -0.237 OA
ATOM     71  O   UNL A   1      39.040  32.277  39.192  1.00  0.00    -0.744 OA
ENDBRANCH  64  68
ENDBRANCH  47  61
BRANCH  48  72
ATOM     72  C   UNL A   1      42.212  24.740  27.437  1.00  0.00     0.023 A 
ATOM     73  C   UNL A   1      41.440  23.563  27.414  1.00  0.00     0.031 A 
ATOM     74  C   UNL A   1      43.142  24.943  26.406  1.00  0.00     0.131 A 
ATOM     75  C   UNL A   1      41.669  22.600  26.424  1.00  0.00     0.055 A 
ATOM     76  C   UNL A   1      43.316  24.012  25.379  1.00  0.00     0.041 A 
ATOM     77  F   UNL A   1      43.906  26.045  26.391  1.00  0.00    -0.206 F 
ATOM     78  C   UNL A   1      42.589  22.824  25.396  1.00  0.00     0.022 A 
BRANCH  75  79
ATOM     79  S   UNL A   1      40.865  20.976  26.507  1.00  0.00     0.124 S 
ATOM     80  O   UNL A   1      41.783  20.139  25.741  1.00  0.00    -0.237 OA
ATOM     81  O   UNL A   1      40.840  20.732  27.948  1.00  0.00    -0.237 OA
ATOM     82  O   UNL A   1      39.560  21.204  25.894  1.00  0.00    -0.744 OA
ENDBRANCH  75  79
ENDBRANCH  48  72
BRANCH  60  83
ATOM     83  C   UNL A   1      46.005  25.767  33.254  1.00  0.00     0.023 A 
ATOM     84  C   UNL A   1      47.265  26.172  32.779  1.00  0.00     0.031 A 
ATOM     85  C   UNL A   1      45.944  24.689  34.153  1.00  0.00     0.131 A 
ATOM     86  C   UNL A   1      48.414  25.480  33.180  1.00  0.00     0.055 A 
ATOM     87  C   UNL A   1      47.096  24.032  34.586  1.00  0.00     0.041 A 
ATOM     88  F   UNL A   1      44.763  24.262  34.628  1.00  0.00    -0.206 F 
ATOM     89  C   UNL A   1      48.338  24.419  34.090  1.00  0.00     0.022 A 
BRANCH  86  90
ATOM     90  S   UNL A   1      50.041  25.888  32.493  1.00  0.00     0.124 S 
ATOM     91  O   UNL A   1      50.490  24.593  31.985  1.00  0.00    -0.237 OA
ATOM     92  O   UNL A   1      49.703  26.875  31.470  1.00  0.00    -0.237 OA
ATOM     93  O   UNL A   1      50.790  26.400  33.636  1.00  0.00    -0.744 OA
ENDBRANCH  86  90
ENDBRANCH  60  83
ENDBRANCH  34  35
ENDBRANCH  27  29
ENDBRANCH  26  27
ENDBRANCH   1  26
TORSDOF 17
ENDMDL
MODEL 2
REMARK VINA RESULT:     -10.2      5.467     11.384
REMARK SMILES Cc1cc(OC(F)(F)F)cc2c1O[C@H](C(F)(F)F)C(C(=O)OCCOC(=O)c1ccc(-c3c4nc(c(-c5cc(S(=O)(=O)[O-])ccc5F)c5ccc([nH]5)c(-c5cc(S(=O)(=O)[O-])ccc5F)c5nc(c(-c6cc(S(=O)(=O)[O-])ccc6F)c6ccc3[nH]6)C=C5)C=C4)cc1)=C2
REMARK SMILES IDX 24 1 23 2 22 3 20 4 21 5 19 6 1 7 2 8 3 9 12 10 4 11 11 12
REMARK SMILES IDX 13 13 10 14 91 15 14 16 5 17 6 18 7 19 8 20 9 21 15 22 16 23
REMARK SMILES IDX 17 24 18 25 25 26 26 27 27 28 28 29 29 30 90 31 30 32 89 33
REMARK SMILES IDX 31 34 32 35 33 36 83 37 34 38 88 39 82 40 84 41 35 42 87 43
REMARK SMILES IDX 81 44 80 45 36 47 68 48 48 49 67 50 49 51 52 52 66 53 85 54
REMARK SMILES IDX 50 55 51 56 65 58 86 59 53 60 37 61 38 62 46 63 39 64 45 65
REMARK SMILES IDX 47 66 44 67 40 68 41 69 42 70 43 71 69 72 70 73 78 74 71 75
REMARK SMILES IDX 77 76 79 77 76 78 72 79 73 80 74 81 75 82 54 83 55 84 63 85
REMARK SMILES IDX 56 86 62 87 64 88 61 89 57 90 58 91 59 92 60 93
REMARK H PARENT 84 46 52 57
REMARK Flexibility Score: inf
ROOT
ATOM      1  C   UNL A   1      36.552  20.193  25.005  1.00  0.00     0.275 C 
ENDROOT
BRANCH   1   2
ATOM      2  C   UNL A   1      35.118  20.702  25.141  1.00  0.00     0.275 C 
BRANCH   2   3
ATOM      3  O   UNL A   1      35.020  22.092  24.762  1.00  0.00    -0.459 OA
BRANCH   3   4
ATOM      4  C   UNL A   1      34.735  22.947  25.771  1.00  0.00     0.338 C 
ATOM      5  O   UNL A   1      35.144  22.882  26.917  1.00  0.00    -0.246 OA
BRANCH   4   6
ATOM      6  C   UNL A   1      33.828  24.012  25.305  1.00  0.00     0.087 C 
ATOM      7  C   UNL A   1      29.692  26.692  23.881  1.00  0.00     0.048 C 
ATOM      8  C   UNL A   1      31.036  27.007  24.474  1.00  0.00    -0.005 A 
ATOM      9  C   UNL A   1      31.354  28.343  24.795  1.00  0.00     0.054 A 
ATOM     10  C   UNL A   1      31.989  26.001  24.681  1.00  0.00     0.131 A 
ATOM     11  C   UNL A   1      32.600  28.673  25.329  1.00  0.00     0.130 A 
ATOM     12  C   UNL A   1      33.230  26.328  25.226  1.00  0.00     0.021 A 
ATOM     13  O   UNL A   1      31.655  24.726  24.311  1.00  0.00    -0.475 OA
ATOM     14  C   UNL A   1      33.536  27.659  25.536  1.00  0.00     0.058 A 
ATOM     15  C   UNL A   1      34.191  25.281  25.513  1.00  0.00     0.027 C 
ATOM     16  C   UNL A   1      32.489  23.621  24.759  1.00  0.00     0.316 C 
BRANCH  11  17
ATOM     17  O   UNL A   1      33.032  29.916  25.693  1.00  0.00    -0.406 OA
BRANCH  17  18
ATOM     18  C   UNL A   1      32.369  30.566  26.762  1.00  0.00     0.573 C 
ATOM     19  F   UNL A   1      31.381  31.366  26.304  1.00  0.00    -0.132 F 
ATOM     20  F   UNL A   1      31.845  29.668  27.626  1.00  0.00    -0.132 F 
ATOM     21  F   UNL A   1      33.254  31.330  27.435  1.00  0.00    -0.132 F 
ENDBRANCH  17  18
ENDBRANCH  11  17
BRANCH  16  22
ATOM     22  C   UNL A   1      31.695  22.775  25.766  1.00  0.00     0.430 C 
ATOM     23  F   UNL A   1      30.364  23.015  25.666  1.00  0.00    -0.167 F 
ATOM     24  F   UNL A   1      31.859  21.448  25.544  1.00  0.00    -0.167 F 
ATOM     25  F   UNL A   1      32.054  23.021  27.045  1.00  0.00    -0.167 F 
ENDBRANCH  16  22
ENDBRANCH   4   6
ENDBRANCH   3   4
ENDBRANCH   2   3
ENDBRANCH   1   2
BRANCH   1  26
ATOM     26  O   UNL A   1      37.488  21.279  25.121  1.00  0.00    -0.458 OA
BRANCH  26  27
ATOM     27  C   UNL A   1      38.664  20.969  25.709  1.00  0.00     0.338 C 
ATOM     28  O   UNL A   1      39.205  19.875  25.752  1.00  0.00    -0.246 OA
BRANCH  27  29
ATOM     29  C   UNL A   1      39.274  22.180  26.269  1.00  0.00     0.060 A 
ATOM     30  C   UNL A   1      38.682  23.412  26.008  1.00  0.00     0.016 A 
ATOM     31  C   UNL A   1      40.502  22.115  26.923  1.00  0.00     0.016 A 
ATOM     32  C   UNL A   1      39.375  24.585  26.274  1.00  0.00     0.010 A 
ATOM     33  C   UNL A   1      41.132  23.300  27.320  1.00  0.00     0.010 A 
ATOM     34  C   UNL A   1      40.596  24.550  26.965  1.00  0.00    -0.014 A 
BRANCH  34  35
ATOM     35  C   UNL A   1      41.264  25.828  27.331  1.00  0.00     0.031 A 
ATOM     36  C   UNL A   1      42.631  26.173  26.803  1.00  0.00     0.074 A 
ATOM     37  C   UNL A   1      40.610  26.700  28.127  1.00  0.00     0.049 A 
ATOM     38  N   UNL A   1      43.358  27.234  27.042  1.00  0.00    -0.248 NA
ATOM     39  C   UNL A   1      43.272  25.202  25.901  1.00  0.00     0.031 C 
ATOM     40  C   UNL A   1      39.281  26.475  28.700  1.00  0.00     0.029 A 
ATOM     41  N   UNL A   1      40.952  27.952  28.574  1.00  0.00    -0.354 N 
ATOM     42  C   UNL A   1      44.550  27.046  26.351  1.00  0.00     0.074 A 
ATOM     43  C   UNL A   1      44.461  25.757  25.702  1.00  0.00     0.031 C 
ATOM     44  C   UNL A   1      38.894  27.571  29.365  1.00  0.00     0.029 A 
ATOM     45  C   UNL A   1      39.979  28.544  29.346  1.00  0.00     0.049 A 
ATOM     46  H   UNL A   1      41.811  28.384  28.363  1.00  0.00     0.167 HD
ATOM     47  C   UNL A   1      45.613  27.881  26.257  1.00  0.00     0.034 A 
ATOM     48  C   UNL A   1      39.960  29.730  29.988  1.00  0.00     0.034 A 
ATOM     49  C   UNL A   1      45.673  29.180  26.879  1.00  0.00     0.049 A 
ATOM     50  C   UNL A   1      41.155  30.632  29.873  1.00  0.00     0.074 A 
ATOM     51  C   UNL A   1      46.692  30.114  26.811  1.00  0.00     0.029 A 
ATOM     52  N   UNL A   1      44.678  29.735  27.671  1.00  0.00    -0.354 N 
ATOM     53  N   UNL A   1      42.259  30.449  29.187  1.00  0.00    -0.248 NA
ATOM     54  C   UNL A   1      41.109  31.897  30.617  1.00  0.00     0.031 C 
ATOM     55  C   UNL A   1      46.339  31.207  27.605  1.00  0.00     0.029 A 
ATOM     56  C   UNL A   1      45.071  30.985  28.121  1.00  0.00     0.049 A 
ATOM     57  H   UNL A   1      43.818  29.304  27.883  1.00  0.00     0.167 HD
ATOM     58  C   UNL A   1      43.040  31.576  29.417  1.00  0.00     0.074 A 
ATOM     59  C   UNL A   1      42.263  32.453  30.269  1.00  0.00     0.031 C 
ATOM     60  C   UNL A   1      44.292  31.850  28.973  1.00  0.00     0.034 A 
BRANCH  47  61
ATOM     61  C   UNL A   1      46.810  27.443  25.451  1.00  0.00     0.023 A 
ATOM     62  C   UNL A   1      46.962  27.889  24.125  1.00  0.00     0.031 A 
ATOM     63  C   UNL A   1      47.721  26.491  25.942  1.00  0.00     0.131 A 
ATOM     64  C   UNL A   1      47.979  27.355  23.322  1.00  0.00     0.055 A 
ATOM     65  C   UNL A   1      48.756  25.990  25.150  1.00  0.00     0.041 A 
ATOM     66  F   UNL A   1      47.620  26.038  27.203  1.00  0.00    -0.206 F 
ATOM     67  C   UNL A   1      48.880  26.413  23.830  1.00  0.00     0.022 A 
BRANCH  64  68
ATOM     68  S   UNL A   1      48.142  27.828  21.580  1.00  0.00     0.124 S 
ATOM     69  O   UNL A   1      49.260  28.769  21.625  1.00  0.00    -0.237 OA
ATOM     70  O   UNL A   1      48.431  26.547  20.943  1.00  0.00    -0.237 OA
ATOM     71  O   UNL A   1      46.850  28.421  21.254  1.00  0.00    -0.744 OA
ENDBRANCH  64  68
ENDBRANCH  47  61
BRANCH  48  72
ATOM     72  C   UNL A   1      38.747  30.112  30.767  1.00  0.00     0.023 A 
ATOM     73  C   UNL A   1      37.786  30.984  30.223  1.00  0.00     0.031 A 
ATOM     74  C   UNL A   1      38.596  29.709  32.104  1.00  0.00     0.131 A 
ATOM     75  C   UNL A   1      36.762  31.485  31.035  1.00  0.00     0.055 A 
ATOM     76  C   UNL A   1      37.531  30.156  32.889  1.00  0.00     0.041 A 
ATOM     77  F   UNL A   1      39.492  28.886  32.667  1.00  0.00    -0.206 F 
ATOM     78  C   UNL A   1      36.618  31.064  32.361  1.00  0.00     0.022 A 
BRANCH  75  79
ATOM     79  S   UNL A   1      35.656  32.791  30.433  1.00  0.00     0.124 S 
ATOM     80  O   UNL A   1      36.343  34.002  30.871  1.00  0.00    -0.237 OA
ATOM     81  O   UNL A   1      35.666  32.546  28.992  1.00  0.00    -0.237 OA
ATOM     82  O   UNL A   1      34.391  32.509  31.102  1.00  0.00    -0.744 OA
ENDBRANCH  75  79
ENDBRANCH  48  72
BRANCH  60  83
ATOM     83  C   UNL A   1      44.929  33.146  29.407  1.00  0.00     0.023 A 
ATOM     84  C   UNL A   1      44.796  34.302  28.616  1.00  0.00     0.031 A 
ATOM     85  C   UNL A   1      45.762  33.202  30.538  1.00  0.00     0.131 A 
ATOM     86  C   UNL A   1      45.511  35.458  28.950  1.00  0.00     0.055 A 
ATOM     87  C   UNL A   1      46.436  34.371  30.892  1.00  0.00     0.041 A 
ATOM     88  F   UNL A   1      45.926  32.122  31.318  1.00  0.00    -0.206 F 
ATOM     89  C   UNL A   1      46.322  35.503  30.090  1.00  0.00     0.022 A 
BRANCH  86  90
ATOM     90  S   UNL A   1      45.466  36.927  27.887  1.00  0.00     0.124 S 
ATOM     91  O   UNL A   1      44.429  36.570  26.921  1.00  0.00    -0.237 OA
ATOM     92  O   UNL A   1      45.101  37.978  28.834  1.00  0.00    -0.237 OA
ATOM     93  O   UNL A   1      46.818  37.012  27.345  1.00  0.00    -0.744 OA
ENDBRANCH  86  90
ENDBRANCH  60  83
ENDBRANCH  34  35
ENDBRANCH  27  29
ENDBRANCH  26  27
ENDBRANCH   1  26
TORSDOF 17
ENDMDL
MODEL 3
REMARK VINA RESULT:     -10.2      1.474      7.609
REMARK SMILES Cc1cc(OC(F)(F)F)cc2c1O[C@H](C(F)(F)F)C(C(=O)OCCOC(=O)c1ccc(-c3c4nc(c(-c5cc(S(=O)(=O)[O-])ccc5F)c5ccc([nH]5)c(-c5cc(S(=O)(=O)[O-])ccc5F)c5nc(c(-c6cc(S(=O)(=O)[O-])ccc6F)c6ccc3[nH]6)C=C5)C=C4)cc1)=C2
REMARK SMILES IDX 24 1 23 2 22 3 20 4 21 5 19 6 1 7 2 8 3 9 12 10 4 11 11 12
REMARK SMILES IDX 13 13 10 14 91 15 14 16 5 17 6 18 7 19 8 20 9 21 15 22 16 23
REMARK SMILES IDX 17 24 18 25 25 26 26 27 27 28 28 29 29 30 90 31 30 32 89 33
REMARK SMILES IDX 31 34 32 35 33 36 83 37 34 38 88 39 82 40 84 41 35 42 87 43
REMARK SMILES IDX 81 44 80 45 36 47 68 48 48 49 67 50 49 51 52 52 66 53 85 54
REMARK SMILES IDX 50 55 51 56 65 58 86 59 53 60 37 61 38 62 46 63 39 64 45 65
REMARK SMILES IDX 47 66 44 67 40 68 41 69 42 70 43 71 69 72 70 73 78 74 71 75
REMARK SMILES IDX 77 76 79 77 76 78 72 79 73 80 74 81 75 82 54 83 55 84 63 85
REMARK SMILES IDX 56 86 62 87 64 88 61 89 57 90 58 91 59 92 60 93
REMARK H PARENT 84 46 52 57
REMARK Flexibility Score: inf
ROOT
ATOM      1  C   UNL A   1      33.202  33.819  27.960  1.00  0.00     0.275 C 
ENDROOT
BRANCH   1   2
ATOM      2  C   UNL A   1      33.278  34.565  29.291  1.00  0.00     0.275 C 
BRANCH   2   3
ATOM      3  O   UNL A   1      34.634  34.613  29.785  1.00  0.00    -0.459 OA
BRANCH   3   4
ATOM      4  C   UNL A   1      34.908  33.764  30.803  1.00  0.00     0.338 C 
ATOM      5  O   UNL A   1      34.264  32.781  31.124  1.00  0.00    -0.246 OA
BRANCH   4   6
ATOM      6  C   UNL A   1      36.127  34.188  31.514  1.00  0.00     0.087 C 
ATOM      7  C   UNL A   1      39.597  35.278  35.133  1.00  0.00     0.048 C 
ATOM      8  C   UNL A   1      39.631  34.876  33.686  1.00  0.00    -0.005 A 
ATOM      9  C   UNL A   1      40.874  34.689  33.049  1.00  0.00     0.054 A 
ATOM     10  C   UNL A   1      38.448  34.719  32.951  1.00  0.00     0.131 A 
ATOM     11  C   UNL A   1      40.942  34.334  31.701  1.00  0.00     0.130 A 
ATOM     12  C   UNL A   1      38.514  34.353  31.607  1.00  0.00     0.021 A 
ATOM     13  O   UNL A   1      37.264  34.957  33.597  1.00  0.00    -0.475 OA
ATOM     14  C   UNL A   1      39.755  34.173  30.985  1.00  0.00     0.058 A 
ATOM     15  C   UNL A   1      37.292  34.113  30.864  1.00  0.00     0.027 C 
ATOM     16  C   UNL A   1      36.021  34.539  32.968  1.00  0.00     0.316 C 
BRANCH  11  17
ATOM     17  O   UNL A   1      42.072  34.112  30.968  1.00  0.00    -0.406 OA
BRANCH  17  18
ATOM     18  C   UNL A   1      42.495  32.773  30.785  1.00  0.00     0.573 C 
ATOM     19  F   UNL A   1      43.589  32.715  29.994  1.00  0.00    -0.132 F 
ATOM     20  F   UNL A   1      42.777  32.186  31.971  1.00  0.00    -0.132 F 
ATOM     21  F   UNL A   1      41.507  32.071  30.193  1.00  0.00    -0.132 F 
ENDBRANCH  17  18
ENDBRANCH  11  17
BRANCH  16  22
ATOM     22  C   UNL A   1      35.413  33.387  33.782  1.00  0.00     0.430 C 
ATOM     23  F   UNL A   1      35.731  33.495  35.096  1.00  0.00    -0.167 F 
ATOM     24  F   UNL A   1      34.059  33.389  33.718  1.00  0.00    -0.167 F 
ATOM     25  F   UNL A   1      35.838  32.175  33.362  1.00  0.00    -0.167 F 
ENDBRANCH  16  22
ENDBRANCH   4   6
ENDBRANCH   3   4
ENDBRANCH   2   3
ENDBRANCH   1   2
BRANCH   1  26
ATOM     26  O   UNL A   1      34.410  33.074  27.727  1.00  0.00    -0.458 OA
BRANCH  26  27
ATOM     27  C   UNL A   1      34.271  31.730  27.734  1.00  0.00     0.338 C 
ATOM     28  O   UNL A   1      33.292  31.085  27.393  1.00  0.00    -0.246 OA
BRANCH  27  29
ATOM     29  C   UNL A   1      35.525  31.104  28.168  1.00  0.00     0.060 A 
ATOM     30  C   UNL A   1      35.483  29.825  28.715  1.00  0.00     0.016 A 
ATOM     31  C   UNL A   1      36.713  31.831  28.171  1.00  0.00     0.016 A 
ATOM     32  C   UNL A   1      36.587  29.322  29.389  1.00  0.00     0.010 A 
ATOM     33  C   UNL A   1      37.866  31.261  28.725  1.00  0.00     0.010 A 
ATOM     34  C   UNL A   1      37.807  30.017  29.376  1.00  0.00    -0.014 A 
BRANCH  34  35
ATOM     35  C   UNL A   1      39.002  29.404  30.015  1.00  0.00     0.031 A 
ATOM     36  C   UNL A   1      39.785  28.318  29.325  1.00  0.00     0.074 A 
ATOM     37  C   UNL A   1      39.400  29.857  31.222  1.00  0.00     0.049 A 
ATOM     38  N   UNL A   1      40.836  27.667  29.754  1.00  0.00    -0.248 NA
ATOM     39  C   UNL A   1      39.329  27.901  27.990  1.00  0.00     0.031 C 
ATOM     40  C   UNL A   1      38.720  30.905  31.988  1.00  0.00     0.029 A 
ATOM     41  N   UNL A   1      40.475  29.523  32.008  1.00  0.00    -0.354 N 
ATOM     42  C   UNL A   1      41.147  26.744  28.762  1.00  0.00     0.074 A 
ATOM     43  C   UNL A   1      40.158  26.901  27.718  1.00  0.00     0.031 C 
ATOM     44  C   UNL A   1      39.424  31.171  33.095  1.00  0.00     0.029 A 
ATOM     45  C   UNL A   1      40.556  30.256  33.169  1.00  0.00     0.049 A 
ATOM     46  H   UNL A   1      41.124  28.825  31.764  1.00  0.00     0.167 HD
ATOM     47  C   UNL A   1      42.171  25.859  28.723  1.00  0.00     0.034 A 
ATOM     48  C   UNL A   1      41.428  30.193  34.196  1.00  0.00     0.034 A 
ATOM     49  C   UNL A   1      43.171  25.739  29.754  1.00  0.00     0.049 A 
ATOM     50  C   UNL A   1      42.550  29.197  34.129  1.00  0.00     0.074 A 
ATOM     51  C   UNL A   1      44.269  24.897  29.786  1.00  0.00     0.029 A 
ATOM     52  N   UNL A   1      43.207  26.483  30.925  1.00  0.00    -0.354 N 
ATOM     53  N   UNL A   1      42.845  28.355  33.166  1.00  0.00    -0.248 NA
ATOM     54  C   UNL A   1      43.456  29.134  35.283  1.00  0.00     0.031 C 
ATOM     55  C   UNL A   1      44.935  25.091  30.998  1.00  0.00     0.029 A 
ATOM     56  C   UNL A   1      44.290  26.098  31.698  1.00  0.00     0.049 A 
ATOM     57  H   UNL A   1      42.557  27.181  31.170  1.00  0.00     0.167 HD
ATOM     58  C   UNL A   1      43.970  27.662  33.597  1.00  0.00     0.074 A 
ATOM     59  C   UNL A   1      44.327  28.215  34.888  1.00  0.00     0.031 C 
ATOM     60  C   UNL A   1      44.636  26.652  32.985  1.00  0.00     0.034 A 
BRANCH  47  61
ATOM     61  C   UNL A   1      42.291  24.941  27.531  1.00  0.00     0.023 A 
ATOM     62  C   UNL A   1      41.576  23.729  27.506  1.00  0.00     0.031 A 
ATOM     63  C   UNL A   1      43.202  25.198  26.492  1.00  0.00     0.131 A 
ATOM     64  C   UNL A   1      41.813  22.802  26.483  1.00  0.00     0.055 A 
ATOM     65  C   UNL A   1      43.406  24.287  25.454  1.00  0.00     0.041 A 
ATOM     66  F   UNL A   1      43.905  26.343  26.470  1.00  0.00    -0.206 F 
ATOM     67  C   UNL A   1      42.719  23.077  25.454  1.00  0.00     0.022 A 
BRANCH  64  68
ATOM     68  S   UNL A   1      40.987  21.187  26.474  1.00  0.00     0.124 S 
ATOM     69  O   UNL A   1      41.946  20.361  25.742  1.00  0.00    -0.237 OA
ATOM     70  O   UNL A   1      40.874  20.896  27.900  1.00  0.00    -0.237 OA
ATOM     71  O   UNL A   1      39.732  21.439  25.776  1.00  0.00    -0.744 OA
ENDBRANCH  64  68
ENDBRANCH  47  61
BRANCH  48  72
ATOM     72  C   UNL A   1      41.262  31.128  35.346  1.00  0.00     0.023 A 
ATOM     73  C   UNL A   1      40.105  31.090  36.145  1.00  0.00     0.031 A 
ATOM     74  C   UNL A   1      42.198  32.148  35.582  1.00  0.00     0.131 A 
ATOM     75  C   UNL A   1      39.878  32.098  37.090  1.00  0.00     0.055 A 
ATOM     76  C   UNL A   1      42.000  33.110  36.575  1.00  0.00     0.041 A 
ATOM     77  F   UNL A   1      43.312  32.230  34.839  1.00  0.00    -0.206 F 
ATOM     78  C   UNL A   1      40.826  33.098  37.322  1.00  0.00     0.022 A 
BRANCH  75  79
ATOM     79  S   UNL A   1      38.291  32.210  37.962  1.00  0.00     0.124 S 
ATOM     80  O   UNL A   1      37.762  33.480  37.475  1.00  0.00    -0.237 OA
ATOM     81  O   UNL A   1      37.604  31.013  37.480  1.00  0.00    -0.237 OA
ATOM     82  O   UNL A   1      38.668  32.184  39.371  1.00  0.00    -0.744 OA
ENDBRANCH  75  79
ENDBRANCH  48  72
BRANCH  60  83
ATOM     83  C   UNL A   1      45.819  26.048  33.700  1.00  0.00     0.023 A 
ATOM     84  C   UNL A   1      45.628  25.032  34.654  1.00  0.00     0.031 A 
ATOM     85  C   UNL A   1      47.115  26.560  33.519  1.00  0.00     0.131 A 
ATOM     86  C   UNL A   1      46.712  24.582  35.416  1.00  0.00     0.055 A 
ATOM     87  C   UNL A   1      48.201  26.076  34.249  1.00  0.00     0.041 A 
ATOM     88  F   UNL A   1      47.344  27.535  32.625  1.00  0.00    -0.206 F 
ATOM     89  C   UNL A   1      48.000  25.090  35.211  1.00  0.00     0.022 A 
BRANCH  86  90
ATOM     90  S   UNL A   1      46.485  23.366  36.742  1.00  0.00     0.124 S 
ATOM     91  O   UNL A   1      46.114  22.167  35.994  1.00  0.00    -0.237 OA
ATOM     92  O   UNL A   1      47.810  23.333  37.356  1.00  0.00    -0.237 OA
ATOM     93  O   UNL A   1      45.425  23.937  37.566  1.00  0.00    -0.744 OA
ENDBRANCH  86  90
ENDBRANCH  60  83
ENDBRANCH  34  35
ENDBRANCH  27  29
ENDBRANCH  26  27
ENDBRANCH   1  26
TORSDOF 17
ENDMDL
