MODEL 1
REMARK VINA RESULT:     -11.1      0.000      0.000
REMARK SMILES O=C(Cn1nc(-c2ccco2)ccc1=O)OCCOC(=O)c1ccc(-c2c3nc(c(-c4cc(S(=O)(=O)[O-])ccc4F)c4ccc([nH]4)c(-c4cc(S(=O)(=O)[O-])ccc4F)c4nc(c(-c5cc(S(=O)(=O)[O-])ccc5F)c5ccc2[nH]5)C=C4)C=C3)cc1
REMARK SMILES IDX 18 1 17 2 16 3 2 4 1 5 3 6 4 7 5 8 14 9 6 10 13 11 15 12
REMARK SMILES IDX 12 13 7 14 8 15 11 16 9 17 10 18 19 19 20 20 21 21 22 22
REMARK SMILES IDX 23 23 84 24 24 25 83 26 25 27 26 28 27 29 77 30 28 31 82 32
REMARK SMILES IDX 76 33 78 34 29 35 81 36 75 37 74 38 30 40 62 41 42 42 61 43
REMARK SMILES IDX 43 44 46 45 60 46 79 47 44 48 45 49 59 51 80 52 47 53 31 54
REMARK SMILES IDX 32 55 40 56 33 57 39 58 41 59 38 60 34 61 35 62 36 63 37 64
REMARK SMILES IDX 63 65 64 66 72 67 65 68 71 69 73 70 70 71 66 72 67 73 68 74
REMARK SMILES IDX 69 75 48 76 49 77 57 78 50 79 56 80 58 81 55 82 51 83 52 84
REMARK SMILES IDX 53 85 54 86
REMARK H PARENT 78 39 46 50
REMARK Flexibility Score: inf
ROOT
ATOM      1  C   UNL A   1      41.249  21.843  26.941  1.00  0.00     0.275 C 
ENDROOT
BRANCH   1   2
ATOM      2  C   UNL A   1      41.915  20.894  27.936  1.00  0.00     0.274 C 
BRANCH   2   3
ATOM      3  O   UNL A   1      41.833  19.523  27.497  1.00  0.00    -0.461 OA
BRANCH   3   4
ATOM      4  C   UNL A   1      41.926  19.131  26.207  1.00  0.00     0.328 C 
ATOM      5  O   UNL A   1      40.925  19.173  25.489  1.00  0.00    -0.250 OA
BRANCH   4   6
ATOM      6  C   UNL A   1      43.236  18.593  25.641  1.00  0.00     0.270 C 
BRANCH   6   7
ATOM      7  N   UNL A   1      44.261  19.503  25.153  1.00  0.00    -0.218 N 
ATOM      8  N   UNL A   1      43.921  20.848  25.152  1.00  0.00    -0.166 NA
ATOM      9  C   UNL A   1      45.567  19.046  25.064  1.00  0.00     0.267 A 
ATOM     10  C   UNL A   1      44.856  21.716  24.903  1.00  0.00     0.126 A 
ATOM     11  C   UNL A   1      46.577  20.052  24.686  1.00  0.00     0.076 A 
ATOM     12  O   UNL A   1      45.916  17.883  25.237  1.00  0.00    -0.268 OA
ATOM     13  C   UNL A   1      46.251  21.341  24.581  1.00  0.00     0.040 A 
BRANCH  10  14
ATOM     14  C   UNL A   1      44.545  23.124  24.979  1.00  0.00     0.154 A 
ATOM     15  C   UNL A   1      43.335  23.794  24.985  1.00  0.00     0.052 A 
ATOM     16  O   UNL A   1      45.566  24.032  25.095  1.00  0.00    -0.463 OA
ATOM     17  C   UNL A   1      43.631  25.171  25.128  1.00  0.00     0.043 A 
ATOM     18  C   UNL A   1      45.001  25.264  25.166  1.00  0.00     0.196 A 
ENDBRANCH  10  14
ENDBRANCH   6   7
ENDBRANCH   4   6
ENDBRANCH   3   4
ENDBRANCH   2   3
ENDBRANCH   1   2
BRANCH   1  19
ATOM     19  O   UNL A   1      39.834  21.820  27.176  1.00  0.00    -0.458 OA
BRANCH  19  20
ATOM     20  C   UNL A   1      39.084  22.718  26.494  1.00  0.00     0.338 C 
ATOM     21  O   UNL A   1      38.170  22.479  25.727  1.00  0.00    -0.246 OA
BRANCH  20  22
ATOM     22  C   UNL A   1      39.452  24.062  26.991  1.00  0.00     0.060 A 
ATOM     23  C   UNL A   1      39.210  24.424  28.322  1.00  0.00     0.016 A 
ATOM     24  C   UNL A   1      39.983  24.992  26.090  1.00  0.00     0.016 A 
ATOM     25  C   UNL A   1      39.506  25.716  28.749  1.00  0.00     0.010 A 
ATOM     26  C   UNL A   1      40.284  26.285  26.523  1.00  0.00     0.010 A 
ATOM     27  C   UNL A   1      40.058  26.652  27.858  1.00  0.00    -0.014 A 
BRANCH  27  28
ATOM     28  C   UNL A   1      40.575  27.933  28.393  1.00  0.00     0.031 A 
ATOM     29  C   UNL A   1      42.036  28.244  28.462  1.00  0.00     0.074 A 
ATOM     30  C   UNL A   1      39.670  28.839  28.808  1.00  0.00     0.049 A 
ATOM     31  N   UNL A   1      42.614  29.381  28.753  1.00  0.00    -0.248 NA
ATOM     32  C   UNL A   1      42.970  27.147  28.172  1.00  0.00     0.031 C 
ATOM     33  C   UNL A   1      38.224  28.612  28.828  1.00  0.00     0.029 A 
ATOM     34  N   UNL A   1      39.820  30.116  29.278  1.00  0.00    -0.354 N 
ATOM     35  C   UNL A   1      43.979  29.153  28.655  1.00  0.00     0.074 A 
ATOM     36  C   UNL A   1      44.144  27.750  28.331  1.00  0.00     0.031 C 
ATOM     37  C   UNL A   1      37.617  29.722  29.267  1.00  0.00     0.029 A 
ATOM     38  C   UNL A   1      38.629  30.731  29.578  1.00  0.00     0.049 A 
ATOM     39  H   UNL A   1      40.696  30.552  29.390  1.00  0.00     0.167 HD
ATOM     40  C   UNL A   1      44.992  30.044  28.800  1.00  0.00     0.034 A 
ATOM     41  C   UNL A   1      38.369  31.969  30.040  1.00  0.00     0.034 A 
ATOM     42  C   UNL A   1      44.804  31.430  29.163  1.00  0.00     0.049 A 
ATOM     43  C   UNL A   1      39.510  32.934  30.213  1.00  0.00     0.074 A 
ATOM     44  C   UNL A   1      45.763  32.422  29.282  1.00  0.00     0.029 A 
ATOM     45  N   UNL A   1      43.588  32.019  29.488  1.00  0.00    -0.354 N 
ATOM     46  N   UNL A   1      40.789  32.746  29.984  1.00  0.00    -0.248 NA
ATOM     47  C   UNL A   1      39.175  34.285  30.679  1.00  0.00     0.031 C 
ATOM     48  C   UNL A   1      45.139  33.586  29.739  1.00  0.00     0.029 A 
ATOM     49  C   UNL A   1      43.777  33.347  29.840  1.00  0.00     0.049 A 
ATOM     50  H   UNL A   1      42.717  31.560  29.469  1.00  0.00     0.167 HD
ATOM     51  C   UNL A   1      41.413  33.954  30.277  1.00  0.00     0.074 A 
ATOM     52  C   UNL A   1      40.363  34.879  30.656  1.00  0.00     0.031 C 
ATOM     53  C   UNL A   1      42.735  34.263  30.244  1.00  0.00     0.034 A 
BRANCH  40  54
ATOM     54  C   UNL A   1      46.403  29.576  28.533  1.00  0.00     0.023 A 
ATOM     55  C   UNL A   1      46.791  29.168  27.242  1.00  0.00     0.031 A 
ATOM     56  C   UNL A   1      47.318  29.400  29.587  1.00  0.00     0.131 A 
ATOM     57  C   UNL A   1      48.046  28.577  27.047  1.00  0.00     0.055 A 
ATOM     58  C   UNL A   1      48.581  28.843  29.381  1.00  0.00     0.041 A 
ATOM     59  F   UNL A   1      46.995  29.765  30.839  1.00  0.00    -0.206 F 
ATOM     60  C   UNL A   1      48.945  28.418  28.108  1.00  0.00     0.022 A 
BRANCH  57  61
ATOM     61  S   UNL A   1      48.541  27.925  25.427  1.00  0.00     0.124 S 
ATOM     62  O   UNL A   1      49.897  28.455  25.296  1.00  0.00    -0.237 OA
ATOM     63  O   UNL A   1      48.454  26.483  25.639  1.00  0.00    -0.237 OA
ATOM     64  O   UNL A   1      47.561  28.489  24.508  1.00  0.00    -0.744 OA
ENDBRANCH  57  61
ENDBRANCH  40  54
BRANCH  41  65
ATOM     65  C   UNL A   1      36.950  32.355  30.276  1.00  0.00     0.023 A 
ATOM     66  C   UNL A   1      36.196  32.968  29.257  1.00  0.00     0.031 A 
ATOM     67  C   UNL A   1      36.384  32.260  31.557  1.00  0.00     0.131 A 
ATOM     68  C   UNL A   1      34.954  33.536  29.560  1.00  0.00     0.055 A 
ATOM     69  C   UNL A   1      35.112  32.763  31.835  1.00  0.00     0.041 A 
ATOM     70  F   UNL A   1      37.075  31.701  32.562  1.00  0.00    -0.206 F 
ATOM     71  C   UNL A   1      34.400  33.423  30.839  1.00  0.00     0.022 A 
BRANCH  68  72
ATOM     72  S   UNL A   1      34.086  34.571  28.348  1.00  0.00     0.124 S 
ATOM     73  O   UNL A   1      35.040  34.614  27.245  1.00  0.00    -0.237 OA
ATOM     74  O   UNL A   1      32.875  33.793  28.107  1.00  0.00    -0.237 OA
ATOM     75  O   UNL A   1      33.882  35.832  29.055  1.00  0.00    -0.744 OA
ENDBRANCH  68  72
ENDBRANCH  41  65
BRANCH  53  76
ATOM     76  C   UNL A   1      43.148  35.654  30.668  1.00  0.00     0.023 A 
ATOM     77  C   UNL A   1      43.338  36.669  29.710  1.00  0.00     0.031 A 
ATOM     78  C   UNL A   1      43.459  35.944  32.009  1.00  0.00     0.131 A 
ATOM     79  C   UNL A   1      43.844  37.916  30.104  1.00  0.00     0.055 A 
ATOM     80  C   UNL A   1      43.920  37.201  32.403  1.00  0.00     0.041 A 
ATOM     81  F   UNL A   1      43.305  35.009  32.961  1.00  0.00    -0.206 F 
ATOM     82  C   UNL A   1      44.126  38.190  31.447  1.00  0.00     0.022 A 
BRANCH  79  83
ATOM     83  S   UNL A   1      44.229  39.202  28.884  1.00  0.00     0.124 S 
ATOM     84  O   UNL A   1      43.975  38.507  27.623  1.00  0.00    -0.237 OA
ATOM     85  O   UNL A   1      43.266  40.248  29.223  1.00  0.00    -0.237 OA
ATOM     86  O   UNL A   1      45.626  39.529  29.145  1.00  0.00    -0.744 OA
ENDBRANCH  79  83
ENDBRANCH  53  76
ENDBRANCH  27  28
ENDBRANCH  20  22
ENDBRANCH  19  20
ENDBRANCH   1  19
TORSDOF 16
ENDMDL
MODEL 2
REMARK VINA RESULT:     -11.1      4.976     11.427
REMARK SMILES O=C(Cn1nc(-c2ccco2)ccc1=O)OCCOC(=O)c1ccc(-c2c3nc(c(-c4cc(S(=O)(=O)[O-])ccc4F)c4ccc([nH]4)c(-c4cc(S(=O)(=O)[O-])ccc4F)c4nc(c(-c5cc(S(=O)(=O)[O-])ccc5F)c5ccc2[nH]5)C=C4)C=C3)cc1
REMARK SMILES IDX 18 1 17 2 16 3 2 4 1 5 3 6 4 7 5 8 14 9 6 10 13 11 15 12
REMARK SMILES IDX 12 13 7 14 8 15 11 16 9 17 10 18 19 19 20 20 21 21 22 22
REMARK SMILES IDX 23 23 84 24 24 25 83 26 25 27 26 28 27 29 77 30 28 31 82 32
REMARK SMILES IDX 76 33 78 34 29 35 81 36 75 37 74 38 30 40 62 41 42 42 61 43
REMARK SMILES IDX 43 44 46 45 60 46 79 47 44 48 45 49 59 51 80 52 47 53 31 54
REMARK SMILES IDX 32 55 40 56 33 57 39 58 41 59 38 60 34 61 35 62 36 63 37 64
REMARK SMILES IDX 63 65 64 66 72 67 65 68 71 69 73 70 70 71 66 72 67 73 68 74
REMARK SMILES IDX 69 75 48 76 49 77 57 78 50 79 56 80 58 81 55 82 51 83 52 84
REMARK SMILES IDX 53 85 54 86
REMARK H PARENT 78 39 46 50
REMARK Flexibility Score: inf
ROOT
ATOM      1  C   UNL A   1      33.518  34.090  28.197  1.00  0.00     0.275 C 
ENDROOT
BRANCH   1   2
ATOM      2  C   UNL A   1      33.998  35.250  29.066  1.00  0.00     0.274 C 
BRANCH   2   3
ATOM      3  O   UNL A   1      33.042  35.571  30.096  1.00  0.00    -0.461 OA
BRANCH   3   4
ATOM      4  C   UNL A   1      33.216  36.541  31.020  1.00  0.00     0.328 C 
ATOM      5  O   UNL A   1      32.843  37.689  30.767  1.00  0.00    -0.250 OA
BRANCH   4   6
ATOM      6  C   UNL A   1      33.909  36.251  32.347  1.00  0.00     0.270 C 
BRANCH   6   7
ATOM      7  N   UNL A   1      34.704  35.045  32.518  1.00  0.00    -0.218 N 
ATOM      8  N   UNL A   1      36.079  35.226  32.534  1.00  0.00    -0.166 NA
ATOM      9  C   UNL A   1      34.081  33.900  32.990  1.00  0.00     0.267 A 
ATOM     10  C   UNL A   1      36.827  34.216  32.867  1.00  0.00     0.126 A 
ATOM     11  C   UNL A   1      34.964  32.750  33.263  1.00  0.00     0.076 A 
ATOM     12  O   UNL A   1      32.871  33.777  33.152  1.00  0.00    -0.268 OA
ATOM     13  C   UNL A   1      36.290  32.876  33.188  1.00  0.00     0.040 A 
BRANCH  10  14
ATOM     14  C   UNL A   1      38.255  34.405  32.972  1.00  0.00     0.154 A 
ATOM     15  C   UNL A   1      39.079  34.550  34.073  1.00  0.00     0.052 A 
ATOM     16  O   UNL A   1      39.014  34.431  31.831  1.00  0.00    -0.463 OA
ATOM     17  C   UNL A   1      40.403  34.653  33.582  1.00  0.00     0.043 A 
ATOM     18  C   UNL A   1      40.306  34.599  32.212  1.00  0.00     0.196 A 
ENDBRANCH  10  14
ENDBRANCH   6   7
ENDBRANCH   4   6
ENDBRANCH   3   4
ENDBRANCH   2   3
ENDBRANCH   1   2
BRANCH   1  19
ATOM     19  O   UNL A   1      34.647  33.256  27.898  1.00  0.00    -0.458 OA
BRANCH  19  20
ATOM     20  C   UNL A   1      34.413  31.927  27.778  1.00  0.00     0.338 C 
ATOM     21  O   UNL A   1      33.468  31.395  27.226  1.00  0.00    -0.246 OA
BRANCH  20  22
ATOM     22  C   UNL A   1      35.616  31.225  28.277  1.00  0.00     0.060 A 
ATOM     23  C   UNL A   1      36.843  31.892  28.379  1.00  0.00     0.016 A 
ATOM     24  C   UNL A   1      35.523  29.862  28.581  1.00  0.00     0.016 A 
ATOM     25  C   UNL A   1      37.975  31.193  28.791  1.00  0.00     0.010 A 
ATOM     26  C   UNL A   1      36.659  29.165  28.999  1.00  0.00     0.010 A 
ATOM     27  C   UNL A   1      37.889  29.828  29.117  1.00  0.00    -0.014 A 
BRANCH  27  28
ATOM     28  C   UNL A   1      39.047  29.173  29.770  1.00  0.00     0.031 A 
ATOM     29  C   UNL A   1      39.812  28.063  29.122  1.00  0.00     0.074 A 
ATOM     30  C   UNL A   1      39.412  29.630  30.982  1.00  0.00     0.049 A 
ATOM     31  N   UNL A   1      40.937  27.517  29.508  1.00  0.00    -0.248 NA
ATOM     32  C   UNL A   1      39.250  27.489  27.893  1.00  0.00     0.031 C 
ATOM     33  C   UNL A   1      38.701  30.675  31.719  1.00  0.00     0.029 A 
ATOM     34  N   UNL A   1      40.459  29.291  31.797  1.00  0.00    -0.354 N 
ATOM     35  C   UNL A   1      41.239  26.553  28.557  1.00  0.00     0.074 A 
ATOM     36  C   UNL A   1      40.147  26.552  27.603  1.00  0.00     0.031 C 
ATOM     37  C   UNL A   1      39.345  30.908  32.871  1.00  0.00     0.029 A 
ATOM     38  C   UNL A   1      40.500  30.018  32.963  1.00  0.00     0.049 A 
ATOM     39  H   UNL A   1      41.118  28.596  31.571  1.00  0.00     0.167 HD
ATOM     40  C   UNL A   1      42.340  25.763  28.481  1.00  0.00     0.034 A 
ATOM     41  C   UNL A   1      41.372  29.986  33.989  1.00  0.00     0.034 A 
ATOM     42  C   UNL A   1      43.397  25.754  29.466  1.00  0.00     0.049 A 
ATOM     43  C   UNL A   1      42.575  29.088  33.894  1.00  0.00     0.074 A 
ATOM     44  C   UNL A   1      44.577  25.029  29.450  1.00  0.00     0.029 A 
ATOM     45  N   UNL A   1      43.400  26.481  30.651  1.00  0.00    -0.354 N 
ATOM     46  N   UNL A   1      42.921  28.277  32.920  1.00  0.00    -0.248 NA
ATOM     47  C   UNL A   1      43.519  29.116  35.017  1.00  0.00     0.031 C 
ATOM     48  C   UNL A   1      45.257  25.266  30.648  1.00  0.00     0.029 A 
ATOM     49  C   UNL A   1      44.540  26.194  31.387  1.00  0.00     0.049 A 
ATOM     50  H   UNL A   1      42.693  27.110  30.927  1.00  0.00     0.167 HD
ATOM     51  C   UNL A   1      44.124  27.700  33.313  1.00  0.00     0.074 A 
ATOM     52  C   UNL A   1      44.467  28.289  34.592  1.00  0.00     0.031 C 
ATOM     53  C   UNL A   1      44.870  26.761  32.675  1.00  0.00     0.034 A 
BRANCH  40  54
ATOM     54  C   UNL A   1      42.496  24.862  27.279  1.00  0.00     0.023 A 
ATOM     55  C   UNL A   1      42.040  23.531  27.317  1.00  0.00     0.031 A 
ATOM     56  C   UNL A   1      43.227  25.282  26.152  1.00  0.00     0.131 A 
ATOM     57  C   UNL A   1      42.345  22.660  26.262  1.00  0.00     0.055 A 
ATOM     58  C   UNL A   1      43.498  24.420  25.088  1.00  0.00     0.041 A 
ATOM     59  F   UNL A   1      43.692  26.539  26.069  1.00  0.00    -0.206 F 
ATOM     60  C   UNL A   1      43.066  23.099  25.146  1.00  0.00     0.022 A 
BRANCH  57  61
ATOM     61  S   UNL A   1      41.884  20.906  26.322  1.00  0.00     0.124 S 
ATOM     62  O   UNL A   1      42.814  20.321  25.359  1.00  0.00    -0.237 OA
ATOM     63  O   UNL A   1      42.142  20.570  27.720  1.00  0.00    -0.237 OA
ATOM     64  O   UNL A   1      40.483  20.898  25.919  1.00  0.00    -0.744 OA
ENDBRANCH  57  61
ENDBRANCH  40  54
BRANCH  41  65
ATOM     65  C   UNL A   1      41.149  30.908  35.138  1.00  0.00     0.023 A 
ATOM     66  C   UNL A   1      39.966  30.832  35.897  1.00  0.00     0.031 A 
ATOM     67  C   UNL A   1      42.034  31.968  35.389  1.00  0.00     0.131 A 
ATOM     68  C   UNL A   1      39.663  31.847  36.812  1.00  0.00     0.055 A 
ATOM     69  C   UNL A   1      41.761  32.937  36.356  1.00  0.00     0.041 A 
ATOM     70  F   UNL A   1      43.163  32.090  34.675  1.00  0.00    -0.206 F 
ATOM     71  C   UNL A   1      40.562  32.890  37.058  1.00  0.00     0.022 A 
BRANCH  68  72
ATOM     72  S   UNL A   1      38.030  31.930  37.599  1.00  0.00     0.124 S 
ATOM     73  O   UNL A   1      37.572  30.549  37.497  1.00  0.00    -0.237 OA
ATOM     74  O   UNL A   1      38.373  32.384  38.944  1.00  0.00    -0.237 OA
ATOM     75  O   UNL A   1      37.304  32.898  36.784  1.00  0.00    -0.744 OA
ENDBRANCH  68  72
ENDBRANCH  41  65
BRANCH  53  76
ATOM     76  C   UNL A   1      46.122  26.264  33.360  1.00  0.00     0.023 A 
ATOM     77  C   UNL A   1      46.061  25.204  34.286  1.00  0.00     0.031 A 
ATOM     78  C   UNL A   1      47.358  26.912  33.178  1.00  0.00     0.131 A 
ATOM     79  C   UNL A   1      47.205  24.840  35.008  1.00  0.00     0.055 A 
ATOM     80  C   UNL A   1      48.505  26.516  33.866  1.00  0.00     0.041 A 
ATOM     81  F   UNL A   1      47.469  27.934  32.315  1.00  0.00    -0.206 F 
ATOM     82  C   UNL A   1      48.429  25.483  34.796  1.00  0.00     0.022 A 
BRANCH  79  83
ATOM     83  S   UNL A   1      47.134  23.572  36.304  1.00  0.00     0.124 S 
ATOM     84  O   UNL A   1      45.726  23.183  36.269  1.00  0.00    -0.237 OA
ATOM     85  O   UNL A   1      48.070  22.567  35.804  1.00  0.00    -0.237 OA
ATOM     86  O   UNL A   1      47.556  24.276  37.509  1.00  0.00    -0.744 OA
ENDBRANCH  79  83
ENDBRANCH  53  76
ENDBRANCH  27  28
ENDBRANCH  20  22
ENDBRANCH  19  20
ENDBRANCH   1  19
TORSDOF 16
ENDMDL
MODEL 3
REMARK VINA RESULT:     -11.0      6.346     12.260
REMARK SMILES O=C(Cn1nc(-c2ccco2)ccc1=O)OCCOC(=O)c1ccc(-c2c3nc(c(-c4cc(S(=O)(=O)[O-])ccc4F)c4ccc([nH]4)c(-c4cc(S(=O)(=O)[O-])ccc4F)c4nc(c(-c5cc(S(=O)(=O)[O-])ccc5F)c5ccc2[nH]5)C=C4)C=C3)cc1
REMARK SMILES IDX 18 1 17 2 16 3 2 4 1 5 3 6 4 7 5 8 14 9 6 10 13 11 15 12
REMARK SMILES IDX 12 13 7 14 8 15 11 16 9 17 10 18 19 19 20 20 21 21 22 22
REMARK SMILES IDX 23 23 84 24 24 25 83 26 25 27 26 28 27 29 77 30 28 31 82 32
REMARK SMILES IDX 76 33 78 34 29 35 81 36 75 37 74 38 30 40 62 41 42 42 61 43
REMARK SMILES IDX 43 44 46 45 60 46 79 47 44 48 45 49 59 51 80 52 47 53 31 54
REMARK SMILES IDX 32 55 40 56 33 57 39 58 41 59 38 60 34 61 35 62 36 63 37 64
REMARK SMILES IDX 63 65 64 66 72 67 65 68 71 69 73 70 70 71 66 72 67 73 68 74
REMARK SMILES IDX 69 75 48 76 49 77 57 78 50 79 56 80 58 81 55 82 51 83 52 84
REMARK SMILES IDX 53 85 54 86
REMARK H PARENT 78 39 46 50
REMARK Flexibility Score: inf
ROOT
ATOM      1  C   UNL A   1      32.566  30.468  26.104  1.00  0.00     0.275 C 
ENDROOT
BRANCH   1   2
ATOM      2  C   UNL A   1      33.030  29.133  25.525  1.00  0.00     0.274 C 
BRANCH   2   3
ATOM      3  O   UNL A   1      33.314  29.238  24.115  1.00  0.00    -0.461 OA
BRANCH   3   4
ATOM      4  C   UNL A   1      33.221  28.210  23.243  1.00  0.00     0.328 C 
ATOM      5  O   UNL A   1      33.939  28.203  22.241  1.00  0.00    -0.250 OA
BRANCH   4   6
ATOM      6  C   UNL A   1      32.211  27.088  23.453  1.00  0.00     0.270 C 
BRANCH   6   7
ATOM      7  N   UNL A   1      30.794  27.385  23.597  1.00  0.00    -0.218 N 
ATOM      8  N   UNL A   1      30.383  28.614  23.104  1.00  0.00    -0.166 NA
ATOM      9  C   UNL A   1      29.921  26.342  23.869  1.00  0.00     0.267 A 
ATOM     10  C   UNL A   1      29.107  28.854  23.039  1.00  0.00     0.126 A 
ATOM     11  C   UNL A   1      28.487  26.688  23.876  1.00  0.00     0.076 A 
ATOM     12  O   UNL A   1      30.262  25.194  24.136  1.00  0.00    -0.268 OA
ATOM     13  C   UNL A   1      28.075  27.899  23.500  1.00  0.00     0.040 A 
BRANCH  10  14
ATOM     14  C   UNL A   1      28.654  30.093  22.452  1.00  0.00     0.154 A 
ATOM     15  C   UNL A   1      28.416  31.336  23.010  1.00  0.00     0.052 A 
ATOM     16  O   UNL A   1      28.419  30.150  21.103  1.00  0.00    -0.463 OA
ATOM     17  C   UNL A   1      28.034  32.193  21.951  1.00  0.00     0.043 A 
ATOM     18  C   UNL A   1      28.027  31.418  20.817  1.00  0.00     0.196 A 
ENDBRANCH  10  14
ENDBRANCH   6   7
ENDBRANCH   4   6
ENDBRANCH   3   4
ENDBRANCH   2   3
ENDBRANCH   1   2
BRANCH   1  19
ATOM     19  O   UNL A   1      33.115  30.601  27.423  1.00  0.00    -0.458 OA
BRANCH  19  20
ATOM     20  C   UNL A   1      33.890  31.687  27.658  1.00  0.00     0.338 C 
ATOM     21  O   UNL A   1      33.549  32.854  27.618  1.00  0.00    -0.246 OA
BRANCH  20  22
ATOM     22  C   UNL A   1      35.191  31.194  28.161  1.00  0.00     0.060 A 
ATOM     23  C   UNL A   1      36.292  32.052  28.261  1.00  0.00     0.016 A 
ATOM     24  C   UNL A   1      35.322  29.835  28.470  1.00  0.00     0.016 A 
ATOM     25  C   UNL A   1      37.523  31.549  28.675  1.00  0.00     0.010 A 
ATOM     26  C   UNL A   1      36.556  29.334  28.891  1.00  0.00     0.010 A 
ATOM     27  C   UNL A   1      37.661  30.190  29.007  1.00  0.00    -0.014 A 
BRANCH  27  28
ATOM     28  C   UNL A   1      38.911  29.736  29.663  1.00  0.00     0.031 A 
ATOM     29  C   UNL A   1      39.353  30.254  30.994  1.00  0.00     0.074 A 
ATOM     30  C   UNL A   1      39.643  28.808  29.020  1.00  0.00     0.049 A 
ATOM     31  N   UNL A   1      40.332  29.826  31.749  1.00  0.00    -0.248 NA
ATOM     32  C   UNL A   1      38.614  31.396  31.550  1.00  0.00     0.031 C 
ATOM     33  C   UNL A   1      39.322  28.276  27.695  1.00  0.00     0.029 A 
ATOM     34  N   UNL A   1      40.785  28.147  29.384  1.00  0.00    -0.354 N 
ATOM     35  C   UNL A   1      40.314  30.621  32.886  1.00  0.00     0.074 A 
ATOM     36  C   UNL A   1      39.258  31.597  32.694  1.00  0.00     0.031 C 
ATOM     37  C   UNL A   1      40.235  27.353  27.365  1.00  0.00     0.029 A 
ATOM     38  C   UNL A   1      41.216  27.242  28.444  1.00  0.00     0.049 A 
ATOM     39  H   UNL A   1      41.253  28.304  30.236  1.00  0.00     0.167 HD
ATOM     40  C   UNL A   1      41.093  30.524  33.993  1.00  0.00     0.034 A 
ATOM     41  C   UNL A   1      42.271  26.405  28.447  1.00  0.00     0.034 A 
ATOM     42  C   UNL A   1      42.165  29.567  34.144  1.00  0.00     0.049 A 
ATOM     43  C   UNL A   1      43.134  26.328  29.676  1.00  0.00     0.074 A 
ATOM     44  C   UNL A   1      42.975  29.356  35.247  1.00  0.00     0.029 A 
ATOM     45  N   UNL A   1      42.596  28.680  33.165  1.00  0.00    -0.354 N 
ATOM     46  N   UNL A   1      43.022  26.992  30.803  1.00  0.00    -0.248 NA
ATOM     47  C   UNL A   1      44.248  25.373  29.650  1.00  0.00     0.031 C 
ATOM     48  C   UNL A   1      43.932  28.393  34.915  1.00  0.00     0.029 A 
ATOM     49  C   UNL A   1      43.681  27.948  33.626  1.00  0.00     0.049 A 
ATOM     50  H   UNL A   1      42.190  28.585  32.273  1.00  0.00     0.167 HD
ATOM     51  C   UNL A   1      44.050  26.535  31.621  1.00  0.00     0.074 A 
ATOM     52  C   UNL A   1      44.744  25.504  30.875  1.00  0.00     0.031 C 
ATOM     53  C   UNL A   1      44.390  26.939  32.873  1.00  0.00     0.034 A 
BRANCH  40  54
ATOM     54  C   UNL A   1      40.805  31.442  35.157  1.00  0.00     0.023 A 
ATOM     55  C   UNL A   1      39.675  31.235  35.972  1.00  0.00     0.031 A 
ATOM     56  C   UNL A   1      41.571  32.603  35.367  1.00  0.00     0.131 A 
ATOM     57  C   UNL A   1      39.329  32.191  36.936  1.00  0.00     0.055 A 
ATOM     58  C   UNL A   1      41.242  33.534  36.354  1.00  0.00     0.041 A 
ATOM     59  F   UNL A   1      42.654  32.853  34.613  1.00  0.00    -0.206 F 
ATOM     60  C   UNL A   1      40.109  33.335  37.135  1.00  0.00     0.022 A 
BRANCH  57  61
ATOM     61  S   UNL A   1      37.816  32.028  37.925  1.00  0.00     0.124 S 
ATOM     62  O   UNL A   1      38.306  32.329  39.269  1.00  0.00    -0.237 OA
ATOM     63  O   UNL A   1      36.953  33.047  37.333  1.00  0.00    -0.237 OA
ATOM     64  O   UNL A   1      37.403  30.647  37.709  1.00  0.00    -0.744 OA
ENDBRANCH  57  61
ENDBRANCH  40  54
BRANCH  41  65
ATOM     65  C   UNL A   1      42.484  25.529  27.261  1.00  0.00     0.023 A 
ATOM     66  C   UNL A   1      41.989  24.212  27.247  1.00  0.00     0.031 A 
ATOM     67  C   UNL A   1      43.311  25.941  26.204  1.00  0.00     0.131 A 
ATOM     68  C   UNL A   1      42.395  23.330  26.239  1.00  0.00     0.055 A 
ATOM     69  C   UNL A   1      43.653  25.078  25.162  1.00  0.00     0.041 A 
ATOM     70  F   UNL A   1      43.821  27.182  26.188  1.00  0.00    -0.206 F 
ATOM     71  C   UNL A   1      43.211  23.759  25.187  1.00  0.00     0.022 A 
BRANCH  68  72
ATOM     72  S   UNL A   1      42.005  21.560  26.342  1.00  0.00     0.124 S 
ATOM     73  O   UNL A   1      42.287  21.267  27.743  1.00  0.00    -0.237 OA
ATOM     74  O   UNL A   1      40.595  21.545  25.964  1.00  0.00    -0.237 OA
ATOM     75  O   UNL A   1      42.913  20.950  25.375  1.00  0.00    -0.744 OA
ENDBRANCH  68  72
ENDBRANCH  41  65
BRANCH  53  76
ATOM     76  C   UNL A   1      45.600  26.302  33.518  1.00  0.00     0.023 A 
ATOM     77  C   UNL A   1      45.477  25.101  34.244  1.00  0.00     0.031 A 
ATOM     78  C   UNL A   1      46.853  26.942  33.505  1.00  0.00     0.131 A 
ATOM     79  C   UNL A   1      46.579  24.591  34.943  1.00  0.00     0.055 A 
ATOM     80  C   UNL A   1      47.960  26.406  34.166  1.00  0.00     0.041 A 
ATOM     81  F   UNL A   1      47.023  28.094  32.837  1.00  0.00    -0.206 F 
ATOM     82  C   UNL A   1      47.822  25.232  34.900  1.00  0.00     0.022 A 
BRANCH  79  83
ATOM     83  S   UNL A   1      46.426  23.123  35.997  1.00  0.00     0.124 S 
ATOM     84  O   UNL A   1      45.082  23.286  36.549  1.00  0.00    -0.237 OA
ATOM     85  O   UNL A   1      46.576  22.034  35.034  1.00  0.00    -0.237 OA
ATOM     86  O   UNL A   1      47.515  23.263  36.958  1.00  0.00    -0.744 OA
ENDBRANCH  79  83
ENDBRANCH  53  76
ENDBRANCH  27  28
ENDBRANCH  20  22
ENDBRANCH  19  20
ENDBRANCH   1  19
TORSDOF 16
ENDMDL
