MODEL 1
REMARK VINA RESULT:     -11.4      0.000      0.000
REMARK SMILES COc1c(Cl)cc(C(=O)OCCOC(=O)c2ccc(-c3c4nc(c(-c5cc(S(=O)(=O)[O-])ccc5F)c5ccc([nH]5)c(-c5cc(S(=O)(=O)[O-])ccc5F)c5nc(c(-c6cc(S(=O)(=O)[O-])ccc6F)c6ccc3[nH]6)C=C5)C=C4)cc2)cc1NC(=O)C(C)(C)Oc1ccc(Br)cc1
REMARK SMILES IDX 11 1 10 2 8 3 9 4 7 5 3 6 4 7 80 8 5 9 6 10 79 11 2 12 1 13
REMARK SMILES IDX 81 14 82 15 83 17 84 18 85 19 86 20 87 21 88 22 89 23 94 24
REMARK SMILES IDX 90 25 93 26 91 27 92 28 12 29 13 30 14 31 15 32 16 33 17 34
REMARK SMILES IDX 78 35 18 36 77 37 19 38 20 39 21 40 71 41 22 42 76 43 70 44
REMARK SMILES IDX 72 45 23 46 75 47 69 48 68 49 24 51 56 52 36 53 55 54 37 55
REMARK SMILES IDX 40 56 54 57 73 58 38 59 39 60 53 62 74 63 41 64 25 65 26 66
REMARK SMILES IDX 34 67 27 68 33 69 35 70 32 71 28 72 29 73 30 74 31 75 57 76
REMARK SMILES IDX 58 77 66 78 59 79 65 80 67 81 64 82 60 83 61 84 62 85 63 86
REMARK SMILES IDX 42 87 43 88 51 89 44 90 50 91 52 92 49 93 45 94 46 95 47 96
REMARK SMILES IDX 48 97
REMARK H PARENT 81 16 72 50 40 61
REMARK Flexibility Score: inf
ROOT
ATOM      1  C   UNL A   1      34.015  31.347  27.722  1.00  0.00     0.275 C 
ENDROOT
BRANCH   1   2
ATOM      2  O   UNL A   1      33.486  30.144  27.132  1.00  0.00    -0.458 OA
BRANCH   2   3
ATOM      3  C   UNL A   1      34.328  29.098  26.922  1.00  0.00     0.338 C 
ATOM      4  O   UNL A   1      35.427  28.941  27.418  1.00  0.00    -0.246 OA
BRANCH   3   5
ATOM      5  C   UNL A   1      33.701  28.127  25.973  1.00  0.00     0.063 A 
ATOM      6  C   UNL A   1      32.202  26.339  24.391  1.00  0.00     0.160 A 
ATOM      7  C   UNL A   1      32.879  27.441  23.811  1.00  0.00     0.086 A 
ATOM      8  C   UNL A   1      32.263  26.155  25.790  1.00  0.00     0.086 A 
ATOM      9  Cl  UNL A   1      32.820  27.840  22.132  1.00  0.00    -0.080 Cl
ATOM     10  C   UNL A   1      33.577  28.359  24.612  1.00  0.00     0.040 A 
ATOM     11  C   UNL A   1      33.110  26.992  26.503  1.00  0.00     0.045 A 
BRANCH   6  12
ATOM     12  O   UNL A   1      31.349  25.488  23.727  1.00  0.00    -0.493 OA
ATOM     13  C   UNL A   1      31.961  24.575  22.814  1.00  0.00     0.278 C 
ENDBRANCH   6  12
BRANCH   8  14
ATOM     14  N   UNL A   1      31.412  25.197  26.427  1.00  0.00    -0.319 N 
ATOM     15  C   UNL A   1      31.503  23.836  26.723  1.00  0.00     0.268 C 
ATOM     16  H   UNL A   1      30.562  25.591  26.727  1.00  0.00     0.170 HD
ATOM     17  O   UNL A   1      30.571  23.341  27.373  1.00  0.00    -0.270 OA
BRANCH  15  18
ATOM     18  C   UNL A   1      32.727  22.937  26.281  1.00  0.00     0.181 C 
ATOM     19  C   UNL A   1      33.586  22.838  27.578  1.00  0.00     0.067 C 
ATOM     20  C   UNL A   1      32.075  21.704  25.601  1.00  0.00     0.067 C 
BRANCH  18  21
ATOM     21  O   UNL A   1      33.623  23.488  25.259  1.00  0.00    -0.478 OA
BRANCH  21  22
ATOM     22  C   UNL A   1      34.946  23.082  25.357  1.00  0.00     0.120 A 
ATOM     23  C   UNL A   1      35.877  24.039  25.765  1.00  0.00     0.047 A 
ATOM     24  C   UNL A   1      35.392  21.781  25.093  1.00  0.00     0.047 A 
ATOM     25  C   UNL A   1      37.212  23.678  25.993  1.00  0.00     0.019 A 
ATOM     26  C   UNL A   1      36.718  21.410  25.338  1.00  0.00     0.019 A 
ATOM     27  C   UNL A   1      37.622  22.361  25.796  1.00  0.00     0.018 A 
ATOM     28  Br  UNL A   1      39.412  21.858  26.138  1.00  0.00    -0.051 Br
ENDBRANCH  21  22
ENDBRANCH  18  21
ENDBRANCH  15  18
ENDBRANCH   8  14
ENDBRANCH   3   5
ENDBRANCH   2   3
ENDBRANCH   1   2
BRANCH   1  29
ATOM     29  C   UNL A   1      33.017  32.498  27.577  1.00  0.00     0.275 C 
BRANCH  29  30
ATOM     30  O   UNL A   1      33.705  33.760  27.664  1.00  0.00    -0.458 OA
BRANCH  30  31
ATOM     31  C   UNL A   1      33.543  34.408  28.842  1.00  0.00     0.338 C 
ATOM     32  O   UNL A   1      32.573  35.050  29.206  1.00  0.00    -0.246 OA
BRANCH  31  33
ATOM     33  C   UNL A   1      34.652  34.071  29.744  1.00  0.00     0.060 A 
ATOM     34  C   UNL A   1      35.930  34.411  29.320  1.00  0.00     0.016 A 
ATOM     35  C   UNL A   1      34.482  33.289  30.879  1.00  0.00     0.016 A 
ATOM     36  C   UNL A   1      37.053  33.900  29.946  1.00  0.00     0.010 A 
ATOM     37  C   UNL A   1      35.618  32.853  31.577  1.00  0.00     0.010 A 
ATOM     38  C   UNL A   1      36.916  33.122  31.094  1.00  0.00    -0.014 A 
BRANCH  38  39
ATOM     39  C   UNL A   1      38.129  32.520  31.713  1.00  0.00     0.031 A 
ATOM     40  C   UNL A   1      38.833  31.391  31.009  1.00  0.00     0.074 A 
ATOM     41  C   UNL A   1      38.646  33.022  32.855  1.00  0.00     0.049 A 
ATOM     42  N   UNL A   1      39.764  30.588  31.452  1.00  0.00    -0.248 NA
ATOM     43  C   UNL A   1      38.416  31.121  29.624  1.00  0.00     0.031 C 
ATOM     44  C   UNL A   1      38.131  34.187  33.583  1.00  0.00     0.029 A 
ATOM     45  N   UNL A   1      39.732  32.630  33.598  1.00  0.00    -0.354 N 
ATOM     46  C   UNL A   1      40.005  29.683  30.423  1.00  0.00     0.074 A 
ATOM     47  C   UNL A   1      39.104  30.025  29.343  1.00  0.00     0.031 C 
ATOM     48  C   UNL A   1      38.922  34.435  34.637  1.00  0.00     0.029 A 
ATOM     49  C   UNL A   1      39.925  33.383  34.735  1.00  0.00     0.049 A 
ATOM     50  H   UNL A   1      40.318  31.881  33.342  1.00  0.00     0.167 HD
ATOM     51  C   UNL A   1      40.902  28.667  30.386  1.00  0.00     0.034 A 
ATOM     52  C   UNL A   1      40.769  33.210  35.772  1.00  0.00     0.034 A 
ATOM     53  C   UNL A   1      41.817  28.373  31.463  1.00  0.00     0.049 A 
ATOM     54  C   UNL A   1      41.686  32.012  35.754  1.00  0.00     0.074 A 
ATOM     55  C   UNL A   1      42.741  27.348  31.558  1.00  0.00     0.029 A 
ATOM     56  N   UNL A   1      41.938  29.123  32.627  1.00  0.00    -0.354 N 
ATOM     57  N   UNL A   1      41.828  31.093  34.825  1.00  0.00    -0.248 NA
ATOM     58  C   UNL A   1      42.546  31.821  36.928  1.00  0.00     0.031 C 
ATOM     59  C   UNL A   1      43.376  27.442  32.800  1.00  0.00     0.029 A 
ATOM     60  C   UNL A   1      42.910  28.574  33.448  1.00  0.00     0.049 A 
ATOM     61  H   UNL A   1      41.410  29.926  32.839  1.00  0.00     0.167 HD
ATOM     62  C   UNL A   1      42.822  30.237  35.292  1.00  0.00     0.074 A 
ATOM     63  C   UNL A   1      43.254  30.761  36.572  1.00  0.00     0.031 C 
ATOM     64  C   UNL A   1      43.333  29.118  34.718  1.00  0.00     0.034 A 
BRANCH  51  65
ATOM     65  C   UNL A   1      40.888  27.770  29.170  1.00  0.00     0.023 A 
ATOM     66  C   UNL A   1      41.816  27.918  28.125  1.00  0.00     0.031 A 
ATOM     67  C   UNL A   1      39.905  26.773  29.038  1.00  0.00     0.131 A 
ATOM     68  C   UNL A   1      41.695  27.136  26.966  1.00  0.00     0.055 A 
ATOM     69  C   UNL A   1      39.843  25.939  27.922  1.00  0.00     0.041 A 
ATOM     70  F   UNL A   1      38.974  26.602  29.991  1.00  0.00    -0.206 F 
ATOM     71  C   UNL A   1      40.733  26.128  26.868  1.00  0.00     0.022 A 
BRANCH  68  72
ATOM     72  S   UNL A   1      42.717  27.556  25.527  1.00  0.00     0.124 S 
ATOM     73  O   UNL A   1      42.036  28.745  25.020  1.00  0.00    -0.237 OA
ATOM     74  O   UNL A   1      44.028  27.778  26.124  1.00  0.00    -0.237 OA
ATOM     75  O   UNL A   1      42.611  26.373  24.674  1.00  0.00    -0.744 OA
ENDBRANCH  68  72
ENDBRANCH  51  65
BRANCH  52  76
ATOM     76  C   UNL A   1      40.741  34.129  36.949  1.00  0.00     0.023 A 
ATOM     77  C   UNL A   1      40.037  33.789  38.115  1.00  0.00     0.031 A 
ATOM     78  C   UNL A   1      41.349  35.398  36.899  1.00  0.00     0.131 A 
ATOM     79  C   UNL A   1      39.905  34.726  39.152  1.00  0.00     0.055 A 
ATOM     80  C   UNL A   1      41.278  36.297  37.964  1.00  0.00     0.041 A 
ATOM     81  F   UNL A   1      42.025  35.787  35.806  1.00  0.00    -0.206 F 
ATOM     82  C   UNL A   1      40.536  35.970  39.093  1.00  0.00     0.022 A 
BRANCH  79  83
ATOM     83  S   UNL A   1      38.779  34.346  40.522  1.00  0.00     0.124 S 
ATOM     84  O   UNL A   1      37.708  33.632  39.836  1.00  0.00    -0.237 OA
ATOM     85  O   UNL A   1      39.627  33.545  41.397  1.00  0.00    -0.237 OA
ATOM     86  O   UNL A   1      38.418  35.665  41.041  1.00  0.00    -0.744 OA
ENDBRANCH  79  83
ENDBRANCH  52  76
BRANCH  64  87
ATOM     87  C   UNL A   1      44.470  28.440  35.440  1.00  0.00     0.023 A 
ATOM     88  C   UNL A   1      44.249  27.465  36.427  1.00  0.00     0.031 A 
ATOM     89  C   UNL A   1      45.799  28.800  35.151  1.00  0.00     0.131 A 
ATOM     90  C   UNL A   1      45.335  26.933  37.138  1.00  0.00     0.055 A 
ATOM     91  C   UNL A   1      46.879  28.217  35.813  1.00  0.00     0.041 A 
ATOM     92  F   UNL A   1      46.068  29.728  34.218  1.00  0.00    -0.206 F 
ATOM     93  C   UNL A   1      46.650  27.289  36.825  1.00  0.00     0.022 A 
BRANCH  90  94
ATOM     94  S   UNL A   1      45.002  25.849  38.554  1.00  0.00     0.124 S 
ATOM     95  O   UNL A   1      43.894  26.538  39.209  1.00  0.00    -0.237 OA
ATOM     96  O   UNL A   1      44.672  24.584  37.907  1.00  0.00    -0.237 OA
ATOM     97  O   UNL A   1      46.261  25.856  39.295  1.00  0.00    -0.744 OA
ENDBRANCH  90  94
ENDBRANCH  64  87
ENDBRANCH  38  39
ENDBRANCH  31  33
ENDBRANCH  30  31
ENDBRANCH  29  30
ENDBRANCH   1  29
TORSDOF 19
ENDMDL
MODEL 2
REMARK VINA RESULT:     -11.2      1.034      7.593
REMARK SMILES COc1c(Cl)cc(C(=O)OCCOC(=O)c2ccc(-c3c4nc(c(-c5cc(S(=O)(=O)[O-])ccc5F)c5ccc([nH]5)c(-c5cc(S(=O)(=O)[O-])ccc5F)c5nc(c(-c6cc(S(=O)(=O)[O-])ccc6F)c6ccc3[nH]6)C=C5)C=C4)cc2)cc1NC(=O)C(C)(C)Oc1ccc(Br)cc1
REMARK SMILES IDX 11 1 10 2 8 3 9 4 7 5 3 6 4 7 80 8 5 9 6 10 79 11 2 12 1 13
REMARK SMILES IDX 81 14 82 15 83 17 84 18 85 19 86 20 87 21 88 22 89 23 94 24
REMARK SMILES IDX 90 25 93 26 91 27 92 28 12 29 13 30 14 31 15 32 16 33 17 34
REMARK SMILES IDX 78 35 18 36 77 37 19 38 20 39 21 40 71 41 22 42 76 43 70 44
REMARK SMILES IDX 72 45 23 46 75 47 69 48 68 49 24 51 56 52 36 53 55 54 37 55
REMARK SMILES IDX 40 56 54 57 73 58 38 59 39 60 53 62 74 63 41 64 25 65 26 66
REMARK SMILES IDX 34 67 27 68 33 69 35 70 32 71 28 72 29 73 30 74 31 75 57 76
REMARK SMILES IDX 58 77 66 78 59 79 65 80 67 81 64 82 60 83 61 84 62 85 63 86
REMARK SMILES IDX 42 87 43 88 51 89 44 90 50 91 52 92 49 93 45 94 46 95 47 96
REMARK SMILES IDX 48 97
REMARK H PARENT 81 16 72 50 40 61
REMARK Flexibility Score: inf
ROOT
ATOM      1  C   UNL A   1      33.370  31.518  27.600  1.00  0.00     0.275 C 
ENDROOT
BRANCH   1   2
ATOM      2  O   UNL A   1      32.872  30.525  26.683  1.00  0.00    -0.458 OA
BRANCH   2   3
ATOM      3  C   UNL A   1      33.306  29.243  26.815  1.00  0.00     0.338 C 
ATOM      4  O   UNL A   1      34.195  28.850  27.544  1.00  0.00    -0.246 OA
BRANCH   3   5
ATOM      5  C   UNL A   1      32.512  28.347  25.918  1.00  0.00     0.063 A 
ATOM      6  C   UNL A   1      30.752  26.661  24.502  1.00  0.00     0.160 A 
ATOM      7  C   UNL A   1      31.252  27.853  23.921  1.00  0.00     0.086 A 
ATOM      8  C   UNL A   1      31.126  26.332  25.824  1.00  0.00     0.086 A 
ATOM      9  Cl  UNL A   1      30.813  28.426  22.352  1.00  0.00    -0.080 Cl
ATOM     10  C   UNL A   1      32.084  28.716  24.653  1.00  0.00     0.040 A 
ATOM     11  C   UNL A   1      32.085  27.132  26.428  1.00  0.00     0.045 A 
BRANCH   6  12
ATOM     12  O   UNL A   1      29.798  25.841  23.943  1.00  0.00    -0.493 OA
ATOM     13  C   UNL A   1      28.469  26.360  23.910  1.00  0.00     0.278 C 
ENDBRANCH   6  12
BRANCH   8  14
ATOM     14  N   UNL A   1      30.465  25.267  26.513  1.00  0.00    -0.319 N 
ATOM     15  C   UNL A   1      30.734  23.916  26.739  1.00  0.00     0.268 C 
ATOM     16  H   UNL A   1      29.620  25.556  26.928  1.00  0.00     0.170 HD
ATOM     17  O   UNL A   1      29.946  23.303  27.471  1.00  0.00    -0.270 OA
BRANCH  15  18
ATOM     18  C   UNL A   1      31.985  23.171  26.119  1.00  0.00     0.181 C 
ATOM     19  C   UNL A   1      32.718  22.600  27.370  1.00  0.00     0.067 C 
ATOM     20  C   UNL A   1      31.386  22.274  25.004  1.00  0.00     0.067 C 
BRANCH  18  21
ATOM     21  O   UNL A   1      32.978  24.000  25.427  1.00  0.00    -0.478 OA
BRANCH  21  22
ATOM     22  C   UNL A   1      34.262  23.474  25.394  1.00  0.00     0.120 A 
ATOM     23  C   UNL A   1      35.276  24.229  25.987  1.00  0.00     0.047 A 
ATOM     24  C   UNL A   1      34.591  22.237  24.825  1.00  0.00     0.047 A 
ATOM     25  C   UNL A   1      36.575  23.714  26.090  1.00  0.00     0.019 A 
ATOM     26  C   UNL A   1      35.881  21.711  24.943  1.00  0.00     0.019 A 
ATOM     27  C   UNL A   1      36.867  22.450  25.584  1.00  0.00     0.018 A 
ATOM     28  Br  UNL A   1      38.609  21.734  25.753  1.00  0.00    -0.051 Br
ENDBRANCH  21  22
ENDBRANCH  18  21
ENDBRANCH  15  18
ENDBRANCH   8  14
ENDBRANCH   3   5
ENDBRANCH   2   3
ENDBRANCH   1   2
BRANCH   1  29
ATOM     29  C   UNL A   1      32.603  32.831  27.436  1.00  0.00     0.275 C 
BRANCH  29  30
ATOM     30  O   UNL A   1      33.494  33.948  27.607  1.00  0.00    -0.458 OA
BRANCH  30  31
ATOM     31  C   UNL A   1      33.406  34.557  28.813  1.00  0.00     0.338 C 
ATOM     32  O   UNL A   1      32.527  35.308  29.200  1.00  0.00    -0.246 OA
BRANCH  31  33
ATOM     33  C   UNL A   1      34.446  34.032  29.707  1.00  0.00     0.060 A 
ATOM     34  C   UNL A   1      35.764  34.200  29.302  1.00  0.00     0.016 A 
ATOM     35  C   UNL A   1      34.155  33.241  30.810  1.00  0.00     0.016 A 
ATOM     36  C   UNL A   1      36.796  33.510  29.912  1.00  0.00     0.010 A 
ATOM     37  C   UNL A   1      35.210  32.620  31.496  1.00  0.00     0.010 A 
ATOM     38  C   UNL A   1      36.538  32.717  31.029  1.00  0.00    -0.014 A 
BRANCH  38  39
ATOM     39  C   UNL A   1      37.646  31.925  31.630  1.00  0.00     0.031 A 
ATOM     40  C   UNL A   1      38.096  32.235  33.032  1.00  0.00     0.074 A 
ATOM     41  C   UNL A   1      38.199  30.889  30.963  1.00  0.00     0.049 A 
ATOM     42  N   UNL A   1      39.161  31.828  33.672  1.00  0.00    -0.248 NA
ATOM     43  C   UNL A   1      37.238  33.141  33.811  1.00  0.00     0.031 C 
ATOM     44  C   UNL A   1      37.782  30.408  29.642  1.00  0.00     0.029 A 
ATOM     45  N   UNL A   1      39.220  30.040  31.310  1.00  0.00    -0.354 N 
ATOM     46  C   UNL A   1      39.131  32.470  34.906  1.00  0.00     0.074 A 
ATOM     47  C   UNL A   1      37.954  33.312  34.913  1.00  0.00     0.031 C 
ATOM     48  C   UNL A   1      38.510  29.330  29.314  1.00  0.00     0.029 A 
ATOM     49  C   UNL A   1      39.525  29.115  30.336  1.00  0.00     0.049 A 
ATOM     50  H   UNL A   1      39.690  30.087  32.174  1.00  0.00     0.167 HD
ATOM     51  C   UNL A   1      40.005  32.358  35.936  1.00  0.00     0.034 A 
ATOM     52  C   UNL A   1      40.544  28.236  30.246  1.00  0.00     0.034 A 
ATOM     53  C   UNL A   1      41.151  31.481  35.917  1.00  0.00     0.049 A 
ATOM     54  C   UNL A   1      41.561  28.205  31.359  1.00  0.00     0.074 A 
ATOM     55  C   UNL A   1      42.128  31.313  36.882  1.00  0.00     0.029 A 
ATOM     56  N   UNL A   1      41.461  30.604  34.884  1.00  0.00    -0.354 N 
ATOM     57  N   UNL A   1      41.588  28.900  32.475  1.00  0.00    -0.248 NA
ATOM     58  C   UNL A   1      42.690  27.282  31.196  1.00  0.00     0.031 C 
ATOM     59  C   UNL A   1      43.058  30.381  36.408  1.00  0.00     0.029 A 
ATOM     60  C   UNL A   1      42.619  29.904  35.184  1.00  0.00     0.049 A 
ATOM     61  H   UNL A   1      40.935  30.496  34.058  1.00  0.00     0.167 HD
ATOM     62  C   UNL A   1      42.719  28.467  33.161  1.00  0.00     0.074 A 
ATOM     63  C   UNL A   1      43.333  27.441  32.343  1.00  0.00     0.031 C 
ATOM     64  C   UNL A   1      43.210  28.878  34.358  1.00  0.00     0.034 A 
BRANCH  51  65
ATOM     65  C   UNL A   1      39.785  33.251  37.135  1.00  0.00     0.023 A 
ATOM     66  C   UNL A   1      39.184  32.779  38.315  1.00  0.00     0.031 A 
ATOM     67  C   UNL A   1      40.150  34.608  37.083  1.00  0.00     0.131 A 
ATOM     68  C   UNL A   1      38.898  33.671  39.360  1.00  0.00     0.055 A 
ATOM     69  C   UNL A   1      39.943  35.471  38.159  1.00  0.00     0.041 A 
ATOM     70  F   UNL A   1      40.703  35.125  35.973  1.00  0.00    -0.206 F 
ATOM     71  C   UNL A   1      39.299  35.008  39.303  1.00  0.00     0.022 A 
BRANCH  68  72
ATOM     72  S   UNL A   1      37.861  33.094  40.733  1.00  0.00     0.124 S 
ATOM     73  O   UNL A   1      38.102  34.127  41.737  1.00  0.00    -0.237 OA
ATOM     74  O   UNL A   1      36.530  33.079  40.138  1.00  0.00    -0.237 OA
ATOM     75  O   UNL A   1      38.417  31.780  41.053  1.00  0.00    -0.744 OA
ENDBRANCH  68  72
ENDBRANCH  51  65
BRANCH  52  76
ATOM     76  C   UNL A   1      40.713  27.376  29.036  1.00  0.00     0.023 A 
ATOM     77  C   UNL A   1      41.675  27.681  28.061  1.00  0.00     0.031 A 
ATOM     78  C   UNL A   1      39.861  26.281  28.795  1.00  0.00     0.131 A 
ATOM     79  C   UNL A   1      41.720  26.944  26.866  1.00  0.00     0.055 A 
ATOM     80  C   UNL A   1      39.961  25.504  27.639  1.00  0.00     0.041 A 
ATOM     81  F   UNL A   1      38.911  25.947  29.684  1.00  0.00    -0.206 F 
ATOM     82  C   UNL A   1      40.883  25.847  26.657  1.00  0.00     0.022 A 
BRANCH  79  83
ATOM     83  S   UNL A   1      42.798  27.528  25.530  1.00  0.00     0.124 S 
ATOM     84  O   UNL A   1      42.792  26.386  24.624  1.00  0.00    -0.237 OA
ATOM     85  O   UNL A   1      42.091  28.718  25.069  1.00  0.00    -0.237 OA
ATOM     86  O   UNL A   1      44.070  27.783  26.206  1.00  0.00    -0.744 OA
ENDBRANCH  79  83
ENDBRANCH  52  76
BRANCH  64  87
ATOM     87  C   UNL A   1      44.425  28.155  34.881  1.00  0.00     0.023 A 
ATOM     88  C   UNL A   1      44.321  26.968  35.627  1.00  0.00     0.031 A 
ATOM     89  C   UNL A   1      45.709  28.681  34.651  1.00  0.00     0.131 A 
ATOM     90  C   UNL A   1      45.474  26.384  36.174  1.00  0.00     0.055 A 
ATOM     91  C   UNL A   1      46.857  28.059  35.139  1.00  0.00     0.041 A 
ATOM     92  F   UNL A   1      45.866  29.815  33.948  1.00  0.00    -0.206 F 
ATOM     93  C   UNL A   1      46.743  26.912  35.920  1.00  0.00     0.022 A 
BRANCH  90  94
ATOM     94  S   UNL A   1      45.285  24.987  37.314  1.00  0.00     0.124 S 
ATOM     95  O   UNL A   1      45.273  25.654  38.612  1.00  0.00    -0.237 OA
ATOM     96  O   UNL A   1      44.017  24.405  36.886  1.00  0.00    -0.237 OA
ATOM     97  O   UNL A   1      46.464  24.165  37.050  1.00  0.00    -0.744 OA
ENDBRANCH  90  94
ENDBRANCH  64  87
ENDBRANCH  38  39
ENDBRANCH  31  33
ENDBRANCH  30  31
ENDBRANCH  29  30
ENDBRANCH   1  29
TORSDOF 19
ENDMDL
MODEL 3
REMARK VINA RESULT:     -11.0      5.678     11.104
REMARK SMILES COc1c(Cl)cc(C(=O)OCCOC(=O)c2ccc(-c3c4nc(c(-c5cc(S(=O)(=O)[O-])ccc5F)c5ccc([nH]5)c(-c5cc(S(=O)(=O)[O-])ccc5F)c5nc(c(-c6cc(S(=O)(=O)[O-])ccc6F)c6ccc3[nH]6)C=C5)C=C4)cc2)cc1NC(=O)C(C)(C)Oc1ccc(Br)cc1
REMARK SMILES IDX 11 1 10 2 8 3 9 4 7 5 3 6 4 7 80 8 5 9 6 10 79 11 2 12 1 13
REMARK SMILES IDX 81 14 82 15 83 17 84 18 85 19 86 20 87 21 88 22 89 23 94 24
REMARK SMILES IDX 90 25 93 26 91 27 92 28 12 29 13 30 14 31 15 32 16 33 17 34
REMARK SMILES IDX 78 35 18 36 77 37 19 38 20 39 21 40 71 41 22 42 76 43 70 44
REMARK SMILES IDX 72 45 23 46 75 47 69 48 68 49 24 51 56 52 36 53 55 54 37 55
REMARK SMILES IDX 40 56 54 57 73 58 38 59 39 60 53 62 74 63 41 64 25 65 26 66
REMARK SMILES IDX 34 67 27 68 33 69 35 70 32 71 28 72 29 73 30 74 31 75 57 76
REMARK SMILES IDX 58 77 66 78 59 79 65 80 67 81 64 82 60 83 61 84 62 85 63 86
REMARK SMILES IDX 42 87 43 88 51 89 44 90 50 91 52 92 49 93 45 94 46 95 47 96
REMARK SMILES IDX 48 97
REMARK H PARENT 81 16 72 50 40 61
REMARK Flexibility Score: inf
ROOT
ATOM      1  C   UNL A   1      38.159  21.146  25.485  1.00  0.00     0.275 C 
ENDROOT
BRANCH   1   2
ATOM      2  O   UNL A   1      37.689  22.283  24.736  1.00  0.00    -0.458 OA
BRANCH   2   3
ATOM      3  C   UNL A   1      37.041  23.277  25.401  1.00  0.00     0.338 C 
ATOM      4  O   UNL A   1      37.541  24.092  26.152  1.00  0.00    -0.246 OA
BRANCH   3   5
ATOM      5  C   UNL A   1      35.583  23.239  25.069  1.00  0.00     0.063 A 
ATOM      6  C   UNL A   1      32.944  23.069  24.093  1.00  0.00     0.160 A 
ATOM      7  C   UNL A   1      33.349  22.347  25.244  1.00  0.00     0.086 A 
ATOM      8  C   UNL A   1      33.893  23.864  23.413  1.00  0.00     0.086 A 
ATOM      9  Cl  UNL A   1      32.325  21.269  26.123  1.00  0.00    -0.080 Cl
ATOM     10  C   UNL A   1      34.679  22.393  25.692  1.00  0.00     0.040 A 
ATOM     11  C   UNL A   1      35.140  24.006  24.004  1.00  0.00     0.045 A 
BRANCH   6  12
ATOM     12  O   UNL A   1      31.722  22.956  23.471  1.00  0.00    -0.493 OA
ATOM     13  C   UNL A   1      30.651  23.698  24.055  1.00  0.00     0.278 C 
ENDBRANCH   6  12
BRANCH   8  14
ATOM     14  N   UNL A   1      33.580  24.417  22.131  1.00  0.00    -0.319 N 
ATOM     15  C   UNL A   1      33.078  25.637  21.675  1.00  0.00     0.268 C 
ATOM     16  H   UNL A   1      33.762  23.787  21.397  1.00  0.00     0.170 HD
ATOM     17  O   UNL A   1      33.008  25.789  20.448  1.00  0.00    -0.270 OA
BRANCH  15  18
ATOM     18  C   UNL A   1      32.624  26.799  22.647  1.00  0.00     0.181 C 
ATOM     19  C   UNL A   1      33.781  27.837  22.530  1.00  0.00     0.067 C 
ATOM     20  C   UNL A   1      31.163  27.108  22.223  1.00  0.00     0.067 C 
BRANCH  18  21
ATOM     21  O   UNL A   1      32.530  26.475  24.074  1.00  0.00    -0.478 OA
BRANCH  21  22
ATOM     22  C   UNL A   1      32.780  27.535  24.935  1.00  0.00     0.120 A 
ATOM     23  C   UNL A   1      33.947  27.473  25.699  1.00  0.00     0.047 A 
ATOM     24  C   UNL A   1      31.952  28.657  25.064  1.00  0.00     0.047 A 
ATOM     25  C   UNL A   1      34.324  28.554  26.508  1.00  0.00     0.019 A 
ATOM     26  C   UNL A   1      32.333  29.747  25.853  1.00  0.00     0.019 A 
ATOM     27  C   UNL A   1      33.524  29.693  26.567  1.00  0.00     0.018 A 
ATOM     28  Br  UNL A   1      34.045  31.170  27.626  1.00  0.00    -0.051 Br
ENDBRANCH  21  22
ENDBRANCH  18  21
ENDBRANCH  15  18
ENDBRANCH   8  14
ENDBRANCH   3   5
ENDBRANCH   2   3
ENDBRANCH   1   2
BRANCH   1  29
ATOM     29  C   UNL A   1      39.527  21.441  26.103  1.00  0.00     0.275 C 
BRANCH  29  30
ATOM     30  O   UNL A   1      40.122  20.223  26.588  1.00  0.00    -0.458 OA
BRANCH  30  31
ATOM     31  C   UNL A   1      41.377  19.992  26.134  1.00  0.00     0.338 C 
ATOM     32  O   UNL A   1      41.762  19.041  25.476  1.00  0.00    -0.246 OA
BRANCH  31  33
ATOM     33  C   UNL A   1      42.214  21.172  26.383  1.00  0.00     0.060 A 
ATOM     34  C   UNL A   1      42.428  21.521  27.710  1.00  0.00     0.016 A 
ATOM     35  C   UNL A   1      42.630  22.022  25.366  1.00  0.00     0.016 A 
ATOM     36  C   UNL A   1      42.956  22.753  28.051  1.00  0.00     0.010 A 
ATOM     37  C   UNL A   1      43.260  23.228  25.707  1.00  0.00     0.010 A 
ATOM     38  C   UNL A   1      43.394  23.624  27.055  1.00  0.00    -0.014 A 
BRANCH  38  39
ATOM     39  C   UNL A   1      43.893  24.974  27.436  1.00  0.00     0.031 A 
ATOM     40  C   UNL A   1      42.923  25.993  27.971  1.00  0.00     0.074 A 
ATOM     41  C   UNL A   1      45.209  25.268  27.377  1.00  0.00     0.049 A 
ATOM     42  N   UNL A   1      43.088  27.275  28.164  1.00  0.00    -0.248 NA
ATOM     43  C   UNL A   1      41.581  25.501  28.319  1.00  0.00     0.031 C 
ATOM     44  C   UNL A   1      46.273  24.338  26.985  1.00  0.00     0.029 A 
ATOM     45  N   UNL A   1      45.883  26.429  27.665  1.00  0.00    -0.354 N 
ATOM     46  C   UNL A   1      41.858  27.754  28.602  1.00  0.00     0.074 A 
ATOM     47  C   UNL A   1      40.951  26.626  28.622  1.00  0.00     0.031 C 
ATOM     48  C   UNL A   1      47.460  24.951  27.097  1.00  0.00     0.029 A 
ATOM     49  C   UNL A   1      47.241  26.348  27.448  1.00  0.00     0.049 A 
ATOM     50  H   UNL A   1      45.439  27.242  27.996  1.00  0.00     0.167 HD
ATOM     51  C   UNL A   1      41.523  29.018  28.960  1.00  0.00     0.034 A 
ATOM     52  C   UNL A   1      48.193  27.302  27.466  1.00  0.00     0.034 A 
ATOM     53  C   UNL A   1      42.459  30.117  28.968  1.00  0.00     0.049 A 
ATOM     54  C   UNL A   1      47.776  28.721  27.766  1.00  0.00     0.074 A 
ATOM     55  C   UNL A   1      42.228  31.447  29.270  1.00  0.00     0.029 A 
ATOM     56  N   UNL A   1      43.814  30.007  28.680  1.00  0.00    -0.354 N 
ATOM     57  N   UNL A   1      46.586  29.187  28.068  1.00  0.00    -0.248 NA
ATOM     58  C   UNL A   1      48.828  29.742  27.714  1.00  0.00     0.031 C 
ATOM     59  C   UNL A   1      43.428  32.149  29.107  1.00  0.00     0.029 A 
ATOM     60  C   UNL A   1      44.427  31.245  28.784  1.00  0.00     0.049 A 
ATOM     61  H   UNL A   1      44.273  29.170  28.436  1.00  0.00     0.167 HD
ATOM     62  C   UNL A   1      46.758  30.552  28.277  1.00  0.00     0.074 A 
ATOM     63  C   UNL A   1      48.167  30.827  28.086  1.00  0.00     0.031 C 
ATOM     64  C   UNL A   1      45.836  31.496  28.599  1.00  0.00     0.034 A 
BRANCH  51  65
ATOM     65  C   UNL A   1      40.077  29.284  29.307  1.00  0.00     0.023 A 
ATOM     66  C   UNL A   1      39.633  29.364  30.638  1.00  0.00     0.031 A 
ATOM     67  C   UNL A   1      39.119  29.423  28.287  1.00  0.00     0.131 A 
ATOM     68  C   UNL A   1      38.263  29.501  30.912  1.00  0.00     0.055 A 
ATOM     69  C   UNL A   1      37.770  29.647  28.565  1.00  0.00     0.041 A 
ATOM     70  F   UNL A   1      39.477  29.329  26.995  1.00  0.00    -0.206 F 
ATOM     71  C   UNL A   1      37.332  29.671  29.886  1.00  0.00     0.022 A 
BRANCH  68  72
ATOM     72  S   UNL A   1      37.699  29.301  32.625  1.00  0.00     0.124 S 
ATOM     73  O   UNL A   1      36.354  29.867  32.559  1.00  0.00    -0.237 OA
ATOM     74  O   UNL A   1      37.776  27.858  32.818  1.00  0.00    -0.237 OA
ATOM     75  O   UNL A   1      38.661  30.087  33.397  1.00  0.00    -0.744 OA
ENDBRANCH  68  72
ENDBRANCH  51  65
BRANCH  52  76
ATOM     76  C   UNL A   1      49.610  26.983  27.115  1.00  0.00     0.023 A 
ATOM     77  C   UNL A   1      50.120  27.268  25.839  1.00  0.00     0.031 A 
ATOM     78  C   UNL A   1      50.453  26.313  28.022  1.00  0.00     0.131 A 
ATOM     79  C   UNL A   1      51.406  26.830  25.485  1.00  0.00     0.055 A 
ATOM     80  C   UNL A   1      51.759  25.949  27.690  1.00  0.00     0.041 A 
ATOM     81  F   UNL A   1      50.019  26.001  29.254  1.00  0.00    -0.206 F 
ATOM     82  C   UNL A   1      52.236  26.190  26.407  1.00  0.00     0.022 A 
BRANCH  79  83
ATOM     83  S   UNL A   1      51.928  26.989  23.755  1.00  0.00     0.124 S 
ATOM     84  O   UNL A   1      50.678  26.742  23.045  1.00  0.00    -0.237 OA
ATOM     85  O   UNL A   1      52.429  28.359  23.716  1.00  0.00    -0.237 OA
ATOM     86  O   UNL A   1      52.946  25.950  23.610  1.00  0.00    -0.744 OA
ENDBRANCH  79  83
ENDBRANCH  52  76
BRANCH  64  87
ATOM     87  C   UNL A   1      46.349  32.894  28.840  1.00  0.00     0.023 A 
ATOM     88  C   UNL A   1      46.426  33.847  27.808  1.00  0.00     0.031 A 
ATOM     89  C   UNL A   1      46.793  33.268  30.120  1.00  0.00     0.131 A 
ATOM     90  C   UNL A   1      46.999  35.102  28.060  1.00  0.00     0.055 A 
ATOM     91  C   UNL A   1      47.298  34.541  30.381  1.00  0.00     0.041 A 
ATOM     92  F   UNL A   1      46.745  32.396  31.141  1.00  0.00    -0.206 F 
ATOM     93  C   UNL A   1      47.419  35.462  29.344  1.00  0.00     0.022 A 
BRANCH  90  94
ATOM     94  S   UNL A   1      47.290  36.222  26.664  1.00  0.00     0.124 S 
ATOM     95  O   UNL A   1      47.672  35.293  25.605  1.00  0.00    -0.237 OA
ATOM     96  O   UNL A   1      45.990  36.867  26.506  1.00  0.00    -0.237 OA
ATOM     97  O   UNL A   1      48.360  37.095  27.140  1.00  0.00    -0.744 OA
ENDBRANCH  90  94
ENDBRANCH  64  87
ENDBRANCH  38  39
ENDBRANCH  31  33
ENDBRANCH  30  31
ENDBRANCH  29  30
ENDBRANCH   1  29
TORSDOF 19
ENDMDL
