MODEL 1
REMARK VINA RESULT:     -12.0      0.000      0.000
REMARK SMILES COC(=O)c1nc(C)cc(N[C@@H]2C=C[C@H](C(=O)OCCOC(=O)c3ccc(-c4c5nc(c(-c6cc(S(=O)(=O)[O-])ccc6F)c6ccc([nH]6)c(-c6cc(S(=O)(=O)[O-])ccc6F)c6nc(c(-c7cc(S(=O)(=O)[O-])ccc7F)c7ccc4[nH]7)C=C6)C=C5)cc3)C2)n1
REMARK SMILES IDX 19 1 18 2 16 3 17 4 15 5 12 6 13 7 87 8 14 9 11 10 10 12
REMARK SMILES IDX 5 13 6 14 88 15 7 16 8 17 9 18 3 19 4 20 2 21 1 22 20 23
REMARK SMILES IDX 21 24 22 25 23 26 24 27 25 28 86 29 26 30 85 31 27 32 28 33
REMARK SMILES IDX 29 34 79 35 30 36 84 37 78 38 80 39 31 40 83 41 77 42 76 43
REMARK SMILES IDX 32 45 64 46 44 47 63 48 45 49 48 50 62 51 81 52 46 53 47 54
REMARK SMILES IDX 61 56 82 57 49 58 33 59 34 60 42 61 35 62 41 63 43 64 40 65
REMARK SMILES IDX 36 66 37 67 38 68 39 69 65 70 66 71 74 72 67 73 73 74 75 75
REMARK SMILES IDX 72 76 68 77 69 78 70 79 71 80 50 81 51 82 59 83 52 84 58 85
REMARK SMILES IDX 60 86 57 87 53 88 54 89 55 90 56 91
REMARK H PARENT 11 11 80 44 48 55
REMARK Flexibility Score: inf
ROOT
ATOM      1  C   UNL A   1      31.348  29.320  24.887  1.00  0.00     0.274 C 
ENDROOT
BRANCH   1   2
ATOM      2  O   UNL A   1      30.666  28.152  24.229  1.00  0.00    -0.462 OA
BRANCH   2   3
ATOM      3  C   UNL A   1      31.049  27.716  22.974  1.00  0.00     0.312 C 
ATOM      4  O   UNL A   1      30.381  28.018  21.981  1.00  0.00    -0.252 OA
BRANCH   3   5
ATOM      5  C   UNL A   1      32.439  26.868  22.769  1.00  0.00     0.124 C 
ATOM      6  C   UNL A   1      33.004  24.496  22.154  1.00  0.00     0.104 C 
ATOM      7  C   UNL A   1      33.651  24.893  23.434  1.00  0.00    -0.006 C 
ATOM      8  C   UNL A   1      32.409  25.829  21.626  1.00  0.00     0.048 C 
ATOM      9  C   UNL A   1      33.361  26.161  23.753  1.00  0.00    -0.014 C 
BRANCH   6  10
ATOM     10  N   UNL A   1      32.003  23.437  22.286  1.00  0.00    -0.364 N 
ATOM     11  H   UNL A   1      31.485  23.151  21.500  1.00  0.00     0.162 HD
BRANCH  10  12
ATOM     12  C   UNL A   1      31.783  22.842  23.507  1.00  0.00     0.131 A 
ATOM     13  C   UNL A   1      32.338  21.105  24.889  1.00  0.00     0.241 A 
ATOM     14  N   UNL A   1      31.576  21.543  25.913  1.00  0.00    -0.227 NA
ATOM     15  N   UNL A   1      32.468  21.741  23.741  1.00  0.00    -0.205 NA
ATOM     16  C   UNL A   1      30.884  22.684  25.672  1.00  0.00     0.044 A 
ATOM     17  C   UNL A   1      30.084  23.266  26.805  1.00  0.00     0.067 C 
ATOM     18  C   UNL A   1      30.939  23.355  24.457  1.00  0.00     0.070 A 
BRANCH  13  19
ATOM     19  C   UNL A   1      33.157  19.855  24.965  1.00  0.00     0.376 C 
ATOM     20  O   UNL A   1      34.363  19.911  24.707  1.00  0.00    -0.242 OA
BRANCH  19  21
ATOM     21  O   UNL A   1      32.403  18.753  25.314  1.00  0.00    -0.463 OA
ATOM     22  C   UNL A   1      32.328  17.269  25.031  1.00  0.00     0.282 C 
ENDBRANCH  19  21
ENDBRANCH  13  19
ENDBRANCH  10  12
ENDBRANCH   6  10
ENDBRANCH   3   5
ENDBRANCH   2   3
ENDBRANCH   1   2
BRANCH   1  23
ATOM     23  C   UNL A   1      32.603  29.058  25.918  1.00  0.00     0.275 C 
BRANCH  23  24
ATOM     24  O   UNL A   1      32.592  29.755  27.234  1.00  0.00    -0.458 OA
BRANCH  24  25
ATOM     25  C   UNL A   1      33.285  30.940  27.457  1.00  0.00     0.338 C 
ATOM     26  O   UNL A   1      32.756  32.042  27.397  1.00  0.00    -0.246 OA
BRANCH  25  27
ATOM     27  C   UNL A   1      34.810  30.764  27.723  1.00  0.00     0.060 A 
ATOM     28  C   UNL A   1      35.756  31.803  27.761  1.00  0.00     0.016 A 
ATOM     29  C   UNL A   1      35.362  29.497  27.895  1.00  0.00     0.016 A 
ATOM     30  C   UNL A   1      37.035  31.701  28.313  1.00  0.00     0.010 A 
ATOM     31  C   UNL A   1      36.704  29.344  28.330  1.00  0.00     0.010 A 
ATOM     32  C   UNL A   1      37.511  30.452  28.642  1.00  0.00    -0.014 A 
BRANCH  32  33
ATOM     33  C   UNL A   1      38.837  30.298  29.282  1.00  0.00     0.031 A 
ATOM     34  C   UNL A   1      39.820  29.321  28.726  1.00  0.00     0.074 A 
ATOM     35  C   UNL A   1      39.132  31.016  30.383  1.00  0.00     0.049 A 
ATOM     36  N   UNL A   1      40.816  28.725  29.323  1.00  0.00    -0.248 NA
ATOM     37  C   UNL A   1      39.657  28.967  27.310  1.00  0.00     0.031 C 
ATOM     38  C   UNL A   1      38.343  32.135  30.901  1.00  0.00     0.029 A 
ATOM     39  N   UNL A   1      40.152  30.878  31.294  1.00  0.00    -0.354 N 
ATOM     40  C   UNL A   1      41.372  27.880  28.371  1.00  0.00     0.074 A 
ATOM     41  C   UNL A   1      40.614  28.063  27.151  1.00  0.00     0.031 C 
ATOM     42  C   UNL A   1      38.857  32.523  32.081  1.00  0.00     0.029 A 
ATOM     43  C   UNL A   1      39.960  31.633  32.432  1.00  0.00     0.049 A 
ATOM     44  H   UNL A   1      40.936  30.301  31.149  1.00  0.00     0.167 HD
ATOM     45  C   UNL A   1      42.404  27.014  28.530  1.00  0.00     0.034 A 
ATOM     46  C   UNL A   1      40.548  31.546  33.643  1.00  0.00     0.034 A 
ATOM     47  C   UNL A   1      43.112  26.855  29.778  1.00  0.00     0.049 A 
ATOM     48  C   UNL A   1      41.596  30.474  33.849  1.00  0.00     0.074 A 
ATOM     49  C   UNL A   1      44.117  25.962  30.101  1.00  0.00     0.029 A 
ATOM     50  N   UNL A   1      42.882  27.622  30.916  1.00  0.00    -0.354 N 
ATOM     51  N   UNL A   1      42.044  29.581  32.995  1.00  0.00    -0.248 NA
ATOM     52  C   UNL A   1      42.211  30.394  35.180  1.00  0.00     0.031 C 
ATOM     53  C   UNL A   1      44.460  26.156  31.444  1.00  0.00     0.029 A 
ATOM     54  C   UNL A   1      43.722  27.219  31.941  1.00  0.00     0.049 A 
ATOM     55  H   UNL A   1      42.220  28.346  30.983  1.00  0.00     0.167 HD
ATOM     56  C   UNL A   1      43.023  28.861  33.677  1.00  0.00     0.074 A 
ATOM     57  C   UNL A   1      43.106  29.434  35.004  1.00  0.00     0.031 C 
ATOM     58  C   UNL A   1      43.787  27.823  33.250  1.00  0.00     0.034 A 
BRANCH  45  59
ATOM     59  C   UNL A   1      42.755  26.131  27.359  1.00  0.00     0.023 A 
ATOM     60  C   UNL A   1      42.252  24.824  27.238  1.00  0.00     0.031 A 
ATOM     61  C   UNL A   1      43.635  26.593  26.362  1.00  0.00     0.131 A 
ATOM     62  C   UNL A   1      42.679  24.005  26.181  1.00  0.00     0.055 A 
ATOM     63  C   UNL A   1      43.999  25.798  25.274  1.00  0.00     0.041 A 
ATOM     64  F   UNL A   1      44.168  27.822  26.438  1.00  0.00    -0.206 F 
ATOM     65  C   UNL A   1      43.529  24.491  25.185  1.00  0.00     0.022 A 
BRANCH  62  66
ATOM     66  S   UNL A   1      42.200  22.256  26.190  1.00  0.00     0.124 S 
ATOM     67  O   UNL A   1      42.924  21.746  25.028  1.00  0.00    -0.237 OA
ATOM     68  O   UNL A   1      42.680  21.802  27.490  1.00  0.00    -0.237 OA
ATOM     69  O   UNL A   1      40.746  22.296  26.042  1.00  0.00    -0.744 OA
ENDBRANCH  62  66
ENDBRANCH  45  59
BRANCH  46  70
ATOM     70  C   UNL A   1      40.112  32.409  34.783  1.00  0.00     0.023 A 
ATOM     71  C   UNL A   1      39.330  31.886  35.825  1.00  0.00     0.031 A 
ATOM     72  C   UNL A   1      40.394  33.789  34.811  1.00  0.00     0.131 A 
ATOM     73  C   UNL A   1      38.808  32.738  36.812  1.00  0.00     0.055 A 
ATOM     74  C   UNL A   1      39.928  34.621  35.832  1.00  0.00     0.041 A 
ATOM     75  F   UNL A   1      41.128  34.353  33.838  1.00  0.00    -0.206 F 
ATOM     76  C   UNL A   1      39.115  34.099  36.832  1.00  0.00     0.022 A 
BRANCH  73  77
ATOM     77  S   UNL A   1      37.620  32.058  38.003  1.00  0.00     0.124 S 
ATOM     78  O   UNL A   1      37.413  30.712  37.480  1.00  0.00    -0.237 OA
ATOM     79  O   UNL A   1      38.362  32.152  39.256  1.00  0.00    -0.237 OA
ATOM     80  O   UNL A   1      36.473  32.955  37.890  1.00  0.00    -0.744 OA
ENDBRANCH  73  77
ENDBRANCH  46  70
BRANCH  58  81
ATOM     81  C   UNL A   1      44.830  27.310  34.213  1.00  0.00     0.023 A 
ATOM     82  C   UNL A   1      44.580  26.226  35.070  1.00  0.00     0.031 A 
ATOM     83  C   UNL A   1      46.085  27.941  34.283  1.00  0.00     0.131 A 
ATOM     84  C   UNL A   1      45.550  25.845  36.009  1.00  0.00     0.055 A 
ATOM     85  C   UNL A   1      47.069  27.517  35.176  1.00  0.00     0.041 A 
ATOM     86  F   UNL A   1      46.373  28.982  33.486  1.00  0.00    -0.206 F 
ATOM     87  C   UNL A   1      46.798  26.473  36.056  1.00  0.00     0.022 A 
BRANCH  84  88
ATOM     88  S   UNL A   1      45.122  24.582  37.238  1.00  0.00     0.124 S 
ATOM     89  O   UNL A   1      44.255  25.325  38.146  1.00  0.00    -0.237 OA
ATOM     90  O   UNL A   1      44.467  23.563  36.423  1.00  0.00    -0.237 OA
ATOM     91  O   UNL A   1      46.416  24.191  37.794  1.00  0.00    -0.744 OA
ENDBRANCH  84  88
ENDBRANCH  58  81
ENDBRANCH  32  33
ENDBRANCH  25  27
ENDBRANCH  24  25
ENDBRANCH  23  24
ENDBRANCH   1  23
TORSDOF 18
ENDMDL
MODEL 2
REMARK VINA RESULT:     -11.8      2.060      2.571
REMARK SMILES COC(=O)c1nc(C)cc(N[C@@H]2C=C[C@H](C(=O)OCCOC(=O)c3ccc(-c4c5nc(c(-c6cc(S(=O)(=O)[O-])ccc6F)c6ccc([nH]6)c(-c6cc(S(=O)(=O)[O-])ccc6F)c6nc(c(-c7cc(S(=O)(=O)[O-])ccc7F)c7ccc4[nH]7)C=C6)C=C5)cc3)C2)n1
REMARK SMILES IDX 19 1 18 2 16 3 17 4 15 5 12 6 13 7 87 8 14 9 11 10 10 12
REMARK SMILES IDX 5 13 6 14 88 15 7 16 8 17 9 18 3 19 4 20 2 21 1 22 20 23
REMARK SMILES IDX 21 24 22 25 23 26 24 27 25 28 86 29 26 30 85 31 27 32 28 33
REMARK SMILES IDX 29 34 79 35 30 36 84 37 78 38 80 39 31 40 83 41 77 42 76 43
REMARK SMILES IDX 32 45 64 46 44 47 63 48 45 49 48 50 62 51 81 52 46 53 47 54
REMARK SMILES IDX 61 56 82 57 49 58 33 59 34 60 42 61 35 62 41 63 43 64 40 65
REMARK SMILES IDX 36 66 37 67 38 68 39 69 65 70 66 71 74 72 67 73 73 74 75 75
REMARK SMILES IDX 72 76 68 77 69 78 70 79 71 80 50 81 51 82 59 83 52 84 58 85
REMARK SMILES IDX 60 86 57 87 53 88 54 89 55 90 56 91
REMARK H PARENT 11 11 80 44 48 55
REMARK Flexibility Score: inf
ROOT
ATOM      1  C   UNL A   1      31.465  28.733  24.345  1.00  0.00     0.274 C 
ENDROOT
BRANCH   1   2
ATOM      2  O   UNL A   1      30.862  27.464  24.881  1.00  0.00    -0.462 OA
BRANCH   2   3
ATOM      3  C   UNL A   1      30.318  26.517  24.033  1.00  0.00     0.312 C 
ATOM      4  O   UNL A   1      29.094  26.376  23.962  1.00  0.00    -0.252 OA
BRANCH   3   5
ATOM      5  C   UNL A   1      31.279  25.628  23.043  1.00  0.00     0.124 C 
ATOM      6  C   UNL A   1      32.620  23.516  23.290  1.00  0.00     0.104 C 
ATOM      7  C   UNL A   1      33.463  24.638  22.796  1.00  0.00    -0.006 C 
ATOM      8  C   UNL A   1      31.183  24.098  23.239  1.00  0.00     0.048 C 
ATOM      9  C   UNL A   1      32.744  25.759  22.651  1.00  0.00    -0.014 C 
BRANCH   6  10
ATOM     10  N   UNL A   1      32.989  23.022  24.617  1.00  0.00    -0.364 N 
ATOM     11  H   UNL A   1      32.628  23.459  25.421  1.00  0.00     0.162 HD
BRANCH  10  12
ATOM     12  C   UNL A   1      33.841  21.948  24.743  1.00  0.00     0.131 A 
ATOM     13  C   UNL A   1      34.006  19.668  24.825  1.00  0.00     0.241 A 
ATOM     14  N   UNL A   1      35.354  19.666  24.881  1.00  0.00    -0.227 NA
ATOM     15  N   UNL A   1      33.273  20.760  24.726  1.00  0.00    -0.205 NA
ATOM     16  C   UNL A   1      35.935  20.892  24.885  1.00  0.00     0.044 A 
ATOM     17  C   UNL A   1      37.437  20.951  24.861  1.00  0.00     0.067 C 
ATOM     18  C   UNL A   1      35.202  22.071  24.845  1.00  0.00     0.070 A 
BRANCH  13  19
ATOM     19  C   UNL A   1      33.193  18.412  24.829  1.00  0.00     0.376 C 
ATOM     20  O   UNL A   1      32.023  18.455  25.220  1.00  0.00    -0.242 OA
BRANCH  19  21
ATOM     21  O   UNL A   1      33.912  17.319  24.387  1.00  0.00    -0.463 OA
ATOM     22  C   UNL A   1      34.881  16.286  24.915  1.00  0.00     0.282 C 
ENDBRANCH  19  21
ENDBRANCH  13  19
ENDBRANCH  10  12
ENDBRANCH   6  10
ENDBRANCH   3   5
ENDBRANCH   2   3
ENDBRANCH   1   2
BRANCH   1  23
ATOM     23  C   UNL A   1      32.677  29.475  25.173  1.00  0.00     0.275 C 
BRANCH  23  24
ATOM     24  O   UNL A   1      32.454  29.797  26.611  1.00  0.00    -0.458 OA
BRANCH  24  25
ATOM     25  C   UNL A   1      33.033  30.901  27.227  1.00  0.00     0.338 C 
ATOM     26  O   UNL A   1      32.429  31.947  27.426  1.00  0.00    -0.246 OA
BRANCH  25  27
ATOM     27  C   UNL A   1      34.539  30.730  27.587  1.00  0.00     0.060 A 
ATOM     28  C   UNL A   1      35.501  31.756  27.576  1.00  0.00     0.016 A 
ATOM     29  C   UNL A   1      35.059  29.479  27.907  1.00  0.00     0.016 A 
ATOM     30  C   UNL A   1      36.749  31.690  28.201  1.00  0.00     0.010 A 
ATOM     31  C   UNL A   1      36.375  29.350  28.423  1.00  0.00     0.010 A 
ATOM     32  C   UNL A   1      37.185  30.472  28.671  1.00  0.00    -0.014 A 
BRANCH  32  33
ATOM     33  C   UNL A   1      38.474  30.361  29.390  1.00  0.00     0.031 A 
ATOM     34  C   UNL A   1      39.547  29.471  28.858  1.00  0.00     0.074 A 
ATOM     35  C   UNL A   1      38.655  31.040  30.540  1.00  0.00     0.049 A 
ATOM     36  N   UNL A   1      40.537  28.904  29.492  1.00  0.00    -0.248 NA
ATOM     37  C   UNL A   1      39.497  29.179  27.419  1.00  0.00     0.031 C 
ATOM     38  C   UNL A   1      37.768  32.085  31.054  1.00  0.00     0.029 A 
ATOM     39  N   UNL A   1      39.620  30.916  31.510  1.00  0.00    -0.354 N 
ATOM     40  C   UNL A   1      41.202  28.140  28.542  1.00  0.00     0.074 A 
ATOM     41  C   UNL A   1      40.515  28.339  27.283  1.00  0.00     0.031 C 
ATOM     42  C   UNL A   1      38.181  32.443  32.283  1.00  0.00     0.029 A 
ATOM     43  C   UNL A   1      39.310  31.601  32.665  1.00  0.00     0.049 A 
ATOM     44  H   UNL A   1      40.445  30.392  31.392  1.00  0.00     0.167 HD
ATOM     45  C   UNL A   1      42.272  27.327  28.729  1.00  0.00     0.034 A 
ATOM     46  C   UNL A   1      39.823  31.488  33.908  1.00  0.00     0.034 A 
ATOM     47  C   UNL A   1      42.906  27.147  30.013  1.00  0.00     0.049 A 
ATOM     48  C   UNL A   1      40.919  30.469  34.135  1.00  0.00     0.074 A 
ATOM     49  C   UNL A   1      43.941  26.298  30.362  1.00  0.00     0.029 A 
ATOM     50  N   UNL A   1      42.559  27.842  31.167  1.00  0.00    -0.354 N 
ATOM     51  N   UNL A   1      41.473  29.645  33.273  1.00  0.00    -0.248 NA
ATOM     52  C   UNL A   1      41.451  30.357  35.499  1.00  0.00     0.031 C 
ATOM     53  C   UNL A   1      44.185  26.444  31.733  1.00  0.00     0.029 A 
ATOM     54  C   UNL A   1      43.353  27.437  32.227  1.00  0.00     0.049 A 
ATOM     55  H   UNL A   1      41.851  28.524  31.223  1.00  0.00     0.167 HD
ATOM     56  C   UNL A   1      42.448  28.950  33.985  1.00  0.00     0.074 A 
ATOM     57  C   UNL A   1      42.412  29.460  35.340  1.00  0.00     0.031 C 
ATOM     58  C   UNL A   1      43.299  27.978  33.564  1.00  0.00     0.034 A 
BRANCH  45  59
ATOM     59  C   UNL A   1      42.749  26.524  27.546  1.00  0.00     0.023 A 
ATOM     60  C   UNL A   1      42.283  25.222  27.295  1.00  0.00     0.031 A 
ATOM     61  C   UNL A   1      43.714  27.058  26.670  1.00  0.00     0.131 A 
ATOM     62  C   UNL A   1      42.824  24.477  26.236  1.00  0.00     0.055 A 
ATOM     63  C   UNL A   1      44.194  26.338  25.575  1.00  0.00     0.041 A 
ATOM     64  F   UNL A   1      44.216  28.286  26.874  1.00  0.00    -0.206 F 
ATOM     65  C   UNL A   1      43.758  25.034  25.359  1.00  0.00     0.022 A 
BRANCH  62  66
ATOM     66  S   UNL A   1      42.377  22.725  26.090  1.00  0.00     0.124 S 
ATOM     67  O   UNL A   1      43.072  22.146  27.236  1.00  0.00    -0.237 OA
ATOM     68  O   UNL A   1      40.922  22.761  26.177  1.00  0.00    -0.237 OA
ATOM     69  O   UNL A   1      42.913  22.341  24.785  1.00  0.00    -0.744 OA
ENDBRANCH  62  66
ENDBRANCH  45  59
BRANCH  46  70
ATOM     70  C   UNL A   1      39.265  32.268  35.055  1.00  0.00     0.023 A 
ATOM     71  C   UNL A   1      39.708  33.572  35.323  1.00  0.00     0.031 A 
ATOM     72  C   UNL A   1      38.344  31.695  35.954  1.00  0.00     0.131 A 
ATOM     73  C   UNL A   1      39.282  34.237  36.485  1.00  0.00     0.055 A 
ATOM     74  C   UNL A   1      37.872  32.386  37.073  1.00  0.00     0.041 A 
ATOM     75  F   UNL A   1      37.889  30.447  35.760  1.00  0.00    -0.206 F 
ATOM     76  C   UNL A   1      38.355  33.659  37.353  1.00  0.00     0.022 A 
BRANCH  73  77
ATOM     77  S   UNL A   1      40.056  35.824  36.907  1.00  0.00     0.124 S 
ATOM     78  O   UNL A   1      41.454  35.440  37.063  1.00  0.00    -0.237 OA
ATOM     79  O   UNL A   1      39.739  36.634  35.735  1.00  0.00    -0.237 OA
ATOM     80  O   UNL A   1      39.375  36.217  38.138  1.00  0.00    -0.744 OA
ENDBRANCH  73  77
ENDBRANCH  46  70
BRANCH  58  81
ATOM     81  C   UNL A   1      44.306  27.479  34.570  1.00  0.00     0.023 A 
ATOM     82  C   UNL A   1      45.555  28.099  34.739  1.00  0.00     0.031 A 
ATOM     83  C   UNL A   1      44.013  26.347  35.350  1.00  0.00     0.131 A 
ATOM     84  C   UNL A   1      46.493  27.543  35.623  1.00  0.00     0.055 A 
ATOM     85  C   UNL A   1      44.925  25.836  36.273  1.00  0.00     0.041 A 
ATOM     86  F   UNL A   1      42.833  25.718  35.225  1.00  0.00    -0.206 F 
ATOM     87  C   UNL A   1      46.179  26.426  36.402  1.00  0.00     0.022 A 
BRANCH  84  88
ATOM     88  S   UNL A   1      48.166  28.241  35.668  1.00  0.00     0.124 S 
ATOM     89  O   UNL A   1      48.234  28.778  37.023  1.00  0.00    -0.237 OA
ATOM     90  O   UNL A   1      48.999  27.072  35.403  1.00  0.00    -0.237 OA
ATOM     91  O   UNL A   1      48.148  29.242  34.603  1.00  0.00    -0.744 OA
ENDBRANCH  84  88
ENDBRANCH  58  81
ENDBRANCH  32  33
ENDBRANCH  25  27
ENDBRANCH  24  25
ENDBRANCH  23  24
ENDBRANCH   1  23
TORSDOF 18
ENDMDL
MODEL 3
REMARK VINA RESULT:     -11.4      4.861     10.026
REMARK SMILES COC(=O)c1nc(C)cc(N[C@@H]2C=C[C@H](C(=O)OCCOC(=O)c3ccc(-c4c5nc(c(-c6cc(S(=O)(=O)[O-])ccc6F)c6ccc([nH]6)c(-c6cc(S(=O)(=O)[O-])ccc6F)c6nc(c(-c7cc(S(=O)(=O)[O-])ccc7F)c7ccc4[nH]7)C=C6)C=C5)cc3)C2)n1
REMARK SMILES IDX 19 1 18 2 16 3 17 4 15 5 12 6 13 7 87 8 14 9 11 10 10 12
REMARK SMILES IDX 5 13 6 14 88 15 7 16 8 17 9 18 3 19 4 20 2 21 1 22 20 23
REMARK SMILES IDX 21 24 22 25 23 26 24 27 25 28 86 29 26 30 85 31 27 32 28 33
REMARK SMILES IDX 29 34 79 35 30 36 84 37 78 38 80 39 31 40 83 41 77 42 76 43
REMARK SMILES IDX 32 45 64 46 44 47 63 48 45 49 48 50 62 51 81 52 46 53 47 54
REMARK SMILES IDX 61 56 82 57 49 58 33 59 34 60 42 61 35 62 41 63 43 64 40 65
REMARK SMILES IDX 36 66 37 67 38 68 39 69 65 70 66 71 74 72 67 73 73 74 75 75
REMARK SMILES IDX 72 76 68 77 69 78 70 79 71 80 50 81 51 82 59 83 52 84 58 85
REMARK SMILES IDX 60 86 57 87 53 88 54 89 55 90 56 91
REMARK H PARENT 11 11 80 44 48 55
REMARK Flexibility Score: inf
ROOT
ATOM      1  C   UNL A   1      36.377  23.236  23.879  1.00  0.00     0.274 C 
ENDROOT
BRANCH   1   2
ATOM      2  O   UNL A   1      35.962  24.273  24.886  1.00  0.00    -0.462 OA
BRANCH   2   3
ATOM      3  C   UNL A   1      34.678  24.786  24.896  1.00  0.00     0.312 C 
ATOM      4  O   UNL A   1      34.352  25.631  25.734  1.00  0.00    -0.252 OA
BRANCH   3   5
ATOM      5  C   UNL A   1      33.592  24.349  23.746  1.00  0.00     0.124 C 
ATOM      6  C   UNL A   1      31.266  25.073  23.126  1.00  0.00     0.104 C 
ATOM      7  C   UNL A   1      31.331  23.606  23.360  1.00  0.00    -0.006 C 
ATOM      8  C   UNL A   1      32.755  25.508  23.161  1.00  0.00     0.048 C 
ATOM      9  C   UNL A   1      32.574  23.218  23.677  1.00  0.00    -0.014 C 
BRANCH   6  10
ATOM     10  N   UNL A   1      30.435  25.802  24.085  1.00  0.00    -0.364 N 
ATOM     11  H   UNL A   1      29.737  25.327  24.590  1.00  0.00     0.162 HD
BRANCH  10  12
ATOM     12  C   UNL A   1      30.627  27.151  24.281  1.00  0.00     0.131 A 
ATOM     13  C   UNL A   1      30.137  29.257  23.535  1.00  0.00     0.241 A 
ATOM     14  N   UNL A   1      30.792  29.875  24.541  1.00  0.00    -0.227 NA
ATOM     15  N   UNL A   1      30.027  27.947  23.422  1.00  0.00    -0.205 NA
ATOM     16  C   UNL A   1      31.397  29.050  25.430  1.00  0.00     0.044 A 
ATOM     17  C   UNL A   1      32.070  29.680  26.618  1.00  0.00     0.067 C 
ATOM     18  C   UNL A   1      31.361  27.666  25.318  1.00  0.00     0.070 A 
BRANCH  13  19
ATOM     19  C   UNL A   1      29.425  30.003  22.451  1.00  0.00     0.376 C 
ATOM     20  O   UNL A   1      29.575  29.648  21.279  1.00  0.00    -0.242 OA
BRANCH  19  21
ATOM     21  O   UNL A   1      28.675  31.053  22.942  1.00  0.00    -0.463 OA
ATOM     22  C   UNL A   1      28.851  32.487  23.390  1.00  0.00     0.282 C 
ENDBRANCH  19  21
ENDBRANCH  13  19
ENDBRANCH  10  12
ENDBRANCH   6  10
ENDBRANCH   3   5
ENDBRANCH   2   3
ENDBRANCH   1   2
BRANCH   1  23
ATOM     23  C   UNL A   1      37.033  21.818  24.392  1.00  0.00     0.275 C 
BRANCH  23  24
ATOM     24  O   UNL A   1      37.643  21.773  25.750  1.00  0.00    -0.458 OA
BRANCH  24  25
ATOM     25  C   UNL A   1      39.018  21.835  25.954  1.00  0.00     0.338 C 
ATOM     26  O   UNL A   1      39.793  20.989  25.530  1.00  0.00    -0.246 OA
BRANCH  25  27
ATOM     27  C   UNL A   1      39.493  23.034  26.828  1.00  0.00     0.060 A 
ATOM     28  C   UNL A   1      40.389  22.951  27.907  1.00  0.00     0.016 A 
ATOM     29  C   UNL A   1      38.992  24.316  26.613  1.00  0.00     0.016 A 
ATOM     30  C   UNL A   1      41.064  24.036  28.473  1.00  0.00     0.010 A 
ATOM     31  C   UNL A   1      39.563  25.437  27.270  1.00  0.00     0.010 A 
ATOM     32  C   UNL A   1      40.673  25.308  28.122  1.00  0.00    -0.014 A 
BRANCH  32  33
ATOM     33  C   UNL A   1      41.394  26.488  28.650  1.00  0.00     0.031 A 
ATOM     34  C   UNL A   1      40.636  27.571  29.346  1.00  0.00     0.074 A 
ATOM     35  C   UNL A   1      42.724  26.592  28.468  1.00  0.00     0.049 A 
ATOM     36  N   UNL A   1      40.953  28.827  29.504  1.00  0.00    -0.248 NA
ATOM     37  C   UNL A   1      39.348  27.187  29.940  1.00  0.00     0.031 C 
ATOM     38  C   UNL A   1      43.599  25.522  27.986  1.00  0.00     0.029 A 
ATOM     39  N   UNL A   1      43.567  27.667  28.620  1.00  0.00    -0.354 N 
ATOM     40  C   UNL A   1      39.879  29.403  30.171  1.00  0.00     0.074 A 
ATOM     41  C   UNL A   1      38.914  28.349  30.407  1.00  0.00     0.031 C 
ATOM     42  C   UNL A   1      44.834  26.018  27.799  1.00  0.00     0.029 A 
ATOM     43  C   UNL A   1      44.815  27.450  28.076  1.00  0.00     0.049 A 
ATOM     44  H   UNL A   1      43.307  28.503  29.070  1.00  0.00     0.167 HD
ATOM     45  C   UNL A   1      39.718  30.704  30.519  1.00  0.00     0.034 A 
ATOM     46  C   UNL A   1      45.789  28.328  27.755  1.00  0.00     0.034 A 
ATOM     47  C   UNL A   1      40.704  31.720  30.238  1.00  0.00     0.049 A 
ATOM     48  C   UNL A   1      45.535  29.798  28.014  1.00  0.00     0.074 A 
ATOM     49  C   UNL A   1      40.637  33.084  30.460  1.00  0.00     0.029 A 
ATOM     50  N   UNL A   1      41.950  31.473  29.671  1.00  0.00    -0.354 N 
ATOM     51  N   UNL A   1      44.471  30.375  28.527  1.00  0.00    -0.248 NA
ATOM     52  C   UNL A   1      46.605  30.732  27.645  1.00  0.00     0.031 C 
ATOM     53  C   UNL A   1      41.819  33.664  29.983  1.00  0.00     0.029 A 
ATOM     54  C   UNL A   1      42.656  32.656  29.530  1.00  0.00     0.049 A 
ATOM     55  H   UNL A   1      42.283  30.585  29.407  1.00  0.00     0.167 HD
ATOM     56  C   UNL A   1      44.765  31.735  28.579  1.00  0.00     0.074 A 
ATOM     57  C   UNL A   1      46.107  31.888  28.058  1.00  0.00     0.031 C 
ATOM     58  C   UNL A   1      44.000  32.769  29.018  1.00  0.00     0.034 A 
BRANCH  45  59
ATOM     59  C   UNL A   1      38.408  31.096  31.152  1.00  0.00     0.023 A 
ATOM     60  C   UNL A   1      37.356  31.650  30.401  1.00  0.00     0.031 A 
ATOM     61  C   UNL A   1      38.218  30.945  32.539  1.00  0.00     0.131 A 
ATOM     62  C   UNL A   1      36.189  32.086  31.047  1.00  0.00     0.055 A 
ATOM     63  C   UNL A   1      37.025  31.314  33.165  1.00  0.00     0.041 A 
ATOM     64  F   UNL A   1      39.195  30.447  33.312  1.00  0.00    -0.206 F 
ATOM     65  C   UNL A   1      36.006  31.900  32.419  1.00  0.00     0.022 A 
BRANCH  62  66
ATOM     66  S   UNL A   1      34.959  33.010  30.087  1.00  0.00     0.124 S 
ATOM     67  O   UNL A   1      34.049  33.467  31.134  1.00  0.00    -0.237 OA
ATOM     68  O   UNL A   1      35.766  34.043  29.447  1.00  0.00    -0.237 OA
ATOM     69  O   UNL A   1      34.402  32.005  29.182  1.00  0.00    -0.744 OA
ENDBRANCH  62  66
ENDBRANCH  45  59
BRANCH  46  70
ATOM     70  C   UNL A   1      47.042  27.885  27.071  1.00  0.00     0.023 A 
ATOM     71  C   UNL A   1      47.173  27.979  25.677  1.00  0.00     0.031 A 
ATOM     72  C   UNL A   1      48.095  27.281  27.785  1.00  0.00     0.131 A 
ATOM     73  C   UNL A   1      48.294  27.428  25.035  1.00  0.00     0.055 A 
ATOM     74  C   UNL A   1      49.240  26.794  27.148  1.00  0.00     0.041 A 
ATOM     75  F   UNL A   1      48.027  27.151  29.120  1.00  0.00    -0.206 F 
ATOM     76  C   UNL A   1      49.336  26.850  25.762  1.00  0.00     0.022 A 
BRANCH  73  77
ATOM     77  S   UNL A   1      48.312  27.370  23.221  1.00  0.00     0.124 S 
ATOM     78  O   UNL A   1      47.103  28.116  22.889  1.00  0.00    -0.237 OA
ATOM     79  O   UNL A   1      49.577  28.026  22.911  1.00  0.00    -0.237 OA
ATOM     80  O   UNL A   1      48.263  25.940  22.926  1.00  0.00    -0.744 OA
ENDBRANCH  73  77
ENDBRANCH  46  70
BRANCH  58  81
ATOM     81  C   UNL A   1      44.646  34.133  29.024  1.00  0.00     0.023 A 
ATOM     82  C   UNL A   1      45.365  34.609  30.132  1.00  0.00     0.031 A 
ATOM     83  C   UNL A   1      44.513  34.973  27.905  1.00  0.00     0.131 A 
ATOM     84  C   UNL A   1      45.870  35.918  30.123  1.00  0.00     0.055 A 
ATOM     85  C   UNL A   1      45.071  36.251  27.877  1.00  0.00     0.041 A 
ATOM     86  F   UNL A   1      43.835  34.566  26.819  1.00  0.00    -0.206 F 
ATOM     87  C   UNL A   1      45.741  36.735  28.997  1.00  0.00     0.022 A 
BRANCH  84  88
ATOM     88  S   UNL A   1      46.610  36.575  31.643  1.00  0.00     0.124 S 
ATOM     89  O   UNL A   1      47.264  37.787  31.161  1.00  0.00    -0.237 OA
ATOM     90  O   UNL A   1      45.444  36.776  32.497  1.00  0.00    -0.237 OA
ATOM     91  O   UNL A   1      47.515  35.510  32.071  1.00  0.00    -0.744 OA
ENDBRANCH  84  88
ENDBRANCH  58  81
ENDBRANCH  32  33
ENDBRANCH  25  27
ENDBRANCH  24  25
ENDBRANCH  23  24
ENDBRANCH   1  23
TORSDOF 18
ENDMDL
