MODEL 1
REMARK VINA RESULT:     -11.8      0.000      0.000
REMARK SMILES C[C@H](C(=O)OCCOC(=O)c1ccc(-c2c3nc(c(-c4cc(S(=O)(=O)[O-])ccc4F)c4ccc([nH]4)c(-c4cc(S(=O)(=O)[O-])ccc4F)c4nc(c(-c5cc(S(=O)(=O)[O-])ccc5F)c5ccc2[nH]5)C=C4)C=C3)cc1)[C@@H](C)Nc1ccccc1Oc1ccccc1
REMARK SMILES IDX 6 1 5 2 3 3 4 4 2 5 1 6 74 7 75 8 76 9 77 11 78 12 82 13
REMARK SMILES IDX 79 14 81 15 80 16 83 17 84 18 85 19 89 20 86 21 88 22 87 23
REMARK SMILES IDX 7 24 8 25 9 26 10 27 11 28 12 29 73 30 13 31 72 32 14 33
REMARK SMILES IDX 15 34 16 35 66 36 17 37 71 38 65 39 67 40 18 41 70 42 64 43
REMARK SMILES IDX 63 44 19 46 51 47 31 48 50 49 32 50 35 51 49 52 68 53 33 54
REMARK SMILES IDX 34 55 48 57 69 58 36 59 20 60 21 61 29 62 22 63 28 64 30 65
REMARK SMILES IDX 27 66 23 67 24 68 25 69 26 70 52 71 53 72 61 73 54 74 60 75
REMARK SMILES IDX 62 76 59 77 55 78 56 79 57 80 58 81 37 82 38 83 46 84 39 85
REMARK SMILES IDX 45 86 47 87 44 88 40 89 41 90 42 91 43 92
REMARK H PARENT 76 10 67 45 35 56
REMARK Flexibility Score: inf
ROOT
ATOM      1  C   UNL A   1      34.829  20.718  25.072  1.00  0.00     0.274 C 
ENDROOT
BRANCH   1   2
ATOM      2  O   UNL A   1      33.933  21.849  25.109  1.00  0.00    -0.462 OA
BRANCH   2   3
ATOM      3  C   UNL A   1      32.691  21.648  25.629  1.00  0.00     0.310 C 
ATOM      4  O   UNL A   1      31.886  20.825  25.208  1.00  0.00    -0.252 OA
BRANCH   3   5
ATOM      5  C   UNL A   1      32.393  22.577  26.797  1.00  0.00     0.118 C 
ATOM      6  C   UNL A   1      33.452  22.438  27.884  1.00  0.00     0.022 C 
BRANCH   5   7
ATOM      7  C   UNL A   1      32.235  24.017  26.279  1.00  0.00     0.090 C 
ATOM      8  C   UNL A   1      33.621  24.663  26.125  1.00  0.00     0.031 C 
BRANCH   7   9
ATOM      9  N   UNL A   1      31.608  24.035  24.968  1.00  0.00    -0.379 N 
ATOM     10  H   UNL A   1      30.826  23.447  24.869  1.00  0.00     0.160 HD
BRANCH   9  11
ATOM     11  C   UNL A   1      31.949  24.758  23.835  1.00  0.00     0.078 A 
ATOM     12  C   UNL A   1      32.576  23.975  22.829  1.00  0.00     0.029 A 
ATOM     13  C   UNL A   1      31.703  26.106  23.506  1.00  0.00     0.150 A 
ATOM     14  C   UNL A   1      32.953  24.478  21.582  1.00  0.00     0.002 A 
ATOM     15  C   UNL A   1      32.127  26.616  22.254  1.00  0.00     0.049 A 
ATOM     16  C   UNL A   1      32.747  25.814  21.300  1.00  0.00     0.004 A 
BRANCH  13  17
ATOM     17  O   UNL A   1      30.897  27.026  24.135  1.00  0.00    -0.455 OA
BRANCH  17  18
ATOM     18  C   UNL A   1      31.278  27.810  25.187  1.00  0.00     0.127 A 
ATOM     19  C   UNL A   1      31.618  29.117  24.806  1.00  0.00     0.047 A 
ATOM     20  C   UNL A   1      31.335  27.443  26.526  1.00  0.00     0.047 A 
ATOM     21  C   UNL A   1      31.914  30.085  25.762  1.00  0.00     0.004 A 
ATOM     22  C   UNL A   1      31.645  28.416  27.487  1.00  0.00     0.004 A 
ATOM     23  C   UNL A   1      31.910  29.736  27.108  1.00  0.00     0.000 A 
ENDBRANCH  17  18
ENDBRANCH  13  17
ENDBRANCH   9  11
ENDBRANCH   7   9
ENDBRANCH   5   7
ENDBRANCH   3   5
ENDBRANCH   2   3
ENDBRANCH   1   2
BRANCH   1  24
ATOM     24  C   UNL A   1      36.204  21.180  24.596  1.00  0.00     0.275 C 
BRANCH  24  25
ATOM     25  O   UNL A   1      36.935  21.579  25.764  1.00  0.00    -0.458 OA
BRANCH  25  26
ATOM     26  C   UNL A   1      38.248  21.266  25.790  1.00  0.00     0.338 C 
ATOM     27  O   UNL A   1      38.783  20.260  25.350  1.00  0.00    -0.246 OA
BRANCH  26  28
ATOM     28  C   UNL A   1      38.964  22.405  26.386  1.00  0.00     0.060 A 
ATOM     29  C   UNL A   1      38.532  23.698  26.088  1.00  0.00     0.016 A 
ATOM     30  C   UNL A   1      40.102  22.212  27.164  1.00  0.00     0.016 A 
ATOM     31  C   UNL A   1      39.281  24.800  26.485  1.00  0.00     0.010 A 
ATOM     32  C   UNL A   1      40.788  23.328  27.660  1.00  0.00     0.010 A 
ATOM     33  C   UNL A   1      40.403  24.635  27.302  1.00  0.00    -0.014 A 
BRANCH  33  34
ATOM     34  C   UNL A   1      41.201  25.817  27.734  1.00  0.00     0.031 A 
ATOM     35  C   UNL A   1      40.562  26.862  28.610  1.00  0.00     0.074 A 
ATOM     36  C   UNL A   1      42.492  25.953  27.367  1.00  0.00     0.049 A 
ATOM     37  N   UNL A   1      40.959  28.079  28.876  1.00  0.00    -0.248 NA
ATOM     38  C   UNL A   1      39.290  26.491  29.248  1.00  0.00     0.031 C 
ATOM     39  C   UNL A   1      43.264  24.980  26.590  1.00  0.00     0.029 A 
ATOM     40  N   UNL A   1      43.390  26.965  27.606  1.00  0.00    -0.354 N 
ATOM     41  C   UNL A   1      39.951  28.645  29.651  1.00  0.00     0.074 A 
ATOM     42  C   UNL A   1      38.927  27.634  29.811  1.00  0.00     0.031 C 
ATOM     43  C   UNL A   1      44.522  25.423  26.450  1.00  0.00     0.029 A 
ATOM     44  C   UNL A   1      44.620  26.760  27.023  1.00  0.00     0.049 A 
ATOM     45  H   UNL A   1      43.174  27.762  28.142  1.00  0.00     0.167 HD
ATOM     46  C   UNL A   1      39.887  29.900  30.164  1.00  0.00     0.034 A 
ATOM     47  C   UNL A   1      45.685  27.576  26.902  1.00  0.00     0.034 A 
ATOM     48  C   UNL A   1      40.948  30.870  30.030  1.00  0.00     0.049 A 
ATOM     49  C   UNL A   1      45.586  28.972  27.455  1.00  0.00     0.074 A 
ATOM     50  C   UNL A   1      40.991  32.177  30.482  1.00  0.00     0.029 A 
ATOM     51  N   UNL A   1      42.169  30.626  29.410  1.00  0.00    -0.354 N 
ATOM     52  N   UNL A   1      44.578  29.543  28.072  1.00  0.00    -0.248 NA
ATOM     53  C   UNL A   1      46.758  29.838  27.277  1.00  0.00     0.031 C 
ATOM     54  C   UNL A   1      42.217  32.735  30.099  1.00  0.00     0.029 A 
ATOM     55  C   UNL A   1      42.965  31.759  29.461  1.00  0.00     0.049 A 
ATOM     56  H   UNL A   1      42.429  29.773  28.995  1.00  0.00     0.167 HD
ATOM     57  C   UNL A   1      44.994  30.840  28.353  1.00  0.00     0.074 A 
ATOM     58  C   UNL A   1      46.355  30.954  27.865  1.00  0.00     0.031 C 
ATOM     59  C   UNL A   1      44.313  31.851  28.950  1.00  0.00     0.034 A 
BRANCH  46  60
ATOM     60  C   UNL A   1      38.599  30.306  30.838  1.00  0.00     0.023 A 
ATOM     61  C   UNL A   1      37.559  30.954  30.149  1.00  0.00     0.031 A 
ATOM     62  C   UNL A   1      38.433  30.084  32.218  1.00  0.00     0.131 A 
ATOM     63  C   UNL A   1      36.438  31.423  30.853  1.00  0.00     0.055 A 
ATOM     64  C   UNL A   1      37.279  30.484  32.898  1.00  0.00     0.041 A 
ATOM     65  F   UNL A   1      39.399  29.490  32.937  1.00  0.00    -0.206 F 
ATOM     66  C   UNL A   1      36.281  31.172  32.218  1.00  0.00     0.022 A 
BRANCH  63  67
ATOM     67  S   UNL A   1      35.254  32.493  29.989  1.00  0.00     0.124 S 
ATOM     68  O   UNL A   1      36.116  33.581  29.535  1.00  0.00    -0.237 OA
ATOM     69  O   UNL A   1      34.734  31.612  28.949  1.00  0.00    -0.237 OA
ATOM     70  O   UNL A   1      34.297  32.858  31.032  1.00  0.00    -0.744 OA
ENDBRANCH  63  67
ENDBRANCH  46  60
BRANCH  47  71
ATOM     71  C   UNL A   1      46.892  27.132  26.146  1.00  0.00     0.023 A 
ATOM     72  C   UNL A   1      47.127  27.558  24.829  1.00  0.00     0.031 A 
ATOM     73  C   UNL A   1      47.826  26.255  26.732  1.00  0.00     0.131 A 
ATOM     74  C   UNL A   1      48.253  27.088  24.134  1.00  0.00     0.055 A 
ATOM     75  C   UNL A   1      48.971  25.835  26.055  1.00  0.00     0.041 A 
ATOM     76  F   UNL A   1      47.649  25.815  27.988  1.00  0.00    -0.206 F 
ATOM     77  C   UNL A   1      49.185  26.244  24.744  1.00  0.00     0.022 A 
BRANCH  74  78
ATOM     78  S   UNL A   1      48.455  27.546  22.390  1.00  0.00     0.124 S 
ATOM     79  O   UNL A   1      48.530  26.239  21.745  1.00  0.00    -0.237 OA
ATOM     80  O   UNL A   1      47.242  28.317  22.136  1.00  0.00    -0.237 OA
ATOM     81  O   UNL A   1      49.695  28.319  22.381  1.00  0.00    -0.744 OA
ENDBRANCH  74  78
ENDBRANCH  47  71
BRANCH  59  82
ATOM     82  C   UNL A   1      45.056  33.149  29.126  1.00  0.00     0.023 A 
ATOM     83  C   UNL A   1      44.938  34.194  28.194  1.00  0.00     0.031 A 
ATOM     84  C   UNL A   1      45.917  33.327  30.222  1.00  0.00     0.131 A 
ATOM     85  C   UNL A   1      45.711  35.353  28.347  1.00  0.00     0.055 A 
ATOM     86  C   UNL A   1      46.646  34.503  30.396  1.00  0.00     0.041 A 
ATOM     87  F   UNL A   1      46.066  32.356  31.138  1.00  0.00    -0.206 F 
ATOM     88  C   UNL A   1      46.555  35.520  29.448  1.00  0.00     0.022 A 
BRANCH  85  89
ATOM     89  S   UNL A   1      45.663  36.611  27.041  1.00  0.00     0.124 S 
ATOM     90  O   UNL A   1      46.387  35.953  25.959  1.00  0.00    -0.237 OA
ATOM     91  O   UNL A   1      44.230  36.792  26.832  1.00  0.00    -0.237 OA
ATOM     92  O   UNL A   1      46.350  37.754  27.640  1.00  0.00    -0.744 OA
ENDBRANCH  85  89
ENDBRANCH  59  82
ENDBRANCH  33  34
ENDBRANCH  26  28
ENDBRANCH  25  26
ENDBRANCH  24  25
ENDBRANCH   1  24
TORSDOF 19
ENDMDL
MODEL 2
REMARK VINA RESULT:     -11.8      0.696      2.234
REMARK SMILES C[C@H](C(=O)OCCOC(=O)c1ccc(-c2c3nc(c(-c4cc(S(=O)(=O)[O-])ccc4F)c4ccc([nH]4)c(-c4cc(S(=O)(=O)[O-])ccc4F)c4nc(c(-c5cc(S(=O)(=O)[O-])ccc5F)c5ccc2[nH]5)C=C4)C=C3)cc1)[C@@H](C)Nc1ccccc1Oc1ccccc1
REMARK SMILES IDX 6 1 5 2 3 3 4 4 2 5 1 6 74 7 75 8 76 9 77 11 78 12 82 13
REMARK SMILES IDX 79 14 81 15 80 16 83 17 84 18 85 19 89 20 86 21 88 22 87 23
REMARK SMILES IDX 7 24 8 25 9 26 10 27 11 28 12 29 73 30 13 31 72 32 14 33
REMARK SMILES IDX 15 34 16 35 66 36 17 37 71 38 65 39 67 40 18 41 70 42 64 43
REMARK SMILES IDX 63 44 19 46 51 47 31 48 50 49 32 50 35 51 49 52 68 53 33 54
REMARK SMILES IDX 34 55 48 57 69 58 36 59 20 60 21 61 29 62 22 63 28 64 30 65
REMARK SMILES IDX 27 66 23 67 24 68 25 69 26 70 52 71 53 72 61 73 54 74 60 75
REMARK SMILES IDX 62 76 59 77 55 78 56 79 57 80 58 81 37 82 38 83 46 84 39 85
REMARK SMILES IDX 45 86 47 87 44 88 40 89 41 90 42 91 43 92
REMARK H PARENT 76 10 67 45 35 56
REMARK Flexibility Score: inf
ROOT
ATOM      1  C   UNL A   1      35.069  21.784  26.528  1.00  0.00     0.274 C 
ENDROOT
BRANCH   1   2
ATOM      2  O   UNL A   1      33.645  21.748  26.292  1.00  0.00    -0.462 OA
BRANCH   2   3
ATOM      3  C   UNL A   1      32.849  22.437  27.156  1.00  0.00     0.310 C 
ATOM      4  O   UNL A   1      32.872  22.310  28.374  1.00  0.00    -0.252 OA
BRANCH   3   5
ATOM      5  C   UNL A   1      31.900  23.385  26.438  1.00  0.00     0.118 C 
ATOM      6  C   UNL A   1      30.448  23.022  26.726  1.00  0.00     0.022 C 
BRANCH   5   7
ATOM      7  C   UNL A   1      32.250  24.837  26.805  1.00  0.00     0.090 C 
ATOM      8  C   UNL A   1      33.521  25.265  26.055  1.00  0.00     0.031 C 
BRANCH   7   9
ATOM      9  N   UNL A   1      31.191  25.748  26.403  1.00  0.00    -0.379 N 
ATOM     10  H   UNL A   1      30.287  25.360  26.389  1.00  0.00     0.160 HD
BRANCH   9  11
ATOM     11  C   UNL A   1      31.264  27.083  26.037  1.00  0.00     0.078 A 
ATOM     12  C   UNL A   1      31.688  27.938  27.090  1.00  0.00     0.029 A 
ATOM     13  C   UNL A   1      31.060  27.697  24.785  1.00  0.00     0.150 A 
ATOM     14  C   UNL A   1      31.888  29.312  26.935  1.00  0.00     0.002 A 
ATOM     15  C   UNL A   1      31.226  29.097  24.650  1.00  0.00     0.049 A 
ATOM     16  C   UNL A   1      31.634  29.900  25.712  1.00  0.00     0.004 A 
BRANCH  13  17
ATOM     17  O   UNL A   1      30.913  27.123  23.543  1.00  0.00    -0.455 OA
BRANCH  17  18
ATOM     18  C   UNL A   1      31.250  25.837  23.232  1.00  0.00     0.127 A 
ATOM     19  C   UNL A   1      32.572  25.707  22.779  1.00  0.00     0.047 A 
ATOM     20  C   UNL A   1      30.442  24.712  23.338  1.00  0.00     0.047 A 
ATOM     21  C   UNL A   1      33.122  24.452  22.531  1.00  0.00     0.004 A 
ATOM     22  C   UNL A   1      30.993  23.449  23.076  1.00  0.00     0.004 A 
ATOM     23  C   UNL A   1      32.334  23.319  22.697  1.00  0.00     0.000 A 
ENDBRANCH  17  18
ENDBRANCH  13  17
ENDBRANCH   9  11
ENDBRANCH   7   9
ENDBRANCH   5   7
ENDBRANCH   3   5
ENDBRANCH   2   3
ENDBRANCH   1   2
BRANCH   1  24
ATOM     24  C   UNL A   1      35.787  21.073  25.385  1.00  0.00     0.275 C 
BRANCH  24  25
ATOM     25  O   UNL A   1      36.975  21.829  25.107  1.00  0.00    -0.458 OA
BRANCH  25  26
ATOM     26  C   UNL A   1      38.135  21.326  25.580  1.00  0.00     0.338 C 
ATOM     27  O   UNL A   1      38.546  20.180  25.478  1.00  0.00    -0.246 OA
BRANCH  26  28
ATOM     28  C   UNL A   1      38.883  22.435  26.193  1.00  0.00     0.060 A 
ATOM     29  C   UNL A   1      38.424  23.739  26.002  1.00  0.00     0.016 A 
ATOM     30  C   UNL A   1      40.072  22.207  26.880  1.00  0.00     0.016 A 
ATOM     31  C   UNL A   1      39.191  24.822  26.412  1.00  0.00     0.010 A 
ATOM     32  C   UNL A   1      40.783  23.299  27.394  1.00  0.00     0.010 A 
ATOM     33  C   UNL A   1      40.367  24.621  27.140  1.00  0.00    -0.014 A 
BRANCH  33  34
ATOM     34  C   UNL A   1      41.186  25.783  27.587  1.00  0.00     0.031 A 
ATOM     35  C   UNL A   1      40.577  26.808  28.507  1.00  0.00     0.074 A 
ATOM     36  C   UNL A   1      42.469  25.920  27.194  1.00  0.00     0.049 A 
ATOM     37  N   UNL A   1      40.991  28.013  28.798  1.00  0.00    -0.248 NA
ATOM     38  C   UNL A   1      39.317  26.429  29.164  1.00  0.00     0.031 C 
ATOM     39  C   UNL A   1      43.213  24.963  26.371  1.00  0.00     0.029 A 
ATOM     40  N   UNL A   1      43.381  26.917  27.440  1.00  0.00    -0.354 N 
ATOM     41  C   UNL A   1      40.007  28.566  29.613  1.00  0.00     0.074 A 
ATOM     42  C   UNL A   1      38.978  27.559  29.768  1.00  0.00     0.031 C 
ATOM     43  C   UNL A   1      44.472  25.399  26.214  1.00  0.00     0.029 A 
ATOM     44  C   UNL A   1      44.595  26.718  26.822  1.00  0.00     0.049 A 
ATOM     45  H   UNL A   1      43.185  27.700  28.003  1.00  0.00     0.167 HD
ATOM     46  C   UNL A   1      39.966  29.805  30.162  1.00  0.00     0.034 A 
ATOM     47  C   UNL A   1      45.665  27.528  26.699  1.00  0.00     0.034 A 
ATOM     48  C   UNL A   1      41.032  30.771  30.031  1.00  0.00     0.049 A 
ATOM     49  C   UNL A   1      45.591  28.909  27.294  1.00  0.00     0.074 A 
ATOM     50  C   UNL A   1      41.097  32.063  30.520  1.00  0.00     0.029 A 
ATOM     51  N   UNL A   1      42.236  30.534  29.376  1.00  0.00    -0.354 N 
ATOM     52  N   UNL A   1      44.603  29.471  27.951  1.00  0.00    -0.248 NA
ATOM     53  C   UNL A   1      46.766  29.770  27.113  1.00  0.00     0.031 C 
ATOM     54  C   UNL A   1      42.319  32.622  30.124  1.00  0.00     0.029 A 
ATOM     55  C   UNL A   1      43.043  31.659  29.441  1.00  0.00     0.049 A 
ATOM     56  H   UNL A   1      42.479  29.691  28.931  1.00  0.00     0.167 HD
ATOM     57  C   UNL A   1      45.037  30.755  28.258  1.00  0.00     0.074 A 
ATOM     58  C   UNL A   1      46.387  30.872  27.743  1.00  0.00     0.031 C 
ATOM     59  C   UNL A   1      44.379  31.754  28.900  1.00  0.00     0.034 A 
BRANCH  46  60
ATOM     60  C   UNL A   1      38.697  30.203  30.879  1.00  0.00     0.023 A 
ATOM     61  C   UNL A   1      37.656  30.896  30.238  1.00  0.00     0.031 A 
ATOM     62  C   UNL A   1      38.554  29.925  32.251  1.00  0.00     0.131 A 
ATOM     63  C   UNL A   1      36.556  31.352  30.982  1.00  0.00     0.055 A 
ATOM     64  C   UNL A   1      37.420  30.314  32.970  1.00  0.00     0.041 A 
ATOM     65  F   UNL A   1      39.524  29.286  32.925  1.00  0.00    -0.206 F 
ATOM     66  C   UNL A   1      36.421  31.046  32.338  1.00  0.00     0.022 A 
BRANCH  63  67
ATOM     67  S   UNL A   1      35.373  32.475  30.188  1.00  0.00     0.124 S 
ATOM     68  O   UNL A   1      34.280  32.485  31.157  1.00  0.00    -0.237 OA
ATOM     69  O   UNL A   1      36.138  33.712  30.076  1.00  0.00    -0.237 OA
ATOM     70  O   UNL A   1      35.068  31.814  28.921  1.00  0.00    -0.744 OA
ENDBRANCH  63  67
ENDBRANCH  46  60
BRANCH  47  71
ATOM     71  C   UNL A   1      46.850  27.096  25.902  1.00  0.00     0.023 A 
ATOM     72  C   UNL A   1      47.082  27.594  24.611  1.00  0.00     0.031 A 
ATOM     73  C   UNL A   1      47.764  26.160  26.423  1.00  0.00     0.131 A 
ATOM     74  C   UNL A   1      48.186  27.135  23.874  1.00  0.00     0.055 A 
ATOM     75  C   UNL A   1      48.888  25.748  25.707  1.00  0.00     0.041 A 
ATOM     76  F   UNL A   1      47.588  25.650  27.653  1.00  0.00    -0.206 F 
ATOM     77  C   UNL A   1      49.100  26.229  24.420  1.00  0.00     0.022 A 
BRANCH  74  78
ATOM     78  S   UNL A   1      48.381  27.691  22.158  1.00  0.00     0.124 S 
ATOM     79  O   UNL A   1      47.157  28.456  21.951  1.00  0.00    -0.237 OA
ATOM     80  O   UNL A   1      49.617  28.463  22.228  1.00  0.00    -0.237 OA
ATOM     81  O   UNL A   1      48.471  26.442  21.404  1.00  0.00    -0.744 OA
ENDBRANCH  74  78
ENDBRANCH  47  71
BRANCH  59  82
ATOM     82  C   UNL A   1      45.138  33.040  29.096  1.00  0.00     0.023 A 
ATOM     83  C   UNL A   1      45.072  34.081  28.154  1.00  0.00     0.031 A 
ATOM     84  C   UNL A   1      45.960  33.211  30.222  1.00  0.00     0.131 A 
ATOM     85  C   UNL A   1      45.859  35.228  28.328  1.00  0.00     0.055 A 
ATOM     86  C   UNL A   1      46.703  34.375  30.415  1.00  0.00     0.041 A 
ATOM     87  F   UNL A   1      46.058  32.244  31.149  1.00  0.00    -0.206 F 
ATOM     88  C   UNL A   1      46.665  35.387  29.458  1.00  0.00     0.022 A 
BRANCH  85  89
ATOM     89  S   UNL A   1      45.881  36.477  27.013  1.00  0.00     0.124 S 
ATOM     90  O   UNL A   1      46.792  37.478  27.560  1.00  0.00    -0.237 OA
ATOM     91  O   UNL A   1      46.379  35.720  25.869  1.00  0.00    -0.237 OA
ATOM     92  O   UNL A   1      44.485  36.898  26.915  1.00  0.00    -0.744 OA
ENDBRANCH  85  89
ENDBRANCH  59  82
ENDBRANCH  33  34
ENDBRANCH  26  28
ENDBRANCH  25  26
ENDBRANCH  24  25
ENDBRANCH   1  24
TORSDOF 19
ENDMDL
MODEL 3
REMARK VINA RESULT:     -11.7      5.015      9.893
REMARK SMILES C[C@H](C(=O)OCCOC(=O)c1ccc(-c2c3nc(c(-c4cc(S(=O)(=O)[O-])ccc4F)c4ccc([nH]4)c(-c4cc(S(=O)(=O)[O-])ccc4F)c4nc(c(-c5cc(S(=O)(=O)[O-])ccc5F)c5ccc2[nH]5)C=C4)C=C3)cc1)[C@@H](C)Nc1ccccc1Oc1ccccc1
REMARK SMILES IDX 6 1 5 2 3 3 4 4 2 5 1 6 74 7 75 8 76 9 77 11 78 12 82 13
REMARK SMILES IDX 79 14 81 15 80 16 83 17 84 18 85 19 89 20 86 21 88 22 87 23
REMARK SMILES IDX 7 24 8 25 9 26 10 27 11 28 12 29 73 30 13 31 72 32 14 33
REMARK SMILES IDX 15 34 16 35 66 36 17 37 71 38 65 39 67 40 18 41 70 42 64 43
REMARK SMILES IDX 63 44 19 46 51 47 31 48 50 49 32 50 35 51 49 52 68 53 33 54
REMARK SMILES IDX 34 55 48 57 69 58 36 59 20 60 21 61 29 62 22 63 28 64 30 65
REMARK SMILES IDX 27 66 23 67 24 68 25 69 26 70 52 71 53 72 61 73 54 74 60 75
REMARK SMILES IDX 62 76 59 77 55 78 56 79 57 80 58 81 37 82 38 83 46 84 39 85
REMARK SMILES IDX 45 86 47 87 44 88 40 89 41 90 42 91 43 92
REMARK H PARENT 76 10 67 45 35 56
REMARK Flexibility Score: inf
ROOT
ATOM      1  C   UNL A   1      31.317  29.169  25.035  1.00  0.00     0.274 C 
ENDROOT
BRANCH   1   2
ATOM      2  O   UNL A   1      31.444  27.731  25.018  1.00  0.00    -0.462 OA
BRANCH   2   3
ATOM      3  C   UNL A   1      30.856  27.037  26.031  1.00  0.00     0.310 C 
ATOM      4  O   UNL A   1      30.999  27.289  27.221  1.00  0.00    -0.252 OA
BRANCH   3   5
ATOM      5  C   UNL A   1      30.001  25.884  25.523  1.00  0.00     0.118 C 
ATOM      6  C   UNL A   1      29.696  26.048  24.038  1.00  0.00     0.022 C 
BRANCH   5   7
ATOM      7  C   UNL A   1      30.684  24.550  25.862  1.00  0.00     0.090 C 
ATOM      8  C   UNL A   1      30.798  23.693  24.592  1.00  0.00     0.031 C 
BRANCH   7   9
ATOM      9  N   UNL A   1      32.035  24.764  26.355  1.00  0.00    -0.379 N 
ATOM     10  H   UNL A   1      32.234  25.682  26.646  1.00  0.00     0.160 HD
BRANCH   9  11
ATOM     11  C   UNL A   1      33.085  23.868  26.475  1.00  0.00     0.078 A 
ATOM     12  C   UNL A   1      32.781  22.743  27.288  1.00  0.00     0.029 A 
ATOM     13  C   UNL A   1      34.355  23.865  25.865  1.00  0.00     0.150 A 
ATOM     14  C   UNL A   1      33.667  21.684  27.503  1.00  0.00     0.002 A 
ATOM     15  C   UNL A   1      35.261  22.807  26.124  1.00  0.00     0.049 A 
ATOM     16  C   UNL A   1      34.925  21.727  26.935  1.00  0.00     0.004 A 
BRANCH  13  17
ATOM     17  O   UNL A   1      34.835  24.649  24.841  1.00  0.00    -0.455 OA
BRANCH  17  18
ATOM     18  C   UNL A   1      34.168  24.912  23.679  1.00  0.00     0.127 A 
ATOM     19  C   UNL A   1      33.967  23.769  22.888  1.00  0.00     0.047 A 
ATOM     20  C   UNL A   1      33.685  26.142  23.251  1.00  0.00     0.047 A 
ATOM     21  C   UNL A   1      33.201  23.831  21.727  1.00  0.00     0.004 A 
ATOM     22  C   UNL A   1      32.923  26.205  22.075  1.00  0.00     0.004 A 
ATOM     23  C   UNL A   1      32.663  25.049  21.330  1.00  0.00     0.000 A 
ENDBRANCH  17  18
ENDBRANCH  13  17
ENDBRANCH   9  11
ENDBRANCH   7   9
ENDBRANCH   5   7
ENDBRANCH   3   5
ENDBRANCH   2   3
ENDBRANCH   1   2
BRANCH   1  24
ATOM     24  C   UNL A   1      32.666  29.790  25.386  1.00  0.00     0.275 C 
BRANCH  24  25
ATOM     25  O   UNL A   1      32.616  30.131  26.779  1.00  0.00    -0.458 OA
BRANCH  25  26
ATOM     26  C   UNL A   1      33.121  31.334  27.124  1.00  0.00     0.338 C 
ATOM     27  O   UNL A   1      32.576  32.424  27.035  1.00  0.00    -0.246 OA
BRANCH  26  28
ATOM     28  C   UNL A   1      34.449  31.105  27.715  1.00  0.00     0.060 A 
ATOM     29  C   UNL A   1      34.771  29.823  28.162  1.00  0.00     0.016 A 
ATOM     30  C   UNL A   1      35.341  32.156  27.908  1.00  0.00     0.016 A 
ATOM     31  C   UNL A   1      35.939  29.601  28.881  1.00  0.00     0.010 A 
ATOM     32  C   UNL A   1      36.570  31.902  28.530  1.00  0.00     0.010 A 
ATOM     33  C   UNL A   1      36.872  30.628  29.052  1.00  0.00    -0.014 A 
BRANCH  33  34
ATOM     34  C   UNL A   1      38.128  30.388  29.815  1.00  0.00     0.031 A 
ATOM     35  C   UNL A   1      39.204  29.520  29.218  1.00  0.00     0.074 A 
ATOM     36  C   UNL A   1      38.322  30.951  31.026  1.00  0.00     0.049 A 
ATOM     37  N   UNL A   1      40.234  28.959  29.795  1.00  0.00    -0.248 NA
ATOM     38  C   UNL A   1      39.084  29.227  27.782  1.00  0.00     0.031 C 
ATOM     39  C   UNL A   1      37.402  31.878  31.691  1.00  0.00     0.029 A 
ATOM     40  N   UNL A   1      39.363  30.833  31.914  1.00  0.00    -0.354 N 
ATOM     41  C   UNL A   1      40.843  28.185  28.812  1.00  0.00     0.074 A 
ATOM     42  C   UNL A   1      40.065  28.355  27.602  1.00  0.00     0.031 C 
ATOM     43  C   UNL A   1      37.935  32.271  32.857  1.00  0.00     0.029 A 
ATOM     44  C   UNL A   1      39.176  31.539  33.081  1.00  0.00     0.049 A 
ATOM     45  H   UNL A   1      40.166  30.293  31.734  1.00  0.00     0.167 HD
ATOM     46  C   UNL A   1      41.942  27.396  28.921  1.00  0.00     0.034 A 
ATOM     47  C   UNL A   1      39.882  31.550  34.228  1.00  0.00     0.034 A 
ATOM     48  C   UNL A   1      42.727  27.287  30.128  1.00  0.00     0.049 A 
ATOM     49  C   UNL A   1      41.083  30.650  34.338  1.00  0.00     0.074 A 
ATOM     50  C   UNL A   1      43.843  26.506  30.369  1.00  0.00     0.029 A 
ATOM     51  N   UNL A   1      42.488  28.005  31.294  1.00  0.00    -0.354 N 
ATOM     52  N   UNL A   1      41.577  29.821  33.447  1.00  0.00    -0.248 NA
ATOM     53  C   UNL A   1      41.808  30.669  35.615  1.00  0.00     0.031 C 
ATOM     54  C   UNL A   1      44.251  26.717  31.692  1.00  0.00     0.029 A 
ATOM     55  C   UNL A   1      43.428  27.676  32.258  1.00  0.00     0.049 A 
ATOM     56  H   UNL A   1      41.756  28.651  31.418  1.00  0.00     0.167 HD
ATOM     57  C   UNL A   1      42.670  29.217  34.058  1.00  0.00     0.074 A 
ATOM     58  C   UNL A   1      42.781  29.800  35.381  1.00  0.00     0.031 C 
ATOM     59  C   UNL A   1      43.503  28.260  33.577  1.00  0.00     0.034 A 
BRANCH  46  60
ATOM     60  C   UNL A   1      42.297  26.537  27.731  1.00  0.00     0.023 A 
ATOM     61  C   UNL A   1      41.826  25.221  27.584  1.00  0.00     0.031 A 
ATOM     62  C   UNL A   1      43.173  27.035  26.747  1.00  0.00     0.131 A 
ATOM     63  C   UNL A   1      42.290  24.425  26.524  1.00  0.00     0.055 A 
ATOM     64  C   UNL A   1      43.570  26.263  25.652  1.00  0.00     0.041 A 
ATOM     65  F   UNL A   1      43.675  28.276  26.843  1.00  0.00    -0.206 F 
ATOM     66  C   UNL A   1      43.141  24.944  25.545  1.00  0.00     0.022 A 
BRANCH  63  67
ATOM     67  S   UNL A   1      41.883  22.657  26.520  1.00  0.00     0.124 S 
ATOM     68  O   UNL A   1      40.426  22.690  26.625  1.00  0.00    -0.237 OA
ATOM     69  O   UNL A   1      42.421  22.212  25.239  1.00  0.00    -0.237 OA
ATOM     70  O   UNL A   1      42.575  22.142  27.700  1.00  0.00    -0.744 OA
ENDBRANCH  63  67
ENDBRANCH  46  60
BRANCH  47  71
ATOM     71  C   UNL A   1      39.419  32.361  35.391  1.00  0.00     0.023 A 
ATOM     72  C   UNL A   1      39.841  33.687  35.571  1.00  0.00     0.031 A 
ATOM     73  C   UNL A   1      38.552  31.808  36.353  1.00  0.00     0.131 A 
ATOM     74  C   UNL A   1      39.415  34.408  36.699  1.00  0.00     0.055 A 
ATOM     75  C   UNL A   1      38.091  32.546  37.443  1.00  0.00     0.041 A 
ATOM     76  F   UNL A   1      38.119  30.542  36.231  1.00  0.00    -0.206 F 
ATOM     77  C   UNL A   1      38.529  33.852  37.626  1.00  0.00     0.022 A 
BRANCH  74  78
ATOM     78  S   UNL A   1      40.088  36.070  36.976  1.00  0.00     0.124 S 
ATOM     79  O   UNL A   1      39.287  36.532  38.104  1.00  0.00    -0.237 OA
ATOM     80  O   UNL A   1      41.491  35.786  37.259  1.00  0.00    -0.237 OA
ATOM     81  O   UNL A   1      39.836  36.755  35.710  1.00  0.00    -0.744 OA
ENDBRANCH  74  78
ENDBRANCH  47  71
BRANCH  59  82
ATOM     82  C   UNL A   1      44.618  27.819  34.489  1.00  0.00     0.023 A 
ATOM     83  C   UNL A   1      44.379  26.961  35.576  1.00  0.00     0.031 A 
ATOM     84  C   UNL A   1      45.925  28.292  34.287  1.00  0.00     0.131 A 
ATOM     85  C   UNL A   1      45.425  26.641  36.453  1.00  0.00     0.055 A 
ATOM     86  C   UNL A   1      46.973  27.931  35.134  1.00  0.00     0.041 A 
ATOM     87  F   UNL A   1      46.202  29.117  33.264  1.00  0.00    -0.206 F 
ATOM     88  C   UNL A   1      46.723  27.111  36.232  1.00  0.00     0.022 A 
BRANCH  85  89
ATOM     89  S   UNL A   1      45.052  25.670  37.938  1.00  0.00     0.124 S 
ATOM     90  O   UNL A   1      43.941  26.417  38.518  1.00  0.00    -0.237 OA
ATOM     91  O   UNL A   1      44.719  24.362  37.382  1.00  0.00    -0.237 OA
ATOM     92  O   UNL A   1      46.297  25.718  38.702  1.00  0.00    -0.744 OA
ENDBRANCH  85  89
ENDBRANCH  59  82
ENDBRANCH  33  34
ENDBRANCH  26  28
ENDBRANCH  25  26
ENDBRANCH  24  25
ENDBRANCH   1  24
TORSDOF 19
ENDMDL
