MODEL 1
REMARK VINA RESULT:     -12.5      0.000      0.000
REMARK SMILES O=C(OCCOC(=O)[C@H]1[C@@H](C(=O)NNC(=O)c2ccccc2Cl)[C@H]2C=C[C@@H]1C2)c1ccc(-c2c3nc(c(-c4cc(S(=O)(=O)[O-])ccc4F)c4ccc([nH]4)c(-c4cc(S(=O)(=O)[O-])ccc4F)c4nc(c(-c5cc(S(=O)(=O)[O-])ccc5F)c5ccc2[nH]5)C=C4)C=C3)cc1
REMARK SMILES IDX 4 1 3 2 2 3 1 4 29 5 30 6 91 7 31 8 90 9 32 10 33 11 34 12
REMARK SMILES IDX 84 13 35 14 89 15 83 16 85 17 36 18 88 19 82 20 81 21 37 23
REMARK SMILES IDX 69 24 49 25 68 26 50 27 53 28 67 29 86 30 51 31 52 32 66 34
REMARK SMILES IDX 87 35 54 36 38 37 39 38 47 39 40 40 46 41 48 42 45 43 41 44
REMARK SMILES IDX 42 45 43 46 44 47 70 48 71 49 79 50 72 51 78 52 80 53 77 54
REMARK SMILES IDX 73 55 74 56 75 57 76 58 55 59 56 60 64 61 57 62 63 63 65 64
REMARK SMILES IDX 62 65 58 66 59 67 60 68 61 69 5 70 6 71 7 72 8 73 9 74 10 75
REMARK SMILES IDX 27 76 24 77 26 78 28 79 25 80 11 81 12 82 13 83 14 85 15 86
REMARK SMILES IDX 16 88 17 89 18 90 22 91 19 92 21 93 23 94 20 95
REMARK H PARENT 85 22 53 33 13 84 14 87
REMARK Flexibility Score: inf
ROOT
ATOM      1  C   UNL A   1      31.391  32.182  26.880  1.00  0.00     0.275 C 
ENDROOT
BRANCH   1   2
ATOM      2  O   UNL A   1      32.237  33.349  26.963  1.00  0.00    -0.458 OA
BRANCH   2   3
ATOM      3  C   UNL A   1      32.989  33.856  27.969  1.00  0.00     0.338 C 
ATOM      4  O   UNL A   1      32.702  34.982  28.382  1.00  0.00    -0.246 OA
BRANCH   3   5
ATOM      5  C   UNL A   1      34.198  33.198  28.572  1.00  0.00     0.060 A 
ATOM      6  C   UNL A   1      34.193  32.225  29.570  1.00  0.00     0.016 A 
ATOM      7  C   UNL A   1      35.458  33.594  28.064  1.00  0.00     0.016 A 
ATOM      8  C   UNL A   1      35.381  31.611  29.990  1.00  0.00     0.010 A 
ATOM      9  C   UNL A   1      36.652  32.988  28.487  1.00  0.00     0.010 A 
ATOM     10  C   UNL A   1      36.616  31.979  29.452  1.00  0.00    -0.014 A 
BRANCH  10  11
ATOM     11  C   UNL A   1      37.844  31.398  30.050  1.00  0.00     0.031 A 
ATOM     12  C   UNL A   1      38.179  31.773  31.456  1.00  0.00     0.074 A 
ATOM     13  C   UNL A   1      38.559  30.455  29.407  1.00  0.00     0.049 A 
ATOM     14  N   UNL A   1      39.111  31.296  32.233  1.00  0.00    -0.248 NA
ATOM     15  C   UNL A   1      37.340  32.813  32.069  1.00  0.00     0.031 C 
ATOM     16  C   UNL A   1      38.279  30.006  28.054  1.00  0.00     0.029 A 
ATOM     17  N   UNL A   1      39.632  29.690  29.785  1.00  0.00    -0.354 N 
ATOM     18  C   UNL A   1      38.943  31.942  33.448  1.00  0.00     0.074 A 
ATOM     19  C   UNL A   1      37.860  32.888  33.283  1.00  0.00     0.031 C 
ATOM     20  C   UNL A   1      39.119  29.015  27.715  1.00  0.00     0.029 A 
ATOM     21  C   UNL A   1      40.049  28.797  28.817  1.00  0.00     0.049 A 
ATOM     22  H   UNL A   1      40.066  29.770  30.665  1.00  0.00     0.167 HD
ATOM     23  C   UNL A   1      39.624  31.747  34.601  1.00  0.00     0.034 A 
ATOM     24  C   UNL A   1      41.079  27.923  28.820  1.00  0.00     0.034 A 
ATOM     25  C   UNL A   1      40.749  30.857  34.716  1.00  0.00     0.049 A 
ATOM     26  C   UNL A   1      41.915  27.837  30.076  1.00  0.00     0.074 A 
ATOM     27  C   UNL A   1      41.582  30.653  35.800  1.00  0.00     0.029 A 
ATOM     28  N   UNL A   1      41.211  30.030  33.696  1.00  0.00    -0.354 N 
ATOM     29  N   UNL A   1      41.752  28.467  31.219  1.00  0.00    -0.248 NA
ATOM     30  C   UNL A   1      43.066  26.928  30.051  1.00  0.00     0.031 C 
ATOM     31  C   UNL A   1      42.584  29.755  35.416  1.00  0.00     0.029 A 
ATOM     32  C   UNL A   1      42.334  29.337  34.118  1.00  0.00     0.049 A 
ATOM     33  H   UNL A   1      40.801  29.950  32.805  1.00  0.00     0.167 HD
ATOM     34  C   UNL A   1      42.764  28.008  32.055  1.00  0.00     0.074 A 
ATOM     35  C   UNL A   1      43.510  27.025  31.295  1.00  0.00     0.031 C 
ATOM     36  C   UNL A   1      43.062  28.367  33.331  1.00  0.00     0.034 A 
BRANCH  23  37
ATOM     37  C   UNL A   1      39.189  32.577  35.777  1.00  0.00     0.023 A 
ATOM     38  C   UNL A   1      39.600  33.915  35.915  1.00  0.00     0.031 A 
ATOM     39  C   UNL A   1      38.443  32.001  36.817  1.00  0.00     0.131 A 
ATOM     40  C   UNL A   1      39.326  34.610  37.102  1.00  0.00     0.055 A 
ATOM     41  C   UNL A   1      38.106  32.723  37.962  1.00  0.00     0.041 A 
ATOM     42  F   UNL A   1      38.059  30.716  36.752  1.00  0.00    -0.206 F 
ATOM     43  C   UNL A   1      38.560  34.030  38.117  1.00  0.00     0.022 A 
BRANCH  40  44
ATOM     44  S   UNL A   1      40.106  36.226  37.362  1.00  0.00     0.124 S 
ATOM     45  O   UNL A   1      39.257  36.798  38.405  1.00  0.00    -0.237 OA
ATOM     46  O   UNL A   1      41.459  35.864  37.769  1.00  0.00    -0.237 OA
ATOM     47  O   UNL A   1      39.999  36.871  36.056  1.00  0.00    -0.744 OA
ENDBRANCH  40  44
ENDBRANCH  23  37
BRANCH  24  48
ATOM     48  C   UNL A   1      41.434  27.118  27.608  1.00  0.00     0.023 A 
ATOM     49  C   UNL A   1      41.221  25.729  27.552  1.00  0.00     0.031 A 
ATOM     50  C   UNL A   1      42.105  27.713  26.522  1.00  0.00     0.131 A 
ATOM     51  C   UNL A   1      41.733  24.977  26.478  1.00  0.00     0.055 A 
ATOM     52  C   UNL A   1      42.554  26.972  25.424  1.00  0.00     0.041 A 
ATOM     53  F   UNL A   1      42.349  29.033  26.513  1.00  0.00    -0.206 F 
ATOM     54  C   UNL A   1      42.387  25.592  25.409  1.00  0.00     0.022 A 
BRANCH  51  55
ATOM     55  S   UNL A   1      41.659  23.164  26.563  1.00  0.00     0.124 S 
ATOM     56  O   UNL A   1      40.220  22.925  26.574  1.00  0.00    -0.237 OA
ATOM     57  O   UNL A   1      42.365  22.775  25.347  1.00  0.00    -0.237 OA
ATOM     58  O   UNL A   1      42.352  22.853  27.812  1.00  0.00    -0.744 OA
ENDBRANCH  51  55
ENDBRANCH  24  48
BRANCH  36  59
ATOM     59  C   UNL A   1      44.224  27.657  33.978  1.00  0.00     0.023 A 
ATOM     60  C   UNL A   1      44.057  26.439  34.658  1.00  0.00     0.031 A 
ATOM     61  C   UNL A   1      45.512  28.221  33.934  1.00  0.00     0.131 A 
ATOM     62  C   UNL A   1      45.142  25.861  35.332  1.00  0.00     0.055 A 
ATOM     63  C   UNL A   1      46.603  27.604  34.545  1.00  0.00     0.041 A 
ATOM     64  F   UNL A   1      45.728  29.384  33.299  1.00  0.00    -0.206 F 
ATOM     65  C   UNL A   1      46.418  26.425  35.263  1.00  0.00     0.022 A 
BRANCH  62  66
ATOM     66  S   UNL A   1      44.839  24.423  36.393  1.00  0.00     0.124 S 
ATOM     67  O   UNL A   1      46.181  23.867  36.539  1.00  0.00    -0.237 OA
ATOM     68  O   UNL A   1      44.269  25.033  37.589  1.00  0.00    -0.237 OA
ATOM     69  O   UNL A   1      43.911  23.609  35.611  1.00  0.00    -0.744 OA
ENDBRANCH  62  66
ENDBRANCH  36  59
ENDBRANCH  10  11
ENDBRANCH   3   5
ENDBRANCH   2   3
ENDBRANCH   1   2
BRANCH   1  70
ATOM     70  C   UNL A   1      32.166  30.871  26.926  1.00  0.00     0.274 C 
BRANCH  70  71
ATOM     71  O   UNL A   1      32.087  30.201  25.664  1.00  0.00    -0.462 OA
BRANCH  71  72
ATOM     72  C   UNL A   1      32.823  29.065  25.527  1.00  0.00     0.310 C 
ATOM     73  O   UNL A   1      34.029  29.044  25.318  1.00  0.00    -0.252 OA
BRANCH  72  74
ATOM     74  C   UNL A   1      31.921  27.859  25.709  1.00  0.00     0.119 C 
ATOM     75  C   UNL A   1      31.276  27.262  24.435  1.00  0.00     0.102 C 
ATOM     76  C   UNL A   1      32.626  26.639  26.361  1.00  0.00     0.027 C 
ATOM     77  C   UNL A   1      31.772  25.794  24.472  1.00  0.00     0.025 C 
ATOM     78  C   UNL A   1      33.786  26.200  25.502  1.00  0.00    -0.027 C 
ATOM     79  C   UNL A   1      31.653  25.515  25.984  1.00  0.00     0.017 C 
ATOM     80  C   UNL A   1      33.273  25.724  24.360  1.00  0.00    -0.027 C 
BRANCH  75  81
ATOM     81  C   UNL A   1      31.440  28.044  23.149  1.00  0.00     0.242 C 
ATOM     82  O   UNL A   1      32.537  28.257  22.637  1.00  0.00    -0.273 OA
ATOM     83  N   UNL A   1      30.299  28.475  22.501  1.00  0.00    -0.267 N 
ATOM     84  H   UNL A   1      30.424  29.019  21.690  1.00  0.00     0.191 HD
BRANCH  83  85
ATOM     85  N   UNL A   1      28.981  28.211  22.891  1.00  0.00    -0.263 N 
ATOM     86  C   UNL A   1      27.925  29.099  22.813  1.00  0.00     0.271 C 
ATOM     87  H   UNL A   1      28.790  27.315  23.251  1.00  0.00     0.191 HD
ATOM     88  O   UNL A   1      26.864  28.853  23.385  1.00  0.00    -0.267 OA
BRANCH  86  89
ATOM     89  C   UNL A   1      28.067  30.408  22.150  1.00  0.00     0.060 A 
ATOM     90  C   UNL A   1      27.751  30.452  20.781  1.00  0.00     0.015 A 
ATOM     91  C   UNL A   1      28.545  31.559  22.781  1.00  0.00     0.053 A 
ATOM     92  C   UNL A   1      27.809  31.654  20.077  1.00  0.00     0.001 A 
ATOM     93  C   UNL A   1      28.591  32.765  22.074  1.00  0.00     0.021 A 
ATOM     94  Cl  UNL A   1      29.139  31.568  24.401  1.00  0.00    -0.083 Cl
ATOM     95  C   UNL A   1      28.209  32.815  20.733  1.00  0.00     0.002 A 
ENDBRANCH  86  89
ENDBRANCH  83  85
ENDBRANCH  75  81
ENDBRANCH  72  74
ENDBRANCH  71  72
ENDBRANCH  70  71
ENDBRANCH   1  70
TORSDOF 17
ENDMDL
MODEL 2
REMARK VINA RESULT:     -12.4      1.945      3.747
REMARK SMILES O=C(OCCOC(=O)[C@H]1[C@@H](C(=O)NNC(=O)c2ccccc2Cl)[C@H]2C=C[C@@H]1C2)c1ccc(-c2c3nc(c(-c4cc(S(=O)(=O)[O-])ccc4F)c4ccc([nH]4)c(-c4cc(S(=O)(=O)[O-])ccc4F)c4nc(c(-c5cc(S(=O)(=O)[O-])ccc5F)c5ccc2[nH]5)C=C4)C=C3)cc1
REMARK SMILES IDX 4 1 3 2 2 3 1 4 29 5 30 6 91 7 31 8 90 9 32 10 33 11 34 12
REMARK SMILES IDX 84 13 35 14 89 15 83 16 85 17 36 18 88 19 82 20 81 21 37 23
REMARK SMILES IDX 69 24 49 25 68 26 50 27 53 28 67 29 86 30 51 31 52 32 66 34
REMARK SMILES IDX 87 35 54 36 38 37 39 38 47 39 40 40 46 41 48 42 45 43 41 44
REMARK SMILES IDX 42 45 43 46 44 47 70 48 71 49 79 50 72 51 78 52 80 53 77 54
REMARK SMILES IDX 73 55 74 56 75 57 76 58 55 59 56 60 64 61 57 62 63 63 65 64
REMARK SMILES IDX 62 65 58 66 59 67 60 68 61 69 5 70 6 71 7 72 8 73 9 74 10 75
REMARK SMILES IDX 27 76 24 77 26 78 28 79 25 80 11 81 12 82 13 83 14 85 15 86
REMARK SMILES IDX 16 88 17 89 18 90 22 91 19 92 21 93 23 94 20 95
REMARK H PARENT 85 22 53 33 13 84 14 87
REMARK Flexibility Score: inf
ROOT
ATOM      1  C   UNL A   1      31.737  32.717  26.596  1.00  0.00     0.275 C 
ENDROOT
BRANCH   1   2
ATOM      2  O   UNL A   1      32.568  32.857  27.769  1.00  0.00    -0.458 OA
BRANCH   2   3
ATOM      3  C   UNL A   1      33.778  33.434  27.963  1.00  0.00     0.338 C 
ATOM      4  O   UNL A   1      33.915  34.604  27.602  1.00  0.00    -0.246 OA
BRANCH   3   5
ATOM      5  C   UNL A   1      34.997  32.742  28.506  1.00  0.00     0.060 A 
ATOM      6  C   UNL A   1      35.023  31.506  29.151  1.00  0.00     0.016 A 
ATOM      7  C   UNL A   1      36.235  33.403  28.330  1.00  0.00     0.016 A 
ATOM      8  C   UNL A   1      36.234  30.913  29.532  1.00  0.00     0.010 A 
ATOM      9  C   UNL A   1      37.451  32.817  28.718  1.00  0.00     0.010 A 
ATOM     10  C   UNL A   1      37.455  31.555  29.316  1.00  0.00    -0.014 A 
BRANCH  10  11
ATOM     11  C   UNL A   1      38.681  30.940  29.881  1.00  0.00     0.031 A 
ATOM     12  C   UNL A   1      39.087  31.336  31.263  1.00  0.00     0.074 A 
ATOM     13  C   UNL A   1      39.333  29.953  29.236  1.00  0.00     0.049 A 
ATOM     14  N   UNL A   1      40.030  30.841  32.015  1.00  0.00    -0.248 NA
ATOM     15  C   UNL A   1      38.314  32.424  31.880  1.00  0.00     0.031 C 
ATOM     16  C   UNL A   1      38.981  29.481  27.908  1.00  0.00     0.029 A 
ATOM     17  N   UNL A   1      40.388  29.155  29.593  1.00  0.00    -0.354 N 
ATOM     18  C   UNL A   1      39.935  31.524  33.219  1.00  0.00     0.074 A 
ATOM     19  C   UNL A   1      38.884  32.507  33.071  1.00  0.00     0.031 C 
ATOM     20  C   UNL A   1      39.767  28.450  27.563  1.00  0.00     0.029 A 
ATOM     21  C   UNL A   1      40.731  28.221  28.634  1.00  0.00     0.049 A 
ATOM     22  H   UNL A   1      40.860  29.238  30.453  1.00  0.00     0.167 HD
ATOM     23  C   UNL A   1      40.653  31.330  34.349  1.00  0.00     0.034 A 
ATOM     24  C   UNL A   1      41.725  27.307  28.620  1.00  0.00     0.034 A 
ATOM     25  C   UNL A   1      41.746  30.397  34.444  1.00  0.00     0.049 A 
ATOM     26  C   UNL A   1      42.606  27.218  29.845  1.00  0.00     0.074 A 
ATOM     27  C   UNL A   1      42.613  30.187  35.500  1.00  0.00     0.029 A 
ATOM     28  N   UNL A   1      42.134  29.527  33.430  1.00  0.00    -0.354 N 
ATOM     29  N   UNL A   1      42.513  27.883  30.976  1.00  0.00    -0.248 NA
ATOM     30  C   UNL A   1      43.718  26.263  29.799  1.00  0.00     0.031 C 
ATOM     31  C   UNL A   1      43.563  29.240  35.101  1.00  0.00     0.029 A 
ATOM     32  C   UNL A   1      43.244  28.800  33.826  1.00  0.00     0.049 A 
ATOM     33  H   UNL A   1      41.685  29.442  32.558  1.00  0.00     0.167 HD
ATOM     34  C   UNL A   1      43.539  27.404  31.784  1.00  0.00     0.074 A 
ATOM     35  C   UNL A   1      44.214  26.372  31.022  1.00  0.00     0.031 C 
ATOM     36  C   UNL A   1      43.901  27.782  33.037  1.00  0.00     0.034 A 
BRANCH  23  37
ATOM     37  C   UNL A   1      40.299  32.205  35.519  1.00  0.00     0.023 A 
ATOM     38  C   UNL A   1      39.293  31.832  36.429  1.00  0.00     0.031 A 
ATOM     39  C   UNL A   1      40.898  33.465  35.672  1.00  0.00     0.131 A 
ATOM     40  C   UNL A   1      38.865  32.742  37.406  1.00  0.00     0.055 A 
ATOM     41  C   UNL A   1      40.521  34.335  36.695  1.00  0.00     0.041 A 
ATOM     42  F   UNL A   1      41.836  33.885  34.808  1.00  0.00    -0.206 F 
ATOM     43  C   UNL A   1      39.488  33.982  37.561  1.00  0.00     0.022 A 
BRANCH  40  44
ATOM     44  S   UNL A   1      37.385  32.341  38.376  1.00  0.00     0.124 S 
ATOM     45  O   UNL A   1      37.302  30.894  38.202  1.00  0.00    -0.237 OA
ATOM     46  O   UNL A   1      37.746  32.803  39.712  1.00  0.00    -0.237 OA
ATOM     47  O   UNL A   1      36.328  33.104  37.717  1.00  0.00    -0.744 OA
ENDBRANCH  40  44
ENDBRANCH  23  37
BRANCH  24  48
ATOM     48  C   UNL A   1      41.999  26.457  27.416  1.00  0.00     0.023 A 
ATOM     49  C   UNL A   1      41.617  25.105  27.361  1.00  0.00     0.031 A 
ATOM     50  C   UNL A   1      42.757  26.960  26.341  1.00  0.00     0.131 A 
ATOM     51  C   UNL A   1      42.052  24.291  26.298  1.00  0.00     0.055 A 
ATOM     52  C   UNL A   1      43.130  26.163  25.254  1.00  0.00     0.041 A 
ATOM     53  F   UNL A   1      43.163  28.240  26.333  1.00  0.00    -0.206 F 
ATOM     54  C   UNL A   1      42.795  24.814  25.240  1.00  0.00     0.022 A 
BRANCH  51  55
ATOM     55  S   UNL A   1      41.752  22.501  26.387  1.00  0.00     0.124 S 
ATOM     56  O   UNL A   1      40.296  22.440  26.339  1.00  0.00    -0.237 OA
ATOM     57  O   UNL A   1      42.455  22.018  25.203  1.00  0.00    -0.237 OA
ATOM     58  O   UNL A   1      42.351  22.119  27.665  1.00  0.00    -0.744 OA
ENDBRANCH  51  55
ENDBRANCH  24  48
BRANCH  36  59
ATOM     59  C   UNL A   1      45.060  27.041  33.657  1.00  0.00     0.023 A 
ATOM     60  C   UNL A   1      44.862  25.919  34.479  1.00  0.00     0.031 A 
ATOM     61  C   UNL A   1      46.378  27.482  33.443  1.00  0.00     0.131 A 
ATOM     62  C   UNL A   1      45.955  25.319  35.117  1.00  0.00     0.055 A 
ATOM     63  C   UNL A   1      47.470  26.836  34.023  1.00  0.00     0.041 A 
ATOM     64  F   UNL A   1      46.625  28.551  32.669  1.00  0.00    -0.206 F 
ATOM     65  C   UNL A   1      47.260  25.758  34.879  1.00  0.00     0.022 A 
BRANCH  62  66
ATOM     66  S   UNL A   1      45.640  24.029  36.351  1.00  0.00     0.124 S 
ATOM     67  O   UNL A   1      45.609  22.824  35.527  1.00  0.00    -0.237 OA
ATOM     68  O   UNL A   1      46.788  24.162  37.241  1.00  0.00    -0.237 OA
ATOM     69  O   UNL A   1      44.357  24.417  36.933  1.00  0.00    -0.744 OA
ENDBRANCH  62  66
ENDBRANCH  36  59
ENDBRANCH  10  11
ENDBRANCH   3   5
ENDBRANCH   2   3
ENDBRANCH   1   2
BRANCH   1  70
ATOM     70  C   UNL A   1      31.418  31.267  26.254  1.00  0.00     0.274 C 
BRANCH  70  71
ATOM     71  O   UNL A   1      30.613  31.199  25.073  1.00  0.00    -0.462 OA
BRANCH  71  72
ATOM     72  C   UNL A   1      30.660  30.037  24.367  1.00  0.00     0.310 C 
ATOM     73  O   UNL A   1      31.042  28.966  24.822  1.00  0.00    -0.252 OA
BRANCH  72  74
ATOM     74  C   UNL A   1      30.136  30.283  22.965  1.00  0.00     0.119 C 
ATOM     75  C   UNL A   1      29.410  29.108  22.266  1.00  0.00     0.102 C 
ATOM     76  C   UNL A   1      29.111  31.445  22.872  1.00  0.00     0.027 C 
ATOM     77  C   UNL A   1      28.025  29.722  21.944  1.00  0.00     0.025 C 
ATOM     78  C   UNL A   1      27.918  31.145  23.745  1.00  0.00    -0.027 C 
ATOM     79  C   UNL A   1      28.458  31.140  21.518  1.00  0.00     0.017 C 
ATOM     80  C   UNL A   1      27.287  30.094  23.205  1.00  0.00    -0.027 C 
BRANCH  75  81
ATOM     81  C   UNL A   1      29.457  27.761  22.957  1.00  0.00     0.242 C 
ATOM     82  O   UNL A   1      28.512  27.313  23.603  1.00  0.00    -0.273 OA
ATOM     83  N   UNL A   1      30.589  26.987  22.794  1.00  0.00    -0.267 N 
ATOM     84  H   UNL A   1      30.621  26.134  23.284  1.00  0.00     0.191 HD
BRANCH  83  85
ATOM     85  N   UNL A   1      31.695  27.302  21.996  1.00  0.00    -0.263 N 
ATOM     86  C   UNL A   1      33.010  26.985  22.281  1.00  0.00     0.271 C 
ATOM     87  H   UNL A   1      31.521  27.792  21.161  1.00  0.00     0.191 HD
ATOM     88  O   UNL A   1      33.925  27.498  21.639  1.00  0.00    -0.267 OA
BRANCH  86  89
ATOM     89  C   UNL A   1      33.364  26.123  23.423  1.00  0.00     0.060 A 
ATOM     90  C   UNL A   1      33.741  26.779  24.607  1.00  0.00     0.015 A 
ATOM     91  C   UNL A   1      33.403  24.727  23.370  1.00  0.00     0.053 A 
ATOM     92  C   UNL A   1      34.049  26.050  25.756  1.00  0.00     0.001 A 
ATOM     93  C   UNL A   1      33.702  24.001  24.527  1.00  0.00     0.021 A 
ATOM     94  Cl  UNL A   1      33.147  23.832  21.917  1.00  0.00    -0.083 Cl
ATOM     95  C   UNL A   1      34.007  24.660  25.719  1.00  0.00     0.002 A 
ENDBRANCH  86  89
ENDBRANCH  83  85
ENDBRANCH  75  81
ENDBRANCH  72  74
ENDBRANCH  71  72
ENDBRANCH  70  71
ENDBRANCH   1  70
TORSDOF 17
ENDMDL
MODEL 3
REMARK VINA RESULT:     -12.3      1.954      3.840
REMARK SMILES O=C(OCCOC(=O)[C@H]1[C@@H](C(=O)NNC(=O)c2ccccc2Cl)[C@H]2C=C[C@@H]1C2)c1ccc(-c2c3nc(c(-c4cc(S(=O)(=O)[O-])ccc4F)c4ccc([nH]4)c(-c4cc(S(=O)(=O)[O-])ccc4F)c4nc(c(-c5cc(S(=O)(=O)[O-])ccc5F)c5ccc2[nH]5)C=C4)C=C3)cc1
REMARK SMILES IDX 4 1 3 2 2 3 1 4 29 5 30 6 91 7 31 8 90 9 32 10 33 11 34 12
REMARK SMILES IDX 84 13 35 14 89 15 83 16 85 17 36 18 88 19 82 20 81 21 37 23
REMARK SMILES IDX 69 24 49 25 68 26 50 27 53 28 67 29 86 30 51 31 52 32 66 34
REMARK SMILES IDX 87 35 54 36 38 37 39 38 47 39 40 40 46 41 48 42 45 43 41 44
REMARK SMILES IDX 42 45 43 46 44 47 70 48 71 49 79 50 72 51 78 52 80 53 77 54
REMARK SMILES IDX 73 55 74 56 75 57 76 58 55 59 56 60 64 61 57 62 63 63 65 64
REMARK SMILES IDX 62 65 58 66 59 67 60 68 61 69 5 70 6 71 7 72 8 73 9 74 10 75
REMARK SMILES IDX 27 76 24 77 26 78 28 79 25 80 11 81 12 82 13 83 14 85 15 86
REMARK SMILES IDX 16 88 17 89 18 90 22 91 19 92 21 93 23 94 20 95
REMARK H PARENT 85 22 53 33 13 84 14 87
REMARK Flexibility Score: inf
ROOT
ATOM      1  C   UNL A   1      31.318  31.941  26.509  1.00  0.00     0.275 C 
ENDROOT
BRANCH   1   2
ATOM      2  O   UNL A   1      32.340  32.957  26.606  1.00  0.00    -0.458 OA
BRANCH   2   3
ATOM      3  C   UNL A   1      33.040  33.445  27.658  1.00  0.00     0.338 C 
ATOM      4  O   UNL A   1      32.689  34.533  28.118  1.00  0.00    -0.246 OA
BRANCH   3   5
ATOM      5  C   UNL A   1      34.261  32.812  28.262  1.00  0.00     0.060 A 
ATOM      6  C   UNL A   1      34.312  31.584  28.920  1.00  0.00     0.016 A 
ATOM      7  C   UNL A   1      35.477  33.525  28.133  1.00  0.00     0.016 A 
ATOM      8  C   UNL A   1      35.529  31.048  29.361  1.00  0.00     0.010 A 
ATOM      9  C   UNL A   1      36.699  32.995  28.580  1.00  0.00     0.010 A 
ATOM     10  C   UNL A   1      36.730  31.740  29.191  1.00  0.00    -0.014 A 
BRANCH  10  11
ATOM     11  C   UNL A   1      37.956  31.184  29.817  1.00  0.00     0.031 A 
ATOM     12  C   UNL A   1      38.267  31.587  31.220  1.00  0.00     0.074 A 
ATOM     13  C   UNL A   1      38.690  30.238  29.200  1.00  0.00     0.049 A 
ATOM     14  N   UNL A   1      39.194  31.135  32.018  1.00  0.00    -0.248 NA
ATOM     15  C   UNL A   1      37.408  32.629  31.803  1.00  0.00     0.031 C 
ATOM     16  C   UNL A   1      38.433  29.760  27.853  1.00  0.00     0.029 A 
ATOM     17  N   UNL A   1      39.766  29.491  29.607  1.00  0.00    -0.354 N 
ATOM     18  C   UNL A   1      39.002  31.801  33.219  1.00  0.00     0.074 A 
ATOM     19  C   UNL A   1      37.910  32.731  33.023  1.00  0.00     0.031 C 
ATOM     20  C   UNL A   1      39.288  28.774  27.543  1.00  0.00     0.029 A 
ATOM     21  C   UNL A   1      40.206  28.586  28.661  1.00  0.00     0.049 A 
ATOM     22  H   UNL A   1      40.187  29.592  30.491  1.00  0.00     0.167 HD
ATOM     23  C   UNL A   1      39.668  31.634  34.384  1.00  0.00     0.034 A 
ATOM     24  C   UNL A   1      41.245  27.724  28.694  1.00  0.00     0.034 A 
ATOM     25  C   UNL A   1      40.801  30.759  34.531  1.00  0.00     0.049 A 
ATOM     26  C   UNL A   1      42.065  27.670  29.963  1.00  0.00     0.074 A 
ATOM     27  C   UNL A   1      41.622  30.584  35.629  1.00  0.00     0.029 A 
ATOM     28  N   UNL A   1      41.287  29.919  33.533  1.00  0.00    -0.354 N 
ATOM     29  N   UNL A   1      41.879  28.318  31.092  1.00  0.00    -0.248 NA
ATOM     30  C   UNL A   1      43.226  26.773  29.970  1.00  0.00     0.031 C 
ATOM     31  C   UNL A   1      42.639  29.691  35.275  1.00  0.00     0.029 A 
ATOM     32  C   UNL A   1      42.411  29.246  33.982  1.00  0.00     0.049 A 
ATOM     33  H   UNL A   1      40.890  29.818  32.638  1.00  0.00     0.167 HD
ATOM     34  C   UNL A   1      42.884  27.885  31.950  1.00  0.00     0.074 A 
ATOM     35  C   UNL A   1      43.651  26.897  31.218  1.00  0.00     0.031 C 
ATOM     36  C   UNL A   1      43.161  28.271  33.222  1.00  0.00     0.034 A 
BRANCH  23  37
ATOM     37  C   UNL A   1      39.209  32.480  35.540  1.00  0.00     0.023 A 
ATOM     38  C   UNL A   1      39.645  33.809  35.687  1.00  0.00     0.031 A 
ATOM     39  C   UNL A   1      38.410  31.927  36.552  1.00  0.00     0.131 A 
ATOM     40  C   UNL A   1      39.341  34.516  36.859  1.00  0.00     0.055 A 
ATOM     41  C   UNL A   1      38.046  32.663  37.681  1.00  0.00     0.041 A 
ATOM     42  F   UNL A   1      37.999  30.651  36.478  1.00  0.00    -0.206 F 
ATOM     43  C   UNL A   1      38.525  33.960  37.847  1.00  0.00     0.022 A 
BRANCH  40  44
ATOM     44  S   UNL A   1      40.149  36.115  37.142  1.00  0.00     0.124 S 
ATOM     45  O   UNL A   1      39.337  36.668  38.224  1.00  0.00    -0.237 OA
ATOM     46  O   UNL A   1      41.508  35.727  37.500  1.00  0.00    -0.237 OA
ATOM     47  O   UNL A   1      40.013  36.799  35.858  1.00  0.00    -0.744 OA
ENDBRANCH  40  44
ENDBRANCH  23  37
BRANCH  24  48
ATOM     48  C   UNL A   1      41.626  26.900  27.502  1.00  0.00     0.023 A 
ATOM     49  C   UNL A   1      41.318  25.531  27.418  1.00  0.00     0.031 A 
ATOM     50  C   UNL A   1      42.412  27.451  26.471  1.00  0.00     0.131 A 
ATOM     51  C   UNL A   1      41.850  24.749  26.374  1.00  0.00     0.055 A 
ATOM     52  C   UNL A   1      42.882  26.685  25.400  1.00  0.00     0.041 A 
ATOM     53  F   UNL A   1      42.749  28.750  26.492  1.00  0.00    -0.206 F 
ATOM     54  C   UNL A   1      42.619  25.320  25.359  1.00  0.00     0.022 A 
BRANCH  51  55
ATOM     55  S   UNL A   1      41.640  22.945  26.436  1.00  0.00     0.124 S 
ATOM     56  O   UNL A   1      42.335  22.523  25.226  1.00  0.00    -0.237 OA
ATOM     57  O   UNL A   1      42.288  22.610  27.700  1.00  0.00    -0.237 OA
ATOM     58  O   UNL A   1      40.189  22.771  26.416  1.00  0.00    -0.744 OA
ENDBRANCH  51  55
ENDBRANCH  24  48
BRANCH  36  59
ATOM     59  C   UNL A   1      44.322  27.585  33.898  1.00  0.00     0.023 A 
ATOM     60  C   UNL A   1      44.178  26.333  34.519  1.00  0.00     0.031 A 
ATOM     61  C   UNL A   1      45.582  28.207  33.943  1.00  0.00     0.131 A 
ATOM     62  C   UNL A   1      45.255  25.775  35.223  1.00  0.00     0.055 A 
ATOM     63  C   UNL A   1      46.670  27.613  34.583  1.00  0.00     0.041 A 
ATOM     64  F   UNL A   1      45.776  29.405  33.368  1.00  0.00    -0.206 F 
ATOM     65  C   UNL A   1      46.505  26.397  35.241  1.00  0.00     0.022 A 
BRANCH  62  66
ATOM     66  S   UNL A   1      44.966  24.280  36.207  1.00  0.00     0.124 S 
ATOM     67  O   UNL A   1      46.251  23.595  36.098  1.00  0.00    -0.237 OA
ATOM     68  O   UNL A   1      44.648  24.830  37.521  1.00  0.00    -0.237 OA
ATOM     69  O   UNL A   1      43.853  23.627  35.522  1.00  0.00    -0.744 OA
ENDBRANCH  62  66
ENDBRANCH  36  59
ENDBRANCH  10  11
ENDBRANCH   3   5
ENDBRANCH   2   3
ENDBRANCH   1   2
BRANCH   1  70
ATOM     70  C   UNL A   1      31.832  30.538  26.808  1.00  0.00     0.274 C 
BRANCH  70  71
ATOM     71  O   UNL A   1      31.581  29.669  25.700  1.00  0.00    -0.462 OA
BRANCH  71  72
ATOM     72  C   UNL A   1      32.055  28.398  25.800  1.00  0.00     0.310 C 
ATOM     73  O   UNL A   1      32.321  27.840  26.857  1.00  0.00    -0.252 OA
BRANCH  72  74
ATOM     74  C   UNL A   1      32.162  27.793  24.413  1.00  0.00     0.119 C 
ATOM     75  C   UNL A   1      31.713  26.322  24.247  1.00  0.00     0.102 C 
ATOM     76  C   UNL A   1      31.335  28.545  23.335  1.00  0.00     0.027 C 
ATOM     77  C   UNL A   1      30.617  26.432  23.157  1.00  0.00     0.025 C 
ATOM     78  C   UNL A   1      29.875  28.535  23.712  1.00  0.00    -0.027 C 
ATOM     79  C   UNL A   1      31.271  27.480  22.233  1.00  0.00     0.017 C 
ATOM     80  C   UNL A   1      29.455  27.266  23.635  1.00  0.00    -0.027 C 
BRANCH  75  81
ATOM     81  C   UNL A   1      31.393  25.553  25.512  1.00  0.00     0.242 C 
ATOM     82  O   UNL A   1      30.243  25.375  25.909  1.00  0.00    -0.273 OA
ATOM     83  N   UNL A   1      32.440  24.979  26.206  1.00  0.00    -0.267 N 
ATOM     84  H   UNL A   1      32.220  24.520  27.048  1.00  0.00     0.191 HD
BRANCH  83  85
ATOM     85  N   UNL A   1      33.786  24.989  25.822  1.00  0.00    -0.263 N 
ATOM     86  C   UNL A   1      34.464  23.936  25.237  1.00  0.00     0.271 C 
ATOM     87  H   UNL A   1      34.293  25.818  25.981  1.00  0.00     0.191 HD
ATOM     88  O   UNL A   1      35.691  23.963  25.145  1.00  0.00    -0.267 OA
BRANCH  86  89
ATOM     89  C   UNL A   1      33.765  22.709  24.815  1.00  0.00     0.060 A 
ATOM     90  C   UNL A   1      33.805  21.628  25.711  1.00  0.00     0.015 A 
ATOM     91  C   UNL A   1      33.137  22.551  23.577  1.00  0.00     0.053 A 
ATOM     92  C   UNL A   1      33.133  20.441  25.422  1.00  0.00     0.001 A 
ATOM     93  C   UNL A   1      32.456  21.363  23.295  1.00  0.00     0.021 A 
ATOM     94  Cl  UNL A   1      33.196  23.744  22.331  1.00  0.00    -0.083 Cl
ATOM     95  C   UNL A   1      32.440  20.318  24.221  1.00  0.00     0.002 A 
ENDBRANCH  86  89
ENDBRANCH  83  85
ENDBRANCH  75  81
ENDBRANCH  72  74
ENDBRANCH  71  72
ENDBRANCH  70  71
ENDBRANCH   1  70
TORSDOF 17
ENDMDL
