MODEL 1
REMARK VINA RESULT:     -12.6      0.000      0.000
REMARK SMILES NS(=O)(=O)c1ccc(-n2nc(NC(=O)NCCCC(=O)OCCOC(=O)c3ccc(-c4c5nc(c(-c6cc(S(=O)(=O)[O-])ccc6F)c6ccc([nH]6)c(-c6cc(S(=O)(=O)[O-])ccc6F)c6nc(c(-c7cc(S(=O)(=O)[O-])ccc7F)c7ccc4[nH]7)C=C6)C=C5)cc3)cc2-c2ccccc2)cc1
REMARK SMILES IDX 19 1 20 2 18 3 17 4 16 5 15 6 12 7 13 8 14 10 11 12 9 13
REMARK SMILES IDX 10 14 91 15 90 16 8 17 5 18 6 19 99 20 7 21 98 22 2 23 3 24
REMARK SMILES IDX 4 25 1 26 92 29 93 30 97 31 94 32 96 33 95 34 21 35 22 36
REMARK SMILES IDX 23 37 24 38 25 39 26 40 27 41 28 42 89 43 29 44 88 45 30 46
REMARK SMILES IDX 31 47 32 48 82 49 33 50 87 51 81 52 83 53 34 54 86 55 80 56
REMARK SMILES IDX 79 57 35 59 67 60 47 61 66 62 48 63 51 64 65 65 84 66 49 67
REMARK SMILES IDX 50 68 64 70 85 71 52 72 36 73 37 74 45 75 38 76 44 77 46 78
REMARK SMILES IDX 43 79 39 80 40 81 41 82 42 83 68 84 69 85 77 86 70 87 76 88
REMARK SMILES IDX 78 89 75 90 71 91 72 92 73 93 74 94 53 95 54 96 62 97 55 98
REMARK SMILES IDX 61 99 63 100 60 101 56 102 57 103 58 104 59 105
REMARK H PARENT 12 9 15 11 1 27 1 28 83 58 51 69
REMARK Flexibility Score: inf
ROOT
ATOM      1  C   UNL A   1      32.053  29.074  26.084  1.00  0.00     0.305 C 
ATOM      2  O   UNL A   1      32.799  28.869  25.131  1.00  0.00    -0.252 OA
ENDROOT
BRANCH   1   3
ATOM      3  C   UNL A   1      31.434  27.949  26.885  1.00  0.00     0.124 C 
BRANCH   3   4
ATOM      4  C   UNL A   1      31.623  26.500  26.444  1.00  0.00     0.033 C 
BRANCH   4   5
ATOM      5  C   UNL A   1      30.520  25.815  25.643  1.00  0.00     0.118 C 
BRANCH   5   6
ATOM      6  N   UNL A   1      29.816  26.660  24.689  1.00  0.00    -0.338 N 
ATOM      7  N   UNL A   1      31.393  27.014  22.913  1.00  0.00    -0.291 N 
ATOM      8  C   UNL A   1      30.194  27.210  23.511  1.00  0.00     0.320 C 
ATOM      9  H   UNL A   1      31.664  27.729  22.293  1.00  0.00     0.173 HD
ATOM     10  O   UNL A   1      29.419  28.028  22.998  1.00  0.00    -0.248 OA
ATOM     11  H   UNL A   1      28.890  26.870  24.949  1.00  0.00     0.165 HD
BRANCH   7  12
ATOM     12  C   UNL A   1      32.293  25.983  23.024  1.00  0.00     0.157 A 
ATOM     13  N   UNL A   1      32.879  24.024  23.362  1.00  0.00    -0.231 N 
ATOM     14  N   UNL A   1      32.046  24.749  22.601  1.00  0.00    -0.149 NA
ATOM     15  C   UNL A   1      34.039  24.729  23.654  1.00  0.00     0.076 A 
ATOM     16  C   UNL A   1      33.626  26.050  23.531  1.00  0.00     0.078 A 
BRANCH  13  17
ATOM     17  C   UNL A   1      32.516  22.739  23.786  1.00  0.00     0.065 A 
ATOM     18  C   UNL A   1      32.531  20.162  24.594  1.00  0.00     0.082 A 
ATOM     19  C   UNL A   1      32.451  21.138  25.576  1.00  0.00     0.024 A 
ATOM     20  C   UNL A   1      32.401  20.448  23.227  1.00  0.00     0.024 A 
ATOM     21  C   UNL A   1      32.443  22.454  25.161  1.00  0.00     0.030 A 
ATOM     22  C   UNL A   1      32.373  21.757  22.812  1.00  0.00     0.030 A 
BRANCH  18  23
ATOM     23  S   UNL A   1      32.893  18.496  24.975  1.00  0.00     0.238 S 
ATOM     24  O   UNL A   1      34.278  18.266  24.615  1.00  0.00    -0.207 OA
ATOM     25  O   UNL A   1      31.841  17.790  24.318  1.00  0.00    -0.207 OA
BRANCH  23  26
ATOM     26  N   UNL A   1      32.698  18.385  26.636  1.00  0.00    -0.225 NA
ATOM     27  H   UNL A   1      32.457  17.427  26.887  1.00  0.00     0.137 HD
ATOM     28  H   UNL A   1      31.951  19.013  26.933  1.00  0.00     0.137 HD
ENDBRANCH  23  26
ENDBRANCH  18  23
ENDBRANCH  13  17
BRANCH  15  29
ATOM     29  C   UNL A   1      35.269  24.041  24.077  1.00  0.00     0.000 A 
ATOM     30  C   UNL A   1      35.873  23.108  23.205  1.00  0.00     0.010 A 
ATOM     31  C   UNL A   1      35.752  24.135  25.385  1.00  0.00     0.010 A 
ATOM     32  C   UNL A   1      36.873  22.242  23.649  1.00  0.00     0.001 A 
ATOM     33  C   UNL A   1      36.773  23.279  25.822  1.00  0.00     0.001 A 
ATOM     34  C   UNL A   1      37.321  22.326  24.961  1.00  0.00     0.000 A 
ENDBRANCH  15  29
ENDBRANCH   7  12
ENDBRANCH   5   6
ENDBRANCH   4   5
ENDBRANCH   3   4
ENDBRANCH   1   3
BRANCH   1  35
ATOM     35  O   UNL A   1      31.605  30.298  26.458  1.00  0.00    -0.462 OA
BRANCH  35  36
ATOM     36  C   UNL A   1      32.604  31.325  26.603  1.00  0.00     0.274 C 
BRANCH  36  37
ATOM     37  C   UNL A   1      33.548  31.044  27.766  1.00  0.00     0.275 C 
BRANCH  37  38
ATOM     38  O   UNL A   1      34.909  30.918  27.345  1.00  0.00    -0.458 OA
BRANCH  38  39
ATOM     39  C   UNL A   1      35.777  31.771  27.939  1.00  0.00     0.338 C 
ATOM     40  O   UNL A   1      35.937  32.947  27.663  1.00  0.00    -0.246 OA
BRANCH  39  41
ATOM     41  C   UNL A   1      36.705  31.020  28.799  1.00  0.00     0.060 A 
ATOM     42  C   UNL A   1      37.818  31.719  29.267  1.00  0.00     0.016 A 
ATOM     43  C   UNL A   1      36.646  29.620  28.848  1.00  0.00     0.016 A 
ATOM     44  C   UNL A   1      38.959  30.998  29.546  1.00  0.00     0.010 A 
ATOM     45  C   UNL A   1      37.800  28.902  29.099  1.00  0.00     0.010 A 
ATOM     46  C   UNL A   1      38.977  29.602  29.320  1.00  0.00    -0.014 A 
BRANCH  46  47
ATOM     47  C   UNL A   1      40.262  28.913  29.453  1.00  0.00     0.031 A 
ATOM     48  C   UNL A   1      40.617  28.893  30.881  1.00  0.00     0.074 A 
ATOM     49  C   UNL A   1      41.033  28.379  28.477  1.00  0.00     0.049 A 
ATOM     50  N   UNL A   1      41.474  29.645  31.484  1.00  0.00    -0.248 NA
ATOM     51  C   UNL A   1      39.685  28.182  31.772  1.00  0.00     0.031 C 
ATOM     52  C   UNL A   1      40.685  28.122  27.077  1.00  0.00     0.029 A 
ATOM     53  N   UNL A   1      42.325  27.919  28.537  1.00  0.00    -0.354 N 
ATOM     54  C   UNL A   1      41.367  29.271  32.815  1.00  0.00     0.074 A 
ATOM     55  C   UNL A   1      40.094  28.622  32.960  1.00  0.00     0.031 C 
ATOM     56  C   UNL A   1      41.682  27.449  26.464  1.00  0.00     0.029 A 
ATOM     57  C   UNL A   1      42.744  27.195  27.415  1.00  0.00     0.049 A 
ATOM     58  H   UNL A   1      42.911  28.085  29.311  1.00  0.00     0.167 HD
ATOM     59  C   UNL A   1      42.486  29.167  33.575  1.00  0.00     0.034 A 
ATOM     60  C   UNL A   1      43.814  26.353  27.293  1.00  0.00     0.034 A 
ATOM     61  C   UNL A   1      43.536  30.022  33.069  1.00  0.00     0.049 A 
ATOM     62  C   UNL A   1      44.773  26.725  28.363  1.00  0.00     0.074 A 
ATOM     63  C   UNL A   1      43.606  31.375  32.782  1.00  0.00     0.029 A 
ATOM     64  N   UNL A   1      44.584  29.446  32.386  1.00  0.00    -0.354 N 
ATOM     65  N   UNL A   1      45.415  27.863  28.384  1.00  0.00    -0.248 NA
ATOM     66  C   UNL A   1      44.591  26.094  29.663  1.00  0.00     0.031 C 
ATOM     67  C   UNL A   1      44.356  31.461  31.574  1.00  0.00     0.029 A 
ATOM     68  C   UNL A   1      44.803  30.181  31.240  1.00  0.00     0.049 A 
ATOM     69  H   UNL A   1      45.089  28.650  32.666  1.00  0.00     0.167 HD
ATOM     70  C   UNL A   1      45.318  28.304  29.695  1.00  0.00     0.074 A 
ATOM     71  C   UNL A   1      44.843  27.143  30.451  1.00  0.00     0.031 C 
ATOM     72  C   UNL A   1      45.352  29.634  30.010  1.00  0.00     0.034 A 
BRANCH  59  73
ATOM     73  C   UNL A   1      42.713  27.981  34.481  1.00  0.00     0.023 A 
ATOM     74  C   UNL A   1      43.433  26.900  33.959  1.00  0.00     0.031 A 
ATOM     75  C   UNL A   1      42.048  27.740  35.714  1.00  0.00     0.131 A 
ATOM     76  C   UNL A   1      43.417  25.653  34.607  1.00  0.00     0.055 A 
ATOM     77  C   UNL A   1      42.100  26.523  36.392  1.00  0.00     0.041 A 
ATOM     78  F   UNL A   1      41.226  28.621  36.294  1.00  0.00    -0.206 F 
ATOM     79  C   UNL A   1      42.765  25.458  35.823  1.00  0.00     0.022 A 
BRANCH  76  80
ATOM     80  S   UNL A   1      44.121  24.235  33.738  1.00  0.00     0.124 S 
ATOM     81  O   UNL A   1      44.119  24.711  32.358  1.00  0.00    -0.237 OA
ATOM     82  O   UNL A   1      45.428  24.116  34.377  1.00  0.00    -0.237 OA
ATOM     83  O   UNL A   1      43.180  23.158  34.031  1.00  0.00    -0.744 OA
ENDBRANCH  76  80
ENDBRANCH  59  73
BRANCH  60  84
ATOM     84  C   UNL A   1      43.837  25.040  26.551  1.00  0.00     0.023 A 
ATOM     85  C   UNL A   1      43.042  23.916  26.891  1.00  0.00     0.031 A 
ATOM     86  C   UNL A   1      44.525  24.948  25.315  1.00  0.00     0.131 A 
ATOM     87  C   UNL A   1      42.985  22.784  26.026  1.00  0.00     0.055 A 
ATOM     88  C   UNL A   1      44.478  23.830  24.482  1.00  0.00     0.041 A 
ATOM     89  F   UNL A   1      45.209  25.984  24.811  1.00  0.00    -0.206 F 
ATOM     90  C   UNL A   1      43.699  22.745  24.828  1.00  0.00     0.022 A 
BRANCH  87  91
ATOM     91  S   UNL A   1      41.901  21.356  26.386  1.00  0.00     0.124 S 
ATOM     92  O   UNL A   1      40.582  21.871  26.040  1.00  0.00    -0.237 OA
ATOM     93  O   UNL A   1      42.443  20.317  25.517  1.00  0.00    -0.237 OA
ATOM     94  O   UNL A   1      42.108  21.119  27.817  1.00  0.00    -0.744 OA
ENDBRANCH  87  91
ENDBRANCH  60  84
BRANCH  72  95
ATOM     95  C   UNL A   1      45.841  30.627  28.969  1.00  0.00     0.023 A 
ATOM     96  C   UNL A   1      45.032  31.323  28.041  1.00  0.00     0.031 A 
ATOM     97  C   UNL A   1      47.206  30.970  29.016  1.00  0.00     0.131 A 
ATOM     98  C   UNL A   1      45.607  32.317  27.217  1.00  0.00     0.055 A 
ATOM     99  C   UNL A   1      47.761  31.964  28.213  1.00  0.00     0.041 A 
ATOM    100  F   UNL A   1      48.027  30.362  29.888  1.00  0.00    -0.206 F 
ATOM    101  C   UNL A   1      46.964  32.641  27.306  1.00  0.00     0.022 A 
BRANCH  98 102
ATOM    102  S   UNL A   1      44.589  33.281  26.062  1.00  0.00     0.124 S 
ATOM    103  O   UNL A   1      43.859  32.260  25.324  1.00  0.00    -0.237 OA
ATOM    104  O   UNL A   1      43.821  34.090  27.007  1.00  0.00    -0.237 OA
ATOM    105  O   UNL A   1      45.572  34.026  25.273  1.00  0.00    -0.744 OA
ENDBRANCH  98 102
ENDBRANCH  72  95
ENDBRANCH  46  47
ENDBRANCH  39  41
ENDBRANCH  38  39
ENDBRANCH  37  38
ENDBRANCH  36  37
ENDBRANCH  35  36
ENDBRANCH   1  35
TORSDOF 22
ENDMDL
MODEL 2
REMARK VINA RESULT:     -12.5      2.293      6.733
REMARK SMILES NS(=O)(=O)c1ccc(-n2nc(NC(=O)NCCCC(=O)OCCOC(=O)c3ccc(-c4c5nc(c(-c6cc(S(=O)(=O)[O-])ccc6F)c6ccc([nH]6)c(-c6cc(S(=O)(=O)[O-])ccc6F)c6nc(c(-c7cc(S(=O)(=O)[O-])ccc7F)c7ccc4[nH]7)C=C6)C=C5)cc3)cc2-c2ccccc2)cc1
REMARK SMILES IDX 19 1 20 2 18 3 17 4 16 5 15 6 12 7 13 8 14 10 11 12 9 13
REMARK SMILES IDX 10 14 91 15 90 16 8 17 5 18 6 19 99 20 7 21 98 22 2 23 3 24
REMARK SMILES IDX 4 25 1 26 92 29 93 30 97 31 94 32 96 33 95 34 21 35 22 36
REMARK SMILES IDX 23 37 24 38 25 39 26 40 27 41 28 42 89 43 29 44 88 45 30 46
REMARK SMILES IDX 31 47 32 48 82 49 33 50 87 51 81 52 83 53 34 54 86 55 80 56
REMARK SMILES IDX 79 57 35 59 67 60 47 61 66 62 48 63 51 64 65 65 84 66 49 67
REMARK SMILES IDX 50 68 64 70 85 71 52 72 36 73 37 74 45 75 38 76 44 77 46 78
REMARK SMILES IDX 43 79 39 80 40 81 41 82 42 83 68 84 69 85 77 86 70 87 76 88
REMARK SMILES IDX 78 89 75 90 71 91 72 92 73 93 74 94 53 95 54 96 62 97 55 98
REMARK SMILES IDX 61 99 63 100 60 101 56 102 57 103 58 104 59 105
REMARK H PARENT 12 9 15 11 1 27 1 28 83 58 51 69
REMARK Flexibility Score: inf
ROOT
ATOM      1  C   UNL A   1      32.806  29.354  25.527  1.00  0.00     0.305 C 
ATOM      2  O   UNL A   1      33.159  29.064  24.387  1.00  0.00    -0.252 OA
ENDROOT
BRANCH   1   3
ATOM      3  C   UNL A   1      31.725  28.587  26.259  1.00  0.00     0.124 C 
BRANCH   3   4
ATOM      4  C   UNL A   1      31.800  27.067  26.364  1.00  0.00     0.033 C 
BRANCH   4   5
ATOM      5  C   UNL A   1      30.832  26.215  25.549  1.00  0.00     0.118 C 
BRANCH   5   6
ATOM      6  N   UNL A   1      30.053  26.928  24.548  1.00  0.00    -0.338 N 
ATOM      7  N   UNL A   1      31.464  26.983  22.605  1.00  0.00    -0.291 N 
ATOM      8  C   UNL A   1      30.328  27.293  23.273  1.00  0.00     0.320 C 
ATOM      9  H   UNL A   1      31.685  27.594  21.866  1.00  0.00     0.173 HD
ATOM     10  O   UNL A   1      29.517  28.045  22.717  1.00  0.00    -0.248 OA
ATOM     11  H   UNL A   1      29.157  27.196  24.856  1.00  0.00     0.165 HD
BRANCH   7  12
ATOM     12  C   UNL A   1      32.360  25.958  22.786  1.00  0.00     0.157 A 
ATOM     13  N   UNL A   1      32.930  24.000  23.156  1.00  0.00    -0.231 N 
ATOM     14  N   UNL A   1      32.161  24.726  22.332  1.00  0.00    -0.149 NA
ATOM     15  C   UNL A   1      34.054  24.711  23.556  1.00  0.00     0.076 A 
ATOM     16  C   UNL A   1      33.642  26.030  23.409  1.00  0.00     0.078 A 
BRANCH  13  17
ATOM     17  C   UNL A   1      32.542  22.708  23.535  1.00  0.00     0.065 A 
ATOM     18  C   UNL A   1      32.498  20.085  24.177  1.00  0.00     0.082 A 
ATOM     19  C   UNL A   1      32.564  20.997  25.220  1.00  0.00     0.024 A 
ATOM     20  C   UNL A   1      32.253  20.467  22.850  1.00  0.00     0.024 A 
ATOM     21  C   UNL A   1      32.586  22.336  24.890  1.00  0.00     0.030 A 
ATOM     22  C   UNL A   1      32.255  21.800  22.521  1.00  0.00     0.030 A 
BRANCH  18  23
ATOM     23  S   UNL A   1      32.806  18.383  24.418  1.00  0.00     0.238 S 
ATOM     24  O   UNL A   1      32.133  17.994  25.641  1.00  0.00    -0.207 OA
ATOM     25  O   UNL A   1      34.228  18.306  24.310  1.00  0.00    -0.207 OA
BRANCH  23  26
ATOM     26  N   UNL A   1      32.097  17.629  23.100  1.00  0.00    -0.225 NA
ATOM     27  H   UNL A   1      32.099  16.619  23.244  1.00  0.00     0.137 HD
ATOM     28  H   UNL A   1      32.625  17.853  22.256  1.00  0.00     0.137 HD
ENDBRANCH  23  26
ENDBRANCH  18  23
ENDBRANCH  13  17
BRANCH  15  29
ATOM     29  C   UNL A   1      35.247  24.027  24.080  1.00  0.00     0.000 A 
ATOM     30  C   UNL A   1      35.899  23.064  23.278  1.00  0.00     0.010 A 
ATOM     31  C   UNL A   1      35.644  24.159  25.413  1.00  0.00     0.010 A 
ATOM     32  C   UNL A   1      36.860  22.205  23.813  1.00  0.00     0.001 A 
ATOM     33  C   UNL A   1      36.628  23.310  25.943  1.00  0.00     0.001 A 
ATOM     34  C   UNL A   1      37.222  22.327  25.148  1.00  0.00     0.000 A 
ENDBRANCH  15  29
ENDBRANCH   7  12
ENDBRANCH   5   6
ENDBRANCH   4   5
ENDBRANCH   3   4
ENDBRANCH   1   3
BRANCH   1  35
ATOM     35  O   UNL A   1      33.241  30.439  26.212  1.00  0.00    -0.462 OA
BRANCH  35  36
ATOM     36  C   UNL A   1      33.820  30.187  27.506  1.00  0.00     0.274 C 
BRANCH  36  37
ATOM     37  C   UNL A   1      35.154  29.458  27.402  1.00  0.00     0.275 C 
BRANCH  37  38
ATOM     38  O   UNL A   1      36.247  30.252  27.872  1.00  0.00    -0.458 OA
BRANCH  38  39
ATOM     39  C   UNL A   1      36.980  29.694  28.863  1.00  0.00     0.338 C 
ATOM     40  O   UNL A   1      36.909  29.958  30.051  1.00  0.00    -0.246 OA
BRANCH  39  41
ATOM     41  C   UNL A   1      38.078  28.902  28.288  1.00  0.00     0.060 A 
ATOM     42  C   UNL A   1      38.609  27.899  29.099  1.00  0.00     0.016 A 
ATOM     43  C   UNL A   1      38.758  29.360  27.150  1.00  0.00     0.016 A 
ATOM     44  C   UNL A   1      39.927  27.544  28.903  1.00  0.00     0.010 A 
ATOM     45  C   UNL A   1      40.087  29.025  26.975  1.00  0.00     0.010 A 
ATOM     46  C   UNL A   1      40.696  28.220  27.928  1.00  0.00    -0.014 A 
BRANCH  46  47
ATOM     47  C   UNL A   1      42.131  27.938  27.884  1.00  0.00     0.031 A 
ATOM     48  C   UNL A   1      42.307  26.562  27.395  1.00  0.00     0.074 A 
ATOM     49  C   UNL A   1      43.156  28.753  28.229  1.00  0.00     0.049 A 
ATOM     50  N   UNL A   1      42.583  25.513  28.093  1.00  0.00    -0.248 NA
ATOM     51  C   UNL A   1      41.802  26.286  26.039  1.00  0.00     0.031 C 
ATOM     52  C   UNL A   1      43.130  30.194  28.492  1.00  0.00     0.029 A 
ATOM     53  N   UNL A   1      44.486  28.458  28.402  1.00  0.00    -0.354 N 
ATOM     54  C   UNL A   1      42.561  24.482  27.167  1.00  0.00     0.074 A 
ATOM     55  C   UNL A   1      41.807  24.955  26.040  1.00  0.00     0.031 C 
ATOM     56  C   UNL A   1      44.384  30.661  28.665  1.00  0.00     0.029 A 
ATOM     57  C   UNL A   1      45.326  29.573  28.509  1.00  0.00     0.049 A 
ATOM     58  H   UNL A   1      44.823  27.534  28.446  1.00  0.00     0.167 HD
ATOM     59  C   UNL A   1      43.491  23.497  27.236  1.00  0.00     0.034 A 
ATOM     60  C   UNL A   1      46.684  29.636  28.364  1.00  0.00     0.034 A 
ATOM     61  C   UNL A   1      43.985  23.346  28.587  1.00  0.00     0.049 A 
ATOM     62  C   UNL A   1      47.202  28.264  28.602  1.00  0.00     0.074 A 
ATOM     63  C   UNL A   1      43.366  23.132  29.808  1.00  0.00     0.029 A 
ATOM     64  N   UNL A   1      45.238  23.828  28.890  1.00  0.00    -0.354 N 
ATOM     65  N   UNL A   1      47.150  27.674  29.766  1.00  0.00    -0.248 NA
ATOM     66  C   UNL A   1      47.252  27.369  27.455  1.00  0.00     0.031 C 
ATOM     67  C   UNL A   1      44.072  23.954  30.732  1.00  0.00     0.029 A 
ATOM     68  C   UNL A   1      45.150  24.540  30.066  1.00  0.00     0.049 A 
ATOM     69  H   UNL A   1      46.055  23.688  28.360  1.00  0.00     0.167 HD
ATOM     70  C   UNL A   1      46.713  26.385  29.494  1.00  0.00     0.074 A 
ATOM     71  C   UNL A   1      46.844  26.241  28.043  1.00  0.00     0.031 C 
ATOM     72  C   UNL A   1      46.019  25.653  30.416  1.00  0.00     0.034 A 
BRANCH  59  73
ATOM     73  C   UNL A   1      44.216  23.012  26.004  1.00  0.00     0.023 A 
ATOM     74  C   UNL A   1      44.150  21.644  25.715  1.00  0.00     0.031 A 
ATOM     75  C   UNL A   1      45.172  23.753  25.258  1.00  0.00     0.131 A 
ATOM     76  C   UNL A   1      45.038  21.067  24.791  1.00  0.00     0.055 A 
ATOM     77  C   UNL A   1      45.997  23.189  24.286  1.00  0.00     0.041 A 
ATOM     78  F   UNL A   1      45.446  25.042  25.484  1.00  0.00    -0.206 F 
ATOM     79  C   UNL A   1      45.952  21.829  24.067  1.00  0.00     0.022 A 
BRANCH  76  80
ATOM     80  S   UNL A   1      45.094  19.265  24.678  1.00  0.00     0.124 S 
ATOM     81  O   UNL A   1      44.653  19.047  23.304  1.00  0.00    -0.237 OA
ATOM     82  O   UNL A   1      46.502  18.995  24.953  1.00  0.00    -0.237 OA
ATOM     83  O   UNL A   1      44.160  18.832  25.713  1.00  0.00    -0.744 OA
ENDBRANCH  76  80
ENDBRANCH  59  73
BRANCH  60  84
ATOM     84  C   UNL A   1      47.459  30.726  27.669  1.00  0.00     0.023 A 
ATOM     85  C   UNL A   1      46.872  31.882  27.093  1.00  0.00     0.031 A 
ATOM     86  C   UNL A   1      48.874  30.739  27.752  1.00  0.00     0.131 A 
ATOM     87  C   UNL A   1      47.691  32.951  26.625  1.00  0.00     0.055 A 
ATOM     88  C   UNL A   1      49.671  31.782  27.277  1.00  0.00     0.041 A 
ATOM     89  F   UNL A   1      49.551  29.772  28.386  1.00  0.00    -0.206 F 
ATOM     90  C   UNL A   1      49.083  32.899  26.720  1.00  0.00     0.022 A 
BRANCH  87  91
ATOM     91  S   UNL A   1      46.968  34.494  25.962  1.00  0.00     0.124 S 
ATOM     92  O   UNL A   1      45.829  34.000  25.198  1.00  0.00    -0.237 OA
ATOM     93  O   UNL A   1      46.664  35.250  27.171  1.00  0.00    -0.237 OA
ATOM     94  O   UNL A   1      48.049  35.058  25.150  1.00  0.00    -0.744 OA
ENDBRANCH  87  91
ENDBRANCH  60  84
BRANCH  72  95
ATOM     95  C   UNL A   1      46.014  26.105  31.867  1.00  0.00     0.023 A 
ATOM     96  C   UNL A   1      44.923  26.687  32.552  1.00  0.00     0.031 A 
ATOM     97  C   UNL A   1      47.163  25.806  32.624  1.00  0.00     0.131 A 
ATOM     98  C   UNL A   1      45.020  26.937  33.940  1.00  0.00     0.055 A 
ATOM     99  C   UNL A   1      47.244  26.040  33.995  1.00  0.00     0.041 A 
ATOM    100  F   UNL A   1      48.229  25.234  32.040  1.00  0.00    -0.206 F 
ATOM    101  C   UNL A   1      46.172  26.611  34.660  1.00  0.00     0.022 A 
BRANCH  98 102
ATOM    102  S   UNL A   1      43.615  27.619  34.869  1.00  0.00     0.124 S 
ATOM    103  O   UNL A   1      43.199  28.758  34.063  1.00  0.00    -0.237 OA
ATOM    104  O   UNL A   1      42.726  26.459  34.884  1.00  0.00    -0.237 OA
ATOM    105  O   UNL A   1      44.196  27.965  36.168  1.00  0.00    -0.744 OA
ENDBRANCH  98 102
ENDBRANCH  72  95
ENDBRANCH  46  47
ENDBRANCH  39  41
ENDBRANCH  38  39
ENDBRANCH  37  38
ENDBRANCH  36  37
ENDBRANCH  35  36
ENDBRANCH   1  35
TORSDOF 22
ENDMDL
MODEL 3
REMARK VINA RESULT:     -12.2      3.281      7.675
REMARK SMILES NS(=O)(=O)c1ccc(-n2nc(NC(=O)NCCCC(=O)OCCOC(=O)c3ccc(-c4c5nc(c(-c6cc(S(=O)(=O)[O-])ccc6F)c6ccc([nH]6)c(-c6cc(S(=O)(=O)[O-])ccc6F)c6nc(c(-c7cc(S(=O)(=O)[O-])ccc7F)c7ccc4[nH]7)C=C6)C=C5)cc3)cc2-c2ccccc2)cc1
REMARK SMILES IDX 19 1 20 2 18 3 17 4 16 5 15 6 12 7 13 8 14 10 11 12 9 13
REMARK SMILES IDX 10 14 91 15 90 16 8 17 5 18 6 19 99 20 7 21 98 22 2 23 3 24
REMARK SMILES IDX 4 25 1 26 92 29 93 30 97 31 94 32 96 33 95 34 21 35 22 36
REMARK SMILES IDX 23 37 24 38 25 39 26 40 27 41 28 42 89 43 29 44 88 45 30 46
REMARK SMILES IDX 31 47 32 48 82 49 33 50 87 51 81 52 83 53 34 54 86 55 80 56
REMARK SMILES IDX 79 57 35 59 67 60 47 61 66 62 48 63 51 64 65 65 84 66 49 67
REMARK SMILES IDX 50 68 64 70 85 71 52 72 36 73 37 74 45 75 38 76 44 77 46 78
REMARK SMILES IDX 43 79 39 80 40 81 41 82 42 83 68 84 69 85 77 86 70 87 76 88
REMARK SMILES IDX 78 89 75 90 71 91 72 92 73 93 74 94 53 95 54 96 62 97 55 98
REMARK SMILES IDX 61 99 63 100 60 101 56 102 57 103 58 104 59 105
REMARK H PARENT 12 9 15 11 1 27 1 28 83 58 51 69
REMARK Flexibility Score: inf
ROOT
ATOM      1  C   UNL A   1      35.594  22.491  24.391  1.00  0.00     0.305 C 
ATOM      2  O   UNL A   1      35.061  21.395  24.544  1.00  0.00    -0.252 OA
ENDROOT
BRANCH   1   3
ATOM      3  C   UNL A   1      34.958  23.592  23.569  1.00  0.00     0.124 C 
BRANCH   3   4
ATOM      4  C   UNL A   1      34.016  23.244  22.420  1.00  0.00     0.033 C 
BRANCH   4   5
ATOM      5  C   UNL A   1      32.541  22.991  22.717  1.00  0.00     0.118 C 
BRANCH   5   6
ATOM      6  N   UNL A   1      32.221  21.672  23.244  1.00  0.00    -0.338 N 
ATOM      7  N   UNL A   1      32.106  21.980  25.622  1.00  0.00    -0.291 N 
ATOM      8  C   UNL A   1      32.057  21.214  24.507  1.00  0.00     0.320 C 
ATOM      9  H   UNL A   1      32.336  21.492  26.446  1.00  0.00     0.173 HD
ATOM     10  O   UNL A   1      31.950  19.989  24.651  1.00  0.00    -0.248 OA
ATOM     11  H   UNL A   1      32.102  20.983  22.550  1.00  0.00     0.165 HD
BRANCH   7  12
ATOM     12  C   UNL A   1      31.887  23.325  25.798  1.00  0.00     0.157 A 
ATOM     13  N   UNL A   1      31.116  25.185  25.310  1.00  0.00    -0.231 N 
ATOM     14  N   UNL A   1      30.732  23.918  25.522  1.00  0.00    -0.149 NA
ATOM     15  C   UNL A   1      32.208  25.521  26.098  1.00  0.00     0.076 A 
ATOM     16  C   UNL A   1      32.792  24.284  26.344  1.00  0.00     0.078 A 
BRANCH  13  17
ATOM     17  C   UNL A   1      30.454  25.979  24.364  1.00  0.00     0.065 A 
ATOM     18  C   UNL A   1      29.275  28.017  23.041  1.00  0.00     0.082 A 
ATOM     19  C   UNL A   1      30.599  27.740  22.737  1.00  0.00     0.024 A 
ATOM     20  C   UNL A   1      28.486  27.172  23.835  1.00  0.00     0.024 A 
ATOM     21  C   UNL A   1      31.200  26.698  23.414  1.00  0.00     0.030 A 
ATOM     22  C   UNL A   1      29.077  26.122  24.495  1.00  0.00     0.030 A 
BRANCH  18  23
ATOM     23  S   UNL A   1      28.500  29.496  22.529  1.00  0.00     0.238 S 
ATOM     24  O   UNL A   1      28.872  29.719  21.146  1.00  0.00    -0.207 OA
ATOM     25  O   UNL A   1      28.887  30.419  23.548  1.00  0.00    -0.207 OA
BRANCH  23  26
ATOM     26  N   UNL A   1      26.857  29.181  22.645  1.00  0.00    -0.225 NA
ATOM     27  H   UNL A   1      26.713  28.182  22.794  1.00  0.00     0.137 HD
ATOM     28  H   UNL A   1      26.395  29.467  21.782  1.00  0.00     0.137 HD
ENDBRANCH  23  26
ENDBRANCH  18  23
ENDBRANCH  13  17
BRANCH  15  29
ATOM     29  C   UNL A   1      32.544  26.924  26.387  1.00  0.00     0.000 A 
ATOM     30  C   UNL A   1      33.831  27.406  26.064  1.00  0.00     0.010 A 
ATOM     31  C   UNL A   1      31.699  27.742  27.142  1.00  0.00     0.010 A 
ATOM     32  C   UNL A   1      34.290  28.632  26.549  1.00  0.00     0.001 A 
ATOM     33  C   UNL A   1      32.154  28.985  27.608  1.00  0.00     0.001 A 
ATOM     34  C   UNL A   1      33.450  29.420  27.325  1.00  0.00     0.000 A 
ENDBRANCH  15  29
ENDBRANCH   7  12
ENDBRANCH   5   6
ENDBRANCH   4   5
ENDBRANCH   3   4
ENDBRANCH   1   3
BRANCH   1  35
ATOM     35  O   UNL A   1      36.838  22.807  24.824  1.00  0.00    -0.462 OA
BRANCH  35  36
ATOM     36  C   UNL A   1      37.781  21.721  24.902  1.00  0.00     0.274 C 
BRANCH  36  37
ATOM     37  C   UNL A   1      38.835  21.955  25.977  1.00  0.00     0.275 C 
BRANCH  37  38
ATOM     38  O   UNL A   1      39.384  20.733  26.477  1.00  0.00    -0.458 OA
BRANCH  38  39
ATOM     39  C   UNL A   1      40.638  20.447  26.052  1.00  0.00     0.338 C 
ATOM     40  O   UNL A   1      40.980  19.461  25.423  1.00  0.00    -0.246 OA
BRANCH  39  41
ATOM     41  C   UNL A   1      41.600  21.366  26.680  1.00  0.00     0.060 A 
ATOM     42  C   UNL A   1      41.715  21.288  28.068  1.00  0.00     0.016 A 
ATOM     43  C   UNL A   1      42.096  22.466  25.964  1.00  0.00     0.016 A 
ATOM     44  C   UNL A   1      42.100  22.426  28.745  1.00  0.00     0.010 A 
ATOM     45  C   UNL A   1      42.453  23.613  26.647  1.00  0.00     0.010 A 
ATOM     46  C   UNL A   1      42.328  23.623  28.029  1.00  0.00    -0.014 A 
BRANCH  46  47
ATOM     47  C   UNL A   1      42.552  24.844  28.806  1.00  0.00     0.031 A 
ATOM     48  C   UNL A   1      41.479  25.794  28.474  1.00  0.00     0.074 A 
ATOM     49  C   UNL A   1      43.552  25.110  29.679  1.00  0.00     0.049 A 
ATOM     50  N   UNL A   1      41.556  26.819  27.695  1.00  0.00    -0.248 NA
ATOM     51  C   UNL A   1      40.108  25.361  28.791  1.00  0.00     0.031 C 
ATOM     52  C   UNL A   1      44.521  24.183  30.269  1.00  0.00     0.029 A 
ATOM     53  N   UNL A   1      43.911  26.302  30.258  1.00  0.00    -0.354 N 
ATOM     54  C   UNL A   1      40.262  27.317  27.671  1.00  0.00     0.074 A 
ATOM     55  C   UNL A   1      39.401  26.248  28.094  1.00  0.00     0.031 C 
ATOM     56  C   UNL A   1      45.264  24.814  31.201  1.00  0.00     0.029 A 
ATOM     57  C   UNL A   1      44.829  26.190  31.310  1.00  0.00     0.049 A 
ATOM     58  H   UNL A   1      43.550  27.167  29.958  1.00  0.00     0.167 HD
ATOM     59  C   UNL A   1      40.058  28.658  27.696  1.00  0.00     0.034 A 
ATOM     60  C   UNL A   1      45.134  27.107  32.278  1.00  0.00     0.034 A 
ATOM     61  C   UNL A   1      41.195  29.364  27.150  1.00  0.00     0.049 A 
ATOM     62  C   UNL A   1      44.740  28.436  31.744  1.00  0.00     0.074 A 
ATOM     63  C   UNL A   1      41.878  29.282  25.948  1.00  0.00     0.029 A 
ATOM     64  N   UNL A   1      42.050  30.009  28.015  1.00  0.00    -0.354 N 
ATOM     65  N   UNL A   1      45.339  29.005  30.732  1.00  0.00    -0.248 NA
ATOM     66  C   UNL A   1      43.363  28.856  31.964  1.00  0.00     0.031 C 
ATOM     67  C   UNL A   1      43.254  29.419  26.291  1.00  0.00     0.029 A 
ATOM     68  C   UNL A   1      43.342  29.689  27.658  1.00  0.00     0.049 A 
ATOM     69  H   UNL A   1      41.785  30.597  28.759  1.00  0.00     0.167 HD
ATOM     70  C   UNL A   1      44.312  29.492  29.937  1.00  0.00     0.074 A 
ATOM     71  C   UNL A   1      43.115  29.416  30.777  1.00  0.00     0.031 C 
ATOM     72  C   UNL A   1      44.460  29.645  28.587  1.00  0.00     0.034 A 
BRANCH  59  73
ATOM     73  C   UNL A   1      39.023  29.278  28.604  1.00  0.00     0.023 A 
ATOM     74  C   UNL A   1      39.258  29.218  29.983  1.00  0.00     0.031 A 
ATOM     75  C   UNL A   1      37.716  29.680  28.219  1.00  0.00     0.131 A 
ATOM     76  C   UNL A   1      38.220  29.478  30.894  1.00  0.00     0.055 A 
ATOM     77  C   UNL A   1      36.713  30.012  29.128  1.00  0.00     0.041 A 
ATOM     78  F   UNL A   1      37.287  29.682  26.952  1.00  0.00    -0.206 F 
ATOM     79  C   UNL A   1      36.954  29.884  30.479  1.00  0.00     0.022 A 
BRANCH  76  80
ATOM     80  S   UNL A   1      38.507  29.105  32.638  1.00  0.00     0.124 S 
ATOM     81  O   UNL A   1      39.826  28.483  32.587  1.00  0.00    -0.237 OA
ATOM     82  O   UNL A   1      38.442  30.433  33.239  1.00  0.00    -0.237 OA
ATOM     83  O   UNL A   1      37.405  28.209  32.977  1.00  0.00    -0.744 OA
ENDBRANCH  76  80
ENDBRANCH  59  73
BRANCH  60  84
ATOM     84  C   UNL A   1      45.380  26.818  33.736  1.00  0.00     0.023 A 
ATOM     85  C   UNL A   1      44.366  26.461  34.663  1.00  0.00     0.031 A 
ATOM     86  C   UNL A   1      46.710  26.681  34.207  1.00  0.00     0.131 A 
ATOM     87  C   UNL A   1      44.710  26.020  35.974  1.00  0.00     0.055 A 
ATOM     88  C   UNL A   1      47.038  26.264  35.497  1.00  0.00     0.041 A 
ATOM     89  F   UNL A   1      47.764  26.860  33.400  1.00  0.00    -0.206 F 
ATOM     90  C   UNL A   1      46.040  25.921  36.385  1.00  0.00     0.022 A 
BRANCH  87  91
ATOM     91  S   UNL A   1      43.436  25.465  37.164  1.00  0.00     0.124 S 
ATOM     92  O   UNL A   1      44.198  24.594  38.051  1.00  0.00    -0.237 OA
ATOM     93  O   UNL A   1      42.963  26.722  37.733  1.00  0.00    -0.237 OA
ATOM     94  O   UNL A   1      42.457  24.774  36.322  1.00  0.00    -0.744 OA
ENDBRANCH  87  91
ENDBRANCH  60  84
BRANCH  72  95
ATOM     95  C   UNL A   1      45.856  29.609  27.987  1.00  0.00     0.023 A 
ATOM     96  C   UNL A   1      46.455  28.502  27.344  1.00  0.00     0.031 A 
ATOM     97  C   UNL A   1      46.566  30.825  27.970  1.00  0.00     0.131 A 
ATOM     98  C   UNL A   1      47.712  28.653  26.716  1.00  0.00     0.055 A 
ATOM     99  C   UNL A   1      47.797  30.970  27.333  1.00  0.00     0.041 A 
ATOM    100  F   UNL A   1      46.045  31.922  28.545  1.00  0.00    -0.206 F 
ATOM    101  C   UNL A   1      48.379  29.881  26.705  1.00  0.00     0.022 A 
BRANCH  98 102
ATOM    102  S   UNL A   1      48.483  27.273  25.819  1.00  0.00     0.124 S 
ATOM    103  O   UNL A   1      49.091  27.919  24.665  1.00  0.00    -0.237 OA
ATOM    104  O   UNL A   1      49.390  26.769  26.849  1.00  0.00    -0.237 OA
ATOM    105  O   UNL A   1      47.356  26.391  25.508  1.00  0.00    -0.744 OA
ENDBRANCH  98 102
ENDBRANCH  72  95
ENDBRANCH  46  47
ENDBRANCH  39  41
ENDBRANCH  38  39
ENDBRANCH  37  38
ENDBRANCH  36  37
ENDBRANCH  35  36
ENDBRANCH   1  35
TORSDOF 22
ENDMDL
