MODEL 1
REMARK VINA RESULT:     -10.7      0.000      0.000
REMARK SMILES O=C(OCCOC(=O)[C@@H](CCCCO)c1cccc(Cl)c1)c1ccc(-c2c3nc(c(-c4cc(S(=O)(=O)[O-])ccc4F)c4ccc([nH]4)c(-c4cc(S(=O)(=O)[O-])ccc4F)c4nc(c(-c5cc(S(=O)(=O)[O-])ccc5F)c5ccc2[nH]5)C=C4)C=C3)cc1
REMARK SMILES IDX 5 1 4 2 3 3 2 4 1 5 22 6 23 7 84 8 24 9 83 10 25 11 26 12
REMARK SMILES IDX 27 13 77 14 28 15 82 16 76 17 78 18 29 19 81 20 75 21 74 22
REMARK SMILES IDX 30 24 62 25 42 26 61 27 43 28 46 29 60 30 79 31 44 32 45 33
REMARK SMILES IDX 59 35 80 36 47 37 31 38 32 39 40 40 33 41 39 42 41 43 38 44
REMARK SMILES IDX 34 45 35 46 36 47 37 48 63 49 64 50 72 51 65 52 71 53 73 54
REMARK SMILES IDX 70 55 66 56 67 57 68 58 69 59 48 60 49 61 57 62 50 63 56 64
REMARK SMILES IDX 58 65 55 66 51 67 52 68 53 69 54 70 6 71 7 72 8 73 9 74
REMARK SMILES IDX 10 75 11 76 12 77 13 78 14 79 15 81 16 82 21 83 17 84 19 85
REMARK SMILES IDX 18 86 20 87
REMARK H PARENT 78 23 46 34 14 80
REMARK Flexibility Score: inf
ROOT
ATOM      1  C   UNL A   1      33.651  29.209  26.208  1.00  0.00     0.274 C 
ENDROOT
BRANCH   1   2
ATOM      2  C   UNL A   1      33.035  30.585  26.491  1.00  0.00     0.275 C 
BRANCH   2   3
ATOM      3  O   UNL A   1      33.635  31.325  27.554  1.00  0.00    -0.458 OA
BRANCH   3   4
ATOM      4  C   UNL A   1      34.930  31.658  27.748  1.00  0.00     0.338 C 
ATOM      5  O   UNL A   1      35.235  32.843  27.606  1.00  0.00    -0.246 OA
BRANCH   4   6
ATOM      6  C   UNL A   1      36.033  30.668  27.998  1.00  0.00     0.060 A 
ATOM      7  C   UNL A   1      37.208  30.471  27.261  1.00  0.00     0.016 A 
ATOM      8  C   UNL A   1      35.887  29.922  29.172  1.00  0.00     0.016 A 
ATOM      9  C   UNL A   1      38.261  29.668  27.746  1.00  0.00     0.010 A 
ATOM     10  C   UNL A   1      36.956  29.187  29.687  1.00  0.00     0.010 A 
ATOM     11  C   UNL A   1      38.176  29.064  28.998  1.00  0.00    -0.014 A 
BRANCH  11  12
ATOM     12  C   UNL A   1      39.303  28.308  29.636  1.00  0.00     0.031 A 
ATOM     13  C   UNL A   1      40.020  28.965  30.791  1.00  0.00     0.074 A 
ATOM     14  C   UNL A   1      39.820  27.178  29.093  1.00  0.00     0.049 A 
ATOM     15  N   UNL A   1      41.160  28.651  31.347  1.00  0.00    -0.248 NA
ATOM     16  C   UNL A   1      39.402  30.187  31.340  1.00  0.00     0.031 C 
ATOM     17  C   UNL A   1      39.306  26.459  27.917  1.00  0.00     0.029 A 
ATOM     18  N   UNL A   1      40.980  26.494  29.388  1.00  0.00    -0.354 N 
ATOM     19  C   UNL A   1      41.337  29.603  32.343  1.00  0.00     0.074 A 
ATOM     20  C   UNL A   1      40.372  30.649  32.108  1.00  0.00     0.031 C 
ATOM     21  C   UNL A   1      40.208  25.544  27.517  1.00  0.00     0.029 A 
ATOM     22  C   UNL A   1      41.336  25.555  28.438  1.00  0.00     0.049 A 
ATOM     23  H   UNL A   1      41.508  26.659  30.202  1.00  0.00     0.167 HD
ATOM     24  C   UNL A   1      42.084  29.521  33.470  1.00  0.00     0.034 A 
ATOM     25  C   UNL A   1      42.445  24.795  28.325  1.00  0.00     0.034 A 
ATOM     26  C   UNL A   1      43.006  28.452  33.719  1.00  0.00     0.049 A 
ATOM     27  C   UNL A   1      43.412  24.793  29.483  1.00  0.00     0.074 A 
ATOM     28  C   UNL A   1      43.753  28.186  34.849  1.00  0.00     0.029 A 
ATOM     29  N   UNL A   1      43.308  27.462  32.793  1.00  0.00    -0.354 N 
ATOM     30  N   UNL A   1      43.438  25.578  30.536  1.00  0.00    -0.248 NA
ATOM     31  C   UNL A   1      44.433  23.738  29.491  1.00  0.00     0.031 C 
ATOM     32  C   UNL A   1      44.538  27.056  34.591  1.00  0.00     0.029 A 
ATOM     33  C   UNL A   1      44.239  26.587  33.320  1.00  0.00     0.049 A 
ATOM     34  H   UNL A   1      42.916  27.392  31.894  1.00  0.00     0.167 HD
ATOM     35  C   UNL A   1      44.404  25.039  31.383  1.00  0.00     0.074 A 
ATOM     36  C   UNL A   1      44.960  23.891  30.696  1.00  0.00     0.031 C 
ATOM     37  C   UNL A   1      44.763  25.433  32.632  1.00  0.00     0.034 A 
BRANCH  24  38
ATOM     38  C   UNL A   1      41.794  30.556  34.529  1.00  0.00     0.023 A 
ATOM     39  C   UNL A   1      40.593  30.482  35.268  1.00  0.00     0.031 A 
ATOM     40  C   UNL A   1      42.624  31.663  34.739  1.00  0.00     0.131 A 
ATOM     41  C   UNL A   1      40.188  31.558  36.066  1.00  0.00     0.055 A 
ATOM     42  C   UNL A   1      42.264  32.687  35.622  1.00  0.00     0.041 A 
ATOM     43  F   UNL A   1      43.776  31.794  34.061  1.00  0.00    -0.206 F 
ATOM     44  C   UNL A   1      41.029  32.650  36.270  1.00  0.00     0.022 A 
BRANCH  41  45
ATOM     45  S   UNL A   1      38.477  31.576  36.668  1.00  0.00     0.124 S 
ATOM     46  O   UNL A   1      38.091  30.175  36.496  1.00  0.00    -0.237 OA
ATOM     47  O   UNL A   1      38.623  32.031  38.040  1.00  0.00    -0.237 OA
ATOM     48  O   UNL A   1      37.809  32.514  35.762  1.00  0.00    -0.744 OA
ENDBRANCH  41  45
ENDBRANCH  24  38
BRANCH  25  49
ATOM     49  C   UNL A   1      42.694  23.919  27.139  1.00  0.00     0.023 A 
ATOM     50  C   UNL A   1      42.284  22.575  27.125  1.00  0.00     0.031 A 
ATOM     51  C   UNL A   1      43.448  24.385  26.047  1.00  0.00     0.131 A 
ATOM     52  C   UNL A   1      42.696  21.723  26.085  1.00  0.00     0.055 A 
ATOM     53  C   UNL A   1      43.825  23.542  24.995  1.00  0.00     0.041 A 
ATOM     54  F   UNL A   1      43.855  25.664  25.999  1.00  0.00    -0.206 F 
ATOM     55  C   UNL A   1      43.464  22.198  25.020  1.00  0.00     0.022 A 
BRANCH  52  56
ATOM     56  S   UNL A   1      42.301  19.954  26.202  1.00  0.00     0.124 S 
ATOM     57  O   UNL A   1      43.499  19.345  25.639  1.00  0.00    -0.237 OA
ATOM     58  O   UNL A   1      42.110  19.787  27.639  1.00  0.00    -0.237 OA
ATOM     59  O   UNL A   1      41.090  19.821  25.395  1.00  0.00    -0.744 OA
ENDBRANCH  52  56
ENDBRANCH  25  49
BRANCH  37  60
ATOM     60  C   UNL A   1      45.723  24.544  33.377  1.00  0.00     0.023 A 
ATOM     61  C   UNL A   1      47.104  24.786  33.380  1.00  0.00     0.031 A 
ATOM     62  C   UNL A   1      45.240  23.421  34.074  1.00  0.00     0.131 A 
ATOM     63  C   UNL A   1      47.965  23.874  34.005  1.00  0.00     0.055 A 
ATOM     64  C   UNL A   1      46.096  22.563  34.763  1.00  0.00     0.041 A 
ATOM     65  F   UNL A   1      43.927  23.141  34.095  1.00  0.00    -0.206 F 
ATOM     66  C   UNL A   1      47.470  22.778  34.717  1.00  0.00     0.022 A 
BRANCH  63  67
ATOM     67  S   UNL A   1      49.750  24.078  33.769  1.00  0.00     0.124 S 
ATOM     68  O   UNL A   1      50.154  24.673  35.038  1.00  0.00    -0.237 OA
ATOM     69  O   UNL A   1      50.193  22.707  33.538  1.00  0.00    -0.237 OA
ATOM     70  O   UNL A   1      49.842  24.963  32.609  1.00  0.00    -0.744 OA
ENDBRANCH  63  67
ENDBRANCH  37  60
ENDBRANCH  11  12
ENDBRANCH   4   6
ENDBRANCH   3   4
ENDBRANCH   2   3
ENDBRANCH   1   2
BRANCH   1  71
ATOM     71  O   UNL A   1      33.327  28.154  27.137  1.00  0.00    -0.462 OA
BRANCH  71  72
ATOM     72  C   UNL A   1      32.073  27.624  27.018  1.00  0.00     0.313 C 
ATOM     73  O   UNL A   1      31.178  27.830  27.835  1.00  0.00    -0.252 OA
BRANCH  72  74
ATOM     74  C   UNL A   1      31.904  26.634  25.845  1.00  0.00     0.129 C 
BRANCH  74  75
ATOM     75  C   UNL A   1      31.676  27.334  24.485  1.00  0.00     0.020 C 
BRANCH  75  76
ATOM     76  C   UNL A   1      30.265  27.337  23.914  1.00  0.00     0.004 C 
BRANCH  76  77
ATOM     77  C   UNL A   1      29.884  28.090  22.643  1.00  0.00     0.028 C 
BRANCH  77  78
ATOM     78  C   UNL A   1      30.140  29.585  22.615  1.00  0.00     0.156 C 
BRANCH  78  79
ATOM     79  O   UNL A   1      30.307  30.014  21.268  1.00  0.00    -0.396 OA
ATOM     80  H   UNL A   1      30.075  30.953  21.197  1.00  0.00     0.210 HD
ENDBRANCH  78  79
ENDBRANCH  77  78
ENDBRANCH  76  77
ENDBRANCH  75  76
ENDBRANCH  74  75
BRANCH  74  81
ATOM     81  C   UNL A   1      32.875  25.456  25.824  1.00  0.00    -0.032 A 
ATOM     82  C   UNL A   1      33.993  25.474  24.966  1.00  0.00     0.005 A 
ATOM     83  C   UNL A   1      32.691  24.315  26.617  1.00  0.00     0.025 A 
ATOM     84  C   UNL A   1      34.987  24.497  25.039  1.00  0.00     0.002 A 
ATOM     85  C   UNL A   1      33.658  23.304  26.642  1.00  0.00     0.041 A 
ATOM     86  C   UNL A   1      34.825  23.412  25.891  1.00  0.00     0.020 A 
ATOM     87  Cl  UNL A   1      33.400  21.910  27.617  1.00  0.00    -0.084 Cl
ENDBRANCH  74  81
ENDBRANCH  72  74
ENDBRANCH  71  72
ENDBRANCH   1  71
TORSDOF 20
ENDMDL
MODEL 2
REMARK VINA RESULT:     -10.6      5.268     10.698
REMARK SMILES O=C(OCCOC(=O)[C@@H](CCCCO)c1cccc(Cl)c1)c1ccc(-c2c3nc(c(-c4cc(S(=O)(=O)[O-])ccc4F)c4ccc([nH]4)c(-c4cc(S(=O)(=O)[O-])ccc4F)c4nc(c(-c5cc(S(=O)(=O)[O-])ccc5F)c5ccc2[nH]5)C=C4)C=C3)cc1
REMARK SMILES IDX 5 1 4 2 3 3 2 4 1 5 22 6 23 7 84 8 24 9 83 10 25 11 26 12
REMARK SMILES IDX 27 13 77 14 28 15 82 16 76 17 78 18 29 19 81 20 75 21 74 22
REMARK SMILES IDX 30 24 62 25 42 26 61 27 43 28 46 29 60 30 79 31 44 32 45 33
REMARK SMILES IDX 59 35 80 36 47 37 31 38 32 39 40 40 33 41 39 42 41 43 38 44
REMARK SMILES IDX 34 45 35 46 36 47 37 48 63 49 64 50 72 51 65 52 71 53 73 54
REMARK SMILES IDX 70 55 66 56 67 57 68 58 69 59 48 60 49 61 57 62 50 63 56 64
REMARK SMILES IDX 58 65 55 66 51 67 52 68 53 69 54 70 6 71 7 72 8 73 9 74
REMARK SMILES IDX 10 75 11 76 12 77 13 78 14 79 15 81 16 82 21 83 17 84 19 85
REMARK SMILES IDX 18 86 20 87
REMARK H PARENT 78 23 46 34 14 80
REMARK Flexibility Score: inf
ROOT
ATOM      1  C   UNL A   1      36.571  21.232  24.827  1.00  0.00     0.274 C 
ENDROOT
BRANCH   1   2
ATOM      2  C   UNL A   1      37.425  22.232  25.617  1.00  0.00     0.275 C 
BRANCH   2   3
ATOM      3  O   UNL A   1      38.730  21.781  25.978  1.00  0.00    -0.458 OA
BRANCH   3   4
ATOM      4  C   UNL A   1      39.725  22.439  26.613  1.00  0.00     0.338 C 
ATOM      5  O   UNL A   1      40.704  21.780  26.962  1.00  0.00    -0.246 OA
BRANCH   4   6
ATOM      6  C   UNL A   1      39.658  23.882  27.028  1.00  0.00     0.060 A 
ATOM      7  C   UNL A   1      39.259  24.415  28.261  1.00  0.00     0.016 A 
ATOM      8  C   UNL A   1      40.145  24.783  26.075  1.00  0.00     0.016 A 
ATOM      9  C   UNL A   1      39.469  25.771  28.585  1.00  0.00     0.010 A 
ATOM     10  C   UNL A   1      40.420  26.107  26.422  1.00  0.00     0.010 A 
ATOM     11  C   UNL A   1      40.112  26.624  27.693  1.00  0.00    -0.014 A 
BRANCH  11  12
ATOM     12  C   UNL A   1      40.489  28.039  28.017  1.00  0.00     0.031 A 
ATOM     13  C   UNL A   1      41.950  28.337  28.253  1.00  0.00     0.074 A 
ATOM     14  C   UNL A   1      39.565  28.990  28.301  1.00  0.00     0.049 A 
ATOM     15  N   UNL A   1      42.507  29.394  28.783  1.00  0.00    -0.248 NA
ATOM     16  C   UNL A   1      42.903  27.263  27.916  1.00  0.00     0.031 C 
ATOM     17  C   UNL A   1      38.104  28.842  28.217  1.00  0.00     0.029 A 
ATOM     18  N   UNL A   1      39.716  30.248  28.846  1.00  0.00    -0.354 N 
ATOM     19  C   UNL A   1      43.867  29.117  28.768  1.00  0.00     0.074 A 
ATOM     20  C   UNL A   1      44.012  27.711  28.476  1.00  0.00     0.031 C 
ATOM     21  C   UNL A   1      37.508  29.891  28.814  1.00  0.00     0.029 A 
ATOM     22  C   UNL A   1      38.531  30.823  29.268  1.00  0.00     0.049 A 
ATOM     23  H   UNL A   1      40.588  30.697  28.927  1.00  0.00     0.167 HD
ATOM     24  C   UNL A   1      44.909  29.983  28.784  1.00  0.00     0.034 A 
ATOM     25  C   UNL A   1      38.302  31.967  29.945  1.00  0.00     0.034 A 
ATOM     26  C   UNL A   1      44.752  31.387  29.026  1.00  0.00     0.049 A 
ATOM     27  C   UNL A   1      39.467  32.904  30.149  1.00  0.00     0.074 A 
ATOM     28  C   UNL A   1      45.695  32.394  28.977  1.00  0.00     0.029 A 
ATOM     29  N   UNL A   1      43.546  31.980  29.376  1.00  0.00    -0.354 N 
ATOM     30  N   UNL A   1      40.744  32.691  29.928  1.00  0.00    -0.248 NA
ATOM     31  C   UNL A   1      39.150  34.267  30.594  1.00  0.00     0.031 C 
ATOM     32  C   UNL A   1      45.065  33.592  29.337  1.00  0.00     0.029 A 
ATOM     33  C   UNL A   1      43.719  33.339  29.557  1.00  0.00     0.049 A 
ATOM     34  H   UNL A   1      42.691  31.503  29.478  1.00  0.00     0.167 HD
ATOM     35  C   UNL A   1      41.366  33.926  30.097  1.00  0.00     0.074 A 
ATOM     36  C   UNL A   1      40.327  34.862  30.478  1.00  0.00     0.031 C 
ATOM     37  C   UNL A   1      42.668  34.262  29.909  1.00  0.00     0.034 A 
BRANCH  24  38
ATOM     38  C   UNL A   1      46.249  29.409  28.394  1.00  0.00     0.023 A 
ATOM     39  C   UNL A   1      46.542  29.181  27.032  1.00  0.00     0.031 A 
ATOM     40  C   UNL A   1      47.186  28.987  29.345  1.00  0.00     0.131 A 
ATOM     41  C   UNL A   1      47.661  28.424  26.668  1.00  0.00     0.055 A 
ATOM     42  C   UNL A   1      48.358  28.324  28.967  1.00  0.00     0.041 A 
ATOM     43  F   UNL A   1      46.961  29.170  30.656  1.00  0.00    -0.206 F 
ATOM     44  C   UNL A   1      48.588  28.016  27.626  1.00  0.00     0.022 A 
BRANCH  41  45
ATOM     45  S   UNL A   1      47.770  27.832  24.957  1.00  0.00     0.124 S 
ATOM     46  O   UNL A   1      49.160  28.148  24.626  1.00  0.00    -0.237 OA
ATOM     47  O   UNL A   1      47.451  26.421  25.084  1.00  0.00    -0.237 OA
ATOM     48  O   UNL A   1      46.771  28.641  24.254  1.00  0.00    -0.744 OA
ENDBRANCH  41  45
ENDBRANCH  24  38
BRANCH  25  49
ATOM     49  C   UNL A   1      36.937  32.352  30.419  1.00  0.00     0.023 A 
ATOM     50  C   UNL A   1      36.013  32.972  29.560  1.00  0.00     0.031 A 
ATOM     51  C   UNL A   1      36.579  32.211  31.772  1.00  0.00     0.131 A 
ATOM     52  C   UNL A   1      34.815  33.497  30.074  1.00  0.00     0.055 A 
ATOM     53  C   UNL A   1      35.368  32.703  32.272  1.00  0.00     0.041 A 
ATOM     54  F   UNL A   1      37.416  31.614  32.636  1.00  0.00    -0.206 F 
ATOM     55  C   UNL A   1      34.486  33.366  31.424  1.00  0.00     0.022 A 
BRANCH  52  56
ATOM     56  S   UNL A   1      33.737  34.451  28.966  1.00  0.00     0.124 S 
ATOM     57  O   UNL A   1      32.735  34.961  29.893  1.00  0.00    -0.237 OA
ATOM     58  O   UNL A   1      34.668  35.434  28.421  1.00  0.00    -0.237 OA
ATOM     59  O   UNL A   1      33.259  33.453  28.012  1.00  0.00    -0.744 OA
ENDBRANCH  52  56
ENDBRANCH  25  49
BRANCH  37  60
ATOM     60  C   UNL A   1      43.015  35.723  30.002  1.00  0.00     0.023 A 
ATOM     61  C   UNL A   1      42.763  36.611  28.946  1.00  0.00     0.031 A 
ATOM     62  C   UNL A   1      43.634  36.224  31.162  1.00  0.00     0.131 A 
ATOM     63  C   UNL A   1      43.195  37.941  29.042  1.00  0.00     0.055 A 
ATOM     64  C   UNL A   1      43.988  37.567  31.283  1.00  0.00     0.041 A 
ATOM     65  F   UNL A   1      43.905  35.413  32.197  1.00  0.00    -0.206 F 
ATOM     66  C   UNL A   1      43.784  38.431  30.211  1.00  0.00     0.022 A 
BRANCH  63  67
ATOM     67  S   UNL A   1      43.086  38.988  27.568  1.00  0.00     0.124 S 
ATOM     68  O   UNL A   1      44.370  39.679  27.595  1.00  0.00    -0.237 OA
ATOM     69  O   UNL A   1      42.913  38.007  26.501  1.00  0.00    -0.237 OA
ATOM     70  O   UNL A   1      41.920  39.829  27.832  1.00  0.00    -0.744 OA
ENDBRANCH  63  67
ENDBRANCH  37  60
ENDBRANCH  11  12
ENDBRANCH   4   6
ENDBRANCH   3   4
ENDBRANCH   2   3
ENDBRANCH   1   2
BRANCH   1  71
ATOM     71  O   UNL A   1      35.546  20.536  25.564  1.00  0.00    -0.462 OA
BRANCH  71  72
ATOM     72  C   UNL A   1      34.325  21.148  25.604  1.00  0.00     0.313 C 
ATOM     73  O   UNL A   1      33.693  21.317  26.645  1.00  0.00    -0.252 OA
BRANCH  72  74
ATOM     74  C   UNL A   1      33.735  21.492  24.219  1.00  0.00     0.129 C 
BRANCH  74  75
ATOM     75  C   UNL A   1      32.499  20.637  23.854  1.00  0.00     0.020 C 
BRANCH  75  76
ATOM     76  C   UNL A   1      32.510  19.166  24.247  1.00  0.00     0.004 C 
BRANCH  76  77
ATOM     77  C   UNL A   1      33.341  18.116  23.515  1.00  0.00     0.028 C 
BRANCH  77  78
ATOM     78  C   UNL A   1      34.384  17.367  24.321  1.00  0.00     0.156 C 
BRANCH  78  79
ATOM     79  O   UNL A   1      33.836  16.995  25.581  1.00  0.00    -0.396 OA
ATOM     80  H   UNL A   1      34.341  17.422  26.291  1.00  0.00     0.210 HD
ENDBRANCH  78  79
ENDBRANCH  77  78
ENDBRANCH  76  77
ENDBRANCH  75  76
ENDBRANCH  74  75
BRANCH  74  81
ATOM     81  C   UNL A   1      33.625  22.980  23.895  1.00  0.00    -0.032 A 
ATOM     82  C   UNL A   1      33.996  23.944  24.854  1.00  0.00     0.005 A 
ATOM     83  C   UNL A   1      33.134  23.448  22.668  1.00  0.00     0.025 A 
ATOM     84  C   UNL A   1      34.065  25.302  24.536  1.00  0.00     0.002 A 
ATOM     85  C   UNL A   1      33.144  24.816  22.374  1.00  0.00     0.041 A 
ATOM     86  C   UNL A   1      33.649  25.739  23.286  1.00  0.00     0.020 A 
ATOM     87  Cl  UNL A   1      32.526  25.362  20.864  1.00  0.00    -0.084 Cl
ENDBRANCH  74  81
ENDBRANCH  72  74
ENDBRANCH  71  72
ENDBRANCH   1  71
TORSDOF 20
ENDMDL
MODEL 3
REMARK VINA RESULT:     -10.6      5.164     10.332
REMARK SMILES O=C(OCCOC(=O)[C@@H](CCCCO)c1cccc(Cl)c1)c1ccc(-c2c3nc(c(-c4cc(S(=O)(=O)[O-])ccc4F)c4ccc([nH]4)c(-c4cc(S(=O)(=O)[O-])ccc4F)c4nc(c(-c5cc(S(=O)(=O)[O-])ccc5F)c5ccc2[nH]5)C=C4)C=C3)cc1
REMARK SMILES IDX 5 1 4 2 3 3 2 4 1 5 22 6 23 7 84 8 24 9 83 10 25 11 26 12
REMARK SMILES IDX 27 13 77 14 28 15 82 16 76 17 78 18 29 19 81 20 75 21 74 22
REMARK SMILES IDX 30 24 62 25 42 26 61 27 43 28 46 29 60 30 79 31 44 32 45 33
REMARK SMILES IDX 59 35 80 36 47 37 31 38 32 39 40 40 33 41 39 42 41 43 38 44
REMARK SMILES IDX 34 45 35 46 36 47 37 48 63 49 64 50 72 51 65 52 71 53 73 54
REMARK SMILES IDX 70 55 66 56 67 57 68 58 69 59 48 60 49 61 57 62 50 63 56 64
REMARK SMILES IDX 58 65 55 66 51 67 52 68 53 69 54 70 6 71 7 72 8 73 9 74
REMARK SMILES IDX 10 75 11 76 12 77 13 78 14 79 15 81 16 82 21 83 17 84 19 85
REMARK SMILES IDX 18 86 20 87
REMARK H PARENT 78 23 46 34 14 80
REMARK Flexibility Score: inf
ROOT
ATOM      1  C   UNL A   1      36.707  23.037  24.994  1.00  0.00     0.274 C 
ENDROOT
BRANCH   1   2
ATOM      2  C   UNL A   1      37.378  21.801  25.606  1.00  0.00     0.275 C 
BRANCH   2   3
ATOM      3  O   UNL A   1      38.798  21.871  25.740  1.00  0.00    -0.458 OA
BRANCH   3   4
ATOM      4  C   UNL A   1      39.545  22.412  26.727  1.00  0.00     0.338 C 
ATOM      5  O   UNL A   1      40.221  21.642  27.409  1.00  0.00    -0.246 OA
BRANCH   4   6
ATOM      6  C   UNL A   1      39.506  23.861  27.123  1.00  0.00     0.060 A 
ATOM      7  C   UNL A   1      39.231  24.412  28.382  1.00  0.00     0.016 A 
ATOM      8  C   UNL A   1      39.884  24.749  26.111  1.00  0.00     0.016 A 
ATOM      9  C   UNL A   1      39.459  25.775  28.661  1.00  0.00     0.010 A 
ATOM     10  C   UNL A   1      40.180  26.082  26.406  1.00  0.00     0.010 A 
ATOM     11  C   UNL A   1      39.999  26.618  27.693  1.00  0.00    -0.014 A 
BRANCH  11  12
ATOM     12  C   UNL A   1      40.392  28.042  27.954  1.00  0.00     0.031 A 
ATOM     13  C   UNL A   1      41.865  28.347  28.083  1.00  0.00     0.074 A 
ATOM     14  C   UNL A   1      39.487  28.999  28.275  1.00  0.00     0.049 A 
ATOM     15  N   UNL A   1      42.453  29.418  28.546  1.00  0.00    -0.248 NA
ATOM     16  C   UNL A   1      42.797  27.265  27.711  1.00  0.00     0.031 C 
ATOM     17  C   UNL A   1      38.024  28.847  28.293  1.00  0.00     0.029 A 
ATOM     18  N   UNL A   1      39.670  30.271  28.775  1.00  0.00    -0.354 N 
ATOM     19  C   UNL A   1      43.811  29.142  28.447  1.00  0.00     0.074 A 
ATOM     20  C   UNL A   1      43.940  27.730  28.183  1.00  0.00     0.031 C 
ATOM     21  C   UNL A   1      37.467  29.911  28.902  1.00  0.00     0.029 A 
ATOM     22  C   UNL A   1      38.516  30.855  29.261  1.00  0.00     0.049 A 
ATOM     23  H   UNL A   1      40.545  30.722  28.785  1.00  0.00     0.167 HD
ATOM     24  C   UNL A   1      44.848  30.010  28.369  1.00  0.00     0.034 A 
ATOM     25  C   UNL A   1      38.329  32.016  29.921  1.00  0.00     0.034 A 
ATOM     26  C   UNL A   1      44.704  31.419  28.585  1.00  0.00     0.049 A 
ATOM     27  C   UNL A   1      39.502  32.960  30.022  1.00  0.00     0.074 A 
ATOM     28  C   UNL A   1      45.639  32.426  28.446  1.00  0.00     0.029 A 
ATOM     29  N   UNL A   1      43.523  32.020  28.999  1.00  0.00    -0.354 N 
ATOM     30  N   UNL A   1      40.762  32.742  29.721  1.00  0.00    -0.248 NA
ATOM     31  C   UNL A   1      39.212  34.334  30.451  1.00  0.00     0.031 C 
ATOM     32  C   UNL A   1      45.031  33.632  28.816  1.00  0.00     0.029 A 
ATOM     33  C   UNL A   1      43.704  33.384  29.133  1.00  0.00     0.049 A 
ATOM     34  H   UNL A   1      42.678  31.545  29.172  1.00  0.00     0.167 HD
ATOM     35  C   UNL A   1      41.391  33.982  29.815  1.00  0.00     0.074 A 
ATOM     36  C   UNL A   1      40.377  34.927  30.240  1.00  0.00     0.031 C 
ATOM     37  C   UNL A   1      42.676  34.314  29.531  1.00  0.00     0.034 A 
BRANCH  24  38
ATOM     38  C   UNL A   1      46.161  29.427  27.906  1.00  0.00     0.023 A 
ATOM     39  C   UNL A   1      46.332  29.085  26.547  1.00  0.00     0.031 A 
ATOM     40  C   UNL A   1      47.192  29.107  28.796  1.00  0.00     0.131 A 
ATOM     41  C   UNL A   1      47.431  28.319  26.145  1.00  0.00     0.055 A 
ATOM     42  C   UNL A   1      48.341  28.434  28.367  1.00  0.00     0.041 A 
ATOM     43  F   UNL A   1      47.086  29.400  30.102  1.00  0.00    -0.206 F 
ATOM     44  C   UNL A   1      48.453  28.013  27.042  1.00  0.00     0.022 A 
BRANCH  41  45
ATOM     45  S   UNL A   1      47.396  27.581  24.488  1.00  0.00     0.124 S 
ATOM     46  O   UNL A   1      48.806  27.243  24.288  1.00  0.00    -0.237 OA
ATOM     47  O   UNL A   1      46.491  26.457  24.656  1.00  0.00    -0.237 OA
ATOM     48  O   UNL A   1      46.898  28.669  23.642  1.00  0.00    -0.744 OA
ENDBRANCH  41  45
ENDBRANCH  24  38
BRANCH  25  49
ATOM     49  C   UNL A   1      36.998  32.413  30.476  1.00  0.00     0.023 A 
ATOM     50  C   UNL A   1      36.010  32.992  29.662  1.00  0.00     0.031 A 
ATOM     51  C   UNL A   1      36.739  32.323  31.855  1.00  0.00     0.131 A 
ATOM     52  C   UNL A   1      34.847  33.530  30.238  1.00  0.00     0.055 A 
ATOM     53  C   UNL A   1      35.562  32.828  32.421  1.00  0.00     0.041 A 
ATOM     54  F   UNL A   1      37.640  31.766  32.681  1.00  0.00    -0.206 F 
ATOM     55  C   UNL A   1      34.616  33.452  31.613  1.00  0.00     0.022 A 
BRANCH  52  56
ATOM     56  S   UNL A   1      33.685  34.433  29.173  1.00  0.00     0.124 S 
ATOM     57  O   UNL A   1      34.539  35.478  28.621  1.00  0.00    -0.237 OA
ATOM     58  O   UNL A   1      33.263  33.391  28.243  1.00  0.00    -0.237 OA
ATOM     59  O   UNL A   1      32.655  34.891  30.103  1.00  0.00    -0.744 OA
ENDBRANCH  52  56
ENDBRANCH  25  49
BRANCH  37  60
ATOM     60  C   UNL A   1      43.025  35.778  29.561  1.00  0.00     0.023 A 
ATOM     61  C   UNL A   1      43.615  36.375  30.685  1.00  0.00     0.031 A 
ATOM     62  C   UNL A   1      42.735  36.590  28.450  1.00  0.00     0.131 A 
ATOM     63  C   UNL A   1      43.828  37.759  30.701  1.00  0.00     0.055 A 
ATOM     64  C   UNL A   1      43.026  37.953  28.442  1.00  0.00     0.041 A 
ATOM     65  F   UNL A   1      42.163  36.068  27.352  1.00  0.00    -0.206 F 
ATOM     66  C   UNL A   1      43.561  38.549  29.580  1.00  0.00     0.022 A 
BRANCH  63  67
ATOM     67  S   UNL A   1      44.348  38.530  32.256  1.00  0.00     0.124 S 
ATOM     68  O   UNL A   1      44.977  37.410  32.949  1.00  0.00    -0.237 OA
ATOM     69  O   UNL A   1      45.248  39.583  31.798  1.00  0.00    -0.237 OA
ATOM     70  O   UNL A   1      43.093  38.998  32.842  1.00  0.00    -0.744 OA
ENDBRANCH  63  67
ENDBRANCH  37  60
ENDBRANCH  11  12
ENDBRANCH   4   6
ENDBRANCH   3   4
ENDBRANCH   2   3
ENDBRANCH   1   2
BRANCH   1  71
ATOM     71  O   UNL A   1      35.332  22.889  24.586  1.00  0.00    -0.462 OA
BRANCH  71  72
ATOM     72  C   UNL A   1      34.402  23.424  25.431  1.00  0.00     0.313 C 
ATOM     73  O   UNL A   1      34.362  23.170  26.633  1.00  0.00    -0.252 OA
BRANCH  72  74
ATOM     74  C   UNL A   1      33.314  24.272  24.734  1.00  0.00     0.129 C 
BRANCH  74  75
ATOM     75  C   UNL A   1      31.882  23.732  24.963  1.00  0.00     0.020 C 
BRANCH  75  76
ATOM     76  C   UNL A   1      30.731  24.463  24.286  1.00  0.00     0.004 C 
BRANCH  76  77
ATOM     77  C   UNL A   1      30.025  25.663  24.910  1.00  0.00     0.028 C 
BRANCH  77  78
ATOM     78  C   UNL A   1      29.174  26.524  23.998  1.00  0.00     0.156 C 
BRANCH  78  79
ATOM     79  O   UNL A   1      27.915  25.894  23.787  1.00  0.00    -0.396 OA
ATOM     80  H   UNL A   1      27.229  26.369  24.280  1.00  0.00     0.210 HD
ENDBRANCH  78  79
ENDBRANCH  77  78
ENDBRANCH  76  77
ENDBRANCH  75  76
ENDBRANCH  74  75
BRANCH  74  81
ATOM     81  C   UNL A   1      33.473  25.785  24.853  1.00  0.00    -0.032 A 
ATOM     82  C   UNL A   1      33.426  26.406  26.118  1.00  0.00     0.005 A 
ATOM     83  C   UNL A   1      33.641  26.614  23.735  1.00  0.00     0.025 A 
ATOM     84  C   UNL A   1      33.731  27.759  26.280  1.00  0.00     0.002 A 
ATOM     85  C   UNL A   1      33.884  27.983  23.895  1.00  0.00     0.041 A 
ATOM     86  C   UNL A   1      33.974  28.549  25.165  1.00  0.00     0.020 A 
ATOM     87  Cl  UNL A   1      34.076  28.977  22.504  1.00  0.00    -0.084 Cl
ENDBRANCH  74  81
ENDBRANCH  72  74
ENDBRANCH  71  72
ENDBRANCH   1  71
TORSDOF 20
ENDMDL
