MODEL 1
REMARK VINA RESULT:     -10.9      0.000      0.000
REMARK SMILES O=C(OCCOC(=O)[C@H]1CC[C@@H](C(F)F)[NH2+]1)c1ccc(-c2c3nc(c(-c4cc(S(=O)(=O)[O-])ccc4F)c4ccc([nH]4)c(-c4cc(S(=O)(=O)[O-])ccc4F)c4nc(c(-c5cc(S(=O)(=O)[O-])ccc5F)c5ccc2[nH]5)C=C4)C=C3)cc1
REMARK SMILES IDX 4 1 3 2 2 3 1 4 17 5 18 6 79 7 19 8 78 9 20 10 21 11 22 12
REMARK SMILES IDX 72 13 23 14 77 15 71 16 73 17 24 18 76 19 70 20 69 21 25 23
REMARK SMILES IDX 57 24 37 25 56 26 38 27 41 28 55 29 74 30 39 31 40 32 54 34
REMARK SMILES IDX 75 35 42 36 26 37 27 38 35 39 28 40 34 41 36 42 33 43 29 44
REMARK SMILES IDX 30 45 31 46 32 47 58 48 59 49 67 50 60 51 66 52 68 53 65 54
REMARK SMILES IDX 61 55 62 56 63 57 64 58 43 59 44 60 52 61 45 62 51 63 53 64
REMARK SMILES IDX 50 65 46 66 47 67 48 68 49 69 5 70 6 71 7 72 8 73 9 74 10 75
REMARK SMILES IDX 16 76 11 77 12 78 13 81 14 82 15 83
REMARK H PARENT 73 22 41 33 16 79 16 80
REMARK Flexibility Score: inf
ROOT
ATOM      1  C   UNL A   1      33.284  34.164  28.120  1.00  0.00     0.275 C 
ENDROOT
BRANCH   1   2
ATOM      2  O   UNL A   1      34.178  33.208  27.540  1.00  0.00    -0.458 OA
BRANCH   2   3
ATOM      3  C   UNL A   1      34.259  31.873  27.737  1.00  0.00     0.338 C 
ATOM      4  O   UNL A   1      33.260  31.201  27.469  1.00  0.00    -0.246 OA
BRANCH   3   5
ATOM      5  C   UNL A   1      35.444  31.167  28.334  1.00  0.00     0.060 A 
ATOM      6  C   UNL A   1      35.562  29.820  28.691  1.00  0.00     0.016 A 
ATOM      7  C   UNL A   1      36.579  31.968  28.507  1.00  0.00     0.016 A 
ATOM      8  C   UNL A   1      36.786  29.281  29.118  1.00  0.00     0.010 A 
ATOM      9  C   UNL A   1      37.818  31.418  28.833  1.00  0.00     0.010 A 
ATOM     10  C   UNL A   1      37.935  30.070  29.171  1.00  0.00    -0.014 A 
BRANCH  10  11
ATOM     11  C   UNL A   1      39.215  29.546  29.715  1.00  0.00     0.031 A 
ATOM     12  C   UNL A   1      39.661  30.015  31.080  1.00  0.00     0.074 A 
ATOM     13  C   UNL A   1      39.976  28.693  28.999  1.00  0.00     0.049 A 
ATOM     14  N   UNL A   1      40.731  29.698  31.760  1.00  0.00    -0.248 NA
ATOM     15  C   UNL A   1      38.823  31.033  31.735  1.00  0.00     0.031 C 
ATOM     16  C   UNL A   1      39.697  28.243  27.631  1.00  0.00     0.029 A 
ATOM     17  N   UNL A   1      41.136  28.037  29.326  1.00  0.00    -0.354 N 
ATOM     18  C   UNL A   1      40.696  30.504  32.896  1.00  0.00     0.074 A 
ATOM     19  C   UNL A   1      39.598  31.423  32.728  1.00  0.00     0.031 C 
ATOM     20  C   UNL A   1      40.627  27.343  27.264  1.00  0.00     0.029 A 
ATOM     21  C   UNL A   1      41.573  27.159  28.358  1.00  0.00     0.049 A 
ATOM     22  H   UNL A   1      41.613  28.182  30.175  1.00  0.00     0.167 HD
ATOM     23  C   UNL A   1      41.449  30.431  34.020  1.00  0.00     0.034 A 
ATOM     24  C   UNL A   1      42.599  26.282  28.383  1.00  0.00     0.034 A 
ATOM     25  C   UNL A   1      42.499  29.465  34.185  1.00  0.00     0.049 A 
ATOM     26  C   UNL A   1      43.418  26.186  29.652  1.00  0.00     0.074 A 
ATOM     27  C   UNL A   1      43.304  29.230  35.281  1.00  0.00     0.029 A 
ATOM     28  N   UNL A   1      42.880  28.557  33.202  1.00  0.00    -0.354 N 
ATOM     29  N   UNL A   1      43.302  26.874  30.766  1.00  0.00    -0.248 NA
ATOM     30  C   UNL A   1      44.480  25.174  29.677  1.00  0.00     0.031 C 
ATOM     31  C   UNL A   1      44.206  28.214  34.943  1.00  0.00     0.029 A 
ATOM     32  C   UNL A   1      43.919  27.770  33.661  1.00  0.00     0.049 A 
ATOM     33  H   UNL A   1      42.470  28.487  32.309  1.00  0.00     0.167 HD
ATOM     34  C   UNL A   1      44.245  26.342  31.642  1.00  0.00     0.074 A 
ATOM     35  C   UNL A   1      44.910  25.270  30.927  1.00  0.00     0.031 C 
ATOM     36  C   UNL A   1      44.540  26.698  32.920  1.00  0.00     0.034 A 
BRANCH  23  37
ATOM     37  C   UNL A   1      41.128  31.419  35.120  1.00  0.00     0.023 A 
ATOM     38  C   UNL A   1      39.949  31.306  35.883  1.00  0.00     0.031 A 
ATOM     39  C   UNL A   1      41.930  32.554  35.322  1.00  0.00     0.131 A 
ATOM     40  C   UNL A   1      39.531  32.370  36.696  1.00  0.00     0.055 A 
ATOM     41  C   UNL A   1      41.562  33.562  36.219  1.00  0.00     0.041 A 
ATOM     42  F   UNL A   1      43.060  32.728  34.620  1.00  0.00    -0.206 F 
ATOM     43  C   UNL A   1      40.343  33.488  36.890  1.00  0.00     0.022 A 
BRANCH  40  44
ATOM     44  S   UNL A   1      37.826  32.357  37.319  1.00  0.00     0.124 S 
ATOM     45  O   UNL A   1      37.077  32.771  36.132  1.00  0.00    -0.237 OA
ATOM     46  O   UNL A   1      37.648  30.978  37.737  1.00  0.00    -0.237 OA
ATOM     47  O   UNL A   1      37.851  33.343  38.403  1.00  0.00    -0.744 OA
ENDBRANCH  40  44
ENDBRANCH  23  37
BRANCH  24  48
ATOM     48  C   UNL A   1      42.877  25.380  27.224  1.00  0.00     0.023 A 
ATOM     49  C   UNL A   1      42.338  24.082  27.175  1.00  0.00     0.031 A 
ATOM     50  C   UNL A   1      43.727  25.773  26.176  1.00  0.00     0.131 A 
ATOM     51  C   UNL A   1      42.699  23.205  26.138  1.00  0.00     0.055 A 
ATOM     52  C   UNL A   1      44.047  24.912  25.121  1.00  0.00     0.041 A 
ATOM     53  F   UNL A   1      44.262  27.004  26.161  1.00  0.00    -0.206 F 
ATOM     54  C   UNL A   1      43.544  23.614  25.106  1.00  0.00     0.022 A 
BRANCH  51  55
ATOM     55  S   UNL A   1      42.110  21.489  26.203  1.00  0.00     0.124 S 
ATOM     56  O   UNL A   1      40.722  21.633  25.778  1.00  0.00    -0.237 OA
ATOM     57  O   UNL A   1      43.006  20.827  25.260  1.00  0.00    -0.237 OA
ATOM     58  O   UNL A   1      42.299  21.117  27.605  1.00  0.00    -0.744 OA
ENDBRANCH  51  55
ENDBRANCH  24  48
BRANCH  36  59
ATOM     59  C   UNL A   1      45.581  25.877  33.634  1.00  0.00     0.023 A 
ATOM     60  C   UNL A   1      45.252  24.682  34.293  1.00  0.00     0.031 A 
ATOM     61  C   UNL A   1      46.923  26.295  33.643  1.00  0.00     0.131 A 
ATOM     62  C   UNL A   1      46.244  23.974  34.984  1.00  0.00     0.055 A 
ATOM     63  C   UNL A   1      47.918  25.552  34.274  1.00  0.00     0.041 A 
ATOM     64  F   UNL A   1      47.288  27.432  33.026  1.00  0.00    -0.206 F 
ATOM     65  C   UNL A   1      47.579  24.390  34.962  1.00  0.00     0.022 A 
BRANCH  62  66
ATOM     66  S   UNL A   1      45.748  22.552  35.993  1.00  0.00     0.124 S 
ATOM     67  O   UNL A   1      45.407  23.186  37.262  1.00  0.00    -0.237 OA
ATOM     68  O   UNL A   1      44.629  22.005  35.233  1.00  0.00    -0.237 OA
ATOM     69  O   UNL A   1      46.948  21.717  36.020  1.00  0.00    -0.744 OA
ENDBRANCH  62  66
ENDBRANCH  36  59
ENDBRANCH  10  11
ENDBRANCH   3   5
ENDBRANCH   2   3
ENDBRANCH   1   2
BRANCH   1  70
ATOM     70  C   UNL A   1      33.845  34.905  29.334  1.00  0.00     0.274 C 
BRANCH  70  71
ATOM     71  O   UNL A   1      32.920  35.047  30.428  1.00  0.00    -0.458 OA
BRANCH  71  72
ATOM     72  C   UNL A   1      33.072  36.170  31.198  1.00  0.00     0.364 C 
ATOM     73  O   UNL A   1      32.821  37.307  30.809  1.00  0.00    -0.245 OA
BRANCH  72  74
ATOM     74  C   UNL A   1      33.689  35.840  32.574  1.00  0.00     0.294 C 
ATOM     75  C   UNL A   1      33.365  34.414  33.017  1.00  0.00     0.084 C 
ATOM     76  N   UNL A   1      35.164  35.888  32.521  1.00  0.00    -0.327 N 
ATOM     77  C   UNL A   1      34.609  33.627  32.654  1.00  0.00     0.078 C 
ATOM     78  C   UNL A   1      35.715  34.602  33.006  1.00  0.00     0.251 C 
ATOM     79  H   UNL A   1      35.500  36.648  33.113  1.00  0.00     0.347 HD
ATOM     80  H   UNL A   1      35.465  36.048  31.560  1.00  0.00     0.347 HD
BRANCH  78  81
ATOM     81  C   UNL A   1      37.065  34.152  32.426  1.00  0.00     0.399 C 
ATOM     82  F   UNL A   1      37.010  34.145  31.069  1.00  0.00    -0.204 F 
ATOM     83  F   UNL A   1      38.026  35.058  32.752  1.00  0.00    -0.204 F 
ENDBRANCH  78  81
ENDBRANCH  72  74
ENDBRANCH  71  72
ENDBRANCH  70  71
ENDBRANCH   1  70
TORSDOF 15
ENDMDL
MODEL 2
REMARK VINA RESULT:     -10.9      5.051     12.789
REMARK SMILES O=C(OCCOC(=O)[C@H]1CC[C@@H](C(F)F)[NH2+]1)c1ccc(-c2c3nc(c(-c4cc(S(=O)(=O)[O-])ccc4F)c4ccc([nH]4)c(-c4cc(S(=O)(=O)[O-])ccc4F)c4nc(c(-c5cc(S(=O)(=O)[O-])ccc5F)c5ccc2[nH]5)C=C4)C=C3)cc1
REMARK SMILES IDX 4 1 3 2 2 3 1 4 17 5 18 6 79 7 19 8 78 9 20 10 21 11 22 12
REMARK SMILES IDX 72 13 23 14 77 15 71 16 73 17 24 18 76 19 70 20 69 21 25 23
REMARK SMILES IDX 57 24 37 25 56 26 38 27 41 28 55 29 74 30 39 31 40 32 54 34
REMARK SMILES IDX 75 35 42 36 26 37 27 38 35 39 28 40 34 41 36 42 33 43 29 44
REMARK SMILES IDX 30 45 31 46 32 47 58 48 59 49 67 50 60 51 66 52 68 53 65 54
REMARK SMILES IDX 61 55 62 56 63 57 64 58 43 59 44 60 52 61 45 62 51 63 53 64
REMARK SMILES IDX 50 65 46 66 47 67 48 68 49 69 5 70 6 71 7 72 8 73 9 74 10 75
REMARK SMILES IDX 16 76 11 77 12 78 13 81 14 82 15 83
REMARK H PARENT 73 22 41 33 16 79 16 80
REMARK Flexibility Score: inf
ROOT
ATOM      1  C   UNL A   1      40.550  19.581  26.016  1.00  0.00     0.275 C 
ENDROOT
BRANCH   1   2
ATOM      2  O   UNL A   1      39.702  20.500  26.714  1.00  0.00    -0.458 OA
BRANCH   2   3
ATOM      3  C   UNL A   1      39.346  21.763  26.386  1.00  0.00     0.338 C 
ATOM      4  O   UNL A   1      38.549  21.902  25.456  1.00  0.00    -0.246 OA
BRANCH   3   5
ATOM      5  C   UNL A   1      39.915  23.002  27.018  1.00  0.00     0.060 A 
ATOM      6  C   UNL A   1      40.913  23.100  27.992  1.00  0.00     0.016 A 
ATOM      7  C   UNL A   1      39.395  24.205  26.523  1.00  0.00     0.016 A 
ATOM      8  C   UNL A   1      41.430  24.344  28.388  1.00  0.00     0.010 A 
ATOM      9  C   UNL A   1      39.973  25.434  26.838  1.00  0.00     0.010 A 
ATOM     10  C   UNL A   1      40.981  25.525  27.797  1.00  0.00    -0.014 A 
BRANCH  10  11
ATOM     11  C   UNL A   1      41.441  26.857  28.272  1.00  0.00     0.031 A 
ATOM     12  C   UNL A   1      42.855  27.283  27.955  1.00  0.00     0.074 A 
ATOM     13  C   UNL A   1      40.628  27.655  28.993  1.00  0.00     0.049 A 
ATOM     14  N   UNL A   1      43.478  28.392  28.258  1.00  0.00    -0.248 NA
ATOM     15  C   UNL A   1      43.703  26.298  27.263  1.00  0.00     0.031 C 
ATOM     16  C   UNL A   1      39.275  27.312  29.444  1.00  0.00     0.029 A 
ATOM     17  N   UNL A   1      40.813  28.931  29.464  1.00  0.00    -0.354 N 
ATOM     18  C   UNL A   1      44.787  28.208  27.820  1.00  0.00     0.074 A 
ATOM     19  C   UNL A   1      44.899  26.839  27.385  1.00  0.00     0.031 C 
ATOM     20  C   UNL A   1      38.736  28.372  30.073  1.00  0.00     0.029 A 
ATOM     21  C   UNL A   1      39.703  29.465  30.082  1.00  0.00     0.049 A 
ATOM     22  H   UNL A   1      41.662  29.419  29.370  1.00  0.00     0.167 HD
ATOM     23  C   UNL A   1      45.785  29.117  27.703  1.00  0.00     0.034 A 
ATOM     24  C   UNL A   1      39.491  30.708  30.561  1.00  0.00     0.034 A 
ATOM     25  C   UNL A   1      45.627  30.491  28.089  1.00  0.00     0.049 A 
ATOM     26  C   UNL A   1      40.599  31.726  30.401  1.00  0.00     0.074 A 
ATOM     27  C   UNL A   1      46.520  31.538  27.977  1.00  0.00     0.029 A 
ATOM     28  N   UNL A   1      44.470  31.008  28.664  1.00  0.00    -0.354 N 
ATOM     29  N   UNL A   1      41.796  31.573  29.878  1.00  0.00    -0.248 NA
ATOM     30  C   UNL A   1      40.316  33.090  30.863  1.00  0.00     0.031 C 
ATOM     31  C   UNL A   1      45.922  32.677  28.530  1.00  0.00     0.029 A 
ATOM     32  C   UNL A   1      44.632  32.356  28.927  1.00  0.00     0.049 A 
ATOM     33  H   UNL A   1      43.656  30.490  28.858  1.00  0.00     0.167 HD
ATOM     34  C   UNL A   1      42.387  32.833  29.904  1.00  0.00     0.074 A 
ATOM     35  C   UNL A   1      41.410  33.733  30.484  1.00  0.00     0.031 C 
ATOM     36  C   UNL A   1      43.623  33.221  29.489  1.00  0.00     0.034 A 
BRANCH  23  37
ATOM     37  C   UNL A   1      47.094  28.621  27.129  1.00  0.00     0.023 A 
ATOM     38  C   UNL A   1      47.286  28.507  25.737  1.00  0.00     0.031 A 
ATOM     39  C   UNL A   1      48.108  28.134  27.969  1.00  0.00     0.131 A 
ATOM     40  C   UNL A   1      48.383  27.793  25.234  1.00  0.00     0.055 A 
ATOM     41  C   UNL A   1      49.255  27.521  27.456  1.00  0.00     0.041 A 
ATOM     42  F   UNL A   1      47.983  28.202  29.304  1.00  0.00    -0.206 F 
ATOM     43  C   UNL A   1      49.384  27.320  26.083  1.00  0.00     0.022 A 
BRANCH  40  44
ATOM     44  S   UNL A   1      48.365  27.313  23.483  1.00  0.00     0.124 S 
ATOM     45  O   UNL A   1      47.216  28.068  22.984  1.00  0.00    -0.237 OA
ATOM     46  O   UNL A   1      49.669  27.753  23.018  1.00  0.00    -0.237 OA
ATOM     47  O   UNL A   1      48.173  25.861  23.529  1.00  0.00    -0.744 OA
ENDBRANCH  40  44
ENDBRANCH  23  37
BRANCH  24  48
ATOM     48  C   UNL A   1      38.180  31.096  31.164  1.00  0.00     0.023 A 
ATOM     49  C   UNL A   1      37.196  31.745  30.396  1.00  0.00     0.031 A 
ATOM     50  C   UNL A   1      37.905  30.878  32.525  1.00  0.00     0.131 A 
ATOM     51  C   UNL A   1      36.015  32.205  31.002  1.00  0.00     0.055 A 
ATOM     52  C   UNL A   1      36.707  31.297  33.115  1.00  0.00     0.041 A 
ATOM     53  F   UNL A   1      38.799  30.252  33.306  1.00  0.00    -0.206 F 
ATOM     54  C   UNL A   1      35.760  31.978  32.355  1.00  0.00     0.022 A 
BRANCH  51  55
ATOM     55  S   UNL A   1      34.848  33.181  30.010  1.00  0.00     0.124 S 
ATOM     56  O   UNL A   1      35.739  34.130  29.352  1.00  0.00    -0.237 OA
ATOM     57  O   UNL A   1      34.253  32.159  29.155  1.00  0.00    -0.237 OA
ATOM     58  O   UNL A   1      33.949  33.756  31.009  1.00  0.00    -0.744 OA
ENDBRANCH  51  55
ENDBRANCH  24  48
BRANCH  36  59
ATOM     59  C   UNL A   1      43.948  34.687  29.592  1.00  0.00     0.023 A 
ATOM     60  C   UNL A   1      43.562  35.600  28.599  1.00  0.00     0.031 A 
ATOM     61  C   UNL A   1      44.648  35.175  30.711  1.00  0.00     0.131 A 
ATOM     62  C   UNL A   1      43.927  36.947  28.714  1.00  0.00     0.055 A 
ATOM     63  C   UNL A   1      44.949  36.528  30.853  1.00  0.00     0.041 A 
ATOM     64  F   UNL A   1      45.040  34.342  31.688  1.00  0.00    -0.206 F 
ATOM     65  C   UNL A   1      44.600  37.422  29.844  1.00  0.00     0.022 A 
BRANCH  62  66
ATOM     66  S   UNL A   1      43.592  38.056  27.319  1.00  0.00     0.124 S 
ATOM     67  O   UNL A   1      43.098  39.251  27.994  1.00  0.00    -0.237 OA
ATOM     68  O   UNL A   1      44.905  38.174  26.693  1.00  0.00    -0.237 OA
ATOM     69  O   UNL A   1      42.595  37.329  26.535  1.00  0.00    -0.744 OA
ENDBRANCH  62  66
ENDBRANCH  36  59
ENDBRANCH  10  11
ENDBRANCH   3   5
ENDBRANCH   2   3
ENDBRANCH   1   2
BRANCH   1  70
ATOM     70  C   UNL A   1      42.021  19.993  25.958  1.00  0.00     0.274 C 
BRANCH  70  71
ATOM     71  O   UNL A   1      42.823  19.218  25.048  1.00  0.00    -0.458 OA
BRANCH  71  72
ATOM     72  C   UNL A   1      43.905  18.581  25.598  1.00  0.00     0.364 C 
ATOM     73  O   UNL A   1      43.823  17.718  26.466  1.00  0.00    -0.245 OA
BRANCH  72  74
ATOM     74  C   UNL A   1      45.236  19.152  25.063  1.00  0.00     0.294 C 
ATOM     75  C   UNL A   1      45.110  19.635  23.620  1.00  0.00     0.084 C 
ATOM     76  N   UNL A   1      45.644  20.350  25.824  1.00  0.00    -0.327 N 
ATOM     77  C   UNL A   1      44.918  21.133  23.752  1.00  0.00     0.078 C 
ATOM     78  C   UNL A   1      45.861  21.476  24.888  1.00  0.00     0.251 C 
ATOM     79  H   UNL A   1      46.510  20.154  26.328  1.00  0.00     0.347 HD
ATOM     80  H   UNL A   1      44.913  20.596  26.490  1.00  0.00     0.347 HD
BRANCH  78  81
ATOM     81  C   UNL A   1      45.604  22.895  25.421  1.00  0.00     0.399 C 
ATOM     82  F   UNL A   1      46.781  23.495  25.731  1.00  0.00    -0.204 F 
ATOM     83  F   UNL A   1      45.047  23.655  24.439  1.00  0.00    -0.204 F 
ENDBRANCH  78  81
ENDBRANCH  72  74
ENDBRANCH  71  72
ENDBRANCH  70  71
ENDBRANCH   1  70
TORSDOF 15
ENDMDL
MODEL 3
REMARK VINA RESULT:     -10.8      6.485     12.442
REMARK SMILES O=C(OCCOC(=O)[C@H]1CC[C@@H](C(F)F)[NH2+]1)c1ccc(-c2c3nc(c(-c4cc(S(=O)(=O)[O-])ccc4F)c4ccc([nH]4)c(-c4cc(S(=O)(=O)[O-])ccc4F)c4nc(c(-c5cc(S(=O)(=O)[O-])ccc5F)c5ccc2[nH]5)C=C4)C=C3)cc1
REMARK SMILES IDX 4 1 3 2 2 3 1 4 17 5 18 6 79 7 19 8 78 9 20 10 21 11 22 12
REMARK SMILES IDX 72 13 23 14 77 15 71 16 73 17 24 18 76 19 70 20 69 21 25 23
REMARK SMILES IDX 57 24 37 25 56 26 38 27 41 28 55 29 74 30 39 31 40 32 54 34
REMARK SMILES IDX 75 35 42 36 26 37 27 38 35 39 28 40 34 41 36 42 33 43 29 44
REMARK SMILES IDX 30 45 31 46 32 47 58 48 59 49 67 50 60 51 66 52 68 53 65 54
REMARK SMILES IDX 61 55 62 56 63 57 64 58 43 59 44 60 52 61 45 62 51 63 53 64
REMARK SMILES IDX 50 65 46 66 47 67 48 68 49 69 5 70 6 71 7 72 8 73 9 74 10 75
REMARK SMILES IDX 16 76 11 77 12 78 13 81 14 82 15 83
REMARK H PARENT 73 22 41 33 16 79 16 80
REMARK Flexibility Score: inf
ROOT
ATOM      1  C   UNL A   1      37.144  21.472  24.590  1.00  0.00     0.275 C 
ENDROOT
BRANCH   1   2
ATOM      2  O   UNL A   1      37.797  21.440  25.864  1.00  0.00    -0.458 OA
BRANCH   2   3
ATOM      3  C   UNL A   1      39.109  21.571  26.164  1.00  0.00     0.338 C 
ATOM      4  O   UNL A   1      39.836  20.597  25.956  1.00  0.00    -0.246 OA
BRANCH   3   5
ATOM      5  C   UNL A   1      39.722  22.783  26.806  1.00  0.00     0.060 A 
ATOM      6  C   UNL A   1      40.707  22.837  27.796  1.00  0.00     0.016 A 
ATOM      7  C   UNL A   1      39.265  24.008  26.303  1.00  0.00     0.016 A 
ATOM      8  C   UNL A   1      41.273  24.056  28.202  1.00  0.00     0.010 A 
ATOM      9  C   UNL A   1      39.892  25.210  26.628  1.00  0.00     0.010 A 
ATOM     10  C   UNL A   1      40.887  25.256  27.604  1.00  0.00    -0.014 A 
BRANCH  10  11
ATOM     11  C   UNL A   1      41.399  26.565  28.088  1.00  0.00     0.031 A 
ATOM     12  C   UNL A   1      42.817  26.953  27.744  1.00  0.00     0.074 A 
ATOM     13  C   UNL A   1      40.627  27.377  28.839  1.00  0.00     0.049 A 
ATOM     14  N   UNL A   1      43.480  28.038  28.049  1.00  0.00    -0.248 NA
ATOM     15  C   UNL A   1      43.619  25.954  27.018  1.00  0.00     0.031 C 
ATOM     16  C   UNL A   1      39.275  27.068  29.317  1.00  0.00     0.029 A 
ATOM     17  N   UNL A   1      40.862  28.639  29.325  1.00  0.00    -0.354 N 
ATOM     18  C   UNL A   1      44.773  27.822  27.577  1.00  0.00     0.074 A 
ATOM     19  C   UNL A   1      44.833  26.457  27.119  1.00  0.00     0.031 C 
ATOM     20  C   UNL A   1      38.783  28.134  29.974  1.00  0.00     0.029 A 
ATOM     21  C   UNL A   1      39.783  29.196  29.976  1.00  0.00     0.049 A 
ATOM     22  H   UNL A   1      41.723  29.103  29.218  1.00  0.00     0.167 HD
ATOM     23  C   UNL A   1      45.795  28.702  27.450  1.00  0.00     0.034 A 
ATOM     24  C   UNL A   1      39.620  30.439  30.478  1.00  0.00     0.034 A 
ATOM     25  C   UNL A   1      45.688  30.074  27.860  1.00  0.00     0.049 A 
ATOM     26  C   UNL A   1      40.755  31.425  30.307  1.00  0.00     0.074 A 
ATOM     27  C   UNL A   1      46.610  31.095  27.742  1.00  0.00     0.029 A 
ATOM     28  N   UNL A   1      44.562  30.617  28.470  1.00  0.00    -0.354 N 
ATOM     29  N   UNL A   1      41.934  31.243  29.754  1.00  0.00    -0.248 NA
ATOM     30  C   UNL A   1      40.524  32.789  30.796  1.00  0.00     0.031 C 
ATOM     31  C   UNL A   1      46.060  32.243  28.326  1.00  0.00     0.029 A 
ATOM     32  C   UNL A   1      44.770  31.955  28.748  1.00  0.00     0.049 A 
ATOM     33  H   UNL A   1      43.737  30.121  28.675  1.00  0.00     0.167 HD
ATOM     34  C   UNL A   1      42.564  32.484  29.785  1.00  0.00     0.074 A 
ATOM     35  C   UNL A   1      41.628  33.405  30.400  1.00  0.00     0.031 C 
ATOM     36  C   UNL A   1      43.801  32.841  29.346  1.00  0.00     0.034 A 
BRANCH  23  37
ATOM     37  C   UNL A   1      47.075  28.176  26.838  1.00  0.00     0.023 A 
ATOM     38  C   UNL A   1      47.332  28.304  25.458  1.00  0.00     0.031 A 
ATOM     39  C   UNL A   1      47.982  27.427  27.605  1.00  0.00     0.131 A 
ATOM     40  C   UNL A   1      48.375  27.575  24.867  1.00  0.00     0.055 A 
ATOM     41  C   UNL A   1      49.086  26.793  27.024  1.00  0.00     0.041 A 
ATOM     42  F   UNL A   1      47.790  27.258  28.922  1.00  0.00    -0.206 F 
ATOM     43  C   UNL A   1      49.270  26.840  25.644  1.00  0.00     0.022 A 
BRANCH  40  44
ATOM     44  S   UNL A   1      48.406  27.438  23.056  1.00  0.00     0.124 S 
ATOM     45  O   UNL A   1      48.357  25.987  22.871  1.00  0.00    -0.237 OA
ATOM     46  O   UNL A   1      47.218  28.172  22.659  1.00  0.00    -0.237 OA
ATOM     47  O   UNL A   1      49.681  28.061  22.689  1.00  0.00    -0.744 OA
ENDBRANCH  40  44
ENDBRANCH  23  37
BRANCH  24  48
ATOM     48  C   UNL A   1      38.336  30.857  31.117  1.00  0.00     0.023 A 
ATOM     49  C   UNL A   1      37.333  31.500  30.369  1.00  0.00     0.031 A 
ATOM     50  C   UNL A   1      38.107  30.673  32.491  1.00  0.00     0.131 A 
ATOM     51  C   UNL A   1      36.180  31.988  31.006  1.00  0.00     0.055 A 
ATOM     52  C   UNL A   1      36.935  31.120  33.113  1.00  0.00     0.041 A 
ATOM     53  F   UNL A   1      39.020  30.053  33.255  1.00  0.00    -0.206 F 
ATOM     54  C   UNL A   1      35.970  31.795  32.372  1.00  0.00     0.022 A 
BRANCH  51  55
ATOM     55  S   UNL A   1      34.991  32.956  30.032  1.00  0.00     0.124 S 
ATOM     56  O   UNL A   1      34.505  31.962  29.082  1.00  0.00    -0.237 OA
ATOM     57  O   UNL A   1      34.043  33.386  31.056  1.00  0.00    -0.237 OA
ATOM     58  O   UNL A   1      35.810  34.023  29.458  1.00  0.00    -0.744 OA
ENDBRANCH  51  55
ENDBRANCH  24  48
BRANCH  36  59
ATOM     59  C   UNL A   1      44.174  34.295  29.463  1.00  0.00     0.023 A 
ATOM     60  C   UNL A   1      43.678  35.258  28.570  1.00  0.00     0.031 A 
ATOM     61  C   UNL A   1      45.030  34.721  30.494  1.00  0.00     0.131 A 
ATOM     62  C   UNL A   1      44.088  36.592  28.688  1.00  0.00     0.055 A 
ATOM     63  C   UNL A   1      45.381  36.061  30.648  1.00  0.00     0.041 A 
ATOM     64  F   UNL A   1      45.531  33.838  31.374  1.00  0.00    -0.206 F 
ATOM     65  C   UNL A   1      44.920  37.004  29.734  1.00  0.00     0.022 A 
BRANCH  62  66
ATOM     66  S   UNL A   1      43.594  37.766  27.399  1.00  0.00     0.124 S 
ATOM     67  O   UNL A   1      42.832  36.916  26.491  1.00  0.00    -0.237 OA
ATOM     68  O   UNL A   1      42.822  38.749  28.151  1.00  0.00    -0.237 OA
ATOM     69  O   UNL A   1      44.869  38.251  26.871  1.00  0.00    -0.744 OA
ENDBRANCH  62  66
ENDBRANCH  36  59
ENDBRANCH  10  11
ENDBRANCH   3   5
ENDBRANCH   2   3
ENDBRANCH   1   2
BRANCH   1  70
ATOM     70  C   UNL A   1      35.694  21.955  24.630  1.00  0.00     0.274 C 
BRANCH  70  71
ATOM     71  O   UNL A   1      34.714  20.903  24.672  1.00  0.00    -0.458 OA
BRANCH  71  72
ATOM     72  C   UNL A   1      33.798  20.979  25.689  1.00  0.00     0.364 C 
ATOM     73  O   UNL A   1      33.963  21.636  26.712  1.00  0.00    -0.245 OA
BRANCH  72  74
ATOM     74  C   UNL A   1      32.583  20.060  25.432  1.00  0.00     0.294 C 
ATOM     75  C   UNL A   1      32.486  19.639  23.967  1.00  0.00     0.084 C 
ATOM     76  N   UNL A   1      32.709  18.792  26.178  1.00  0.00    -0.327 N 
ATOM     77  C   UNL A   1      33.103  18.255  23.943  1.00  0.00     0.078 C 
ATOM     78  C   UNL A   1      32.588  17.655  25.237  1.00  0.00     0.251 C 
ATOM     79  H   UNL A   1      31.970  18.734  26.878  1.00  0.00     0.347 HD
ATOM     80  H   UNL A   1      33.618  18.757  26.640  1.00  0.00     0.347 HD
BRANCH  78  81
ATOM     81  C   UNL A   1      33.340  16.363  25.593  1.00  0.00     0.399 C 
ATOM     82  F   UNL A   1      32.523  15.524  26.281  1.00  0.00    -0.204 F 
ATOM     83  F   UNL A   1      33.674  15.701  24.452  1.00  0.00    -0.204 F 
ENDBRANCH  78  81
ENDBRANCH  72  74
ENDBRANCH  71  72
ENDBRANCH  70  71
ENDBRANCH   1  70
TORSDOF 15
ENDMDL
