MODEL 1
REMARK VINA RESULT:     -11.0      0.000      0.000
REMARK SMILES CCC[NH2+][C@]1(C(=O)OCCOC(=O)c2ccc(-c3c4nc(c(-c5cc(S(=O)(=O)[O-])ccc5F)c5ccc([nH]5)c(-c5cc(S(=O)(=O)[O-])ccc5F)c5nc(c(-c6cc(S(=O)(=O)[O-])ccc6F)c6ccc3[nH]6)C=C5)C=C4)cc2)CC[C@@H](Sc2nnc(C)n2C)C1
REMARK SMILES IDX 9 1 8 2 6 3 7 4 5 5 77 6 88 7 78 8 79 9 4 10 3 13 2 14 1 15
REMARK SMILES IDX 80 16 81 17 82 18 86 19 83 20 84 21 87 22 85 23 10 24 11 25
REMARK SMILES IDX 12 26 13 27 14 28 15 29 76 30 16 31 75 32 17 33 18 34 19 35
REMARK SMILES IDX 69 36 20 37 74 38 68 39 70 40 21 41 73 42 67 43 66 44 22 46
REMARK SMILES IDX 54 47 34 48 53 49 35 50 38 51 52 52 71 53 36 54 37 55 51 57
REMARK SMILES IDX 72 58 39 59 23 60 24 61 32 62 25 63 31 64 33 65 30 66 26 67
REMARK SMILES IDX 27 68 28 69 29 70 55 71 56 72 64 73 57 74 63 75 65 76 62 77
REMARK SMILES IDX 58 78 59 79 60 80 61 81 40 82 41 83 49 84 42 85 48 86 50 87
REMARK SMILES IDX 47 88 43 89 44 90 45 91 46 92
REMARK H PARENT 4 11 4 12 70 45 38 56
REMARK Flexibility Score: inf
ROOT
ATOM      1  C   UNL A   1      36.542  22.339  23.745  1.00  0.00     0.274 C 
ENDROOT
BRANCH   1   2
ATOM      2  O   UNL A   1      35.652  23.197  24.485  1.00  0.00    -0.457 OA
BRANCH   2   3
ATOM      3  C   UNL A   1      34.429  23.417  23.928  1.00  0.00     0.368 C 
ATOM      4  O   UNL A   1      34.272  23.874  22.800  1.00  0.00    -0.245 OA
BRANCH   3   5
ATOM      5  C   UNL A   1      33.259  23.059  24.884  1.00  0.00     0.195 C 
ATOM      6  C   UNL A   1      33.416  23.876  26.176  1.00  0.00     0.082 C 
ATOM      7  C   UNL A   1      31.919  23.597  24.304  1.00  0.00     0.096 C 
ATOM      8  C   UNL A   1      32.005  24.086  26.703  1.00  0.00     0.022 C 
ATOM      9  C   UNL A   1      31.123  24.202  25.462  1.00  0.00     0.062 C 
BRANCH   5  10
ATOM     10  N   UNL A   1      33.031  21.600  25.030  1.00  0.00    -0.332 N 
ATOM     11  H   UNL A   1      33.923  21.180  25.293  1.00  0.00     0.347 HD
ATOM     12  H   UNL A   1      32.283  21.532  25.720  1.00  0.00     0.347 HD
BRANCH  10  13
ATOM     13  C   UNL A   1      32.527  20.856  23.885  1.00  0.00     0.261 C 
BRANCH  13  14
ATOM     14  C   UNL A   1      32.888  19.366  24.004  1.00  0.00     0.058 C 
ATOM     15  C   UNL A   1      32.734  18.790  25.403  1.00  0.00     0.010 C 
ENDBRANCH  13  14
ENDBRANCH  10  13
ENDBRANCH   5  10
BRANCH   9  16
ATOM     16  S   UNL A   1      30.502  25.880  25.075  1.00  0.00    -0.082 SA
BRANCH  16  17
ATOM     17  C   UNL A   1      31.505  26.897  26.044  1.00  0.00     0.191 A 
ATOM     18  N   UNL A   1      31.185  27.358  27.230  1.00  0.00    -0.123 NA
ATOM     19  N   UNL A   1      32.741  27.359  25.685  1.00  0.00    -0.309 N 
ATOM     20  N   UNL A   1      32.234  28.123  27.680  1.00  0.00    -0.135 NA
ATOM     21  C   UNL A   1      33.169  28.118  26.751  1.00  0.00     0.130 A 
ATOM     22  C   UNL A   1      33.502  27.105  24.488  1.00  0.00     0.154 C 
ATOM     23  C   UNL A   1      34.476  28.811  26.820  1.00  0.00     0.090 C 
ENDBRANCH  16  17
ENDBRANCH   9  16
ENDBRANCH   3   5
ENDBRANCH   2   3
ENDBRANCH   1   2
BRANCH   1  24
ATOM     24  C   UNL A   1      37.144  21.262  24.646  1.00  0.00     0.275 C 
BRANCH  24  25
ATOM     25  O   UNL A   1      37.636  21.836  25.871  1.00  0.00    -0.458 OA
BRANCH  25  26
ATOM     26  C   UNL A   1      38.944  21.606  26.132  1.00  0.00     0.338 C 
ATOM     27  O   UNL A   1      39.581  20.597  25.892  1.00  0.00    -0.246 OA
BRANCH  26  28
ATOM     28  C   UNL A   1      39.551  22.817  26.698  1.00  0.00     0.060 A 
ATOM     29  C   UNL A   1      39.193  24.051  26.164  1.00  0.00     0.016 A 
ATOM     30  C   UNL A   1      40.543  22.730  27.671  1.00  0.00     0.016 A 
ATOM     31  C   UNL A   1      39.840  25.212  26.572  1.00  0.00     0.010 A 
ATOM     32  C   UNL A   1      41.155  23.902  28.127  1.00  0.00     0.010 A 
ATOM     33  C   UNL A   1      40.812  25.151  27.576  1.00  0.00    -0.014 A 
BRANCH  33  34
ATOM     34  C   UNL A   1      41.464  26.393  28.063  1.00  0.00     0.031 A 
ATOM     35  C   UNL A   1      40.663  27.425  28.801  1.00  0.00     0.074 A 
ATOM     36  C   UNL A   1      42.774  26.597  27.818  1.00  0.00     0.049 A 
ATOM     37  N   UNL A   1      40.988  28.650  29.123  1.00  0.00    -0.248 NA
ATOM     38  C   UNL A   1      39.314  27.025  29.230  1.00  0.00     0.031 C 
ATOM     39  C   UNL A   1      43.669  25.640  27.164  1.00  0.00     0.029 A 
ATOM     40  N   UNL A   1      43.576  27.679  28.077  1.00  0.00    -0.354 N 
ATOM     41  C   UNL A   1      39.874  29.183  29.762  1.00  0.00     0.074 A 
ATOM     42  C   UNL A   1      38.862  28.146  29.774  1.00  0.00     0.031 C 
ATOM     43  C   UNL A   1      44.894  26.180  27.069  1.00  0.00     0.029 A 
ATOM     44  C   UNL A   1      44.850  27.546  27.577  1.00  0.00     0.049 A 
ATOM     45  H   UNL A   1      43.269  28.473  28.571  1.00  0.00     0.167 HD
ATOM     46  C   UNL A   1      39.715  30.426  30.283  1.00  0.00     0.034 A 
ATOM     47  C   UNL A   1      45.851  28.443  27.476  1.00  0.00     0.034 A 
ATOM     48  C   UNL A   1      40.744  31.439  30.268  1.00  0.00     0.049 A 
ATOM     49  C   UNL A   1      45.619  29.846  27.970  1.00  0.00     0.074 A 
ATOM     50  C   UNL A   1      40.700  32.722  30.786  1.00  0.00     0.029 A 
ATOM     51  N   UNL A   1      42.002  31.284  29.700  1.00  0.00    -0.354 N 
ATOM     52  N   UNL A   1      44.546  30.355  28.528  1.00  0.00    -0.248 NA
ATOM     53  C   UNL A   1      46.725  30.797  27.803  1.00  0.00     0.031 C 
ATOM     54  C   UNL A   1      41.907  33.362  30.476  1.00  0.00     0.029 A 
ATOM     55  C   UNL A   1      42.729  32.459  29.820  1.00  0.00     0.049 A 
ATOM     56  H   UNL A   1      42.330  30.460  29.275  1.00  0.00     0.167 HD
ATOM     57  C   UNL A   1      44.850  31.689  28.783  1.00  0.00     0.074 A 
ATOM     58  C   UNL A   1      46.212  31.898  28.335  1.00  0.00     0.031 C 
ATOM     59  C   UNL A   1      44.074  32.654  29.338  1.00  0.00     0.034 A 
BRANCH  46  60
ATOM     60  C   UNL A   1      38.360  30.774  30.845  1.00  0.00     0.023 A 
ATOM     61  C   UNL A   1      37.378  31.424  30.079  1.00  0.00     0.031 A 
ATOM     62  C   UNL A   1      38.059  30.473  32.186  1.00  0.00     0.131 A 
ATOM     63  C   UNL A   1      36.165  31.806  30.675  1.00  0.00     0.055 A 
ATOM     64  C   UNL A   1      36.825  30.794  32.754  1.00  0.00     0.041 A 
ATOM     65  F   UNL A   1      38.967  29.873  32.972  1.00  0.00    -0.206 F 
ATOM     66  C   UNL A   1      35.874  31.477  32.002  1.00  0.00     0.022 A 
BRANCH  63  67
ATOM     67  S   UNL A   1      35.023  32.853  29.731  1.00  0.00     0.124 S 
ATOM     68  O   UNL A   1      35.933  33.847  29.166  1.00  0.00    -0.237 OA
ATOM     69  O   UNL A   1      34.441  31.909  28.784  1.00  0.00    -0.237 OA
ATOM     70  O   UNL A   1      34.106  33.364  30.747  1.00  0.00    -0.744 OA
ENDBRANCH  63  67
ENDBRANCH  46  60
BRANCH  47  71
ATOM     71  C   UNL A   1      47.123  28.072  26.797  1.00  0.00     0.023 A 
ATOM     72  C   UNL A   1      47.214  28.023  25.399  1.00  0.00     0.031 A 
ATOM     73  C   UNL A   1      48.266  27.737  27.548  1.00  0.00     0.131 A 
ATOM     74  C   UNL A   1      48.415  27.624  24.792  1.00  0.00     0.055 A 
ATOM     75  C   UNL A   1      49.470  27.385  26.939  1.00  0.00     0.041 A 
ATOM     76  F   UNL A   1      48.231  27.771  28.889  1.00  0.00    -0.206 F 
ATOM     77  C   UNL A   1      49.547  27.318  25.552  1.00  0.00     0.022 A 
BRANCH  74  78
ATOM     78  S   UNL A   1      48.462  27.453  22.988  1.00  0.00     0.124 S 
ATOM     79  O   UNL A   1      47.302  28.240  22.584  1.00  0.00    -0.237 OA
ATOM     80  O   UNL A   1      49.767  28.020  22.667  1.00  0.00    -0.237 OA
ATOM     81  O   UNL A   1      48.343  26.012  22.780  1.00  0.00    -0.744 OA
ENDBRANCH  74  78
ENDBRANCH  47  71
BRANCH  59  82
ATOM     82  C   UNL A   1      44.704  34.012  29.504  1.00  0.00     0.023 A 
ATOM     83  C   UNL A   1      44.493  35.036  28.565  1.00  0.00     0.031 A 
ATOM     84  C   UNL A   1      45.538  34.277  30.603  1.00  0.00     0.131 A 
ATOM     85  C   UNL A   1      45.144  36.268  28.719  1.00  0.00     0.055 A 
ATOM     86  C   UNL A   1      46.147  35.519  30.777  1.00  0.00     0.041 A 
ATOM     87  F   UNL A   1      45.774  33.329  31.525  1.00  0.00    -0.206 F 
ATOM     88  C   UNL A   1      45.960  36.520  29.827  1.00  0.00     0.022 A 
BRANCH  85  89
ATOM     89  S   UNL A   1      44.965  37.520  27.420  1.00  0.00     0.124 S 
ATOM     90  O   UNL A   1      45.146  38.759  28.168  1.00  0.00    -0.237 OA
ATOM     91  O   UNL A   1      46.038  37.170  26.496  1.00  0.00    -0.237 OA
ATOM     92  O   UNL A   1      43.614  37.294  26.911  1.00  0.00    -0.744 OA
ENDBRANCH  85  89
ENDBRANCH  59  82
ENDBRANCH  33  34
ENDBRANCH  26  28
ENDBRANCH  25  26
ENDBRANCH  24  25
ENDBRANCH   1  24
TORSDOF 19
ENDMDL
MODEL 2
REMARK VINA RESULT:     -10.4      1.490      1.766
REMARK SMILES CCC[NH2+][C@]1(C(=O)OCCOC(=O)c2ccc(-c3c4nc(c(-c5cc(S(=O)(=O)[O-])ccc5F)c5ccc([nH]5)c(-c5cc(S(=O)(=O)[O-])ccc5F)c5nc(c(-c6cc(S(=O)(=O)[O-])ccc6F)c6ccc3[nH]6)C=C5)C=C4)cc2)CC[C@@H](Sc2nnc(C)n2C)C1
REMARK SMILES IDX 9 1 8 2 6 3 7 4 5 5 77 6 88 7 78 8 79 9 4 10 3 13 2 14 1 15
REMARK SMILES IDX 80 16 81 17 82 18 86 19 83 20 84 21 87 22 85 23 10 24 11 25
REMARK SMILES IDX 12 26 13 27 14 28 15 29 76 30 16 31 75 32 17 33 18 34 19 35
REMARK SMILES IDX 69 36 20 37 74 38 68 39 70 40 21 41 73 42 67 43 66 44 22 46
REMARK SMILES IDX 54 47 34 48 53 49 35 50 38 51 52 52 71 53 36 54 37 55 51 57
REMARK SMILES IDX 72 58 39 59 23 60 24 61 32 62 25 63 31 64 33 65 30 66 26 67
REMARK SMILES IDX 27 68 28 69 29 70 55 71 56 72 64 73 57 74 63 75 65 76 62 77
REMARK SMILES IDX 58 78 59 79 60 80 61 81 40 82 41 83 49 84 42 85 48 86 50 87
REMARK SMILES IDX 47 88 43 89 44 90 45 91 46 92
REMARK H PARENT 4 11 4 12 70 45 38 56
REMARK Flexibility Score: inf
ROOT
ATOM      1  C   UNL A   1      36.493  22.751  23.619  1.00  0.00     0.274 C 
ENDROOT
BRANCH   1   2
ATOM      2  O   UNL A   1      35.137  22.905  23.156  1.00  0.00    -0.457 OA
BRANCH   2   3
ATOM      3  C   UNL A   1      34.342  23.730  23.891  1.00  0.00     0.368 C 
ATOM      4  O   UNL A   1      34.560  24.929  24.036  1.00  0.00    -0.245 OA
BRANCH   3   5
ATOM      5  C   UNL A   1      33.149  22.985  24.552  1.00  0.00     0.195 C 
ATOM      6  C   UNL A   1      33.229  23.188  26.073  1.00  0.00     0.082 C 
ATOM      7  C   UNL A   1      31.814  23.696  24.184  1.00  0.00     0.096 C 
ATOM      8  C   UNL A   1      31.791  23.135  26.569  1.00  0.00     0.022 C 
ATOM      9  C   UNL A   1      30.954  23.746  25.448  1.00  0.00     0.062 C 
BRANCH   5  10
ATOM     10  N   UNL A   1      32.968  21.596  24.063  1.00  0.00    -0.332 N 
ATOM     11  H   UNL A   1      31.985  21.493  23.806  1.00  0.00     0.347 HD
ATOM     12  H   UNL A   1      33.641  21.509  23.302  1.00  0.00     0.347 HD
BRANCH  10  13
ATOM     13  C   UNL A   1      33.297  20.495  24.956  1.00  0.00     0.261 C 
BRANCH  13  14
ATOM     14  C   UNL A   1      32.498  19.235  24.581  1.00  0.00     0.058 C 
ATOM     15  C   UNL A   1      33.289  18.198  23.797  1.00  0.00     0.010 C 
ENDBRANCH  13  14
ENDBRANCH  10  13
ENDBRANCH   5  10
BRANCH   9  16
ATOM     16  S   UNL A   1      30.289  25.421  25.768  1.00  0.00    -0.082 SA
BRANCH  16  17
ATOM     17  C   UNL A   1      31.647  26.442  25.462  1.00  0.00     0.191 A 
ATOM     18  N   UNL A   1      32.622  26.670  26.311  1.00  0.00    -0.123 NA
ATOM     19  N   UNL A   1      31.860  27.147  24.310  1.00  0.00    -0.309 N 
ATOM     20  N   UNL A   1      33.512  27.526  25.706  1.00  0.00    -0.135 NA
ATOM     21  C   UNL A   1      33.053  27.808  24.504  1.00  0.00     0.130 A 
ATOM     22  C   UNL A   1      31.070  27.196  23.106  1.00  0.00     0.154 C 
ATOM     23  C   UNL A   1      33.698  28.690  23.505  1.00  0.00     0.090 C 
ENDBRANCH  16  17
ENDBRANCH   9  16
ENDBRANCH   3   5
ENDBRANCH   2   3
ENDBRANCH   1   2
BRANCH   1  24
ATOM     24  C   UNL A   1      36.651  21.476  24.446  1.00  0.00     0.275 C 
BRANCH  24  25
ATOM     25  O   UNL A   1      37.180  21.775  25.751  1.00  0.00    -0.458 OA
BRANCH  25  26
ATOM     26  C   UNL A   1      38.481  21.450  25.933  1.00  0.00     0.338 C 
ATOM     27  O   UNL A   1      39.037  20.412  25.624  1.00  0.00    -0.246 OA
BRANCH  26  28
ATOM     28  C   UNL A   1      39.197  22.596  26.508  1.00  0.00     0.060 A 
ATOM     29  C   UNL A   1      38.802  23.879  26.137  1.00  0.00     0.016 A 
ATOM     30  C   UNL A   1      40.313  22.407  27.319  1.00  0.00     0.016 A 
ATOM     31  C   UNL A   1      39.533  24.989  26.547  1.00  0.00     0.010 A 
ATOM     32  C   UNL A   1      41.016  23.525  27.781  1.00  0.00     0.010 A 
ATOM     33  C   UNL A   1      40.635  24.823  27.393  1.00  0.00    -0.014 A 
BRANCH  33  34
ATOM     34  C   UNL A   1      41.384  26.006  27.886  1.00  0.00     0.031 A 
ATOM     35  C   UNL A   1      40.685  27.056  28.701  1.00  0.00     0.074 A 
ATOM     36  C   UNL A   1      42.689  26.143  27.580  1.00  0.00     0.049 A 
ATOM     37  N   UNL A   1      41.099  28.246  29.047  1.00  0.00    -0.248 NA
ATOM     38  C   UNL A   1      39.338  26.718  29.186  1.00  0.00     0.031 C 
ATOM     39  C   UNL A   1      43.492  25.161  26.847  1.00  0.00     0.029 A 
ATOM     40  N   UNL A   1      43.567  27.166  27.832  1.00  0.00    -0.354 N 
ATOM     41  C   UNL A   1      40.053  28.819  29.761  1.00  0.00     0.074 A 
ATOM     42  C   UNL A   1      38.983  27.843  29.792  1.00  0.00     0.031 C 
ATOM     43  C   UNL A   1      44.740  25.631  26.705  1.00  0.00     0.029 A 
ATOM     44  C   UNL A   1      44.804  26.978  27.261  1.00  0.00     0.049 A 
ATOM     45  H   UNL A   1      43.334  27.958  28.368  1.00  0.00     0.167 HD
ATOM     46  C   UNL A   1      39.995  30.049  30.331  1.00  0.00     0.034 A 
ATOM     47  C   UNL A   1      45.850  27.818  27.138  1.00  0.00     0.034 A 
ATOM     48  C   UNL A   1      41.081  31.001  30.297  1.00  0.00     0.049 A 
ATOM     49  C   UNL A   1      45.729  29.213  27.691  1.00  0.00     0.074 A 
ATOM     50  C   UNL A   1      41.141  32.264  30.859  1.00  0.00     0.029 A 
ATOM     51  N   UNL A   1      42.297  30.794  29.658  1.00  0.00    -0.354 N 
ATOM     52  N   UNL A   1      44.718  29.763  28.321  1.00  0.00    -0.248 NA
ATOM     53  C   UNL A   1      46.880  30.104  27.497  1.00  0.00     0.031 C 
ATOM     54  C   UNL A   1      42.367  32.844  30.507  1.00  0.00     0.029 A 
ATOM     55  C   UNL A   1      43.098  31.920  29.779  1.00  0.00     0.049 A 
ATOM     56  H   UNL A   1      42.553  29.968  29.188  1.00  0.00     0.167 HD
ATOM     57  C   UNL A   1      45.114  31.066  28.605  1.00  0.00     0.074 A 
ATOM     58  C   UNL A   1      46.461  31.212  28.092  1.00  0.00     0.031 C 
ATOM     59  C   UNL A   1      44.427  32.054  29.233  1.00  0.00     0.034 A 
BRANCH  46  60
ATOM     60  C   UNL A   1      38.694  30.455  30.976  1.00  0.00     0.023 A 
ATOM     61  C   UNL A   1      37.664  31.079  30.252  1.00  0.00     0.031 A 
ATOM     62  C   UNL A   1      38.495  30.236  32.351  1.00  0.00     0.131 A 
ATOM     63  C   UNL A   1      36.508  31.517  30.918  1.00  0.00     0.055 A 
ATOM     64  C   UNL A   1      37.314  30.613  32.994  1.00  0.00     0.041 A 
ATOM     65  F   UNL A   1      39.454  29.665  33.098  1.00  0.00    -0.206 F 
ATOM     66  C   UNL A   1      36.318  31.269  32.280  1.00  0.00     0.022 A 
BRANCH  63  67
ATOM     67  S   UNL A   1      35.310  32.530  30.006  1.00  0.00     0.124 S 
ATOM     68  O   UNL A   1      34.310  32.803  31.035  1.00  0.00    -0.237 OA
ATOM     69  O   UNL A   1      36.119  33.668  29.582  1.00  0.00    -0.237 OA
ATOM     70  O   UNL A   1      34.863  31.648  28.930  1.00  0.00    -0.744 OA
ENDBRANCH  63  67
ENDBRANCH  46  60
BRANCH  47  71
ATOM     71  C   UNL A   1      47.062  27.399  26.380  1.00  0.00     0.023 A 
ATOM     72  C   UNL A   1      48.160  26.817  27.030  1.00  0.00     0.031 A 
ATOM     73  C   UNL A   1      47.143  27.598  24.990  1.00  0.00     0.131 A 
ATOM     74  C   UNL A   1      49.305  26.476  26.292  1.00  0.00     0.055 A 
ATOM     75  C   UNL A   1      48.266  27.216  24.255  1.00  0.00     0.041 A 
ATOM     76  F   UNL A   1      46.119  28.148  24.321  1.00  0.00    -0.206 F 
ATOM     77  C   UNL A   1      49.360  26.660  24.908  1.00  0.00     0.022 A 
BRANCH  74  78
ATOM     78  S   UNL A   1      50.752  25.840  27.180  1.00  0.00     0.124 S 
ATOM     79  O   UNL A   1      51.818  26.061  26.208  1.00  0.00    -0.237 OA
ATOM     80  O   UNL A   1      50.776  26.691  28.364  1.00  0.00    -0.237 OA
ATOM     81  O   UNL A   1      50.412  24.441  27.426  1.00  0.00    -0.744 OA
ENDBRANCH  74  78
ENDBRANCH  47  71
BRANCH  59  82
ATOM     82  C   UNL A   1      45.144  33.366  29.411  1.00  0.00     0.023 A 
ATOM     83  C   UNL A   1      44.998  34.411  28.483  1.00  0.00     0.031 A 
ATOM     84  C   UNL A   1      45.997  33.564  30.510  1.00  0.00     0.131 A 
ATOM     85  C   UNL A   1      45.729  35.596  28.648  1.00  0.00     0.055 A 
ATOM     86  C   UNL A   1      46.686  34.762  30.695  1.00  0.00     0.041 A 
ATOM     87  F   UNL A   1      46.172  32.593  31.421  1.00  0.00    -0.206 F 
ATOM     88  C   UNL A   1      46.562  35.783  29.756  1.00  0.00     0.022 A 
BRANCH  85  89
ATOM     89  S   UNL A   1      45.629  36.871  27.363  1.00  0.00     0.124 S 
ATOM     90  O   UNL A   1      46.104  38.054  28.073  1.00  0.00    -0.237 OA
ATOM     91  O   UNL A   1      46.517  36.347  26.331  1.00  0.00    -0.237 OA
ATOM     92  O   UNL A   1      44.212  36.888  27.007  1.00  0.00    -0.744 OA
ENDBRANCH  85  89
ENDBRANCH  59  82
ENDBRANCH  33  34
ENDBRANCH  26  28
ENDBRANCH  25  26
ENDBRANCH  24  25
ENDBRANCH   1  24
TORSDOF 19
ENDMDL
MODEL 3
REMARK VINA RESULT:     -10.2      1.763      2.182
REMARK SMILES CCC[NH2+][C@]1(C(=O)OCCOC(=O)c2ccc(-c3c4nc(c(-c5cc(S(=O)(=O)[O-])ccc5F)c5ccc([nH]5)c(-c5cc(S(=O)(=O)[O-])ccc5F)c5nc(c(-c6cc(S(=O)(=O)[O-])ccc6F)c6ccc3[nH]6)C=C5)C=C4)cc2)CC[C@@H](Sc2nnc(C)n2C)C1
REMARK SMILES IDX 9 1 8 2 6 3 7 4 5 5 77 6 88 7 78 8 79 9 4 10 3 13 2 14 1 15
REMARK SMILES IDX 80 16 81 17 82 18 86 19 83 20 84 21 87 22 85 23 10 24 11 25
REMARK SMILES IDX 12 26 13 27 14 28 15 29 76 30 16 31 75 32 17 33 18 34 19 35
REMARK SMILES IDX 69 36 20 37 74 38 68 39 70 40 21 41 73 42 67 43 66 44 22 46
REMARK SMILES IDX 54 47 34 48 53 49 35 50 38 51 52 52 71 53 36 54 37 55 51 57
REMARK SMILES IDX 72 58 39 59 23 60 24 61 32 62 25 63 31 64 33 65 30 66 26 67
REMARK SMILES IDX 27 68 28 69 29 70 55 71 56 72 64 73 57 74 63 75 65 76 62 77
REMARK SMILES IDX 58 78 59 79 60 80 61 81 40 82 41 83 49 84 42 85 48 86 50 87
REMARK SMILES IDX 47 88 43 89 44 90 45 91 46 92
REMARK H PARENT 4 11 4 12 70 45 38 56
REMARK Flexibility Score: inf
ROOT
ATOM      1  C   UNL A   1      36.121  20.571  25.000  1.00  0.00     0.274 C 
ENDROOT
BRANCH   1   2
ATOM      2  O   UNL A   1      35.397  21.806  25.167  1.00  0.00    -0.457 OA
BRANCH   2   3
ATOM      3  C   UNL A   1      34.305  21.756  25.980  1.00  0.00     0.368 C 
ATOM      4  O   UNL A   1      34.366  21.513  27.182  1.00  0.00    -0.245 OA
BRANCH   3   5
ATOM      5  C   UNL A   1      32.975  22.006  25.218  1.00  0.00     0.195 C 
ATOM      6  C   UNL A   1      31.875  22.320  26.244  1.00  0.00     0.082 C 
ATOM      7  C   UNL A   1      33.073  23.332  24.408  1.00  0.00     0.096 C 
ATOM      8  C   UNL A   1      30.894  23.235  25.526  1.00  0.00     0.022 C 
ATOM      9  C   UNL A   1      31.745  24.074  24.575  1.00  0.00     0.062 C 
BRANCH   5  10
ATOM     10  N   UNL A   1      32.671  20.977  24.193  1.00  0.00    -0.332 N 
ATOM     11  H   UNL A   1      31.843  21.292  23.686  1.00  0.00     0.347 HD
ATOM     12  H   UNL A   1      33.530  20.906  23.648  1.00  0.00     0.347 HD
BRANCH  10  13
ATOM     13  C   UNL A   1      32.414  19.612  24.631  1.00  0.00     0.261 C 
BRANCH  13  14
ATOM     14  C   UNL A   1      32.784  18.609  23.526  1.00  0.00     0.058 C 
ATOM     15  C   UNL A   1      33.973  17.719  23.857  1.00  0.00     0.010 C 
ENDBRANCH  13  14
ENDBRANCH  10  13
ENDBRANCH   5  10
BRANCH   9  16
ATOM     16  S   UNL A   1      31.986  25.825  25.051  1.00  0.00    -0.082 SA
BRANCH  16  17
ATOM     17  C   UNL A   1      30.651  26.619  24.299  1.00  0.00     0.191 A 
ATOM     18  N   UNL A   1      29.414  26.181  24.308  1.00  0.00    -0.123 NA
ATOM     19  N   UNL A   1      30.724  27.786  23.589  1.00  0.00    -0.309 N 
ATOM     20  N   UNL A   1      28.645  27.082  23.611  1.00  0.00    -0.135 NA
ATOM     21  C   UNL A   1      29.435  28.046  23.183  1.00  0.00     0.130 A 
ATOM     22  C   UNL A   1      31.864  28.627  23.326  1.00  0.00     0.154 C 
ATOM     23  C   UNL A   1      29.024  29.228  22.393  1.00  0.00     0.090 C 
ENDBRANCH  16  17
ENDBRANCH   9  16
ENDBRANCH   3   5
ENDBRANCH   2   3
ENDBRANCH   1   2
BRANCH   1  24
ATOM     24  C   UNL A   1      37.615  20.831  24.809  1.00  0.00     0.275 C 
BRANCH  24  25
ATOM     25  O   UNL A   1      38.095  21.786  25.773  1.00  0.00    -0.458 OA
BRANCH  25  26
ATOM     26  C   UNL A   1      39.324  21.528  26.278  1.00  0.00     0.338 C 
ATOM     27  O   UNL A   1      39.933  20.475  26.243  1.00  0.00    -0.246 OA
BRANCH  26  28
ATOM     28  C   UNL A   1      39.895  22.762  26.831  1.00  0.00     0.060 A 
ATOM     29  C   UNL A   1      39.490  23.981  26.294  1.00  0.00     0.016 A 
ATOM     30  C   UNL A   1      40.900  22.714  27.794  1.00  0.00     0.016 A 
ATOM     31  C   UNL A   1      40.101  25.165  26.689  1.00  0.00     0.010 A 
ATOM     32  C   UNL A   1      41.476  23.909  28.237  1.00  0.00     0.010 A 
ATOM     33  C   UNL A   1      41.085  25.143  27.683  1.00  0.00    -0.014 A 
BRANCH  33  34
ATOM     34  C   UNL A   1      41.699  26.409  28.157  1.00  0.00     0.031 A 
ATOM     35  C   UNL A   1      40.862  27.436  28.862  1.00  0.00     0.074 A 
ATOM     36  C   UNL A   1      43.008  26.639  27.930  1.00  0.00     0.049 A 
ATOM     37  N   UNL A   1      41.153  28.673  29.166  1.00  0.00    -0.248 NA
ATOM     38  C   UNL A   1      39.516  27.011  29.275  1.00  0.00     0.031 C 
ATOM     39  C   UNL A   1      43.937  25.692  27.309  1.00  0.00     0.029 A 
ATOM     40  N   UNL A   1      43.780  27.745  28.181  1.00  0.00    -0.354 N 
ATOM     41  C   UNL A   1      40.016  29.192  29.775  1.00  0.00     0.074 A 
ATOM     42  C   UNL A   1      39.028  28.131  29.790  1.00  0.00     0.031 C 
ATOM     43  C   UNL A   1      45.149  26.259  27.224  1.00  0.00     0.029 A 
ATOM     44  C   UNL A   1      45.065  27.633  27.705  1.00  0.00     0.049 A 
ATOM     45  H   UNL A   1      43.446  28.541  28.655  1.00  0.00     0.167 HD
ATOM     46  C   UNL A   1      39.819  30.440  30.269  1.00  0.00     0.034 A 
ATOM     47  C   UNL A   1      46.046  28.551  27.603  1.00  0.00     0.034 A 
ATOM     48  C   UNL A   1      40.824  31.477  30.252  1.00  0.00     0.049 A 
ATOM     49  C   UNL A   1      45.773  29.957  28.067  1.00  0.00     0.074 A 
ATOM     50  C   UNL A   1      40.741  32.768  30.744  1.00  0.00     0.029 A 
ATOM     51  N   UNL A   1      42.095  31.342  29.708  1.00  0.00    -0.354 N 
ATOM     52  N   UNL A   1      44.679  30.452  28.596  1.00  0.00    -0.248 NA
ATOM     53  C   UNL A   1      46.859  30.931  27.899  1.00  0.00     0.031 C 
ATOM     54  C   UNL A   1      41.938  33.431  30.442  1.00  0.00     0.029 A 
ATOM     55  C   UNL A   1      42.791  32.536  29.818  1.00  0.00     0.049 A 
ATOM     56  H   UNL A   1      42.449  30.517  29.304  1.00  0.00     0.167 HD
ATOM     57  C   UNL A   1      44.947  31.797  28.830  1.00  0.00     0.074 A 
ATOM     58  C   UNL A   1      46.312  32.029  28.401  1.00  0.00     0.031 C 
ATOM     59  C   UNL A   1      44.140  32.753  29.354  1.00  0.00     0.034 A 
BRANCH  46  60
ATOM     60  C   UNL A   1      38.447  30.767  30.802  1.00  0.00     0.023 A 
ATOM     61  C   UNL A   1      37.459  31.367  30.004  1.00  0.00     0.031 A 
ATOM     62  C   UNL A   1      38.134  30.496  32.147  1.00  0.00     0.131 A 
ATOM     63  C   UNL A   1      36.227  31.732  30.572  1.00  0.00     0.055 A 
ATOM     64  C   UNL A   1      36.883  30.799  32.688  1.00  0.00     0.041 A 
ATOM     65  F   UNL A   1      39.046  29.944  32.963  1.00  0.00    -0.206 F 
ATOM     66  C   UNL A   1      35.926  31.433  31.903  1.00  0.00     0.022 A 
BRANCH  63  67
ATOM     67  S   UNL A   1      35.071  32.719  29.581  1.00  0.00     0.124 S 
ATOM     68  O   UNL A   1      35.972  33.673  28.939  1.00  0.00    -0.237 OA
ATOM     69  O   UNL A   1      34.471  31.718  28.707  1.00  0.00    -0.237 OA
ATOM     70  O   UNL A   1      34.171  33.296  30.578  1.00  0.00    -0.744 OA
ENDBRANCH  63  67
ENDBRANCH  46  60
BRANCH  47  71
ATOM     71  C   UNL A   1      47.338  28.198  26.953  1.00  0.00     0.023 A 
ATOM     72  C   UNL A   1      47.426  28.008  25.567  1.00  0.00     0.031 A 
ATOM     73  C   UNL A   1      48.504  28.023  27.722  1.00  0.00     0.131 A 
ATOM     74  C   UNL A   1      48.650  27.629  24.992  1.00  0.00     0.055 A 
ATOM     75  C   UNL A   1      49.728  27.691  27.139  1.00  0.00     0.041 A 
ATOM     76  F   UNL A   1      48.473  28.196  29.052  1.00  0.00    -0.206 F 
ATOM     77  C   UNL A   1      49.803  27.483  25.767  1.00  0.00     0.022 A 
BRANCH  74  78
ATOM     78  S   UNL A   1      48.701  27.271  23.215  1.00  0.00     0.124 S 
ATOM     79  O   UNL A   1      50.121  27.428  22.921  1.00  0.00    -0.237 OA
ATOM     80  O   UNL A   1      48.182  25.909  23.168  1.00  0.00    -0.237 OA
ATOM     81  O   UNL A   1      47.827  28.290  22.638  1.00  0.00    -0.744 OA
ENDBRANCH  74  78
ENDBRANCH  47  71
BRANCH  59  82
ATOM     82  C   UNL A   1      44.734  34.129  29.504  1.00  0.00     0.023 A 
ATOM     83  C   UNL A   1      45.428  34.504  30.666  1.00  0.00     0.031 A 
ATOM     84  C   UNL A   1      44.587  35.079  28.479  1.00  0.00     0.131 A 
ATOM     85  C   UNL A   1      45.914  35.813  30.796  1.00  0.00     0.055 A 
ATOM     86  C   UNL A   1      45.113  36.366  28.594  1.00  0.00     0.041 A 
ATOM     87  F   UNL A   1      43.928  34.770  27.351  1.00  0.00    -0.206 F 
ATOM     88  C   UNL A   1      45.772  36.742  29.761  1.00  0.00     0.022 A 
BRANCH  85  89
ATOM     89  S   UNL A   1      46.681  36.310  32.362  1.00  0.00     0.124 S 
ATOM     90  O   UNL A   1      47.909  35.523  32.360  1.00  0.00    -0.237 OA
ATOM     91  O   UNL A   1      46.845  37.749  32.189  1.00  0.00    -0.237 OA
ATOM     92  O   UNL A   1      45.694  35.917  33.367  1.00  0.00    -0.744 OA
ENDBRANCH  85  89
ENDBRANCH  59  82
ENDBRANCH  33  34
ENDBRANCH  26  28
ENDBRANCH  25  26
ENDBRANCH  24  25
ENDBRANCH   1  24
TORSDOF 19
ENDMDL
