MODEL 1
REMARK VINA RESULT:     -10.5      0.000      0.000
REMARK SMILES O=C(CC[N@@H+]1CCc2ccccc2C1)OCCOC(=O)c1ccc(-c2c3nc(c(-c4cc(S(=O)(=O)[O-])ccc4F)c4ccc([nH]4)c(-c4cc(S(=O)(=O)[O-])ccc4F)c4nc(c(-c5cc(S(=O)(=O)[O-])ccc5F)c5ccc2[nH]5)C=C4)C=C3)cc1
REMARK SMILES IDX 17 1 16 2 15 3 2 4 1 5 3 6 4 7 5 8 6 9 14 10 7 12 13 13 8 14
REMARK SMILES IDX 12 15 9 16 11 17 10 18 18 19 19 20 20 21 21 22 22 23 83 24
REMARK SMILES IDX 23 25 82 26 24 27 25 28 26 29 76 30 27 31 81 32 75 33 77 34
REMARK SMILES IDX 28 35 80 36 74 37 73 38 29 40 61 41 41 42 60 43 42 44 45 45
REMARK SMILES IDX 59 46 78 47 43 48 44 49 58 51 79 52 46 53 30 54 31 55 39 56
REMARK SMILES IDX 32 57 38 58 40 59 37 60 33 61 34 62 35 63 36 64 62 65 63 66
REMARK SMILES IDX 71 67 64 68 70 69 72 70 69 71 65 72 66 73 67 74 68 75 47 76
REMARK SMILES IDX 48 77 56 78 49 79 55 80 57 81 54 82 50 83 51 84 52 85 53 86
REMARK H PARENT 5 11 77 39 45 50
REMARK Flexibility Score: inf
ROOT
ATOM      1  C   UNL A   1      40.954  19.598  26.345  1.00  0.00     0.275 C 
ENDROOT
BRANCH   1   2
ATOM      2  C   UNL A   1      42.358  18.954  26.316  1.00  0.00     0.274 C 
BRANCH   2   3
ATOM      3  O   UNL A   1      43.312  19.853  25.728  1.00  0.00    -0.462 OA
BRANCH   3   4
ATOM      4  C   UNL A   1      44.400  19.263  25.168  1.00  0.00     0.311 C 
ATOM      5  O   UNL A   1      44.803  18.151  25.472  1.00  0.00    -0.252 OA
BRANCH   4   6
ATOM      6  C   UNL A   1      44.991  20.183  24.128  1.00  0.00     0.184 C 
BRANCH   6   7
ATOM      7  C   UNL A   1      45.914  21.265  24.699  1.00  0.00     0.274 C 
BRANCH   7   8
ATOM      8  N   UNL A   1      45.517  22.679  24.609  1.00  0.00    -0.330 N 
ATOM      9  C   UNL A   1      46.633  23.621  24.440  1.00  0.00     0.267 C 
ATOM     10  C   UNL A   1      44.422  23.146  25.441  1.00  0.00     0.299 C 
ATOM     11  H   UNL A   1      45.039  22.677  23.707  1.00  0.00     0.348 HD
ATOM     12  C   UNL A   1      46.522  24.961  25.207  1.00  0.00     0.097 C 
ATOM     13  C   UNL A   1      44.072  24.598  25.218  1.00  0.00     0.010 A 
ATOM     14  C   UNL A   1      45.126  25.518  25.157  1.00  0.00    -0.034 A 
ATOM     15  C   UNL A   1      42.747  25.045  25.163  1.00  0.00     0.010 A 
ATOM     16  C   UNL A   1      44.850  26.886  25.106  1.00  0.00     0.004 A 
ATOM     17  C   UNL A   1      42.476  26.410  25.082  1.00  0.00     0.001 A 
ATOM     18  C   UNL A   1      43.526  27.328  25.070  1.00  0.00     0.000 A 
ENDBRANCH   7   8
ENDBRANCH   6   7
ENDBRANCH   4   6
ENDBRANCH   3   4
ENDBRANCH   2   3
ENDBRANCH   1   2
BRANCH   1  19
ATOM     19  O   UNL A   1      40.904  20.790  27.149  1.00  0.00    -0.458 OA
BRANCH  19  20
ATOM     20  C   UNL A   1      40.057  21.735  26.652  1.00  0.00     0.338 C 
ATOM     21  O   UNL A   1      39.097  21.528  25.941  1.00  0.00    -0.246 OA
BRANCH  20  22
ATOM     22  C   UNL A   1      40.344  23.039  27.295  1.00  0.00     0.060 A 
ATOM     23  C   UNL A   1      39.489  24.105  26.990  1.00  0.00     0.016 A 
ATOM     24  C   UNL A   1      41.421  23.229  28.166  1.00  0.00     0.016 A 
ATOM     25  C   UNL A   1      39.734  25.374  27.518  1.00  0.00     0.010 A 
ATOM     26  C   UNL A   1      41.669  24.506  28.689  1.00  0.00     0.010 A 
ATOM     27  C   UNL A   1      40.842  25.593  28.346  1.00  0.00    -0.014 A 
BRANCH  27  28
ATOM     28  C   UNL A   1      41.195  26.981  28.743  1.00  0.00     0.031 A 
ATOM     29  C   UNL A   1      42.644  27.388  28.776  1.00  0.00     0.074 A 
ATOM     30  C   UNL A   1      40.237  27.883  29.031  1.00  0.00     0.049 A 
ATOM     31  N   UNL A   1      43.174  28.549  29.063  1.00  0.00    -0.248 NA
ATOM     32  C   UNL A   1      43.627  26.345  28.437  1.00  0.00     0.031 C 
ATOM     33  C   UNL A   1      38.799  27.625  29.003  1.00  0.00     0.029 A 
ATOM     34  N   UNL A   1      40.333  29.202  29.407  1.00  0.00    -0.354 N 
ATOM     35  C   UNL A   1      44.547  28.384  28.929  1.00  0.00     0.074 A 
ATOM     36  C   UNL A   1      44.772  26.999  28.570  1.00  0.00     0.031 C 
ATOM     37  C   UNL A   1      38.147  28.746  29.361  1.00  0.00     0.029 A 
ATOM     38  C   UNL A   1      39.119  29.793  29.671  1.00  0.00     0.049 A 
ATOM     39  H   UNL A   1      41.191  29.678  29.481  1.00  0.00     0.167 HD
ATOM     40  C   UNL A   1      45.532  29.305  29.080  1.00  0.00     0.034 A 
ATOM     41  C   UNL A   1      38.828  31.028  30.130  1.00  0.00     0.034 A 
ATOM     42  C   UNL A   1      45.304  30.680  29.448  1.00  0.00     0.049 A 
ATOM     43  C   UNL A   1      39.954  32.005  30.390  1.00  0.00     0.074 A 
ATOM     44  C   UNL A   1      46.232  31.700  29.576  1.00  0.00     0.029 A 
ATOM     45  N   UNL A   1      44.069  31.224  29.773  1.00  0.00    -0.354 N 
ATOM     46  N   UNL A   1      41.244  31.848  30.201  1.00  0.00    -0.248 NA
ATOM     47  C   UNL A   1      39.582  33.325  30.919  1.00  0.00     0.031 C 
ATOM     48  C   UNL A   1      45.570  32.837  30.054  1.00  0.00     0.029 A 
ATOM     49  C   UNL A   1      44.219  32.549  30.152  1.00  0.00     0.049 A 
ATOM     50  H   UNL A   1      43.212  30.740  29.738  1.00  0.00     0.167 HD
ATOM     51  C   UNL A   1      41.830  33.061  30.563  1.00  0.00     0.074 A 
ATOM     52  C   UNL A   1      40.754  33.942  30.961  1.00  0.00     0.031 C 
ATOM     53  C   UNL A   1      43.141  33.415  30.564  1.00  0.00     0.034 A 
BRANCH  40  54
ATOM     54  C   UNL A   1      46.954  28.844  28.893  1.00  0.00     0.023 A 
ATOM     55  C   UNL A   1      47.537  28.738  27.619  1.00  0.00     0.031 A 
ATOM     56  C   UNL A   1      47.744  28.524  30.012  1.00  0.00     0.131 A 
ATOM     57  C   UNL A   1      48.858  28.281  27.492  1.00  0.00     0.055 A 
ATOM     58  C   UNL A   1      49.076  28.131  29.883  1.00  0.00     0.041 A 
ATOM     59  F   UNL A   1      47.229  28.590  31.250  1.00  0.00    -0.206 F 
ATOM     60  C   UNL A   1      49.638  27.999  28.617  1.00  0.00     0.022 A 
BRANCH  57  61
ATOM     61  S   UNL A   1      49.516  27.970  25.831  1.00  0.00     0.124 S 
ATOM     62  O   UNL A   1      50.553  28.994  25.727  1.00  0.00    -0.237 OA
ATOM     63  O   UNL A   1      49.984  26.593  25.928  1.00  0.00    -0.237 OA
ATOM     64  O   UNL A   1      48.360  28.176  24.960  1.00  0.00    -0.744 OA
ENDBRANCH  57  61
ENDBRANCH  40  54
BRANCH  41  65
ATOM     65  C   UNL A   1      37.420  31.416  30.443  1.00  0.00     0.023 A 
ATOM     66  C   UNL A   1      36.547  31.871  29.441  1.00  0.00     0.031 A 
ATOM     67  C   UNL A   1      36.960  31.433  31.772  1.00  0.00     0.131 A 
ATOM     68  C   UNL A   1      35.287  32.383  29.790  1.00  0.00     0.055 A 
ATOM     69  C   UNL A   1      35.683  31.887  32.108  1.00  0.00     0.041 A 
ATOM     70  F   UNL A   1      37.753  31.015  32.772  1.00  0.00    -0.206 F 
ATOM     71  C   UNL A   1      34.846  32.384  31.115  1.00  0.00     0.022 A 
BRANCH  68  72
ATOM     72  S   UNL A   1      34.282  33.168  28.499  1.00  0.00     0.124 S 
ATOM     73  O   UNL A   1      33.632  32.015  27.887  1.00  0.00    -0.237 OA
ATOM     74  O   UNL A   1      33.423  34.050  29.281  1.00  0.00    -0.237 OA
ATOM     75  O   UNL A   1      35.272  33.845  27.662  1.00  0.00    -0.744 OA
ENDBRANCH  68  72
ENDBRANCH  41  65
BRANCH  53  76
ATOM     76  C   UNL A   1      43.474  34.826  30.985  1.00  0.00     0.023 A 
ATOM     77  C   UNL A   1      43.583  35.869  30.047  1.00  0.00     0.031 A 
ATOM     78  C   UNL A   1      43.691  35.132  32.341  1.00  0.00     0.131 A 
ATOM     79  C   UNL A   1      43.946  37.156  30.470  1.00  0.00     0.055 A 
ATOM     80  C   UNL A   1      43.995  36.427  32.762  1.00  0.00     0.041 A 
ATOM     81  F   UNL A   1      43.602  34.176  33.279  1.00  0.00    -0.206 F 
ATOM     82  C   UNL A   1      44.137  37.446  31.824  1.00  0.00     0.022 A 
BRANCH  79  83
ATOM     83  S   UNL A   1      44.242  38.436  29.219  1.00  0.00     0.124 S 
ATOM     84  O   UNL A   1      44.203  37.665  27.981  1.00  0.00    -0.237 OA
ATOM     85  O   UNL A   1      43.124  39.349  29.436  1.00  0.00    -0.237 OA
ATOM     86  O   UNL A   1      45.554  38.970  29.577  1.00  0.00    -0.744 OA
ENDBRANCH  79  83
ENDBRANCH  53  76
ENDBRANCH  27  28
ENDBRANCH  20  22
ENDBRANCH  19  20
ENDBRANCH   1  19
TORSDOF 16
ENDMDL
MODEL 2
REMARK VINA RESULT:     -10.5      1.466      2.052
REMARK SMILES O=C(CC[N@@H+]1CCc2ccccc2C1)OCCOC(=O)c1ccc(-c2c3nc(c(-c4cc(S(=O)(=O)[O-])ccc4F)c4ccc([nH]4)c(-c4cc(S(=O)(=O)[O-])ccc4F)c4nc(c(-c5cc(S(=O)(=O)[O-])ccc5F)c5ccc2[nH]5)C=C4)C=C3)cc1
REMARK SMILES IDX 17 1 16 2 15 3 2 4 1 5 3 6 4 7 5 8 6 9 14 10 7 12 13 13 8 14
REMARK SMILES IDX 12 15 9 16 11 17 10 18 18 19 19 20 20 21 21 22 22 23 83 24
REMARK SMILES IDX 23 25 82 26 24 27 25 28 26 29 76 30 27 31 81 32 75 33 77 34
REMARK SMILES IDX 28 35 80 36 74 37 73 38 29 40 61 41 41 42 60 43 42 44 45 45
REMARK SMILES IDX 59 46 78 47 43 48 44 49 58 51 79 52 46 53 30 54 31 55 39 56
REMARK SMILES IDX 32 57 38 58 40 59 37 60 33 61 34 62 35 63 36 64 62 65 63 66
REMARK SMILES IDX 71 67 64 68 70 69 72 70 69 71 65 72 66 73 67 74 68 75 47 76
REMARK SMILES IDX 48 77 56 78 49 79 55 80 57 81 54 82 50 83 51 84 52 85 53 86
REMARK H PARENT 5 11 77 39 45 50
REMARK Flexibility Score: inf
ROOT
ATOM      1  C   UNL A   1      40.807  19.870  26.145  1.00  0.00     0.275 C 
ENDROOT
BRANCH   1   2
ATOM      2  C   UNL A   1      42.346  19.981  26.241  1.00  0.00     0.274 C 
BRANCH   2   3
ATOM      3  O   UNL A   1      42.831  21.015  25.370  1.00  0.00    -0.462 OA
BRANCH   3   4
ATOM      4  C   UNL A   1      44.139  20.913  25.017  1.00  0.00     0.311 C 
ATOM      5  O   UNL A   1      44.809  19.905  25.170  1.00  0.00    -0.252 OA
BRANCH   4   6
ATOM      6  C   UNL A   1      44.596  22.214  24.405  1.00  0.00     0.184 C 
BRANCH   6   7
ATOM      7  C   UNL A   1      45.917  22.746  24.973  1.00  0.00     0.274 C 
BRANCH   7   8
ATOM      8  N   UNL A   1      45.899  23.601  26.171  1.00  0.00    -0.330 N 
ATOM      9  C   UNL A   1      46.971  24.605  26.225  1.00  0.00     0.267 C 
ATOM     10  C   UNL A   1      45.536  23.003  27.444  1.00  0.00     0.299 C 
ATOM     11  H   UNL A   1      45.048  24.137  26.001  1.00  0.00     0.348 HD
ATOM     12  C   UNL A   1      47.606  24.859  27.613  1.00  0.00     0.097 C 
ATOM     13  C   UNL A   1      45.499  23.991  28.585  1.00  0.00     0.010 A 
ATOM     14  C   UNL A   1      46.569  24.887  28.703  1.00  0.00    -0.034 A 
ATOM     15  C   UNL A   1      44.492  23.972  29.556  1.00  0.00     0.010 A 
ATOM     16  C   UNL A   1      46.661  25.715  29.824  1.00  0.00     0.004 A 
ATOM     17  C   UNL A   1      44.571  24.821  30.658  1.00  0.00     0.001 A 
ATOM     18  C   UNL A   1      45.662  25.679  30.799  1.00  0.00     0.000 A 
ENDBRANCH   7   8
ENDBRANCH   6   7
ENDBRANCH   4   6
ENDBRANCH   3   4
ENDBRANCH   2   3
ENDBRANCH   1   2
BRANCH   1  19
ATOM     19  O   UNL A   1      40.127  20.768  27.041  1.00  0.00    -0.458 OA
BRANCH  19  20
ATOM     20  C   UNL A   1      39.423  21.737  26.393  1.00  0.00     0.338 C 
ATOM     21  O   UNL A   1      38.514  21.556  25.612  1.00  0.00    -0.246 OA
BRANCH  20  22
ATOM     22  C   UNL A   1      39.779  23.062  26.956  1.00  0.00     0.060 A 
ATOM     23  C   UNL A   1      39.087  24.174  26.462  1.00  0.00     0.016 A 
ATOM     24  C   UNL A   1      40.765  23.224  27.933  1.00  0.00     0.016 A 
ATOM     25  C   UNL A   1      39.410  25.456  26.909  1.00  0.00     0.010 A 
ATOM     26  C   UNL A   1      41.093  24.515  28.375  1.00  0.00     0.010 A 
ATOM     27  C   UNL A   1      40.435  25.641  27.846  1.00  0.00    -0.014 A 
BRANCH  27  28
ATOM     28  C   UNL A   1      40.892  27.018  28.167  1.00  0.00     0.031 A 
ATOM     29  C   UNL A   1      42.312  27.410  27.854  1.00  0.00     0.074 A 
ATOM     30  C   UNL A   1      40.045  27.924  28.691  1.00  0.00     0.049 A 
ATOM     31  N   UNL A   1      42.911  28.561  28.022  1.00  0.00    -0.248 NA
ATOM     32  C   UNL A   1      43.169  26.365  27.272  1.00  0.00     0.031 C 
ATOM     33  C   UNL A   1      38.639  27.680  29.008  1.00  0.00     0.029 A 
ATOM     34  N   UNL A   1      40.247  29.235  29.053  1.00  0.00    -0.354 N 
ATOM     35  C   UNL A   1      44.210  28.385  27.557  1.00  0.00     0.074 A 
ATOM     36  C   UNL A   1      44.322  27.005  27.134  1.00  0.00     0.031 C 
ATOM     37  C   UNL A   1      38.108  28.801  29.529  1.00  0.00     0.029 A 
ATOM     38  C   UNL A   1      39.141  29.833  29.611  1.00  0.00     0.049 A 
ATOM     39  H   UNL A   1      41.104  29.702  28.924  1.00  0.00     0.167 HD
ATOM     40  C   UNL A   1      45.214  29.294  27.480  1.00  0.00     0.034 A 
ATOM     41  C   UNL A   1      38.986  31.062  30.145  1.00  0.00     0.034 A 
ATOM     42  C   UNL A   1      45.100  30.664  27.913  1.00  0.00     0.049 A 
ATOM     43  C   UNL A   1      40.155  32.023  30.140  1.00  0.00     0.074 A 
ATOM     44  C   UNL A   1      46.046  31.673  27.828  1.00  0.00     0.029 A 
ATOM     45  N   UNL A   1      43.988  31.214  28.534  1.00  0.00    -0.354 N 
ATOM     46  N   UNL A   1      41.360  31.858  29.642  1.00  0.00    -0.248 NA
ATOM     47  C   UNL A   1      39.941  33.338  30.763  1.00  0.00     0.031 C 
ATOM     48  C   UNL A   1      45.535  32.807  28.469  1.00  0.00     0.029 A 
ATOM     49  C   UNL A   1      44.243  32.531  28.886  1.00  0.00     0.049 A 
ATOM     50  H   UNL A   1      43.142  30.739  28.701  1.00  0.00     0.167 HD
ATOM     51  C   UNL A   1      42.032  33.058  29.870  1.00  0.00     0.074 A 
ATOM     52  C   UNL A   1      41.096  33.942  30.530  1.00  0.00     0.031 C 
ATOM     53  C   UNL A   1      43.309  33.400  29.560  1.00  0.00     0.034 A 
BRANCH  40  54
ATOM     54  C   UNL A   1      46.543  28.822  26.948  1.00  0.00     0.023 A 
ATOM     55  C   UNL A   1      46.744  28.565  25.581  1.00  0.00     0.031 A 
ATOM     56  C   UNL A   1      47.629  28.647  27.822  1.00  0.00     0.131 A 
ATOM     57  C   UNL A   1      47.992  28.105  25.134  1.00  0.00     0.055 A 
ATOM     58  C   UNL A   1      48.885  28.249  27.363  1.00  0.00     0.041 A 
ATOM     59  F   UNL A   1      47.485  28.860  29.140  1.00  0.00    -0.206 F 
ATOM     60  C   UNL A   1      49.070  27.967  26.013  1.00  0.00     0.022 A 
BRANCH  57  61
ATOM     61  S   UNL A   1      48.164  27.597  23.402  1.00  0.00     0.124 S 
ATOM     62  O   UNL A   1      48.004  26.148  23.500  1.00  0.00    -0.237 OA
ATOM     63  O   UNL A   1      47.077  28.318  22.751  1.00  0.00    -0.237 OA
ATOM     64  O   UNL A   1      49.510  28.045  23.045  1.00  0.00    -0.744 OA
ENDBRANCH  57  61
ENDBRANCH  40  54
BRANCH  41  65
ATOM     65  C   UNL A   1      37.701  31.458  30.795  1.00  0.00     0.023 A 
ATOM     66  C   UNL A   1      36.693  32.123  30.078  1.00  0.00     0.031 A 
ATOM     67  C   UNL A   1      37.507  31.266  32.175  1.00  0.00     0.131 A 
ATOM     68  C   UNL A   1      35.570  32.627  30.752  1.00  0.00     0.055 A 
ATOM     69  C   UNL A   1      36.360  31.717  32.831  1.00  0.00     0.041 A 
ATOM     70  F   UNL A   1      38.440  30.643  32.913  1.00  0.00    -0.206 F 
ATOM     71  C   UNL A   1      35.392  32.419  32.121  1.00  0.00     0.022 A 
BRANCH  68  72
ATOM     72  S   UNL A   1      34.404  33.673  29.835  1.00  0.00     0.124 S 
ATOM     73  O   UNL A   1      33.674  32.685  29.050  1.00  0.00    -0.237 OA
ATOM     74  O   UNL A   1      33.661  34.313  30.914  1.00  0.00    -0.237 OA
ATOM     75  O   UNL A   1      35.276  34.561  29.068  1.00  0.00    -0.744 OA
ENDBRANCH  68  72
ENDBRANCH  41  65
BRANCH  53  76
ATOM     76  C   UNL A   1      43.753  34.800  29.909  1.00  0.00     0.023 A 
ATOM     77  C   UNL A   1      43.540  35.880  29.033  1.00  0.00     0.031 A 
ATOM     78  C   UNL A   1      44.402  35.057  31.130  1.00  0.00     0.131 A 
ATOM     79  C   UNL A   1      44.014  37.157  29.370  1.00  0.00     0.055 A 
ATOM     80  C   UNL A   1      44.821  36.340  31.484  1.00  0.00     0.041 A 
ATOM     81  F   UNL A   1      44.633  34.063  32.003  1.00  0.00    -0.206 F 
ATOM     82  C   UNL A   1      44.639  37.397  30.597  1.00  0.00     0.022 A 
BRANCH  79  83
ATOM     83  S   UNL A   1      43.874  38.491  28.148  1.00  0.00     0.124 S 
ATOM     84  O   UNL A   1      42.779  38.018  27.307  1.00  0.00    -0.237 OA
ATOM     85  O   UNL A   1      43.581  39.650  28.984  1.00  0.00    -0.237 OA
ATOM     86  O   UNL A   1      45.186  38.508  27.505  1.00  0.00    -0.744 OA
ENDBRANCH  79  83
ENDBRANCH  53  76
ENDBRANCH  27  28
ENDBRANCH  20  22
ENDBRANCH  19  20
ENDBRANCH   1  19
TORSDOF 16
ENDMDL
MODEL 3
REMARK VINA RESULT:     -10.3      4.466     11.915
REMARK SMILES O=C(CC[N@@H+]1CCc2ccccc2C1)OCCOC(=O)c1ccc(-c2c3nc(c(-c4cc(S(=O)(=O)[O-])ccc4F)c4ccc([nH]4)c(-c4cc(S(=O)(=O)[O-])ccc4F)c4nc(c(-c5cc(S(=O)(=O)[O-])ccc5F)c5ccc2[nH]5)C=C4)C=C3)cc1
REMARK SMILES IDX 17 1 16 2 15 3 2 4 1 5 3 6 4 7 5 8 6 9 14 10 7 12 13 13 8 14
REMARK SMILES IDX 12 15 9 16 11 17 10 18 18 19 19 20 20 21 21 22 22 23 83 24
REMARK SMILES IDX 23 25 82 26 24 27 25 28 26 29 76 30 27 31 81 32 75 33 77 34
REMARK SMILES IDX 28 35 80 36 74 37 73 38 29 40 61 41 41 42 60 43 42 44 45 45
REMARK SMILES IDX 59 46 78 47 43 48 44 49 58 51 79 52 46 53 30 54 31 55 39 56
REMARK SMILES IDX 32 57 38 58 40 59 37 60 33 61 34 62 35 63 36 64 62 65 63 66
REMARK SMILES IDX 71 67 64 68 70 69 72 70 69 71 65 72 66 73 67 74 68 75 47 76
REMARK SMILES IDX 48 77 56 78 49 79 55 80 57 81 54 82 50 83 51 84 52 85 53 86
REMARK H PARENT 5 11 77 39 45 50
REMARK Flexibility Score: inf
ROOT
ATOM      1  C   UNL A   1      33.476  33.858  28.070  1.00  0.00     0.275 C 
ENDROOT
BRANCH   1   2
ATOM      2  C   UNL A   1      33.841  35.149  28.836  1.00  0.00     0.274 C 
BRANCH   2   3
ATOM      3  O   UNL A   1      32.687  35.677  29.511  1.00  0.00    -0.462 OA
BRANCH   3   4
ATOM      4  C   UNL A   1      32.887  36.051  30.801  1.00  0.00     0.311 C 
ATOM      5  O   UNL A   1      32.138  36.789  31.420  1.00  0.00    -0.252 OA
BRANCH   4   6
ATOM      6  C   UNL A   1      34.145  35.400  31.323  1.00  0.00     0.184 C 
BRANCH   6   7
ATOM      7  C   UNL A   1      33.999  34.777  32.716  1.00  0.00     0.274 C 
BRANCH   7   8
ATOM      8  N   UNL A   1      34.794  33.590  33.068  1.00  0.00    -0.330 N 
ATOM      9  C   UNL A   1      35.510  33.688  34.348  1.00  0.00     0.267 C 
ATOM     10  C   UNL A   1      35.497  32.888  32.008  1.00  0.00     0.299 C 
ATOM     11  H   UNL A   1      34.049  32.914  33.236  1.00  0.00     0.348 HD
ATOM     12  C   UNL A   1      36.932  33.078  34.388  1.00  0.00     0.097 C 
ATOM     13  C   UNL A   1      36.230  31.658  32.484  1.00  0.00     0.010 A 
ATOM     14  C   UNL A   1      36.998  31.768  33.650  1.00  0.00    -0.034 A 
ATOM     15  C   UNL A   1      36.234  30.463  31.754  1.00  0.00     0.010 A 
ATOM     16  C   UNL A   1      37.815  30.708  34.047  1.00  0.00     0.004 A 
ATOM     17  C   UNL A   1      37.027  29.396  32.170  1.00  0.00     0.001 A 
ATOM     18  C   UNL A   1      37.828  29.525  33.306  1.00  0.00     0.000 A 
ENDBRANCH   7   8
ENDBRANCH   6   7
ENDBRANCH   4   6
ENDBRANCH   3   4
ENDBRANCH   2   3
ENDBRANCH   1   2
BRANCH   1  19
ATOM     19  O   UNL A   1      34.632  33.148  27.592  1.00  0.00    -0.458 OA
BRANCH  19  20
ATOM     20  C   UNL A   1      34.557  31.803  27.798  1.00  0.00     0.338 C 
ATOM     21  O   UNL A   1      33.590  31.103  27.587  1.00  0.00    -0.246 OA
BRANCH  20  22
ATOM     22  C   UNL A   1      35.908  31.277  28.106  1.00  0.00     0.060 A 
ATOM     23  C   UNL A   1      36.089  29.891  28.025  1.00  0.00     0.016 A 
ATOM     24  C   UNL A   1      36.972  32.105  28.474  1.00  0.00     0.016 A 
ATOM     25  C   UNL A   1      37.321  29.324  28.354  1.00  0.00     0.010 A 
ATOM     26  C   UNL A   1      38.207  31.532  28.812  1.00  0.00     0.010 A 
ATOM     27  C   UNL A   1      38.381  30.136  28.780  1.00  0.00    -0.014 A 
BRANCH  27  28
ATOM     28  C   UNL A   1      39.619  29.504  29.306  1.00  0.00     0.031 A 
ATOM     29  C   UNL A   1      40.298  30.110  30.506  1.00  0.00     0.074 A 
ATOM     30  C   UNL A   1      40.113  28.380  28.752  1.00  0.00     0.049 A 
ATOM     31  N   UNL A   1      41.366  29.708  31.146  1.00  0.00    -0.248 NA
ATOM     32  C   UNL A   1      39.688  31.330  31.058  1.00  0.00     0.031 C 
ATOM     33  C   UNL A   1      39.531  27.677  27.610  1.00  0.00     0.029 A 
ATOM     34  N   UNL A   1      41.221  27.634  29.075  1.00  0.00    -0.354 N 
ATOM     35  C   UNL A   1      41.551  30.616  32.182  1.00  0.00     0.074 A 
ATOM     36  C   UNL A   1      40.506  31.610  32.063  1.00  0.00     0.031 C 
ATOM     37  C   UNL A   1      40.295  26.608  27.320  1.00  0.00     0.029 A 
ATOM     38  C   UNL A   1      41.434  26.566  28.234  1.00  0.00     0.049 A 
ATOM     39  H   UNL A   1      41.806  27.844  29.838  1.00  0.00     0.167 HD
ATOM     40  C   UNL A   1      42.501  30.615  33.152  1.00  0.00     0.034 A 
ATOM     41  C   UNL A   1      42.445  25.672  28.193  1.00  0.00     0.034 A 
ATOM     42  C   UNL A   1      43.546  29.628  33.259  1.00  0.00     0.049 A 
ATOM     43  C   UNL A   1      43.548  25.756  29.226  1.00  0.00     0.074 A 
ATOM     44  C   UNL A   1      44.522  29.514  34.235  1.00  0.00     0.029 A 
ATOM     45  N   UNL A   1      43.771  28.603  32.352  1.00  0.00    -0.354 N 
ATOM     46  N   UNL A   1      43.675  26.588  30.235  1.00  0.00    -0.248 NA
ATOM     47  C   UNL A   1      44.639  24.777  29.116  1.00  0.00     0.031 C 
ATOM     48  C   UNL A   1      45.382  28.470  33.875  1.00  0.00     0.029 A 
ATOM     49  C   UNL A   1      44.900  27.886  32.716  1.00  0.00     0.049 A 
ATOM     50  H   UNL A   1      43.210  28.412  31.565  1.00  0.00     0.167 HD
ATOM     51  C   UNL A   1      44.846  26.210  30.892  1.00  0.00     0.074 A 
ATOM     52  C   UNL A   1      45.375  25.068  30.179  1.00  0.00     0.031 C 
ATOM     53  C   UNL A   1      45.430  26.758  31.988  1.00  0.00     0.034 A 
BRANCH  40  54
ATOM     54  C   UNL A   1      42.481  31.744  34.149  1.00  0.00     0.023 A 
ATOM     55  C   UNL A   1      41.671  31.704  35.297  1.00  0.00     0.031 A 
ATOM     56  C   UNL A   1      43.301  32.869  33.956  1.00  0.00     0.131 A 
ATOM     57  C   UNL A   1      41.669  32.789  36.187  1.00  0.00     0.055 A 
ATOM     58  C   UNL A   1      43.340  33.917  34.876  1.00  0.00     0.041 A 
ATOM     59  F   UNL A   1      44.078  32.966  32.865  1.00  0.00    -0.206 F 
ATOM     60  C   UNL A   1      42.514  33.885  35.995  1.00  0.00     0.022 A 
BRANCH  57  61
ATOM     61  S   UNL A   1      40.474  32.794  37.551  1.00  0.00     0.124 S 
ATOM     62  O   UNL A   1      41.296  32.330  38.666  1.00  0.00    -0.237 OA
ATOM     63  O   UNL A   1      40.056  34.189  37.602  1.00  0.00    -0.237 OA
ATOM     64  O   UNL A   1      39.447  31.851  37.110  1.00  0.00    -0.744 OA
ENDBRANCH  57  61
ENDBRANCH  40  54
BRANCH  41  65
ATOM     65  C   UNL A   1      42.518  24.648  27.109  1.00  0.00     0.023 A 
ATOM     66  C   UNL A   1      41.868  23.409  27.228  1.00  0.00     0.031 A 
ATOM     67  C   UNL A   1      43.327  24.859  25.978  1.00  0.00     0.131 A 
ATOM     68  C   UNL A   1      42.089  22.407  26.270  1.00  0.00     0.055 A 
ATOM     69  C   UNL A   1      43.497  23.880  24.996  1.00  0.00     0.041 A 
ATOM     70  F   UNL A   1      43.978  26.022  25.814  1.00  0.00    -0.206 F 
ATOM     71  C   UNL A   1      42.890  22.638  25.150  1.00  0.00     0.022 A 
BRANCH  68  72
ATOM     72  S   UNL A   1      41.415  20.750  26.576  1.00  0.00     0.124 S 
ATOM     73  O   UNL A   1      42.048  20.401  27.842  1.00  0.00    -0.237 OA
ATOM     74  O   UNL A   1      39.982  21.012  26.625  1.00  0.00    -0.237 OA
ATOM     75  O   UNL A   1      41.868  19.980  25.418  1.00  0.00    -0.744 OA
ENDBRANCH  68  72
ENDBRANCH  41  65
BRANCH  53  76
ATOM     76  C   UNL A   1      46.694  26.106  32.495  1.00  0.00     0.023 A 
ATOM     77  C   UNL A   1      46.660  25.081  33.457  1.00  0.00     0.031 A 
ATOM     78  C   UNL A   1      47.950  26.519  32.013  1.00  0.00     0.131 A 
ATOM     79  C   UNL A   1      47.859  24.536  33.942  1.00  0.00     0.055 A 
ATOM     80  C   UNL A   1      49.136  25.933  32.457  1.00  0.00     0.041 A 
ATOM     81  F   UNL A   1      48.042  27.494  31.095  1.00  0.00    -0.206 F 
ATOM     82  C   UNL A   1      49.096  24.944  33.436  1.00  0.00     0.022 A 
BRANCH  79  83
ATOM     83  S   UNL A   1      47.786  23.337  35.302  1.00  0.00     0.124 S 
ATOM     84  O   UNL A   1      47.988  24.189  36.469  1.00  0.00    -0.237 OA
ATOM     85  O   UNL A   1      46.449  22.773  35.149  1.00  0.00    -0.237 OA
ATOM     86  O   UNL A   1      48.883  22.417  35.008  1.00  0.00    -0.744 OA
ENDBRANCH  79  83
ENDBRANCH  53  76
ENDBRANCH  27  28
ENDBRANCH  20  22
ENDBRANCH  19  20
ENDBRANCH   1  19
TORSDOF 16
ENDMDL
