MODEL 1
REMARK VINA RESULT:     -12.3      0.000      0.000
REMARK SMILES Cc1[nH]cnc1C[NH+]1CCC(Oc2cccc(F)c2)(C(=O)OCCOC(=O)c2ccc(-c3c4nc(c(-c5cc(S(=O)(=O)[O-])ccc5F)c5ccc([nH]5)c(-c5cc(S(=O)(=O)[O-])ccc5F)c5nc(c(-c6cc(S(=O)(=O)[O-])ccc6F)c6ccc3[nH]6)C=C5)C=C4)cc2)CC1
REMARK SMILES IDX 24 1 23 2 22 3 20 4 21 5 11 6 8 7 9 8 92 9 10 11 91 12 7 13
REMARK SMILES IDX 6 14 1 15 2 16 3 17 4 18 5 20 12 21 13 22 14 23 19 24 15 25
REMARK SMILES IDX 17 26 16 27 18 28 25 29 26 30 27 31 28 32 29 33 90 34 30 35
REMARK SMILES IDX 89 36 31 37 32 38 33 39 83 40 34 41 88 42 82 43 84 44 35 45
REMARK SMILES IDX 87 46 81 47 80 48 36 50 68 51 48 52 67 53 49 54 52 55 66 56
REMARK SMILES IDX 85 57 50 58 51 59 65 61 86 62 53 63 37 64 38 65 46 66 39 67
REMARK SMILES IDX 45 68 47 69 44 70 40 71 41 72 42 73 43 74 69 75 70 76 78 77
REMARK SMILES IDX 71 78 77 79 79 80 76 81 72 82 73 83 74 84 75 85 54 86 55 87
REMARK SMILES IDX 63 88 56 89 62 90 64 91 61 92 57 93 58 94 59 95 60 96
REMARK H PARENT 8 10 3 19 84 49 52 60
REMARK Flexibility Score: inf
ROOT
ATOM      1  C   UNL A   1      31.761  29.955  27.171  1.00  0.00     0.275 C 
ENDROOT
BRANCH   1   2
ATOM      2  C   UNL A   1      31.774  28.480  27.552  1.00  0.00     0.274 C 
BRANCH   2   3
ATOM      3  O   UNL A   1      32.404  27.680  26.532  1.00  0.00    -0.459 OA
BRANCH   3   4
ATOM      4  C   UNL A   1      31.583  26.796  25.893  1.00  0.00     0.351 C 
ATOM      5  O   UNL A   1      30.971  25.902  26.474  1.00  0.00    -0.247 OA
BRANCH   4   6
ATOM      6  C   UNL A   1      31.609  26.932  24.361  1.00  0.00     0.216 C 
ATOM      7  N   UNL A   1      29.243  28.060  23.102  1.00  0.00    -0.330 N 
ATOM      8  C   UNL A   1      30.129  28.959  23.836  1.00  0.00     0.267 C 
ATOM      9  C   UNL A   1      29.124  26.779  23.794  1.00  0.00     0.267 C 
ATOM     10  H   UNL A   1      29.686  27.904  22.196  1.00  0.00     0.348 HD
ATOM     11  C   UNL A   1      31.542  28.378  23.839  1.00  0.00     0.122 C 
ATOM     12  C   UNL A   1      30.475  26.067  23.762  1.00  0.00     0.122 C 
BRANCH   7  13
ATOM     13  C   UNL A   1      27.923  28.637  22.773  1.00  0.00     0.321 C 
BRANCH  13  14
ATOM     14  C   UNL A   1      27.967  30.002  22.149  1.00  0.00     0.115 A 
ATOM     15  C   UNL A   1      27.337  31.643  24.099  1.00  0.00     0.066 C 
ATOM     16  C   UNL A   1      27.723  31.236  22.732  1.00  0.00     0.040 A 
ATOM     17  N   UNL A   1      27.949  32.149  21.734  1.00  0.00    -0.348 N 
ATOM     18  C   UNL A   1      28.356  31.465  20.630  1.00  0.00     0.197 A 
ATOM     19  H   UNL A   1      27.838  33.124  21.805  1.00  0.00     0.167 HD
ATOM     20  N   UNL A   1      28.347  30.170  20.834  1.00  0.00    -0.236 NA
ENDBRANCH  13  14
ENDBRANCH   7  13
BRANCH   6  21
ATOM     21  O   UNL A   1      32.979  26.452  24.165  1.00  0.00    -0.475 OA
BRANCH  21  22
ATOM     22  C   UNL A   1      33.125  25.162  23.756  1.00  0.00     0.123 A 
ATOM     23  C   UNL A   1      33.208  24.148  24.708  1.00  0.00     0.047 A 
ATOM     24  C   UNL A   1      33.088  24.863  22.397  1.00  0.00     0.085 A 
ATOM     25  C   UNL A   1      33.320  22.820  24.298  1.00  0.00     0.007 A 
ATOM     26  C   UNL A   1      33.198  23.536  22.000  1.00  0.00     0.126 A 
ATOM     27  C   UNL A   1      33.321  22.513  22.938  1.00  0.00     0.039 A 
ATOM     28  F   UNL A   1      33.177  23.231  20.697  1.00  0.00    -0.207 F 
ENDBRANCH  21  22
ENDBRANCH   6  21
ENDBRANCH   4   6
ENDBRANCH   3   4
ENDBRANCH   2   3
ENDBRANCH   1   2
BRANCH   1  29
ATOM     29  O   UNL A   1      33.047  30.329  26.654  1.00  0.00    -0.458 OA
BRANCH  29  30
ATOM     30  C   UNL A   1      33.653  31.359  27.285  1.00  0.00     0.338 C 
ATOM     31  O   UNL A   1      33.186  32.480  27.452  1.00  0.00    -0.246 OA
BRANCH  30  32
ATOM     32  C   UNL A   1      35.003  30.967  27.747  1.00  0.00     0.060 A 
ATOM     33  C   UNL A   1      35.322  29.643  28.058  1.00  0.00     0.016 A 
ATOM     34  C   UNL A   1      35.934  31.979  27.991  1.00  0.00     0.016 A 
ATOM     35  C   UNL A   1      36.507  29.351  28.736  1.00  0.00     0.010 A 
ATOM     36  C   UNL A   1      37.151  31.676  28.603  1.00  0.00     0.010 A 
ATOM     37  C   UNL A   1      37.433  30.366  29.012  1.00  0.00    -0.014 A 
BRANCH  37  38
ATOM     38  C   UNL A   1      38.736  30.068  29.656  1.00  0.00     0.031 A 
ATOM     39  C   UNL A   1      39.687  29.070  29.058  1.00  0.00     0.074 A 
ATOM     40  C   UNL A   1      39.026  30.665  30.827  1.00  0.00     0.049 A 
ATOM     41  N   UNL A   1      40.726  28.493  29.606  1.00  0.00    -0.248 NA
ATOM     42  C   UNL A   1      39.443  28.669  27.665  1.00  0.00     0.031 C 
ATOM     43  C   UNL A   1      38.212  31.697  31.473  1.00  0.00     0.029 A 
ATOM     44  N   UNL A   1      40.074  30.477  31.690  1.00  0.00    -0.354 N 
ATOM     45  C   UNL A   1      41.248  27.643  28.637  1.00  0.00     0.074 A 
ATOM     46  C   UNL A   1      40.409  27.781  27.463  1.00  0.00     0.031 C 
ATOM     47  C   UNL A   1      38.788  32.049  32.630  1.00  0.00     0.029 A 
ATOM     48  C   UNL A   1      39.956  31.205  32.848  1.00  0.00     0.049 A 
ATOM     49  H   UNL A   1      40.833  29.879  31.500  1.00  0.00     0.167 HD
ATOM     50  C   UNL A   1      42.323  26.823  28.731  1.00  0.00     0.034 A 
ATOM     51  C   UNL A   1      40.661  31.154  33.993  1.00  0.00     0.034 A 
ATOM     52  C   UNL A   1      43.149  26.711  29.912  1.00  0.00     0.049 A 
ATOM     53  C   UNL A   1      41.773  30.159  34.119  1.00  0.00     0.074 A 
ATOM     54  C   UNL A   1      44.265  25.916  30.111  1.00  0.00     0.029 A 
ATOM     55  N   UNL A   1      42.948  27.412  31.094  1.00  0.00    -0.354 N 
ATOM     56  N   UNL A   1      42.196  29.286  33.238  1.00  0.00    -0.248 NA
ATOM     57  C   UNL A   1      42.486  30.127  35.401  1.00  0.00     0.031 C 
ATOM     58  C   UNL A   1      44.706  26.098  31.429  1.00  0.00     0.029 A 
ATOM     59  C   UNL A   1      43.900  27.048  32.034  1.00  0.00     0.049 A 
ATOM     60  H   UNL A   1      42.233  28.073  31.242  1.00  0.00     0.167 HD
ATOM     61  C   UNL A   1      43.229  28.595  33.857  1.00  0.00     0.074 A 
ATOM     62  C   UNL A   1      43.370  29.161  35.186  1.00  0.00     0.031 C 
ATOM     63  C   UNL A   1      43.996  27.588  33.368  1.00  0.00     0.034 A 
BRANCH  50  64
ATOM     64  C   UNL A   1      42.642  25.930  27.560  1.00  0.00     0.023 A 
ATOM     65  C   UNL A   1      42.194  24.600  27.487  1.00  0.00     0.031 A 
ATOM     66  C   UNL A   1      43.360  26.450  26.466  1.00  0.00     0.131 A 
ATOM     67  C   UNL A   1      42.486  23.828  26.350  1.00  0.00     0.055 A 
ATOM     68  C   UNL A   1      43.606  25.691  25.320  1.00  0.00     0.041 A 
ATOM     69  F   UNL A   1      43.821  27.709  26.490  1.00  0.00    -0.206 F 
ATOM     70  C   UNL A   1      43.169  24.373  25.258  1.00  0.00     0.022 A 
BRANCH  67  71
ATOM     71  S   UNL A   1      41.988  22.082  26.312  1.00  0.00     0.124 S 
ATOM     72  O   UNL A   1      42.834  21.554  25.246  1.00  0.00    -0.237 OA
ATOM     73  O   UNL A   1      42.304  21.630  27.663  1.00  0.00    -0.237 OA
ATOM     74  O   UNL A   1      40.562  22.139  25.997  1.00  0.00    -0.744 OA
ENDBRANCH  67  71
ENDBRANCH  50  64
BRANCH  51  75
ATOM     75  C   UNL A   1      40.249  32.015  35.131  1.00  0.00     0.023 A 
ATOM     76  C   UNL A   1      39.238  31.611  36.012  1.00  0.00     0.031 A 
ATOM     77  C   UNL A   1      40.924  33.222  35.390  1.00  0.00     0.131 A 
ATOM     78  C   UNL A   1      38.929  32.410  37.123  1.00  0.00     0.055 A 
ATOM     79  C   UNL A   1      40.636  33.996  36.514  1.00  0.00     0.041 A 
ATOM     80  F   UNL A   1      41.911  33.635  34.580  1.00  0.00    -0.206 F 
ATOM     81  C   UNL A   1      39.633  33.589  37.388  1.00  0.00     0.022 A 
BRANCH  78  82
ATOM     82  S   UNL A   1      37.602  31.879  38.237  1.00  0.00     0.124 S 
ATOM     83  O   UNL A   1      37.312  30.540  37.736  1.00  0.00    -0.237 OA
ATOM     84  O   UNL A   1      38.248  31.949  39.543  1.00  0.00    -0.237 OA
ATOM     85  O   UNL A   1      36.552  32.871  38.013  1.00  0.00    -0.744 OA
ENDBRANCH  78  82
ENDBRANCH  51  75
BRANCH  63  86
ATOM     86  C   UNL A   1      45.060  27.052  34.284  1.00  0.00     0.023 A 
ATOM     87  C   UNL A   1      44.850  25.891  35.045  1.00  0.00     0.031 A 
ATOM     88  C   UNL A   1      46.286  27.727  34.413  1.00  0.00     0.131 A 
ATOM     89  C   UNL A   1      45.841  25.460  35.941  1.00  0.00     0.055 A 
ATOM     90  C   UNL A   1      47.284  27.268  35.272  1.00  0.00     0.041 A 
ATOM     91  F   UNL A   1      46.529  28.842  33.707  1.00  0.00    -0.206 F 
ATOM     92  C   UNL A   1      47.061  26.134  36.049  1.00  0.00     0.022 A 
BRANCH  89  93
ATOM     93  S   UNL A   1      45.494  24.034  37.005  1.00  0.00     0.124 S 
ATOM     94  O   UNL A   1      46.833  23.503  37.242  1.00  0.00    -0.237 OA
ATOM     95  O   UNL A   1      44.839  24.647  38.155  1.00  0.00    -0.237 OA
ATOM     96  O   UNL A   1      44.631  23.192  36.180  1.00  0.00    -0.744 OA
ENDBRANCH  89  93
ENDBRANCH  63  86
ENDBRANCH  37  38
ENDBRANCH  30  32
ENDBRANCH  29  30
ENDBRANCH   1  29
TORSDOF 18
ENDMDL
MODEL 2
REMARK VINA RESULT:     -11.9      5.022      9.716
REMARK SMILES Cc1[nH]cnc1C[NH+]1CCC(Oc2cccc(F)c2)(C(=O)OCCOC(=O)c2ccc(-c3c4nc(c(-c5cc(S(=O)(=O)[O-])ccc5F)c5ccc([nH]5)c(-c5cc(S(=O)(=O)[O-])ccc5F)c5nc(c(-c6cc(S(=O)(=O)[O-])ccc6F)c6ccc3[nH]6)C=C5)C=C4)cc2)CC1
REMARK SMILES IDX 24 1 23 2 22 3 20 4 21 5 11 6 8 7 9 8 92 9 10 11 91 12 7 13
REMARK SMILES IDX 6 14 1 15 2 16 3 17 4 18 5 20 12 21 13 22 14 23 19 24 15 25
REMARK SMILES IDX 17 26 16 27 18 28 25 29 26 30 27 31 28 32 29 33 90 34 30 35
REMARK SMILES IDX 89 36 31 37 32 38 33 39 83 40 34 41 88 42 82 43 84 44 35 45
REMARK SMILES IDX 87 46 81 47 80 48 36 50 68 51 48 52 67 53 49 54 52 55 66 56
REMARK SMILES IDX 85 57 50 58 51 59 65 61 86 62 53 63 37 64 38 65 46 66 39 67
REMARK SMILES IDX 45 68 47 69 44 70 40 71 41 72 42 73 43 74 69 75 70 76 78 77
REMARK SMILES IDX 71 78 77 79 79 80 76 81 72 82 73 83 74 84 75 85 54 86 55 87
REMARK SMILES IDX 63 88 56 89 62 90 64 91 61 92 57 93 58 94 59 95 60 96
REMARK H PARENT 8 10 3 19 84 49 52 60
REMARK Flexibility Score: inf
ROOT
ATOM      1  C   UNL A   1      36.406  20.805  25.070  1.00  0.00     0.275 C 
ENDROOT
BRANCH   1   2
ATOM      2  C   UNL A   1      35.510  21.494  26.092  1.00  0.00     0.274 C 
BRANCH   2   3
ATOM      3  O   UNL A   1      34.666  22.483  25.469  1.00  0.00    -0.459 OA
BRANCH   3   4
ATOM      4  C   UNL A   1      33.352  22.443  25.835  1.00  0.00     0.351 C 
ATOM      5  O   UNL A   1      32.977  22.435  27.005  1.00  0.00    -0.247 OA
BRANCH   4   6
ATOM      6  C   UNL A   1      32.390  22.262  24.647  1.00  0.00     0.216 C 
ATOM      7  N   UNL A   1      32.441  24.317  22.591  1.00  0.00    -0.330 N 
ATOM      8  C   UNL A   1      33.557  23.378  22.656  1.00  0.00     0.267 C 
ATOM      9  C   UNL A   1      32.001  24.683  23.935  1.00  0.00     0.267 C 
ATOM     10  H   UNL A   1      31.683  23.824  22.120  1.00  0.00     0.348 HD
ATOM     11  C   UNL A   1      33.076  22.071  23.283  1.00  0.00     0.122 C 
ATOM     12  C   UNL A   1      31.404  23.453  24.616  1.00  0.00     0.122 C 
BRANCH   7  13
ATOM     13  C   UNL A   1      32.690  25.504  21.747  1.00  0.00     0.321 C 
BRANCH  13  14
ATOM     14  C   UNL A   1      32.042  26.769  22.226  1.00  0.00     0.115 A 
ATOM     15  C   UNL A   1      34.036  28.273  23.034  1.00  0.00     0.066 C 
ATOM     16  C   UNL A   1      32.632  27.908  22.752  1.00  0.00     0.040 A 
ATOM     17  N   UNL A   1      31.593  28.774  22.975  1.00  0.00    -0.348 N 
ATOM     18  C   UNL A   1      30.450  28.171  22.547  1.00  0.00     0.197 A 
ATOM     19  H   UNL A   1      31.662  29.672  23.372  1.00  0.00     0.167 HD
ATOM     20  N   UNL A   1      30.678  26.952  22.121  1.00  0.00    -0.236 NA
ENDBRANCH  13  14
ENDBRANCH   7  13
BRANCH   6  21
ATOM     21  O   UNL A   1      31.846  20.965  25.058  1.00  0.00    -0.475 OA
BRANCH  21  22
ATOM     22  C   UNL A   1      32.361  19.863  24.448  1.00  0.00     0.123 A 
ATOM     23  C   UNL A   1      33.138  18.973  25.187  1.00  0.00     0.047 A 
ATOM     24  C   UNL A   1      32.023  19.587  23.126  1.00  0.00     0.085 A 
ATOM     25  C   UNL A   1      33.638  17.821  24.580  1.00  0.00     0.007 A 
ATOM     26  C   UNL A   1      32.525  18.435  22.533  1.00  0.00     0.126 A 
ATOM     27  C   UNL A   1      33.335  17.555  23.246  1.00  0.00     0.039 A 
ATOM     28  F   UNL A   1      32.220  18.160  21.259  1.00  0.00    -0.207 F 
ENDBRANCH  21  22
ENDBRANCH   6  21
ENDBRANCH   4   6
ENDBRANCH   3   4
ENDBRANCH   2   3
ENDBRANCH   1   2
BRANCH   1  29
ATOM     29  O   UNL A   1      37.616  21.559  24.905  1.00  0.00    -0.458 OA
BRANCH  29  30
ATOM     30  C   UNL A   1      38.628  21.227  25.737  1.00  0.00     0.338 C 
ATOM     31  O   UNL A   1      39.015  20.091  25.988  1.00  0.00    -0.246 OA
BRANCH  30  32
ATOM     32  C   UNL A   1      39.221  22.437  26.348  1.00  0.00     0.060 A 
ATOM     33  C   UNL A   1      38.728  23.717  26.081  1.00  0.00     0.016 A 
ATOM     34  C   UNL A   1      40.381  22.288  27.112  1.00  0.00     0.016 A 
ATOM     35  C   UNL A   1      39.465  24.842  26.457  1.00  0.00     0.010 A 
ATOM     36  C   UNL A   1      41.079  23.413  27.551  1.00  0.00     0.010 A 
ATOM     37  C   UNL A   1      40.646  24.699  27.197  1.00  0.00    -0.014 A 
BRANCH  37  38
ATOM     38  C   UNL A   1      41.403  25.880  27.680  1.00  0.00     0.031 A 
ATOM     39  C   UNL A   1      40.734  26.949  28.497  1.00  0.00     0.074 A 
ATOM     40  C   UNL A   1      42.692  26.010  27.318  1.00  0.00     0.049 A 
ATOM     41  N   UNL A   1      41.154  28.157  28.773  1.00  0.00    -0.248 NA
ATOM     42  C   UNL A   1      39.426  26.619  29.083  1.00  0.00     0.031 C 
ATOM     43  C   UNL A   1      43.467  25.010  26.580  1.00  0.00     0.029 A 
ATOM     44  N   UNL A   1      43.573  27.044  27.503  1.00  0.00    -0.354 N 
ATOM     45  C   UNL A   1      40.155  28.744  29.543  1.00  0.00     0.074 A 
ATOM     46  C   UNL A   1      39.106  27.755  29.692  1.00  0.00     0.031 C 
ATOM     47  C   UNL A   1      44.704  25.479  26.374  1.00  0.00     0.029 A 
ATOM     48  C   UNL A   1      44.780  26.843  26.882  1.00  0.00     0.049 A 
ATOM     49  H   UNL A   1      43.360  27.850  28.028  1.00  0.00     0.167 HD
ATOM     50  C   UNL A   1      40.123  29.994  30.067  1.00  0.00     0.034 A 
ATOM     51  C   UNL A   1      45.811  27.681  26.674  1.00  0.00     0.034 A 
ATOM     52  C   UNL A   1      41.188  30.959  29.910  1.00  0.00     0.049 A 
ATOM     53  C   UNL A   1      45.709  29.095  27.160  1.00  0.00     0.074 A 
ATOM     54  C   UNL A   1      41.261  32.250  30.405  1.00  0.00     0.029 A 
ATOM     55  N   UNL A   1      42.364  30.739  29.206  1.00  0.00    -0.354 N 
ATOM     56  N   UNL A   1      44.721  29.674  27.797  1.00  0.00    -0.248 NA
ATOM     57  C   UNL A   1      46.851  29.972  26.877  1.00  0.00     0.031 C 
ATOM     58  C   UNL A   1      42.455  32.827  29.955  1.00  0.00     0.029 A 
ATOM     59  C   UNL A   1      43.154  31.879  29.228  1.00  0.00     0.049 A 
ATOM     60  H   UNL A   1      42.603  29.896  28.756  1.00  0.00     0.167 HD
ATOM     61  C   UNL A   1      45.118  30.989  27.994  1.00  0.00     0.074 A 
ATOM     62  C   UNL A   1      46.443  31.115  27.415  1.00  0.00     0.031 C 
ATOM     63  C   UNL A   1      44.451  32.000  28.605  1.00  0.00     0.034 A 
BRANCH  50  64
ATOM     64  C   UNL A   1      38.881  30.426  30.802  1.00  0.00     0.023 A 
ATOM     65  C   UNL A   1      37.837  31.121  30.167  1.00  0.00     0.031 A 
ATOM     66  C   UNL A   1      38.720  30.078  32.157  1.00  0.00     0.131 A 
ATOM     67  C   UNL A   1      36.684  31.461  30.895  1.00  0.00     0.055 A 
ATOM     68  C   UNL A   1      37.552  30.378  32.860  1.00  0.00     0.041 A 
ATOM     69  F   UNL A   1      39.692  29.426  32.813  1.00  0.00    -0.206 F 
ATOM     70  C   UNL A   1      36.527  31.074  32.229  1.00  0.00     0.022 A 
BRANCH  67  71
ATOM     71  S   UNL A   1      35.387  32.445  30.090  1.00  0.00     0.124 S 
ATOM     72  O   UNL A   1      34.402  32.572  31.160  1.00  0.00    -0.237 OA
ATOM     73  O   UNL A   1      36.094  33.666  29.722  1.00  0.00    -0.237 OA
ATOM     74  O   UNL A   1      34.970  31.608  28.965  1.00  0.00    -0.744 OA
ENDBRANCH  67  71
ENDBRANCH  50  64
BRANCH  51  75
ATOM     75  C   UNL A   1      46.976  27.208  25.883  1.00  0.00     0.023 A 
ATOM     76  C   UNL A   1      47.123  27.561  24.535  1.00  0.00     0.031 A 
ATOM     77  C   UNL A   1      47.996  26.459  26.496  1.00  0.00     0.131 A 
ATOM     78  C   UNL A   1      48.275  27.166  23.839  1.00  0.00     0.055 A 
ATOM     79  C   UNL A   1      49.153  26.096  25.809  1.00  0.00     0.041 A 
ATOM     80  F   UNL A   1      47.901  26.116  27.790  1.00  0.00    -0.206 F 
ATOM     81  C   UNL A   1      49.297  26.451  24.472  1.00  0.00     0.022 A 
BRANCH  78  82
ATOM     82  S   UNL A   1      48.433  27.615  22.090  1.00  0.00     0.124 S 
ATOM     83  O   UNL A   1      49.579  28.517  22.119  1.00  0.00    -0.237 OA
ATOM     84  O   UNL A   1      48.653  26.319  21.457  1.00  0.00    -0.237 OA
ATOM     85  O   UNL A   1      47.151  28.243  21.783  1.00  0.00    -0.744 OA
ENDBRANCH  78  82
ENDBRANCH  51  75
BRANCH  63  86
ATOM     86  C   UNL A   1      45.161  33.322  28.681  1.00  0.00     0.023 A 
ATOM     87  C   UNL A   1      46.029  33.623  29.743  1.00  0.00     0.031 A 
ATOM     88  C   UNL A   1      44.946  34.298  27.693  1.00  0.00     0.131 A 
ATOM     89  C   UNL A   1      46.621  34.893  29.817  1.00  0.00     0.055 A 
ATOM     90  C   UNL A   1      45.571  35.543  27.749  1.00  0.00     0.041 A 
ATOM     91  F   UNL A   1      44.122  34.055  26.662  1.00  0.00    -0.206 F 
ATOM     92  C   UNL A   1      46.407  35.850  28.820  1.00  0.00     0.022 A 
BRANCH  89  93
ATOM     93  S   UNL A   1      47.634  35.302  31.264  1.00  0.00     0.124 S 
ATOM     94  O   UNL A   1      46.962  34.554  32.322  1.00  0.00    -0.237 OA
ATOM     95  O   UNL A   1      48.953  34.813  30.876  1.00  0.00    -0.237 OA
ATOM     96  O   UNL A   1      47.519  36.755  31.363  1.00  0.00    -0.744 OA
ENDBRANCH  89  93
ENDBRANCH  63  86
ENDBRANCH  37  38
ENDBRANCH  30  32
ENDBRANCH  29  30
ENDBRANCH   1  29
TORSDOF 18
ENDMDL
MODEL 3
REMARK VINA RESULT:     -11.9      1.851      2.119
REMARK SMILES Cc1[nH]cnc1C[NH+]1CCC(Oc2cccc(F)c2)(C(=O)OCCOC(=O)c2ccc(-c3c4nc(c(-c5cc(S(=O)(=O)[O-])ccc5F)c5ccc([nH]5)c(-c5cc(S(=O)(=O)[O-])ccc5F)c5nc(c(-c6cc(S(=O)(=O)[O-])ccc6F)c6ccc3[nH]6)C=C5)C=C4)cc2)CC1
REMARK SMILES IDX 24 1 23 2 22 3 20 4 21 5 11 6 8 7 9 8 92 9 10 11 91 12 7 13
REMARK SMILES IDX 6 14 1 15 2 16 3 17 4 18 5 20 12 21 13 22 14 23 19 24 15 25
REMARK SMILES IDX 17 26 16 27 18 28 25 29 26 30 27 31 28 32 29 33 90 34 30 35
REMARK SMILES IDX 89 36 31 37 32 38 33 39 83 40 34 41 88 42 82 43 84 44 35 45
REMARK SMILES IDX 87 46 81 47 80 48 36 50 68 51 48 52 67 53 49 54 52 55 66 56
REMARK SMILES IDX 85 57 50 58 51 59 65 61 86 62 53 63 37 64 38 65 46 66 39 67
REMARK SMILES IDX 45 68 47 69 44 70 40 71 41 72 42 73 43 74 69 75 70 76 78 77
REMARK SMILES IDX 71 78 77 79 79 80 76 81 72 82 73 83 74 84 75 85 54 86 55 87
REMARK SMILES IDX 63 88 56 89 62 90 64 91 61 92 57 93 58 94 59 95 60 96
REMARK H PARENT 8 10 3 19 84 49 52 60
REMARK Flexibility Score: inf
ROOT
ATOM      1  C   UNL A   1      31.836  30.222  26.821  1.00  0.00     0.275 C 
ENDROOT
BRANCH   1   2
ATOM      2  C   UNL A   1      31.772  28.805  27.376  1.00  0.00     0.274 C 
BRANCH   2   3
ATOM      3  O   UNL A   1      32.339  27.853  26.453  1.00  0.00    -0.459 OA
BRANCH   3   4
ATOM      4  C   UNL A   1      31.468  26.919  25.969  1.00  0.00     0.351 C 
ATOM      5  O   UNL A   1      30.851  26.135  26.686  1.00  0.00    -0.247 OA
BRANCH   4   6
ATOM      6  C   UNL A   1      31.443  26.845  24.432  1.00  0.00     0.216 C 
ATOM      7  N   UNL A   1      29.113  27.963  23.100  1.00  0.00    -0.330 N 
ATOM      8  C   UNL A   1      30.087  28.885  23.677  1.00  0.00     0.267 C 
ATOM      9  C   UNL A   1      28.932  26.800  23.966  1.00  0.00     0.267 C 
ATOM     10  H   UNL A   1      29.507  27.653  22.213  1.00  0.00     0.348 HD
ATOM     11  C   UNL A   1      31.455  28.207  23.717  1.00  0.00     0.122 C 
ATOM     12  C   UNL A   1      30.229  25.992  23.993  1.00  0.00     0.122 C 
BRANCH   7  13
ATOM     13  C   UNL A   1      27.824  28.586  22.735  1.00  0.00     0.321 C 
BRANCH  13  14
ATOM     14  C   UNL A   1      27.930  29.964  22.150  1.00  0.00     0.115 A 
ATOM     15  C   UNL A   1      27.348  31.576  24.138  1.00  0.00     0.066 C 
ATOM     16  C   UNL A   1      27.732  31.191  22.764  1.00  0.00     0.040 A 
ATOM     17  N   UNL A   1      28.007  32.121  21.795  1.00  0.00    -0.348 N 
ATOM     18  C   UNL A   1      28.397  31.451  20.676  1.00  0.00     0.197 A 
ATOM     19  H   UNL A   1      27.935  33.098  21.892  1.00  0.00     0.167 HD
ATOM     20  N   UNL A   1      28.332  30.152  20.844  1.00  0.00    -0.236 NA
ENDBRANCH  13  14
ENDBRANCH   7  13
BRANCH   6  21
ATOM     21  O   UNL A   1      32.768  26.242  24.264  1.00  0.00    -0.475 OA
BRANCH  21  22
ATOM     22  C   UNL A   1      32.808  24.982  23.751  1.00  0.00     0.123 A 
ATOM     23  C   UNL A   1      32.531  23.896  24.580  1.00  0.00     0.047 A 
ATOM     24  C   UNL A   1      33.027  24.801  22.388  1.00  0.00     0.085 A 
ATOM     25  C   UNL A   1      32.533  22.605  24.054  1.00  0.00     0.007 A 
ATOM     26  C   UNL A   1      33.024  23.509  21.876  1.00  0.00     0.126 A 
ATOM     27  C   UNL A   1      32.787  22.410  22.697  1.00  0.00     0.039 A 
ATOM     28  F   UNL A   1      33.245  23.315  20.570  1.00  0.00    -0.207 F 
ENDBRANCH  21  22
ENDBRANCH   6  21
ENDBRANCH   4   6
ENDBRANCH   3   4
ENDBRANCH   2   3
ENDBRANCH   1   2
BRANCH   1  29
ATOM     29  O   UNL A   1      33.204  30.580  26.575  1.00  0.00    -0.458 OA
BRANCH  29  30
ATOM     30  C   UNL A   1      33.699  31.565  27.357  1.00  0.00     0.338 C 
ATOM     31  O   UNL A   1      33.174  32.651  27.572  1.00  0.00    -0.246 OA
BRANCH  30  32
ATOM     32  C   UNL A   1      35.008  31.172  27.927  1.00  0.00     0.060 A 
ATOM     33  C   UNL A   1      35.245  29.883  28.412  1.00  0.00     0.016 A 
ATOM     34  C   UNL A   1      35.978  32.163  28.090  1.00  0.00     0.016 A 
ATOM     35  C   UNL A   1      36.385  29.623  29.175  1.00  0.00     0.010 A 
ATOM     36  C   UNL A   1      37.152  31.883  28.791  1.00  0.00     0.010 A 
ATOM     37  C   UNL A   1      37.350  30.621  29.369  1.00  0.00    -0.014 A 
BRANCH  37  38
ATOM     38  C   UNL A   1      38.608  30.347  30.104  1.00  0.00     0.031 A 
ATOM     39  C   UNL A   1      39.627  29.381  29.567  1.00  0.00     0.074 A 
ATOM     40  C   UNL A   1      38.795  30.933  31.301  1.00  0.00     0.049 A 
ATOM     41  N   UNL A   1      40.636  28.822  30.184  1.00  0.00    -0.248 NA
ATOM     42  C   UNL A   1      39.497  28.995  28.154  1.00  0.00     0.031 C 
ATOM     43  C   UNL A   1      37.908  31.935  31.898  1.00  0.00     0.029 A 
ATOM     44  N   UNL A   1      39.780  30.758  32.238  1.00  0.00    -0.354 N 
ATOM     45  C   UNL A   1      41.251  27.999  29.245  1.00  0.00     0.074 A 
ATOM     46  C   UNL A   1      40.498  28.134  28.014  1.00  0.00     0.031 C 
ATOM     47  C   UNL A   1      38.388  32.284  33.099  1.00  0.00     0.029 A 
ATOM     48  C   UNL A   1      39.557  31.466  33.394  1.00  0.00     0.049 A 
ATOM     49  H   UNL A   1      40.566  30.182  32.098  1.00  0.00     0.167 HD
ATOM     50  C   UNL A   1      42.337  27.205  29.409  1.00  0.00     0.034 A 
ATOM     51  C   UNL A   1      40.176  31.415  34.587  1.00  0.00     0.034 A 
ATOM     52  C   UNL A   1      43.075  27.096  30.647  1.00  0.00     0.049 A 
ATOM     53  C   UNL A   1      41.301  30.447  34.783  1.00  0.00     0.074 A 
ATOM     54  C   UNL A   1      44.193  26.326  30.919  1.00  0.00     0.029 A 
ATOM     55  N   UNL A   1      42.768  27.775  31.819  1.00  0.00    -0.354 N 
ATOM     56  N   UNL A   1      41.811  29.597  33.925  1.00  0.00    -0.248 NA
ATOM     57  C   UNL A   1      41.917  30.413  36.115  1.00  0.00     0.031 C 
ATOM     58  C   UNL A   1      44.529  26.499  32.268  1.00  0.00     0.029 A 
ATOM     59  C   UNL A   1      43.657  27.420  32.823  1.00  0.00     0.049 A 
ATOM     60  H   UNL A   1      42.027  28.415  31.922  1.00  0.00     0.167 HD
ATOM     61  C   UNL A   1      42.812  28.923  34.611  1.00  0.00     0.074 A 
ATOM     62  C   UNL A   1      42.838  29.472  35.954  1.00  0.00     0.031 C 
ATOM     63  C   UNL A   1      43.638  27.942  34.168  1.00  0.00     0.034 A 
BRANCH  50  64
ATOM     64  C   UNL A   1      42.764  26.338  28.253  1.00  0.00     0.023 A 
ATOM     65  C   UNL A   1      42.255  25.042  28.059  1.00  0.00     0.031 A 
ATOM     66  C   UNL A   1      43.658  26.851  27.294  1.00  0.00     0.131 A 
ATOM     67  C   UNL A   1      42.659  24.296  26.939  1.00  0.00     0.055 A 
ATOM     68  C   UNL A   1      44.019  26.121  26.159  1.00  0.00     0.041 A 
ATOM     69  F   UNL A   1      44.184  28.076  27.439  1.00  0.00    -0.206 F 
ATOM     70  C   UNL A   1      43.520  24.836  25.978  1.00  0.00     0.022 A 
BRANCH  67  71
ATOM     71  S   UNL A   1      42.071  22.588  26.754  1.00  0.00     0.124 S 
ATOM     72  O   UNL A   1      43.056  21.848  27.537  1.00  0.00    -0.237 OA
ATOM     73  O   UNL A   1      40.725  22.651  27.313  1.00  0.00    -0.237 OA
ATOM     74  O   UNL A   1      42.133  22.358  25.312  1.00  0.00    -0.744 OA
ENDBRANCH  67  71
ENDBRANCH  50  64
BRANCH  51  75
ATOM     75  C   UNL A   1      39.658  32.249  35.702  1.00  0.00     0.023 A 
ATOM     76  C   UNL A   1      40.128  33.553  35.905  1.00  0.00     0.031 A 
ATOM     77  C   UNL A   1      38.626  31.771  36.529  1.00  0.00     0.131 A 
ATOM     78  C   UNL A   1      39.561  34.343  36.916  1.00  0.00     0.055 A 
ATOM     79  C   UNL A   1      38.043  32.571  37.510  1.00  0.00     0.041 A 
ATOM     80  F   UNL A   1      38.136  30.534  36.354  1.00  0.00    -0.206 F 
ATOM     81  C   UNL A   1      38.511  33.866  37.707  1.00  0.00     0.022 A 
BRANCH  78  82
ATOM     82  S   UNL A   1      40.200  36.019  37.176  1.00  0.00     0.124 S 
ATOM     83  O   UNL A   1      39.493  36.422  38.386  1.00  0.00    -0.237 OA
ATOM     84  O   UNL A   1      41.633  35.784  37.319  1.00  0.00    -0.237 OA
ATOM     85  O   UNL A   1      39.808  36.725  35.959  1.00  0.00    -0.744 OA
ENDBRANCH  78  82
ENDBRANCH  51  75
BRANCH  63  86
ATOM     86  C   UNL A   1      44.645  27.420  35.154  1.00  0.00     0.023 A 
ATOM     87  C   UNL A   1      45.903  28.026  35.302  1.00  0.00     0.031 A 
ATOM     88  C   UNL A   1      44.350  26.288  35.933  1.00  0.00     0.131 A 
ATOM     89  C   UNL A   1      46.843  27.468  36.182  1.00  0.00     0.055 A 
ATOM     90  C   UNL A   1      45.272  25.765  36.839  1.00  0.00     0.041 A 
ATOM     91  F   UNL A   1      43.161  25.675  35.822  1.00  0.00    -0.206 F 
ATOM     92  C   UNL A   1      46.530  26.349  36.960  1.00  0.00     0.022 A 
BRANCH  89  93
ATOM     93  S   UNL A   1      48.504  28.191  36.259  1.00  0.00     0.124 S 
ATOM     94  O   UNL A   1      48.315  29.275  37.219  1.00  0.00    -0.237 OA
ATOM     95  O   UNL A   1      49.318  27.070  36.716  1.00  0.00    -0.237 OA
ATOM     96  O   UNL A   1      48.756  28.618  34.884  1.00  0.00    -0.744 OA
ENDBRANCH  89  93
ENDBRANCH  63  86
ENDBRANCH  37  38
ENDBRANCH  30  32
ENDBRANCH  29  30
ENDBRANCH   1  29
TORSDOF 18
ENDMDL
