MODEL 1
REMARK VINA RESULT:     -11.5      0.000      0.000
REMARK SMILES COc1ccc(/C=C/c2cc(OC)cc(OC)c2/C=C/C(=O)OCCOC(=O)c2ccc(-c3c4nc(c(-c5cc(S(=O)(=O)[O-])ccc5F)c5ccc([nH]5)c(-c5cc(S(=O)(=O)[O-])ccc5F)c5nc(c(-c6cc(S(=O)(=O)[O-])ccc6F)c6ccc3[nH]6)C=C5)C=C4)cc2)cc1
REMARK SMILES IDX 24 1 23 2 21 3 22 4 20 5 19 6 18 7 9 8 10 9 11 10 15 11
REMARK SMILES IDX 14 12 8 13 7 14 6 15 3 16 4 17 93 18 5 19 92 20 2 21 1 22
REMARK SMILES IDX 12 23 13 24 16 25 17 26 25 27 26 28 27 29 28 30 29 31 30 32
REMARK SMILES IDX 91 33 31 34 90 35 32 36 33 37 34 38 84 39 35 40 89 41 83 42
REMARK SMILES IDX 85 43 36 44 88 45 82 46 81 47 37 49 69 50 49 51 68 52 50 53
REMARK SMILES IDX 53 54 67 55 86 56 51 57 52 58 66 60 87 61 54 62 38 63 39 64
REMARK SMILES IDX 47 65 40 66 46 67 48 68 45 69 41 70 42 71 43 72 44 73 70 74
REMARK SMILES IDX 71 75 79 76 72 77 78 78 80 79 77 80 73 81 74 82 75 83 76 84
REMARK SMILES IDX 55 85 56 86 64 87 57 88 63 89 65 90 62 91 58 92 59 93 60 94
REMARK SMILES IDX 61 95
REMARK H PARENT 85 48 53 59
REMARK Flexibility Score: inf
ROOT
ATOM      1  C   UNL A   1      36.064  20.961  24.788  1.00  0.00     0.275 C 
ENDROOT
BRANCH   1   2
ATOM      2  O   UNL A   1      36.355  22.373  24.779  1.00  0.00    -0.459 OA
BRANCH   2   3
ATOM      3  C   UNL A   1      36.117  23.025  23.615  1.00  0.00     0.330 C 
ATOM      4  O   UNL A   1      36.916  23.186  22.706  1.00  0.00    -0.247 OA
BRANCH   3   5
ATOM      5  C   UNL A   1      34.754  23.592  23.546  1.00  0.00     0.094 C 
ATOM      6  C   UNL A   1      34.094  24.124  24.586  1.00  0.00     0.020 C 
BRANCH   6   7
ATOM      7  C   UNL A   1      32.751  24.736  24.466  1.00  0.00     0.024 A 
ATOM      8  C   UNL A   1      31.643  23.921  24.136  1.00  0.00    -0.011 A 
ATOM      9  C   UNL A   1      30.370  24.498  23.968  1.00  0.00     0.055 A 
ATOM     10  C   UNL A   1      30.171  25.871  24.117  1.00  0.00     0.123 A 
ATOM     11  C   UNL A   1      32.522  26.117  24.631  1.00  0.00     0.130 A 
ATOM     12  C   UNL A   1      31.246  26.673  24.475  1.00  0.00     0.093 A 
BRANCH   8  13
ATOM     13  C   UNL A   1      31.742  22.465  23.929  1.00  0.00     0.009 C 
ATOM     14  C   UNL A   1      32.255  21.634  24.852  1.00  0.00     0.009 C 
BRANCH  14  15
ATOM     15  C   UNL A   1      32.428  20.186  24.675  1.00  0.00    -0.025 A 
ATOM     16  C   UNL A   1      32.798  17.429  24.226  1.00  0.00     0.118 A 
ATOM     17  C   UNL A   1      32.879  17.949  25.515  1.00  0.00     0.047 A 
ATOM     18  C   UNL A   1      32.507  18.276  23.159  1.00  0.00     0.047 A 
ATOM     19  C   UNL A   1      32.713  19.320  25.738  1.00  0.00     0.012 A 
ATOM     20  C   UNL A   1      32.330  19.648  23.383  1.00  0.00     0.012 A 
BRANCH  16  21
ATOM     21  O   UNL A   1      32.975  16.077  24.119  1.00  0.00    -0.497 OA
ATOM     22  C   UNL A   1      32.715  15.355  25.319  1.00  0.00     0.278 C 
ENDBRANCH  16  21
ENDBRANCH  14  15
ENDBRANCH   8  13
BRANCH  10  23
ATOM     23  O   UNL A   1      28.888  26.304  23.910  1.00  0.00    -0.497 OA
ATOM     24  C   UNL A   1      28.752  27.593  23.319  1.00  0.00     0.278 C 
ENDBRANCH  10  23
BRANCH  11  25
ATOM     25  O   UNL A   1      33.476  27.011  25.037  1.00  0.00    -0.496 OA
ATOM     26  C   UNL A   1      33.145  27.664  26.257  1.00  0.00     0.278 C 
ENDBRANCH  11  25
ENDBRANCH   6   7
ENDBRANCH   3   5
ENDBRANCH   2   3
ENDBRANCH   1   2
BRANCH   1  27
ATOM     27  C   UNL A   1      37.335  20.140  24.990  1.00  0.00     0.275 C 
BRANCH  27  28
ATOM     28  O   UNL A   1      38.482  21.006  25.038  1.00  0.00    -0.458 OA
BRANCH  28  29
ATOM     29  C   UNL A   1      39.365  20.729  26.022  1.00  0.00     0.338 C 
ATOM     30  O   UNL A   1      39.820  19.637  26.329  1.00  0.00    -0.246 OA
BRANCH  29  31
ATOM     31  C   UNL A   1      39.796  21.975  26.667  1.00  0.00     0.060 A 
ATOM     32  C   UNL A   1      39.294  23.173  26.171  1.00  0.00     0.016 A 
ATOM     33  C   UNL A   1      40.812  21.978  27.621  1.00  0.00     0.016 A 
ATOM     34  C   UNL A   1      39.899  24.377  26.531  1.00  0.00     0.010 A 
ATOM     35  C   UNL A   1      41.341  23.200  28.062  1.00  0.00     0.010 A 
ATOM     36  C   UNL A   1      40.929  24.416  27.485  1.00  0.00    -0.014 A 
BRANCH  36  37
ATOM     37  C   UNL A   1      41.592  25.713  27.834  1.00  0.00     0.031 A 
ATOM     38  C   UNL A   1      40.854  26.769  28.626  1.00  0.00     0.074 A 
ATOM     39  C   UNL A   1      42.872  25.947  27.475  1.00  0.00     0.049 A 
ATOM     40  N   UNL A   1      41.201  28.004  28.890  1.00  0.00    -0.248 NA
ATOM     41  C   UNL A   1      39.547  26.388  29.181  1.00  0.00     0.031 C 
ATOM     42  C   UNL A   1      43.733  25.011  26.747  1.00  0.00     0.029 A 
ATOM     43  N   UNL A   1      43.682  27.039  27.683  1.00  0.00    -0.354 N 
ATOM     44  C   UNL A   1      40.134  28.566  29.587  1.00  0.00     0.074 A 
ATOM     45  C   UNL A   1      39.123  27.533  29.695  1.00  0.00     0.031 C 
ATOM     46  C   UNL A   1      44.956  25.544  26.618  1.00  0.00     0.029 A 
ATOM     47  C   UNL A   1      44.946  26.899  27.158  1.00  0.00     0.049 A 
ATOM     48  H   UNL A   1      43.385  27.845  28.164  1.00  0.00     0.167 HD
ATOM     49  C   UNL A   1      40.008  29.821  30.089  1.00  0.00     0.034 A 
ATOM     50  C   UNL A   1      45.972  27.768  27.070  1.00  0.00     0.034 A 
ATOM     51  C   UNL A   1      41.041  30.828  30.026  1.00  0.00     0.049 A 
ATOM     52  C   UNL A   1      45.798  29.165  27.601  1.00  0.00     0.074 A 
ATOM     53  C   UNL A   1      41.019  32.120  30.527  1.00  0.00     0.029 A 
ATOM     54  N   UNL A   1      42.287  30.659  29.437  1.00  0.00    -0.354 N 
ATOM     55  N   UNL A   1      44.754  29.699  28.189  1.00  0.00    -0.248 NA
ATOM     56  C   UNL A   1      46.935  30.080  27.438  1.00  0.00     0.031 C 
ATOM     57  C   UNL A   1      42.225  32.747  30.191  1.00  0.00     0.029 A 
ATOM     58  C   UNL A   1      43.029  31.826  29.540  1.00  0.00     0.049 A 
ATOM     59  H   UNL A   1      42.599  29.829  29.007  1.00  0.00     0.167 HD
ATOM     60  C   UNL A   1      45.112  31.014  28.471  1.00  0.00     0.074 A 
ATOM     61  C   UNL A   1      46.477  31.183  28.012  1.00  0.00     0.031 C 
ATOM     62  C   UNL A   1      44.377  31.995  29.054  1.00  0.00     0.034 A 
BRANCH  49  63
ATOM     63  C   UNL A   1      38.676  30.198  30.698  1.00  0.00     0.023 A 
ATOM     64  C   UNL A   1      37.666  30.839  29.960  1.00  0.00     0.031 A 
ATOM     65  C   UNL A   1      38.423  29.923  32.056  1.00  0.00     0.131 A 
ATOM     66  C   UNL A   1      36.483  31.245  30.599  1.00  0.00     0.055 A 
ATOM     67  C   UNL A   1      37.214  30.260  32.666  1.00  0.00     0.041 A 
ATOM     68  F   UNL A   1      39.356  29.327  32.816  1.00  0.00    -0.206 F 
ATOM     69  C   UNL A   1      36.240  30.939  31.940  1.00  0.00     0.022 A 
BRANCH  66  70
ATOM     70  S   UNL A   1      35.322  32.300  29.688  1.00  0.00     0.124 S 
ATOM     71  O   UNL A   1      36.180  33.417  29.298  1.00  0.00    -0.237 OA
ATOM     72  O   UNL A   1      34.883  31.425  28.607  1.00  0.00    -0.237 OA
ATOM     73  O   UNL A   1      34.301  32.626  30.682  1.00  0.00    -0.744 OA
ENDBRANCH  66  70
ENDBRANCH  49  63
BRANCH  50  74
ATOM     74  C   UNL A   1      47.234  27.370  26.381  1.00  0.00     0.023 A 
ATOM     75  C   UNL A   1      48.234  26.652  27.052  1.00  0.00     0.031 A 
ATOM     76  C   UNL A   1      47.464  27.729  25.040  1.00  0.00     0.131 A 
ATOM     77  C   UNL A   1      49.432  26.339  26.390  1.00  0.00     0.055 A 
ATOM     78  C   UNL A   1      48.632  27.369  24.370  1.00  0.00     0.041 A 
ATOM     79  F   UNL A   1      46.539  28.420  24.354  1.00  0.00    -0.206 F 
ATOM     80  C   UNL A   1      49.630  26.678  25.050  1.00  0.00     0.022 A 
BRANCH  77  81
ATOM     81  S   UNL A   1      50.761  25.537  27.328  1.00  0.00     0.124 S 
ATOM     82  O   UNL A   1      51.819  25.447  26.328  1.00  0.00    -0.237 OA
ATOM     83  O   UNL A   1      50.982  26.486  28.413  1.00  0.00    -0.237 OA
ATOM     84  O   UNL A   1      50.172  24.261  27.730  1.00  0.00    -0.744 OA
ENDBRANCH  77  81
ENDBRANCH  50  74
BRANCH  62  85
ATOM     85  C   UNL A   1      45.058  33.327  29.248  1.00  0.00     0.023 A 
ATOM     86  C   UNL A   1      45.020  34.323  28.256  1.00  0.00     0.031 A 
ATOM     87  C   UNL A   1      45.778  33.590  30.425  1.00  0.00     0.131 A 
ATOM     88  C   UNL A   1      45.737  35.516  28.436  1.00  0.00     0.055 A 
ATOM     89  C   UNL A   1      46.448  34.800  30.622  1.00  0.00     0.041 A 
ATOM     90  F   UNL A   1      45.849  32.672  31.402  1.00  0.00    -0.206 F 
ATOM     91  C   UNL A   1      46.441  35.765  29.619  1.00  0.00     0.022 A 
BRANCH  88  92
ATOM     92  S   UNL A   1      45.814  36.704  27.068  1.00  0.00     0.124 S 
ATOM     93  O   UNL A   1      46.831  37.641  27.536  1.00  0.00    -0.237 OA
ATOM     94  O   UNL A   1      46.196  35.859  25.941  1.00  0.00    -0.237 OA
ATOM     95  O   UNL A   1      44.456  37.243  27.005  1.00  0.00    -0.744 OA
ENDBRANCH  88  92
ENDBRANCH  62  85
ENDBRANCH  36  37
ENDBRANCH  29  31
ENDBRANCH  28  29
ENDBRANCH  27  28
ENDBRANCH   1  27
TORSDOF 20
ENDMDL
MODEL 2
REMARK VINA RESULT:     -11.3      1.544      7.483
REMARK SMILES COc1ccc(/C=C/c2cc(OC)cc(OC)c2/C=C/C(=O)OCCOC(=O)c2ccc(-c3c4nc(c(-c5cc(S(=O)(=O)[O-])ccc5F)c5ccc([nH]5)c(-c5cc(S(=O)(=O)[O-])ccc5F)c5nc(c(-c6cc(S(=O)(=O)[O-])ccc6F)c6ccc3[nH]6)C=C5)C=C4)cc2)cc1
REMARK SMILES IDX 24 1 23 2 21 3 22 4 20 5 19 6 18 7 9 8 10 9 11 10 15 11
REMARK SMILES IDX 14 12 8 13 7 14 6 15 3 16 4 17 93 18 5 19 92 20 2 21 1 22
REMARK SMILES IDX 12 23 13 24 16 25 17 26 25 27 26 28 27 29 28 30 29 31 30 32
REMARK SMILES IDX 91 33 31 34 90 35 32 36 33 37 34 38 84 39 35 40 89 41 83 42
REMARK SMILES IDX 85 43 36 44 88 45 82 46 81 47 37 49 69 50 49 51 68 52 50 53
REMARK SMILES IDX 53 54 67 55 86 56 51 57 52 58 66 60 87 61 54 62 38 63 39 64
REMARK SMILES IDX 47 65 40 66 46 67 48 68 45 69 41 70 42 71 43 72 44 73 70 74
REMARK SMILES IDX 71 75 79 76 72 77 78 78 80 79 77 80 73 81 74 82 75 83 76 84
REMARK SMILES IDX 55 85 56 86 64 87 57 88 63 89 65 90 62 91 58 92 59 93 60 94
REMARK SMILES IDX 61 95
REMARK H PARENT 85 48 53 59
REMARK Flexibility Score: inf
ROOT
ATOM      1  C   UNL A   1      36.173  21.430  25.253  1.00  0.00     0.275 C 
ENDROOT
BRANCH   1   2
ATOM      2  O   UNL A   1      36.560  22.756  24.842  1.00  0.00    -0.459 OA
BRANCH   2   3
ATOM      3  C   UNL A   1      36.186  23.128  23.593  1.00  0.00     0.330 C 
ATOM      4  O   UNL A   1      36.882  23.079  22.591  1.00  0.00    -0.247 OA
BRANCH   3   5
ATOM      5  C   UNL A   1      34.810  23.663  23.545  1.00  0.00     0.094 C 
ATOM      6  C   UNL A   1      34.311  24.571  24.398  1.00  0.00     0.020 C 
BRANCH   6   7
ATOM      7  C   UNL A   1      32.944  25.127  24.282  1.00  0.00     0.024 A 
ATOM      8  C   UNL A   1      31.829  24.275  24.467  1.00  0.00    -0.011 A 
ATOM      9  C   UNL A   1      30.525  24.779  24.308  1.00  0.00     0.055 A 
ATOM     10  C   UNL A   1      30.300  26.114  23.968  1.00  0.00     0.123 A 
ATOM     11  C   UNL A   1      32.692  26.475  23.960  1.00  0.00     0.130 A 
ATOM     12  C   UNL A   1      31.387  26.964  23.820  1.00  0.00     0.093 A 
BRANCH   8  13
ATOM     13  C   UNL A   1      31.950  22.845  24.801  1.00  0.00     0.009 C 
ATOM     14  C   UNL A   1      32.360  21.925  23.911  1.00  0.00     0.009 C 
BRANCH  14  15
ATOM     15  C   UNL A   1      32.445  20.481  24.175  1.00  0.00    -0.025 A 
ATOM     16  C   UNL A   1      32.644  17.699  24.570  1.00  0.00     0.118 A 
ATOM     17  C   UNL A   1      32.788  18.574  25.643  1.00  0.00     0.047 A 
ATOM     18  C   UNL A   1      32.374  18.205  23.300  1.00  0.00     0.047 A 
ATOM     19  C   UNL A   1      32.707  19.956  25.446  1.00  0.00     0.012 A 
ATOM     20  C   UNL A   1      32.282  19.589  23.105  1.00  0.00     0.012 A 
BRANCH  16  21
ATOM     21  O   UNL A   1      32.739  16.368  24.873  1.00  0.00    -0.497 OA
ATOM     22  C   UNL A   1      34.064  15.922  25.145  1.00  0.00     0.278 C 
ENDBRANCH  16  21
ENDBRANCH  14  15
ENDBRANCH   8  13
BRANCH  10  23
ATOM     23  O   UNL A   1      28.985  26.470  23.830  1.00  0.00    -0.497 OA
ATOM     24  C   UNL A   1      28.743  27.763  23.282  1.00  0.00     0.278 C 
ENDBRANCH  10  23
BRANCH  11  25
ATOM     25  O   UNL A   1      33.663  27.432  23.841  1.00  0.00    -0.496 OA
ATOM     26  C   UNL A   1      33.143  28.719  23.530  1.00  0.00     0.278 C 
ENDBRANCH  11  25
ENDBRANCH   6   7
ENDBRANCH   3   5
ENDBRANCH   2   3
ENDBRANCH   1   2
BRANCH   1  27
ATOM     27  C   UNL A   1      37.368  20.480  25.241  1.00  0.00     0.275 C 
BRANCH  27  28
ATOM     28  O   UNL A   1      38.595  21.228  25.191  1.00  0.00    -0.458 OA
BRANCH  28  29
ATOM     29  C   UNL A   1      39.419  21.043  26.246  1.00  0.00     0.338 C 
ATOM     30  O   UNL A   1      39.869  19.987  26.663  1.00  0.00    -0.246 OA
BRANCH  29  31
ATOM     31  C   UNL A   1      39.788  22.342  26.820  1.00  0.00     0.060 A 
ATOM     32  C   UNL A   1      39.183  23.480  26.299  1.00  0.00     0.016 A 
ATOM     33  C   UNL A   1      40.842  22.456  27.724  1.00  0.00     0.016 A 
ATOM     34  C   UNL A   1      39.718  24.738  26.582  1.00  0.00     0.010 A 
ATOM     35  C   UNL A   1      41.303  23.729  28.091  1.00  0.00     0.010 A 
ATOM     36  C   UNL A   1      40.783  24.888  27.485  1.00  0.00    -0.014 A 
BRANCH  36  37
ATOM     37  C   UNL A   1      41.368  26.240  27.750  1.00  0.00     0.031 A 
ATOM     38  C   UNL A   1      42.735  26.608  27.217  1.00  0.00     0.074 A 
ATOM     39  C   UNL A   1      40.672  27.166  28.444  1.00  0.00     0.049 A 
ATOM     40  N   UNL A   1      43.470  27.663  27.469  1.00  0.00    -0.248 NA
ATOM     41  C   UNL A   1      43.362  25.656  26.289  1.00  0.00     0.031 C 
ATOM     42  C   UNL A   1      39.323  26.981  28.987  1.00  0.00     0.029 A 
ATOM     43  N   UNL A   1      40.992  28.454  28.802  1.00  0.00    -0.354 N 
ATOM     44  C   UNL A   1      44.666  27.475  26.782  1.00  0.00     0.074 A 
ATOM     45  C   UNL A   1      44.559  26.195  26.109  1.00  0.00     0.031 C 
ATOM     46  C   UNL A   1      38.915  28.122  29.558  1.00  0.00     0.029 A 
ATOM     47  C   UNL A   1      40.005  29.092  29.518  1.00  0.00     0.049 A 
ATOM     48  H   UNL A   1      41.848  28.881  28.567  1.00  0.00     0.167 HD
ATOM     49  C   UNL A   1      45.751  28.288  26.717  1.00  0.00     0.034 A 
ATOM     50  C   UNL A   1      39.982  30.297  30.120  1.00  0.00     0.034 A 
ATOM     51  C   UNL A   1      45.831  29.586  27.344  1.00  0.00     0.049 A 
ATOM     52  C   UNL A   1      41.209  31.167  30.066  1.00  0.00     0.074 A 
ATOM     53  C   UNL A   1      46.876  30.497  27.316  1.00  0.00     0.029 A 
ATOM     54  N   UNL A   1      44.826  30.169  28.105  1.00  0.00    -0.354 N 
ATOM     55  N   UNL A   1      42.357  30.938  29.475  1.00  0.00    -0.248 NA
ATOM     56  C   UNL A   1      41.139  32.450  30.776  1.00  0.00     0.031 C 
ATOM     57  C   UNL A   1      46.525  31.600  28.104  1.00  0.00     0.029 A 
ATOM     58  C   UNL A   1      45.234  31.411  28.570  1.00  0.00     0.049 A 
ATOM     59  H   UNL A   1      43.949  29.759  28.288  1.00  0.00     0.167 HD
ATOM     60  C   UNL A   1      43.146  32.053  29.739  1.00  0.00     0.074 A 
ATOM     61  C   UNL A   1      42.334  32.964  30.521  1.00  0.00     0.031 C 
ATOM     62  C   UNL A   1      44.429  32.300  29.372  1.00  0.00     0.034 A 
BRANCH  49  63
ATOM     63  C   UNL A   1      46.971  27.769  25.989  1.00  0.00     0.023 A 
ATOM     64  C   UNL A   1      47.210  28.043  24.631  1.00  0.00     0.031 A 
ATOM     65  C   UNL A   1      47.905  26.966  26.671  1.00  0.00     0.131 A 
ATOM     66  C   UNL A   1      48.313  27.463  23.983  1.00  0.00     0.055 A 
ATOM     67  C   UNL A   1      49.041  26.455  26.041  1.00  0.00     0.041 A 
ATOM     68  F   UNL A   1      47.722  26.656  27.964  1.00  0.00    -0.206 F 
ATOM     69  C   UNL A   1      49.242  26.691  24.684  1.00  0.00     0.022 A 
BRANCH  66  70
ATOM     70  S   UNL A   1      48.442  27.619  22.181  1.00  0.00     0.124 S 
ATOM     71  O   UNL A   1      47.143  28.196  21.840  1.00  0.00    -0.237 OA
ATOM     72  O   UNL A   1      49.594  28.499  22.023  1.00  0.00    -0.237 OA
ATOM     73  O   UNL A   1      48.641  26.243  21.730  1.00  0.00    -0.744 OA
ENDBRANCH  66  70
ENDBRANCH  49  63
BRANCH  50  74
ATOM     74  C   UNL A   1      38.783  30.723  30.898  1.00  0.00     0.023 A 
ATOM     75  C   UNL A   1      37.759  31.475  30.304  1.00  0.00     0.031 A 
ATOM     76  C   UNL A   1      38.660  30.401  32.262  1.00  0.00     0.131 A 
ATOM     77  C   UNL A   1      36.669  31.904  31.078  1.00  0.00     0.055 A 
ATOM     78  C   UNL A   1      37.550  30.784  33.014  1.00  0.00     0.041 A 
ATOM     79  F   UNL A   1      39.616  29.687  32.880  1.00  0.00    -0.206 F 
ATOM     80  C   UNL A   1      36.551  31.550  32.424  1.00  0.00     0.022 A 
BRANCH  77  81
ATOM     81  S   UNL A   1      35.436  32.994  30.316  1.00  0.00     0.124 S 
ATOM     82  O   UNL A   1      36.280  33.972  29.640  1.00  0.00    -0.237 OA
ATOM     83  O   UNL A   1      34.706  32.071  29.454  1.00  0.00    -0.237 OA
ATOM     84  O   UNL A   1      34.680  33.505  31.459  1.00  0.00    -0.744 OA
ENDBRANCH  77  81
ENDBRANCH  50  74
BRANCH  62  85
ATOM     85  C   UNL A   1      45.013  33.625  29.795  1.00  0.00     0.023 A 
ATOM     86  C   UNL A   1      44.926  34.763  28.974  1.00  0.00     0.031 A 
ATOM     87  C   UNL A   1      45.692  33.741  31.020  1.00  0.00     0.131 A 
ATOM     88  C   UNL A   1      45.556  35.955  29.364  1.00  0.00     0.055 A 
ATOM     89  C   UNL A   1      46.272  34.943  31.427  1.00  0.00     0.041 A 
ATOM     90  F   UNL A   1      45.807  32.684  31.840  1.00  0.00    -0.206 F 
ATOM     91  C   UNL A   1      46.218  36.055  30.591  1.00  0.00     0.022 A 
BRANCH  88  92
ATOM     92  S   UNL A   1      45.577  37.350  28.205  1.00  0.00     0.124 S 
ATOM     93  O   UNL A   1      44.426  38.131  28.649  1.00  0.00    -0.237 OA
ATOM     94  O   UNL A   1      46.886  37.945  28.455  1.00  0.00    -0.237 OA
ATOM     95  O   UNL A   1      45.427  36.714  26.898  1.00  0.00    -0.744 OA
ENDBRANCH  88  92
ENDBRANCH  62  85
ENDBRANCH  36  37
ENDBRANCH  29  31
ENDBRANCH  28  29
ENDBRANCH  27  28
ENDBRANCH   1  27
TORSDOF 20
ENDMDL
MODEL 3
REMARK VINA RESULT:     -11.2      1.994      2.236
REMARK SMILES COc1ccc(/C=C/c2cc(OC)cc(OC)c2/C=C/C(=O)OCCOC(=O)c2ccc(-c3c4nc(c(-c5cc(S(=O)(=O)[O-])ccc5F)c5ccc([nH]5)c(-c5cc(S(=O)(=O)[O-])ccc5F)c5nc(c(-c6cc(S(=O)(=O)[O-])ccc6F)c6ccc3[nH]6)C=C5)C=C4)cc2)cc1
REMARK SMILES IDX 24 1 23 2 21 3 22 4 20 5 19 6 18 7 9 8 10 9 11 10 15 11
REMARK SMILES IDX 14 12 8 13 7 14 6 15 3 16 4 17 93 18 5 19 92 20 2 21 1 22
REMARK SMILES IDX 12 23 13 24 16 25 17 26 25 27 26 28 27 29 28 30 29 31 30 32
REMARK SMILES IDX 91 33 31 34 90 35 32 36 33 37 34 38 84 39 35 40 89 41 83 42
REMARK SMILES IDX 85 43 36 44 88 45 82 46 81 47 37 49 69 50 49 51 68 52 50 53
REMARK SMILES IDX 53 54 67 55 86 56 51 57 52 58 66 60 87 61 54 62 38 63 39 64
REMARK SMILES IDX 47 65 40 66 46 67 48 68 45 69 41 70 42 71 43 72 44 73 70 74
REMARK SMILES IDX 71 75 79 76 72 77 78 78 80 79 77 80 73 81 74 82 75 83 76 84
REMARK SMILES IDX 55 85 56 86 64 87 57 88 63 89 65 90 62 91 58 92 59 93 60 94
REMARK SMILES IDX 61 95
REMARK H PARENT 85 48 53 59
REMARK Flexibility Score: inf
ROOT
ATOM      1  C   UNL A   1      36.820  20.864  24.996  1.00  0.00     0.275 C 
ENDROOT
BRANCH   1   2
ATOM      2  O   UNL A   1      37.075  22.248  24.687  1.00  0.00    -0.459 OA
BRANCH   2   3
ATOM      3  C   UNL A   1      36.601  22.692  23.497  1.00  0.00     0.330 C 
ATOM      4  O   UNL A   1      37.164  22.593  22.418  1.00  0.00    -0.247 OA
BRANCH   3   5
ATOM      5  C   UNL A   1      35.299  23.380  23.621  1.00  0.00     0.094 C 
ATOM      6  C   UNL A   1      34.301  23.296  22.729  1.00  0.00     0.020 C 
BRANCH   6   7
ATOM      7  C   UNL A   1      32.988  23.953  22.918  1.00  0.00     0.024 A 
ATOM      8  C   UNL A   1      31.951  23.256  23.583  1.00  0.00    -0.011 A 
ATOM      9  C   UNL A   1      30.682  23.848  23.723  1.00  0.00     0.055 A 
ATOM     10  C   UNL A   1      30.416  25.121  23.216  1.00  0.00     0.123 A 
ATOM     11  C   UNL A   1      32.701  25.244  22.432  1.00  0.00     0.130 A 
ATOM     12  C   UNL A   1      31.437  25.825  22.593  1.00  0.00     0.093 A 
BRANCH   8  13
ATOM     13  C   UNL A   1      32.112  21.899  24.134  1.00  0.00     0.009 C 
ATOM     14  C   UNL A   1      32.518  20.857  23.389  1.00  0.00     0.009 C 
BRANCH  14  15
ATOM     15  C   UNL A   1      32.642  19.475  23.873  1.00  0.00    -0.025 A 
ATOM     16  C   UNL A   1      32.937  16.799  24.704  1.00  0.00     0.118 A 
ATOM     17  C   UNL A   1      32.826  17.820  25.645  1.00  0.00     0.047 A 
ATOM     18  C   UNL A   1      32.875  17.104  23.346  1.00  0.00     0.047 A 
ATOM     19  C   UNL A   1      32.698  19.150  25.234  1.00  0.00     0.012 A 
ATOM     20  C   UNL A   1      32.735  18.436  22.935  1.00  0.00     0.012 A 
BRANCH  16  21
ATOM     21  O   UNL A   1      33.057  15.535  25.212  1.00  0.00    -0.497 OA
ATOM     22  C   UNL A   1      31.978  15.134  26.051  1.00  0.00     0.278 C 
ENDBRANCH  16  21
ENDBRANCH  14  15
ENDBRANCH   8  13
BRANCH  10  23
ATOM     23  O   UNL A   1      29.137  25.572  23.407  1.00  0.00    -0.497 OA
ATOM     24  C   UNL A   1      28.987  26.655  24.321  1.00  0.00     0.278 C 
ENDBRANCH  10  23
BRANCH  11  25
ATOM     25  O   UNL A   1      33.626  26.070  21.850  1.00  0.00    -0.496 OA
ATOM     26  C   UNL A   1      33.468  27.433  22.223  1.00  0.00     0.278 C 
ENDBRANCH  11  25
ENDBRANCH   6   7
ENDBRANCH   3   5
ENDBRANCH   2   3
ENDBRANCH   1   2
BRANCH   1  27
ATOM     27  C   UNL A   1      38.121  20.110  25.256  1.00  0.00     0.275 C 
BRANCH  27  28
ATOM     28  O   UNL A   1      39.208  21.039  25.416  1.00  0.00    -0.458 OA
BRANCH  28  29
ATOM     29  C   UNL A   1      39.946  20.866  26.534  1.00  0.00     0.338 C 
ATOM     30  O   UNL A   1      40.352  19.814  27.004  1.00  0.00    -0.246 OA
BRANCH  29  31
ATOM     31  C   UNL A   1      40.284  22.172  27.111  1.00  0.00     0.060 A 
ATOM     32  C   UNL A   1      39.716  23.304  26.538  1.00  0.00     0.016 A 
ATOM     33  C   UNL A   1      41.279  22.297  28.078  1.00  0.00     0.016 A 
ATOM     34  C   UNL A   1      40.237  24.565  26.835  1.00  0.00     0.010 A 
ATOM     35  C   UNL A   1      41.721  23.574  28.455  1.00  0.00     0.010 A 
ATOM     36  C   UNL A   1      41.243  24.725  27.800  1.00  0.00    -0.014 A 
BRANCH  36  37
ATOM     37  C   UNL A   1      41.816  26.080  28.082  1.00  0.00     0.031 A 
ATOM     38  C   UNL A   1      41.018  27.111  28.848  1.00  0.00     0.074 A 
ATOM     39  C   UNL A   1      43.068  26.392  27.685  1.00  0.00     0.049 A 
ATOM     40  N   UNL A   1      41.278  28.379  29.055  1.00  0.00    -0.248 NA
ATOM     41  C   UNL A   1      39.754  26.660  29.447  1.00  0.00     0.031 C 
ATOM     42  C   UNL A   1      43.981  25.492  26.976  1.00  0.00     0.029 A 
ATOM     43  N   UNL A   1      43.799  27.547  27.831  1.00  0.00    -0.354 N 
ATOM     44  C   UNL A   1      40.187  28.889  29.753  1.00  0.00     0.074 A 
ATOM     45  C   UNL A   1      39.257  27.791  29.925  1.00  0.00     0.031 C 
ATOM     46  C   UNL A   1      45.159  26.106  26.798  1.00  0.00     0.029 A 
ATOM     47  C   UNL A   1      45.059  27.478  27.283  1.00  0.00     0.049 A 
ATOM     48  H   UNL A   1      43.453  28.349  28.286  1.00  0.00     0.167 HD
ATOM     49  C   UNL A   1      39.978  30.152  30.207  1.00  0.00     0.034 A 
ATOM     50  C   UNL A   1      46.017  28.416  27.138  1.00  0.00     0.034 A 
ATOM     51  C   UNL A   1      40.933  31.228  30.081  1.00  0.00     0.049 A 
ATOM     52  C   UNL A   1      45.750  29.817  27.616  1.00  0.00     0.074 A 
ATOM     53  C   UNL A   1      40.826  32.535  30.530  1.00  0.00     0.029 A 
ATOM     54  N   UNL A   1      42.176  31.126  29.470  1.00  0.00    -0.354 N 
ATOM     55  N   UNL A   1      44.682  30.298  28.206  1.00  0.00    -0.248 NA
ATOM     56  C   UNL A   1      46.814  30.804  27.392  1.00  0.00     0.031 C 
ATOM     57  C   UNL A   1      41.976  33.233  30.142  1.00  0.00     0.029 A 
ATOM     58  C   UNL A   1      42.832  32.348  29.510  1.00  0.00     0.049 A 
ATOM     59  H   UNL A   1      42.539  30.304  29.067  1.00  0.00     0.167 HD
ATOM     60  C   UNL A   1      44.948  31.645  28.427  1.00  0.00     0.074 A 
ATOM     61  C   UNL A   1      46.287  31.894  27.931  1.00  0.00     0.031 C 
ATOM     62  C   UNL A   1      44.154  32.594  28.988  1.00  0.00     0.034 A 
BRANCH  49  63
ATOM     63  C   UNL A   1      38.634  30.456  30.831  1.00  0.00     0.023 A 
ATOM     64  C   UNL A   1      37.596  31.075  30.115  1.00  0.00     0.031 A 
ATOM     65  C   UNL A   1      38.399  30.132  32.181  1.00  0.00     0.131 A 
ATOM     66  C   UNL A   1      36.399  31.413  30.768  1.00  0.00     0.055 A 
ATOM     67  C   UNL A   1      37.180  30.401  32.804  1.00  0.00     0.041 A 
ATOM     68  F   UNL A   1      39.359  29.555  32.921  1.00  0.00    -0.206 F 
ATOM     69  C   UNL A   1      36.175  31.060  32.101  1.00  0.00     0.022 A 
BRANCH  66  70
ATOM     70  S   UNL A   1      35.192  32.444  29.891  1.00  0.00     0.124 S 
ATOM     71  O   UNL A   1      36.020  33.569  29.461  1.00  0.00    -0.237 OA
ATOM     72  O   UNL A   1      34.727  31.554  28.834  1.00  0.00    -0.237 OA
ATOM     73  O   UNL A   1      34.203  32.765  30.918  1.00  0.00    -0.744 OA
ENDBRANCH  66  70
ENDBRANCH  49  63
BRANCH  50  74
ATOM     74  C   UNL A   1      47.291  28.082  26.437  1.00  0.00     0.023 A 
ATOM     75  C   UNL A   1      47.372  28.080  25.037  1.00  0.00     0.031 A 
ATOM     76  C   UNL A   1      48.443  27.735  27.167  1.00  0.00     0.131 A 
ATOM     77  C   UNL A   1      48.572  27.710  24.409  1.00  0.00     0.055 A 
ATOM     78  C   UNL A   1      49.647  27.420  26.539  1.00  0.00     0.041 A 
ATOM     79  F   UNL A   1      48.416  27.718  28.510  1.00  0.00    -0.206 F 
ATOM     80  C   UNL A   1      49.713  27.396  25.150  1.00  0.00     0.022 A 
BRANCH  77  81
ATOM     81  S   UNL A   1      48.602  27.578  22.600  1.00  0.00     0.124 S 
ATOM     82  O   UNL A   1      49.843  28.270  22.272  1.00  0.00    -0.237 OA
ATOM     83  O   UNL A   1      48.600  26.133  22.400  1.00  0.00    -0.237 OA
ATOM     84  O   UNL A   1      47.377  28.263  22.188  1.00  0.00    -0.744 OA
ENDBRANCH  77  81
ENDBRANCH  50  74
BRANCH  62  85
ATOM     85  C   UNL A   1      44.738  33.979  29.112  1.00  0.00     0.023 A 
ATOM     86  C   UNL A   1      45.488  34.362  30.238  1.00  0.00     0.031 A 
ATOM     87  C   UNL A   1      44.514  34.935  28.108  1.00  0.00     0.131 A 
ATOM     88  C   UNL A   1      45.941  35.685  30.358  1.00  0.00     0.055 A 
ATOM     89  C   UNL A   1      45.011  36.236  28.208  1.00  0.00     0.041 A 
ATOM     90  F   UNL A   1      43.802  34.622  27.013  1.00  0.00    -0.206 F 
ATOM     91  C   UNL A   1      45.717  36.621  29.344  1.00  0.00     0.022 A 
BRANCH  88  92
ATOM     92  S   UNL A   1      46.751  36.194  31.899  1.00  0.00     0.124 S 
ATOM     93  O   UNL A   1      45.919  37.315  32.324  1.00  0.00    -0.237 OA
ATOM     94  O   UNL A   1      46.660  34.987  32.715  1.00  0.00    -0.237 OA
ATOM     95  O   UNL A   1      48.104  36.552  31.475  1.00  0.00    -0.744 OA
ENDBRANCH  88  92
ENDBRANCH  62  85
ENDBRANCH  36  37
ENDBRANCH  29  31
ENDBRANCH  28  29
ENDBRANCH  27  28
ENDBRANCH   1  27
TORSDOF 20
ENDMDL
