MODEL 1
REMARK VINA RESULT:     -12.7      0.000      0.000
REMARK SMILES O=C(OCCOC(=O)[C@H]1[C@@H]2CC[C@@H](C2)[C@@H]1C(=O)Nc1ccc([N+](=O)[O-])cc1)c1ccc(-c2c3nc(c(-c4cc(S(=O)(=O)[O-])ccc4F)c4ccc([nH]4)c(-c4cc(S(=O)(=O)[O-])ccc4F)c4nc(c(-c5cc(S(=O)(=O)[O-])ccc5F)c5ccc2[nH]5)C=C4)C=C3)cc1
REMARK SMILES IDX 4 1 3 2 2 3 1 4 28 5 29 6 90 7 30 8 89 9 31 10 32 11 33 12
REMARK SMILES IDX 83 13 34 14 88 15 82 16 84 17 35 18 87 19 81 20 80 21 36 23
REMARK SMILES IDX 68 24 48 25 67 26 49 27 52 28 66 29 85 30 50 31 51 32 65 34
REMARK SMILES IDX 86 35 53 36 37 37 38 38 46 39 39 40 45 41 47 42 44 43 40 44
REMARK SMILES IDX 41 45 42 46 43 47 69 48 70 49 78 50 71 51 77 52 79 53 76 54
REMARK SMILES IDX 72 55 73 56 74 57 75 58 54 59 55 60 63 61 56 62 62 63 64 64
REMARK SMILES IDX 61 65 57 66 58 67 59 68 60 69 5 70 6 71 7 72 8 73 9 74 10 75
REMARK SMILES IDX 15 76 11 77 14 78 13 79 12 80 16 81 17 82 18 83 19 85 20 86
REMARK SMILES IDX 27 87 21 88 26 89 22 90 23 91 24 92 25 93
REMARK H PARENT 84 22 52 33 18 84
REMARK Flexibility Score: inf
ROOT
ATOM      1  C   UNL A   1      37.640  20.130  24.883  1.00  0.00     0.275 C 
ENDROOT
BRANCH   1   2
ATOM      2  O   UNL A   1      38.654  19.413  25.609  1.00  0.00    -0.458 OA
BRANCH   2   3
ATOM      3  C   UNL A   1      39.939  19.728  25.901  1.00  0.00     0.338 C 
ATOM      4  O   UNL A   1      40.790  18.872  25.642  1.00  0.00    -0.246 OA
BRANCH   3   5
ATOM      5  C   UNL A   1      40.404  20.975  26.620  1.00  0.00     0.060 A 
ATOM      6  C   UNL A   1      41.120  21.076  27.821  1.00  0.00     0.016 A 
ATOM      7  C   UNL A   1      40.195  22.172  25.921  1.00  0.00     0.016 A 
ATOM      8  C   UNL A   1      41.716  22.297  28.245  1.00  0.00     0.010 A 
ATOM      9  C   UNL A   1      40.836  23.358  26.309  1.00  0.00     0.010 A 
ATOM     10  C   UNL A   1      41.642  23.448  27.462  1.00  0.00    -0.014 A 
BRANCH  10  11
ATOM     11  C   UNL A   1      42.311  24.774  27.761  1.00  0.00     0.031 A 
ATOM     12  C   UNL A   1      41.397  25.907  28.163  1.00  0.00     0.074 A 
ATOM     13  C   UNL A   1      43.627  25.058  27.550  1.00  0.00     0.049 A 
ATOM     14  N   UNL A   1      41.652  27.184  28.257  1.00  0.00    -0.248 NA
ATOM     15  C   UNL A   1      40.006  25.549  28.504  1.00  0.00     0.031 C 
ATOM     16  C   UNL A   1      44.712  24.107  27.301  1.00  0.00     0.029 A 
ATOM     17  N   UNL A   1      44.274  26.276  27.399  1.00  0.00    -0.354 N 
ATOM     18  C   UNL A   1      40.477  27.754  28.729  1.00  0.00     0.074 A 
ATOM     19  C   UNL A   1      39.456  26.736  28.688  1.00  0.00     0.031 C 
ATOM     20  C   UNL A   1      45.799  24.749  26.830  1.00  0.00     0.029 A 
ATOM     21  C   UNL A   1      45.546  26.180  26.850  1.00  0.00     0.049 A 
ATOM     22  H   UNL A   1      43.866  27.134  27.658  1.00  0.00     0.167 HD
ATOM     23  C   UNL A   1      40.299  28.970  29.291  1.00  0.00     0.034 A 
ATOM     24  C   UNL A   1      46.420  27.128  26.435  1.00  0.00     0.034 A 
ATOM     25  C   UNL A   1      41.334  29.958  29.375  1.00  0.00     0.049 A 
ATOM     26  C   UNL A   1      46.104  28.561  26.798  1.00  0.00     0.074 A 
ATOM     27  C   UNL A   1      41.318  31.168  30.040  1.00  0.00     0.029 A 
ATOM     28  N   UNL A   1      42.566  29.854  28.746  1.00  0.00    -0.354 N 
ATOM     29  N   UNL A   1      45.054  29.028  27.432  1.00  0.00    -0.248 NA
ATOM     30  C   UNL A   1      47.125  29.576  26.499  1.00  0.00     0.031 C 
ATOM     31  C   UNL A   1      42.514  31.831  29.750  1.00  0.00     0.029 A 
ATOM     32  C   UNL A   1      43.300  31.006  28.961  1.00  0.00     0.049 A 
ATOM     33  H   UNL A   1      42.872  29.077  28.226  1.00  0.00     0.167 HD
ATOM     34  C   UNL A   1      45.342  30.360  27.708  1.00  0.00     0.074 A 
ATOM     35  C   UNL A   1      46.645  30.632  27.139  1.00  0.00     0.031 C 
ATOM     36  C   UNL A   1      44.610  31.258  28.414  1.00  0.00     0.034 A 
BRANCH  23  37
ATOM     37  C   UNL A   1      38.956  29.234  29.914  1.00  0.00     0.023 A 
ATOM     38  C   UNL A   1      37.979  29.979  29.225  1.00  0.00     0.031 A 
ATOM     39  C   UNL A   1      38.669  28.806  31.216  1.00  0.00     0.131 A 
ATOM     40  C   UNL A   1      36.799  30.356  29.877  1.00  0.00     0.055 A 
ATOM     41  C   UNL A   1      37.454  29.114  31.831  1.00  0.00     0.041 A 
ATOM     42  F   UNL A   1      39.574  28.112  31.923  1.00  0.00    -0.206 F 
ATOM     43  C   UNL A   1      36.518  29.907  31.168  1.00  0.00     0.022 A 
BRANCH  40  44
ATOM     44  S   UNL A   1      35.707  31.556  29.065  1.00  0.00     0.124 S 
ATOM     45  O   UNL A   1      34.989  32.121  30.207  1.00  0.00    -0.237 OA
ATOM     46  O   UNL A   1      36.649  32.450  28.403  1.00  0.00    -0.237 OA
ATOM     47  O   UNL A   1      34.896  30.731  28.174  1.00  0.00    -0.744 OA
ENDBRANCH  40  44
ENDBRANCH  23  37
BRANCH  24  48
ATOM     48  C   UNL A   1      47.689  26.823  25.682  1.00  0.00     0.023 A 
ATOM     49  C   UNL A   1      48.826  26.273  26.301  1.00  0.00     0.031 A 
ATOM     50  C   UNL A   1      47.839  27.256  24.353  1.00  0.00     0.131 A 
ATOM     51  C   UNL A   1      50.065  26.255  25.627  1.00  0.00     0.055 A 
ATOM     52  C   UNL A   1      49.067  27.229  23.679  1.00  0.00     0.041 A 
ATOM     53  F   UNL A   1      46.785  27.743  23.689  1.00  0.00    -0.206 F 
ATOM     54  C   UNL A   1      50.196  26.742  24.325  1.00  0.00     0.022 A 
BRANCH  51  55
ATOM     55  S   UNL A   1      51.544  25.686  26.518  1.00  0.00     0.124 S 
ATOM     56  O   UNL A   1      52.161  26.947  26.909  1.00  0.00    -0.237 OA
ATOM     57  O   UNL A   1      50.954  24.896  27.593  1.00  0.00    -0.237 OA
ATOM     58  O   UNL A   1      52.274  24.918  25.511  1.00  0.00    -0.744 OA
ENDBRANCH  51  55
ENDBRANCH  24  48
BRANCH  36  59
ATOM     59  C   UNL A   1      45.242  32.592  28.695  1.00  0.00     0.023 A 
ATOM     60  C   UNL A   1      45.016  33.702  27.869  1.00  0.00     0.031 A 
ATOM     61  C   UNL A   1      46.067  32.755  29.823  1.00  0.00     0.131 A 
ATOM     62  C   UNL A   1      45.646  34.919  28.157  1.00  0.00     0.055 A 
ATOM     63  C   UNL A   1      46.631  33.988  30.146  1.00  0.00     0.041 A 
ATOM     64  F   UNL A   1      46.321  31.720  30.640  1.00  0.00    -0.206 F 
ATOM     65  C   UNL A   1      46.430  35.076  29.303  1.00  0.00     0.022 A 
BRANCH  62  66
ATOM     66  S   UNL A   1      45.490  36.274  26.965  1.00  0.00     0.124 S 
ATOM     67  O   UNL A   1      46.355  35.822  25.879  1.00  0.00    -0.237 OA
ATOM     68  O   UNL A   1      44.060  36.278  26.678  1.00  0.00    -0.237 OA
ATOM     69  O   UNL A   1      45.975  37.438  27.704  1.00  0.00    -0.744 OA
ENDBRANCH  62  66
ENDBRANCH  36  59
ENDBRANCH  10  11
ENDBRANCH   3   5
ENDBRANCH   2   3
ENDBRANCH   1   2
BRANCH   1  70
ATOM     70  C   UNL A   1      36.853  21.159  25.716  1.00  0.00     0.274 C 
BRANCH  70  71
ATOM     71  O   UNL A   1      35.449  20.872  25.698  1.00  0.00    -0.462 OA
BRANCH  71  72
ATOM     72  C   UNL A   1      34.524  21.574  26.434  1.00  0.00     0.310 C 
ATOM     73  O   UNL A   1      34.501  21.596  27.659  1.00  0.00    -0.252 OA
BRANCH  72  74
ATOM     74  C   UNL A   1      33.531  22.332  25.485  1.00  0.00     0.115 C 
ATOM     75  C   UNL A   1      33.780  23.814  25.725  1.00  0.00     0.004 C 
ATOM     76  C   UNL A   1      33.789  22.284  23.918  1.00  0.00     0.096 C 
ATOM     77  C   UNL A   1      32.769  24.671  24.973  1.00  0.00     0.005 C 
ATOM     78  C   UNL A   1      35.097  23.945  24.947  1.00  0.00     0.009 C 
ATOM     79  C   UNL A   1      34.427  23.674  23.606  1.00  0.00     0.003 C 
ATOM     80  C   UNL A   1      33.518  24.889  23.687  1.00  0.00     0.005 C 
BRANCH  76  81
ATOM     81  C   UNL A   1      32.557  21.693  23.186  1.00  0.00     0.228 C 
ATOM     82  O   UNL A   1      31.895  22.497  22.503  1.00  0.00    -0.274 OA
ATOM     83  N   UNL A   1      32.182  20.394  23.001  1.00  0.00    -0.326 N 
ATOM     84  H   UNL A   1      31.551  20.298  22.252  1.00  0.00     0.169 HD
BRANCH  83  85
ATOM     85  C   UNL A   1      32.468  19.165  23.607  1.00  0.00     0.041 A 
ATOM     86  C   UNL A   1      32.816  18.094  22.767  1.00  0.00     0.033 A 
ATOM     87  C   UNL A   1      32.451  18.971  24.992  1.00  0.00     0.033 A 
ATOM     88  C   UNL A   1      33.406  16.941  23.303  1.00  0.00     0.088 A 
ATOM     89  C   UNL A   1      33.000  17.789  25.540  1.00  0.00     0.088 A 
ATOM     90  C   UNL A   1      33.562  16.827  24.690  1.00  0.00     0.269 A 
BRANCH  90  91
ATOM     91  N   UNL A   1      34.465  15.799  25.230  1.00  0.00     0.062 N 
ATOM     92  O   UNL A   1      33.993  14.665  25.407  1.00  0.00    -0.258 OA
ATOM     93  O   UNL A   1      35.642  16.117  25.431  1.00  0.00    -0.258 OA
ENDBRANCH  90  91
ENDBRANCH  83  85
ENDBRANCH  76  81
ENDBRANCH  72  74
ENDBRANCH  71  72
ENDBRANCH  70  71
ENDBRANCH   1  70
TORSDOF 17
ENDMDL
MODEL 2
REMARK VINA RESULT:     -12.6      6.142      9.858
REMARK SMILES O=C(OCCOC(=O)[C@H]1[C@@H]2CC[C@@H](C2)[C@@H]1C(=O)Nc1ccc([N+](=O)[O-])cc1)c1ccc(-c2c3nc(c(-c4cc(S(=O)(=O)[O-])ccc4F)c4ccc([nH]4)c(-c4cc(S(=O)(=O)[O-])ccc4F)c4nc(c(-c5cc(S(=O)(=O)[O-])ccc5F)c5ccc2[nH]5)C=C4)C=C3)cc1
REMARK SMILES IDX 4 1 3 2 2 3 1 4 28 5 29 6 90 7 30 8 89 9 31 10 32 11 33 12
REMARK SMILES IDX 83 13 34 14 88 15 82 16 84 17 35 18 87 19 81 20 80 21 36 23
REMARK SMILES IDX 68 24 48 25 67 26 49 27 52 28 66 29 85 30 50 31 51 32 65 34
REMARK SMILES IDX 86 35 53 36 37 37 38 38 46 39 39 40 45 41 47 42 44 43 40 44
REMARK SMILES IDX 41 45 42 46 43 47 69 48 70 49 78 50 71 51 77 52 79 53 76 54
REMARK SMILES IDX 72 55 73 56 74 57 75 58 54 59 55 60 63 61 56 62 62 63 64 64
REMARK SMILES IDX 61 65 57 66 58 67 59 68 60 69 5 70 6 71 7 72 8 73 9 74 10 75
REMARK SMILES IDX 15 76 11 77 14 78 13 79 12 80 16 81 17 82 18 83 19 85 20 86
REMARK SMILES IDX 27 87 21 88 26 89 22 90 23 91 24 92 25 93
REMARK H PARENT 84 22 52 33 18 84
REMARK Flexibility Score: inf
ROOT
ATOM      1  C   UNL A   1      32.027  33.079  26.950  1.00  0.00     0.275 C 
ENDROOT
BRANCH   1   2
ATOM      2  O   UNL A   1      32.475  33.891  28.050  1.00  0.00    -0.458 OA
BRANCH   2   3
ATOM      3  C   UNL A   1      33.717  34.255  28.445  1.00  0.00     0.338 C 
ATOM      4  O   UNL A   1      33.923  35.464  28.581  1.00  0.00    -0.246 OA
BRANCH   3   5
ATOM      5  C   UNL A   1      34.901  33.327  28.617  1.00  0.00     0.060 A 
ATOM      6  C   UNL A   1      36.228  33.517  28.208  1.00  0.00     0.016 A 
ATOM      7  C   UNL A   1      34.649  32.190  29.398  1.00  0.00     0.016 A 
ATOM      8  C   UNL A   1      37.286  32.681  28.664  1.00  0.00     0.010 A 
ATOM      9  C   UNL A   1      35.702  31.408  29.897  1.00  0.00     0.010 A 
ATOM     10  C   UNL A   1      37.053  31.649  29.573  1.00  0.00    -0.014 A 
BRANCH  10  11
ATOM     11  C   UNL A   1      38.106  30.759  30.198  1.00  0.00     0.031 A 
ATOM     12  C   UNL A   1      38.712  31.248  31.493  1.00  0.00     0.074 A 
ATOM     13  C   UNL A   1      38.648  29.652  29.617  1.00  0.00     0.049 A 
ATOM     14  N   UNL A   1      39.771  30.821  32.126  1.00  0.00    -0.248 NA
ATOM     15  C   UNL A   1      38.028  32.373  32.162  1.00  0.00     0.031 C 
ATOM     16  C   UNL A   1      38.140  28.920  28.456  1.00  0.00     0.029 A 
ATOM     17  N   UNL A   1      39.843  28.994  29.869  1.00  0.00    -0.354 N 
ATOM     18  C   UNL A   1      39.829  31.580  33.286  1.00  0.00     0.074 A 
ATOM     19  C   UNL A   1      38.847  32.630  33.166  1.00  0.00     0.031 C 
ATOM     20  C   UNL A   1      39.085  28.087  27.976  1.00  0.00     0.029 A 
ATOM     21  C   UNL A   1      40.238  28.124  28.860  1.00  0.00     0.049 A 
ATOM     22  H   UNL A   1      40.368  29.133  30.691  1.00  0.00     0.167 HD
ATOM     23  C   UNL A   1      40.528  31.336  34.417  1.00  0.00     0.034 A 
ATOM     24  C   UNL A   1      41.378  27.417  28.678  1.00  0.00     0.034 A 
ATOM     25  C   UNL A   1      41.464  30.259  34.547  1.00  0.00     0.049 A 
ATOM     26  C   UNL A   1      42.344  27.357  29.840  1.00  0.00     0.074 A 
ATOM     27  C   UNL A   1      42.128  29.825  35.677  1.00  0.00     0.029 A 
ATOM     28  N   UNL A   1      41.887  29.461  33.494  1.00  0.00    -0.354 N 
ATOM     29  N   UNL A   1      42.249  27.946  31.009  1.00  0.00    -0.248 NA
ATOM     30  C   UNL A   1      43.502  26.460  29.712  1.00  0.00     0.031 C 
ATOM     31  C   UNL A   1      43.011  28.812  35.293  1.00  0.00     0.029 A 
ATOM     32  C   UNL A   1      42.848  28.571  33.938  1.00  0.00     0.049 A 
ATOM     33  H   UNL A   1      41.554  29.519  32.570  1.00  0.00     0.167 HD
ATOM     34  C   UNL A   1      43.263  27.402  31.789  1.00  0.00     0.074 A 
ATOM     35  C   UNL A   1      43.981  26.467  30.947  1.00  0.00     0.031 C 
ATOM     36  C   UNL A   1      43.539  27.623  33.098  1.00  0.00     0.034 A 
BRANCH  23  37
ATOM     37  C   UNL A   1      40.225  32.215  35.599  1.00  0.00     0.023 A 
ATOM     38  C   UNL A   1      39.197  31.877  36.501  1.00  0.00     0.031 A 
ATOM     39  C   UNL A   1      40.908  33.422  35.793  1.00  0.00     0.131 A 
ATOM     40  C   UNL A   1      38.818  32.782  37.499  1.00  0.00     0.055 A 
ATOM     41  C   UNL A   1      40.581  34.283  36.842  1.00  0.00     0.041 A 
ATOM     42  F   UNL A   1      41.881  33.801  34.949  1.00  0.00    -0.206 F 
ATOM     43  C   UNL A   1      39.520  33.973  37.692  1.00  0.00     0.022 A 
BRANCH  40  44
ATOM     44  S   UNL A   1      37.308  32.444  38.445  1.00  0.00     0.124 S 
ATOM     45  O   UNL A   1      37.203  30.990  38.324  1.00  0.00    -0.237 OA
ATOM     46  O   UNL A   1      37.640  32.947  39.772  1.00  0.00    -0.237 OA
ATOM     47  O   UNL A   1      36.281  33.198  37.730  1.00  0.00    -0.744 OA
ENDBRANCH  40  44
ENDBRANCH  23  37
BRANCH  24  48
ATOM     48  C   UNL A   1      41.704  26.667  27.412  1.00  0.00     0.023 A 
ATOM     49  C   UNL A   1      41.565  25.272  27.300  1.00  0.00     0.031 A 
ATOM     50  C   UNL A   1      42.341  27.328  26.348  1.00  0.00     0.131 A 
ATOM     51  C   UNL A   1      42.129  24.587  26.203  1.00  0.00     0.055 A 
ATOM     52  C   UNL A   1      42.892  26.650  25.253  1.00  0.00     0.041 A 
ATOM     53  F   UNL A   1      42.461  28.660  26.369  1.00  0.00    -0.206 F 
ATOM     54  C   UNL A   1      42.803  25.265  25.186  1.00  0.00     0.022 A 
BRANCH  51  55
ATOM     55  S   UNL A   1      42.069  22.770  26.174  1.00  0.00     0.124 S 
ATOM     56  O   UNL A   1      42.769  22.468  24.932  1.00  0.00    -0.237 OA
ATOM     57  O   UNL A   1      42.770  22.433  27.408  1.00  0.00    -0.237 OA
ATOM     58  O   UNL A   1      40.637  22.476  26.173  1.00  0.00    -0.744 OA
ENDBRANCH  51  55
ENDBRANCH  24  48
BRANCH  36  59
ATOM     59  C   UNL A   1      44.603  26.772  33.732  1.00  0.00     0.023 A 
ATOM     60  C   UNL A   1      44.327  25.480  34.203  1.00  0.00     0.031 A 
ATOM     61  C   UNL A   1      45.918  27.258  33.844  1.00  0.00     0.131 A 
ATOM     62  C   UNL A   1      45.345  24.733  34.808  1.00  0.00     0.055 A 
ATOM     63  C   UNL A   1      46.943  26.482  34.380  1.00  0.00     0.041 A 
ATOM     64  F   UNL A   1      46.230  28.492  33.416  1.00  0.00    -0.206 F 
ATOM     65  C   UNL A   1      46.656  25.214  34.876  1.00  0.00     0.022 A 
BRANCH  62  66
ATOM     66  S   UNL A   1      44.912  23.152  35.579  1.00  0.00     0.124 S 
ATOM     67  O   UNL A   1      43.482  23.062  35.299  1.00  0.00    -0.237 OA
ATOM     68  O   UNL A   1      45.761  22.208  34.861  1.00  0.00    -0.237 OA
ATOM     69  O   UNL A   1      45.260  23.350  36.985  1.00  0.00    -0.744 OA
ENDBRANCH  62  66
ENDBRANCH  36  59
ENDBRANCH  10  11
ENDBRANCH   3   5
ENDBRANCH   2   3
ENDBRANCH   1   2
BRANCH   1  70
ATOM     70  C   UNL A   1      32.426  31.593  27.037  1.00  0.00     0.274 C 
BRANCH  70  71
ATOM     71  O   UNL A   1      31.726  30.813  26.060  1.00  0.00    -0.462 OA
BRANCH  71  72
ATOM     72  C   UNL A   1      31.557  29.452  26.158  1.00  0.00     0.310 C 
ATOM     73  O   UNL A   1      31.457  28.852  27.221  1.00  0.00    -0.252 OA
BRANCH  72  74
ATOM     74  C   UNL A   1      31.506  28.803  24.731  1.00  0.00     0.115 C 
ATOM     75  C   UNL A   1      32.836  29.146  24.073  1.00  0.00     0.004 C 
ATOM     76  C   UNL A   1      31.566  27.220  24.611  1.00  0.00     0.096 C 
ATOM     77  C   UNL A   1      32.860  28.702  22.615  1.00  0.00     0.005 C 
ATOM     78  C   UNL A   1      33.719  28.141  24.828  1.00  0.00     0.009 C 
ATOM     79  C   UNL A   1      33.042  26.938  24.185  1.00  0.00     0.003 C 
ATOM     80  C   UNL A   1      33.442  27.324  22.771  1.00  0.00     0.005 C 
BRANCH  76  81
ATOM     81  C   UNL A   1      30.315  26.687  23.869  1.00  0.00     0.228 C 
ATOM     82  O   UNL A   1      30.133  25.455  23.928  1.00  0.00    -0.274 OA
ATOM     83  N   UNL A   1      29.261  27.360  23.322  1.00  0.00    -0.326 N 
ATOM     84  H   UNL A   1      28.477  26.777  23.200  1.00  0.00     0.169 HD
BRANCH  83  85
ATOM     85  C   UNL A   1      29.014  28.669  22.891  1.00  0.00     0.041 A 
ATOM     86  C   UNL A   1      27.877  29.316  23.402  1.00  0.00     0.033 A 
ATOM     87  C   UNL A   1      29.855  29.357  22.010  1.00  0.00     0.033 A 
ATOM     88  C   UNL A   1      27.734  30.703  23.265  1.00  0.00     0.088 A 
ATOM     89  C   UNL A   1      29.689  30.749  21.827  1.00  0.00     0.088 A 
ATOM     90  C   UNL A   1      28.686  31.426  22.535  1.00  0.00     0.269 A 
BRANCH  90  91
ATOM     91  N   UNL A   1      28.733  32.891  22.665  1.00  0.00     0.062 N 
ATOM     92  O   UNL A   1      27.962  33.549  21.949  1.00  0.00    -0.258 OA
ATOM     93  O   UNL A   1      29.501  33.367  23.507  1.00  0.00    -0.258 OA
ENDBRANCH  90  91
ENDBRANCH  83  85
ENDBRANCH  76  81
ENDBRANCH  72  74
ENDBRANCH  71  72
ENDBRANCH  70  71
ENDBRANCH   1  70
TORSDOF 17
ENDMDL
MODEL 3
REMARK VINA RESULT:     -12.5      2.847      8.864
REMARK SMILES O=C(OCCOC(=O)[C@H]1[C@@H]2CC[C@@H](C2)[C@@H]1C(=O)Nc1ccc([N+](=O)[O-])cc1)c1ccc(-c2c3nc(c(-c4cc(S(=O)(=O)[O-])ccc4F)c4ccc([nH]4)c(-c4cc(S(=O)(=O)[O-])ccc4F)c4nc(c(-c5cc(S(=O)(=O)[O-])ccc5F)c5ccc2[nH]5)C=C4)C=C3)cc1
REMARK SMILES IDX 4 1 3 2 2 3 1 4 28 5 29 6 90 7 30 8 89 9 31 10 32 11 33 12
REMARK SMILES IDX 83 13 34 14 88 15 82 16 84 17 35 18 87 19 81 20 80 21 36 23
REMARK SMILES IDX 68 24 48 25 67 26 49 27 52 28 66 29 85 30 50 31 51 32 65 34
REMARK SMILES IDX 86 35 53 36 37 37 38 38 46 39 39 40 45 41 47 42 44 43 40 44
REMARK SMILES IDX 41 45 42 46 43 47 69 48 70 49 78 50 71 51 77 52 79 53 76 54
REMARK SMILES IDX 72 55 73 56 74 57 75 58 54 59 55 60 63 61 56 62 62 63 64 64
REMARK SMILES IDX 61 65 57 66 58 67 59 68 60 69 5 70 6 71 7 72 8 73 9 74 10 75
REMARK SMILES IDX 15 76 11 77 14 78 13 79 12 80 16 81 17 82 18 83 19 85 20 86
REMARK SMILES IDX 27 87 21 88 26 89 22 90 23 91 24 92 25 93
REMARK H PARENT 84 22 52 33 18 84
REMARK Flexibility Score: inf
ROOT
ATOM      1  C   UNL A   1      37.980  20.271  25.036  1.00  0.00     0.275 C 
ENDROOT
BRANCH   1   2
ATOM      2  O   UNL A   1      38.400  21.494  25.665  1.00  0.00    -0.458 OA
BRANCH   2   3
ATOM      3  C   UNL A   1      39.496  21.790  26.405  1.00  0.00     0.338 C 
ATOM      4  O   UNL A   1      40.271  20.859  26.642  1.00  0.00    -0.246 OA
BRANCH   3   5
ATOM      5  C   UNL A   1      39.789  23.121  27.062  1.00  0.00     0.060 A 
ATOM      6  C   UNL A   1      40.761  23.426  28.024  1.00  0.00     0.016 A 
ATOM      7  C   UNL A   1      39.070  24.206  26.541  1.00  0.00     0.016 A 
ATOM      8  C   UNL A   1      41.096  24.768  28.360  1.00  0.00     0.010 A 
ATOM      9  C   UNL A   1      39.447  25.527  26.827  1.00  0.00     0.010 A 
ATOM     10  C   UNL A   1      40.492  25.848  27.718  1.00  0.00    -0.014 A 
BRANCH  10  11
ATOM     11  C   UNL A   1      40.830  27.309  27.922  1.00  0.00     0.031 A 
ATOM     12  C   UNL A   1      42.300  27.663  27.914  1.00  0.00     0.074 A 
ATOM     13  C   UNL A   1      39.941  28.285  28.260  1.00  0.00     0.049 A 
ATOM     14  N   UNL A   1      42.888  28.769  28.280  1.00  0.00    -0.248 NA
ATOM     15  C   UNL A   1      43.229  26.624  27.426  1.00  0.00     0.031 C 
ATOM     16  C   UNL A   1      38.480  28.216  28.194  1.00  0.00     0.029 A 
ATOM     17  N   UNL A   1      40.142  29.525  28.847  1.00  0.00    -0.354 N 
ATOM     18  C   UNL A   1      44.233  28.572  28.002  1.00  0.00     0.074 A 
ATOM     19  C   UNL A   1      44.404  27.183  27.653  1.00  0.00     0.031 C 
ATOM     20  C   UNL A   1      37.930  29.227  28.894  1.00  0.00     0.029 A 
ATOM     21  C   UNL A   1      38.990  30.102  29.368  1.00  0.00     0.049 A 
ATOM     22  H   UNL A   1      41.025  29.959  28.893  1.00  0.00     0.167 HD
ATOM     23  C   UNL A   1      45.215  29.496  27.895  1.00  0.00     0.034 A 
ATOM     24  C   UNL A   1      38.801  31.216  30.114  1.00  0.00     0.034 A 
ATOM     25  C   UNL A   1      45.024  30.884  28.194  1.00  0.00     0.049 A 
ATOM     26  C   UNL A   1      39.979  32.151  30.266  1.00  0.00     0.074 A 
ATOM     27  C   UNL A   1      45.896  31.936  27.995  1.00  0.00     0.029 A 
ATOM     28  N   UNL A   1      43.882  31.407  28.785  1.00  0.00    -0.354 N 
ATOM     29  N   UNL A   1      41.199  32.006  29.804  1.00  0.00    -0.248 NA
ATOM     30  C   UNL A   1      39.739  33.439  30.934  1.00  0.00     0.031 C 
ATOM     31  C   UNL A   1      45.310  33.085  28.535  1.00  0.00     0.029 A 
ATOM     32  C   UNL A   1      44.049  32.761  29.009  1.00  0.00     0.049 A 
ATOM     33  H   UNL A   1      43.075  30.891  29.010  1.00  0.00     0.167 HD
ATOM     34  C   UNL A   1      41.831  33.224  30.020  1.00  0.00     0.074 A 
ATOM     35  C   UNL A   1      40.873  34.080  30.688  1.00  0.00     0.031 C 
ATOM     36  C   UNL A   1      43.077  33.612  29.651  1.00  0.00     0.034 A 
BRANCH  23  37
ATOM     37  C   UNL A   1      46.537  29.016  27.363  1.00  0.00     0.023 A 
ATOM     38  C   UNL A   1      46.691  28.707  25.998  1.00  0.00     0.031 A 
ATOM     39  C   UNL A   1      47.622  28.799  28.220  1.00  0.00     0.131 A 
ATOM     40  C   UNL A   1      47.873  28.109  25.546  1.00  0.00     0.055 A 
ATOM     41  C   UNL A   1      48.829  28.280  27.748  1.00  0.00     0.041 A 
ATOM     42  F   UNL A   1      47.520  29.056  29.533  1.00  0.00    -0.206 F 
ATOM     43  C   UNL A   1      48.954  27.916  26.407  1.00  0.00     0.022 A 
BRANCH  40  44
ATOM     44  S   UNL A   1      47.922  27.459  23.853  1.00  0.00     0.124 S 
ATOM     45  O   UNL A   1      49.299  27.755  23.463  1.00  0.00    -0.237 OA
ATOM     46  O   UNL A   1      47.606  26.048  24.042  1.00  0.00    -0.237 OA
ATOM     47  O   UNL A   1      46.902  28.239  23.158  1.00  0.00    -0.744 OA
ENDBRANCH  40  44
ENDBRANCH  23  37
BRANCH  24  48
ATOM     48  C   UNL A   1      37.486  31.581  30.753  1.00  0.00     0.023 A 
ATOM     49  C   UNL A   1      36.505  32.341  30.089  1.00  0.00     0.031 A 
ATOM     50  C   UNL A   1      37.271  31.323  32.118  1.00  0.00     0.131 A 
ATOM     51  C   UNL A   1      35.419  32.883  30.807  1.00  0.00     0.055 A 
ATOM     52  C   UNL A   1      36.186  31.852  32.829  1.00  0.00     0.041 A 
ATOM     53  F   UNL A   1      38.138  30.564  32.796  1.00  0.00    -0.206 F 
ATOM     54  C   UNL A   1      35.260  32.654  32.176  1.00  0.00     0.022 A 
BRANCH  51  55
ATOM     55  S   UNL A   1      34.262  33.993  29.950  1.00  0.00     0.124 S 
ATOM     56  O   UNL A   1      35.172  34.901  29.264  1.00  0.00    -0.237 OA
ATOM     57  O   UNL A   1      33.527  33.057  29.107  1.00  0.00    -0.237 OA
ATOM     58  O   UNL A   1      33.489  34.588  31.039  1.00  0.00    -0.744 OA
ENDBRANCH  51  55
ENDBRANCH  24  48
BRANCH  36  59
ATOM     59  C   UNL A   1      43.446  35.052  29.874  1.00  0.00     0.023 A 
ATOM     60  C   UNL A   1      43.055  36.058  28.979  1.00  0.00     0.031 A 
ATOM     61  C   UNL A   1      44.184  35.420  31.014  1.00  0.00     0.131 A 
ATOM     62  C   UNL A   1      43.443  37.383  29.215  1.00  0.00     0.055 A 
ATOM     63  C   UNL A   1      44.503  36.750  31.282  1.00  0.00     0.041 A 
ATOM     64  F   UNL A   1      44.590  34.492  31.896  1.00  0.00    -0.206 F 
ATOM     65  C   UNL A   1      44.141  37.739  30.373  1.00  0.00     0.022 A 
BRANCH  62  66
ATOM     66  S   UNL A   1      43.090  38.624  27.944  1.00  0.00     0.124 S 
ATOM     67  O   UNL A   1      42.795  37.791  26.783  1.00  0.00    -0.237 OA
ATOM     68  O   UNL A   1      41.957  39.345  28.514  1.00  0.00    -0.237 OA
ATOM     69  O   UNL A   1      44.331  39.391  27.860  1.00  0.00    -0.744 OA
ENDBRANCH  62  66
ENDBRANCH  36  59
ENDBRANCH  10  11
ENDBRANCH   3   5
ENDBRANCH   2   3
ENDBRANCH   1   2
BRANCH   1  70
ATOM     70  C   UNL A   1      36.454  20.067  24.973  1.00  0.00     0.274 C 
BRANCH  70  71
ATOM     71  O   UNL A   1      35.768  21.066  25.738  1.00  0.00    -0.462 OA
BRANCH  71  72
ATOM     72  C   UNL A   1      34.407  21.254  25.690  1.00  0.00     0.310 C 
ATOM     73  O   UNL A   1      33.603  20.359  25.457  1.00  0.00    -0.252 OA
BRANCH  72  74
ATOM     74  C   UNL A   1      34.051  22.754  25.979  1.00  0.00     0.115 C 
ATOM     75  C   UNL A   1      34.977  23.576  25.092  1.00  0.00     0.004 C 
ATOM     76  C   UNL A   1      32.654  23.317  25.474  1.00  0.00     0.096 C 
ATOM     77  C   UNL A   1      34.843  25.065  25.386  1.00  0.00     0.005 C 
ATOM     78  C   UNL A   1      34.258  23.350  23.754  1.00  0.00     0.009 C 
ATOM     79  C   UNL A   1      33.024  24.128  24.192  1.00  0.00     0.003 C 
ATOM     80  C   UNL A   1      33.778  25.432  24.390  1.00  0.00     0.005 C 
BRANCH  76  81
ATOM     81  C   UNL A   1      31.834  23.873  26.665  1.00  0.00     0.228 C 
ATOM     82  O   UNL A   1      31.920  23.230  27.729  1.00  0.00    -0.274 OA
ATOM     83  N   UNL A   1      31.183  25.063  26.808  1.00  0.00    -0.326 N 
ATOM     84  H   UNL A   1      31.019  25.281  27.753  1.00  0.00     0.169 HD
BRANCH  83  85
ATOM     85  C   UNL A   1      30.690  26.053  25.949  1.00  0.00     0.041 A 
ATOM     86  C   UNL A   1      31.260  27.333  26.040  1.00  0.00     0.033 A 
ATOM     87  C   UNL A   1      29.690  25.815  24.999  1.00  0.00     0.033 A 
ATOM     88  C   UNL A   1      31.044  28.276  25.025  1.00  0.00     0.088 A 
ATOM     89  C   UNL A   1      29.431  26.780  24.000  1.00  0.00     0.088 A 
ATOM     90  C   UNL A   1      30.182  27.963  23.967  1.00  0.00     0.269 A 
BRANCH  90  91
ATOM     91  N   UNL A   1      30.209  28.789  22.749  1.00  0.00     0.062 N 
ATOM     92  O   UNL A   1      29.896  29.984  22.868  1.00  0.00    -0.258 OA
ATOM     93  O   UNL A   1      30.582  28.253  21.701  1.00  0.00    -0.258 OA
ENDBRANCH  90  91
ENDBRANCH  83  85
ENDBRANCH  76  81
ENDBRANCH  72  74
ENDBRANCH  71  72
ENDBRANCH  70  71
ENDBRANCH   1  70
TORSDOF 17
ENDMDL
