MODEL 1
REMARK VINA RESULT:     -10.4      0.000      0.000
REMARK SMILES CCCCc1cc(S(F)(F)(F)(F)F)cc2c1O[C@@H](C(F)(F)F)C(C(=O)OCCOC(=O)c1ccc(-c3c4nc(c(-c5cc(S(=O)(=O)[O-])ccc5F)c5ccc([nH]5)c(-c5cc(S(=O)(=O)[O-])ccc5F)c5nc(c(-c6cc(S(=O)(=O)[O-])ccc6F)c6ccc3[nH]6)C=C5)C=C4)cc1)=C2
REMARK SMILES IDX 27 1 26 2 24 3 25 4 23 5 5 6 6 7 16 8 7 9 15 10 17 11 14 12
REMARK SMILES IDX 95 13 18 14 4 15 3 16 2 17 1 18 8 19 9 20 10 21 11 22 12 23
REMARK SMILES IDX 13 24 19 25 20 26 21 27 22 28 28 29 29 30 30 31 31 32 32 33
REMARK SMILES IDX 33 34 94 35 34 36 93 37 35 38 36 39 37 40 87 41 38 42 92 43
REMARK SMILES IDX 86 44 88 45 39 46 91 47 85 48 84 49 40 51 72 52 52 53 71 54
REMARK SMILES IDX 53 55 56 56 70 57 89 58 54 59 55 60 69 62 90 63 57 64 41 65
REMARK SMILES IDX 42 66 50 67 43 68 49 69 51 70 48 71 44 72 45 73 46 74 47 75
REMARK SMILES IDX 73 76 74 77 82 78 75 79 81 80 83 81 80 82 76 83 77 84 78 85
REMARK SMILES IDX 79 86 58 87 59 88 67 89 60 90 66 91 68 92 65 93 61 94 62 95
REMARK SMILES IDX 63 96 64 97
REMARK H PARENT 88 50 56 61
REMARK Flexibility Score: inf
ROOT
ATOM      1  C   UNL A   1      42.131  20.077  26.212  1.00  0.00     0.275 C 
ENDROOT
BRANCH   1   2
ATOM      2  O   UNL A   1      43.378  20.687  25.912  1.00  0.00    -0.459 OA
BRANCH   2   3
ATOM      3  C   UNL A   1      43.430  22.065  25.574  1.00  0.00     0.338 C 
ATOM      4  O   UNL A   1      42.612  22.542  24.726  1.00  0.00    -0.246 OA
BRANCH   3   5
ATOM      5  C   UNL A   1      44.463  22.969  26.226  1.00  0.00     0.087 C 
ATOM      6  C   UNL A   1      47.585  25.031  28.084  1.00  0.00    -0.004 A 
ATOM      7  C   UNL A   1      47.391  25.602  29.328  1.00  0.00     0.032 A 
ATOM      8  C   UNL A   1      46.559  24.313  27.519  1.00  0.00     0.131 A 
ATOM      9  C   UNL A   1      46.202  25.455  29.994  1.00  0.00     0.108 A 
ATOM     10  C   UNL A   1      45.339  24.159  28.153  1.00  0.00     0.019 A 
ATOM     11  O   UNL A   1      46.804  23.659  26.338  1.00  0.00    -0.475 OA
ATOM     12  C   UNL A   1      45.178  24.742  29.405  1.00  0.00     0.036 A 
ATOM     13  C   UNL A   1      44.330  23.349  27.491  1.00  0.00     0.027 C 
ATOM     14  C   UNL A   1      45.674  23.459  25.443  1.00  0.00     0.316 C 
BRANCH   6  15
ATOM     15  C   UNL A   1      48.908  25.195  27.354  1.00  0.00     0.039 C 
BRANCH  15  16
ATOM     16  C   UNL A   1      50.054  24.937  28.319  1.00  0.00     0.005 C 
BRANCH  16  17
ATOM     17  C   UNL A   1      51.377  25.203  27.618  1.00  0.00    -0.003 C 
ATOM     18  C   UNL A   1      51.801  26.641  27.866  1.00  0.00     0.004 C 
ENDBRANCH  16  17
ENDBRANCH  15  16
ENDBRANCH   6  15
BRANCH   9  19
ATOM     19  S   UNL A   1      45.976  26.190  31.632  1.00  0.00     0.310 S 
ATOM     20  F   UNL A   1      44.396  26.117  31.516  1.00  0.00    -0.094 F 
ATOM     21  F   UNL A   1      45.891  27.610  30.955  1.00  0.00    -0.094 F 
ATOM     22  F   UNL A   1      45.782  26.819  33.041  1.00  0.00    -0.094 F 
ATOM     23  F   UNL A   1      45.922  24.750  32.277  1.00  0.00    -0.094 F 
ATOM     24  F   UNL A   1      46.060  25.528  30.198  1.00  0.00    -0.094 F 
ENDBRANCH   9  19
BRANCH  14  25
ATOM     25  C   UNL A   1      46.045  22.417  24.400  1.00  0.00     0.430 C 
ATOM     26  F   UNL A   1      47.194  22.756  23.823  1.00  0.00    -0.167 F 
ATOM     27  F   UNL A   1      46.175  21.230  24.986  1.00  0.00    -0.167 F 
ATOM     28  F   UNL A   1      45.088  22.353  23.479  1.00  0.00    -0.167 F 
ENDBRANCH  14  25
ENDBRANCH   3   5
ENDBRANCH   2   3
ENDBRANCH   1   2
BRANCH   1  29
ATOM     29  C   UNL A   1      41.619  20.598  27.544  1.00  0.00     0.275 C 
BRANCH  29  30
ATOM     30  O   UNL A   1      40.222  20.839  27.453  1.00  0.00    -0.458 OA
BRANCH  30  31
ATOM     31  C   UNL A   1      39.740  21.941  26.698  1.00  0.00     0.338 C 
ATOM     32  O   UNL A   1      38.961  21.744  25.713  1.00  0.00    -0.246 OA
BRANCH  31  33
ATOM     33  C   UNL A   1      40.155  23.355  27.067  1.00  0.00     0.060 A 
ATOM     34  C   UNL A   1      40.837  23.575  28.252  1.00  0.00     0.016 A 
ATOM     35  C   UNL A   1      39.858  24.357  26.248  1.00  0.00     0.016 A 
ATOM     36  C   UNL A   1      40.911  24.937  28.628  1.00  0.00     0.010 A 
ATOM     37  C   UNL A   1      40.082  25.660  26.625  1.00  0.00     0.010 A 
ATOM     38  C   UNL A   1      40.699  25.952  27.809  1.00  0.00    -0.014 A 
BRANCH  38  39
ATOM     39  C   UNL A   1      41.119  27.369  28.166  1.00  0.00     0.031 A 
ATOM     40  C   UNL A   1      40.154  28.224  28.701  1.00  0.00     0.074 A 
ATOM     41  C   UNL A   1      42.435  27.733  27.937  1.00  0.00     0.049 A 
ATOM     42  N   UNL A   1      40.319  29.485  29.106  1.00  0.00    -0.248 NA
ATOM     43  C   UNL A   1      38.747  27.851  28.912  1.00  0.00     0.031 C 
ATOM     44  C   UNL A   1      43.416  26.872  27.405  1.00  0.00     0.029 A 
ATOM     45  N   UNL A   1      43.027  28.953  28.171  1.00  0.00    -0.354 N 
ATOM     46  C   UNL A   1      39.169  29.972  29.577  1.00  0.00     0.074 A 
ATOM     47  C   UNL A   1      38.141  28.930  29.454  1.00  0.00     0.031 C 
ATOM     48  C   UNL A   1      44.578  27.568  27.310  1.00  0.00     0.029 A 
ATOM     49  C   UNL A   1      44.345  28.874  27.780  1.00  0.00     0.049 A 
ATOM     50  H   UNL A   1      42.584  29.746  28.552  1.00  0.00     0.167 HD
ATOM     51  C   UNL A   1      38.939  31.242  30.107  1.00  0.00     0.034 A 
ATOM     52  C   UNL A   1      45.304  29.874  27.822  1.00  0.00     0.034 A 
ATOM     53  C   UNL A   1      39.910  32.228  30.189  1.00  0.00     0.049 A 
ATOM     54  C   UNL A   1      45.058  31.165  28.298  1.00  0.00     0.074 A 
ATOM     55  C   UNL A   1      39.696  33.512  30.727  1.00  0.00     0.029 A 
ATOM     56  N   UNL A   1      41.222  32.157  29.775  1.00  0.00    -0.354 N 
ATOM     57  N   UNL A   1      43.920  31.639  28.805  1.00  0.00    -0.248 NA
ATOM     58  C   UNL A   1      46.058  32.241  28.317  1.00  0.00     0.031 C 
ATOM     59  C   UNL A   1      40.860  34.208  30.631  1.00  0.00     0.029 A 
ATOM     60  C   UNL A   1      41.820  33.371  30.030  1.00  0.00     0.049 A 
ATOM     61  H   UNL A   1      41.656  31.373  29.367  1.00  0.00     0.167 HD
ATOM     62  C   UNL A   1      44.075  32.911  29.172  1.00  0.00     0.074 A 
ATOM     63  C   UNL A   1      45.451  33.320  28.857  1.00  0.00     0.031 C 
ATOM     64  C   UNL A   1      43.126  33.749  29.761  1.00  0.00     0.034 A 
BRANCH  51  65
ATOM     65  C   UNL A   1      37.545  31.562  30.622  1.00  0.00     0.023 A 
ATOM     66  C   UNL A   1      36.620  32.099  29.741  1.00  0.00     0.031 A 
ATOM     67  C   UNL A   1      37.213  31.269  31.874  1.00  0.00     0.131 A 
ATOM     68  C   UNL A   1      35.437  32.561  30.362  1.00  0.00     0.055 A 
ATOM     69  C   UNL A   1      35.987  31.631  32.375  1.00  0.00     0.041 A 
ATOM     70  F   UNL A   1      38.077  30.618  32.649  1.00  0.00    -0.206 F 
ATOM     71  C   UNL A   1      35.046  32.219  31.576  1.00  0.00     0.022 A 
BRANCH  68  72
ATOM     72  S   UNL A   1      34.386  33.702  29.430  1.00  0.00     0.124 S 
ATOM     73  O   UNL A   1      33.381  34.359  30.380  1.00  0.00    -0.237 OA
ATOM     74  O   UNL A   1      35.255  34.781  28.782  1.00  0.00    -0.237 OA
ATOM     75  O   UNL A   1      33.544  32.841  28.217  1.00  0.00    -0.744 OA
ENDBRANCH  68  72
ENDBRANCH  51  65
BRANCH  52  76
ATOM     76  C   UNL A   1      46.702  29.548  27.321  1.00  0.00     0.023 A 
ATOM     77  C   UNL A   1      46.896  29.272  25.978  1.00  0.00     0.031 A 
ATOM     78  C   UNL A   1      47.702  29.475  28.191  1.00  0.00     0.131 A 
ATOM     79  C   UNL A   1      48.129  28.639  25.695  1.00  0.00     0.055 A 
ATOM     80  C   UNL A   1      48.923  28.972  27.811  1.00  0.00     0.041 A 
ATOM     81  F   UNL A   1      47.521  29.891  29.440  1.00  0.00    -0.206 F 
ATOM     82  C   UNL A   1      49.167  28.623  26.512  1.00  0.00     0.022 A 
BRANCH  79  83
ATOM     83  S   UNL A   1      48.298  27.795  24.103  1.00  0.00     0.124 S 
ATOM     84  O   UNL A   1      47.354  28.436  23.083  1.00  0.00    -0.237 OA
ATOM     85  O   UNL A   1      49.742  27.921  23.610  1.00  0.00    -0.237 OA
ATOM     86  O   UNL A   1      47.901  26.143  24.288  1.00  0.00    -0.744 OA
ENDBRANCH  79  83
ENDBRANCH  52  76
BRANCH  64  87
ATOM     87  C   UNL A   1      43.550  35.161  30.130  1.00  0.00     0.023 A 
ATOM     88  C   UNL A   1      43.330  36.192  29.231  1.00  0.00     0.031 A 
ATOM     89  C   UNL A   1      44.124  35.384  31.306  1.00  0.00     0.131 A 
ATOM     90  C   UNL A   1      44.017  37.387  29.550  1.00  0.00     0.055 A 
ATOM     91  C   UNL A   1      44.654  36.616  31.603  1.00  0.00     0.041 A 
ATOM     92  F   UNL A   1      44.185  34.406  32.205  1.00  0.00    -0.206 F 
ATOM     93  C   UNL A   1      44.525  37.665  30.736  1.00  0.00     0.022 A 
BRANCH  90  94
ATOM     94  S   UNL A   1      44.214  38.620  28.239  1.00  0.00     0.124 S 
ATOM     95  O   UNL A   1      43.712  38.041  26.915  1.00  0.00    -0.237 OA
ATOM     96  O   UNL A   1      43.403  39.870  28.589  1.00  0.00    -0.237 OA
ATOM     97  O   UNL A   1      45.866  39.035  28.090  1.00  0.00    -0.744 OA
ENDBRANCH  90  94
ENDBRANCH  64  87
ENDBRANCH  38  39
ENDBRANCH  31  33
ENDBRANCH  30  31
ENDBRANCH  29  30
ENDBRANCH   1  29
TORSDOF 19
ENDMDL
MODEL 2
REMARK VINA RESULT:     -10.3      2.094      2.526
REMARK SMILES CCCCc1cc(S(F)(F)(F)(F)F)cc2c1O[C@@H](C(F)(F)F)C(C(=O)OCCOC(=O)c1ccc(-c3c4nc(c(-c5cc(S(=O)(=O)[O-])ccc5F)c5ccc([nH]5)c(-c5cc(S(=O)(=O)[O-])ccc5F)c5nc(c(-c6cc(S(=O)(=O)[O-])ccc6F)c6ccc3[nH]6)C=C5)C=C4)cc1)=C2
REMARK SMILES IDX 27 1 26 2 24 3 25 4 23 5 5 6 6 7 16 8 7 9 15 10 17 11 14 12
REMARK SMILES IDX 95 13 18 14 4 15 3 16 2 17 1 18 8 19 9 20 10 21 11 22 12 23
REMARK SMILES IDX 13 24 19 25 20 26 21 27 22 28 28 29 29 30 30 31 31 32 32 33
REMARK SMILES IDX 33 34 94 35 34 36 93 37 35 38 36 39 37 40 87 41 38 42 92 43
REMARK SMILES IDX 86 44 88 45 39 46 91 47 85 48 84 49 40 51 72 52 52 53 71 54
REMARK SMILES IDX 53 55 56 56 70 57 89 58 54 59 55 60 69 62 90 63 57 64 41 65
REMARK SMILES IDX 42 66 50 67 43 68 49 69 51 70 48 71 44 72 45 73 46 74 47 75
REMARK SMILES IDX 73 76 74 77 82 78 75 79 81 80 83 81 80 82 76 83 77 84 78 85
REMARK SMILES IDX 79 86 58 87 59 88 67 89 60 90 66 91 68 92 65 93 61 94 62 95
REMARK SMILES IDX 63 96 64 97
REMARK H PARENT 88 50 56 61
REMARK Flexibility Score: inf
ROOT
ATOM      1  C   UNL A   1      41.998  20.226  26.253  1.00  0.00     0.275 C 
ENDROOT
BRANCH   1   2
ATOM      2  O   UNL A   1      43.273  20.756  25.923  1.00  0.00    -0.459 OA
BRANCH   2   3
ATOM      3  C   UNL A   1      43.398  22.119  25.545  1.00  0.00     0.338 C 
ATOM      4  O   UNL A   1      42.677  22.587  24.609  1.00  0.00    -0.246 OA
BRANCH   3   5
ATOM      5  C   UNL A   1      44.395  23.017  26.258  1.00  0.00     0.087 C 
ATOM      6  C   UNL A   1      47.429  25.068  28.267  1.00  0.00    -0.004 A 
ATOM      7  C   UNL A   1      47.201  25.567  29.537  1.00  0.00     0.032 A 
ATOM      8  C   UNL A   1      46.433  24.351  27.651  1.00  0.00     0.131 A 
ATOM      9  C   UNL A   1      46.008  25.351  30.176  1.00  0.00     0.108 A 
ATOM     10  C   UNL A   1      45.209  24.129  28.258  1.00  0.00     0.019 A 
ATOM     11  O   UNL A   1      46.713  23.768  26.441  1.00  0.00    -0.475 OA
ATOM     12  C   UNL A   1      45.014  24.641  29.536  1.00  0.00     0.036 A 
ATOM     13  C   UNL A   1      44.234  23.326  27.539  1.00  0.00     0.027 C 
ATOM     14  C   UNL A   1      45.602  23.582  25.520  1.00  0.00     0.316 C 
BRANCH   6  15
ATOM     15  C   UNL A   1      48.757  25.308  27.568  1.00  0.00     0.039 C 
BRANCH  15  16
ATOM     16  C   UNL A   1      48.614  26.464  26.591  1.00  0.00     0.005 C 
BRANCH  16  17
ATOM     17  C   UNL A   1      49.130  26.039  25.225  1.00  0.00    -0.003 C 
ATOM     18  C   UNL A   1      49.710  27.246  24.506  1.00  0.00     0.004 C 
ENDBRANCH  16  17
ENDBRANCH  15  16
ENDBRANCH   6  15
BRANCH   9  19
ATOM     19  S   UNL A   1      45.738  25.993  31.847  1.00  0.00     0.310 S 
ATOM     20  F   UNL A   1      44.270  25.396  31.906  1.00  0.00    -0.094 F 
ATOM     21  F   UNL A   1      45.111  27.294  31.218  1.00  0.00    -0.094 F 
ATOM     22  F   UNL A   1      45.508  26.542  33.283  1.00  0.00    -0.094 F 
ATOM     23  F   UNL A   1      46.240  24.626  32.458  1.00  0.00    -0.094 F 
ATOM     24  F   UNL A   1      45.874  25.376  30.397  1.00  0.00    -0.094 F 
ENDBRANCH   9  19
BRANCH  14  25
ATOM     25  C   UNL A   1      46.017  22.607  24.430  1.00  0.00     0.430 C 
ATOM     26  F   UNL A   1      45.097  22.596  23.470  1.00  0.00    -0.167 F 
ATOM     27  F   UNL A   1      47.187  22.984  23.920  1.00  0.00    -0.167 F 
ATOM     28  F   UNL A   1      46.132  21.387  24.948  1.00  0.00    -0.167 F 
ENDBRANCH  14  25
ENDBRANCH   3   5
ENDBRANCH   2   3
ENDBRANCH   1   2
BRANCH   1  29
ATOM     29  C   UNL A   1      41.551  20.780  27.596  1.00  0.00     0.275 C 
BRANCH  29  30
ATOM     30  O   UNL A   1      40.192  21.184  27.513  1.00  0.00    -0.458 OA
BRANCH  30  31
ATOM     31  C   UNL A   1      39.828  22.282  26.689  1.00  0.00     0.338 C 
ATOM     32  O   UNL A   1      39.201  22.080  25.601  1.00  0.00    -0.246 OA
BRANCH  31  33
ATOM     33  C   UNL A   1      40.186  23.698  27.106  1.00  0.00     0.060 A 
ATOM     34  C   UNL A   1      39.962  24.744  26.226  1.00  0.00     0.016 A 
ATOM     35  C   UNL A   1      40.709  23.911  28.309  1.00  0.00     0.016 A 
ATOM     36  C   UNL A   1      40.593  25.954  26.599  1.00  0.00     0.010 A 
ATOM     37  C   UNL A   1      41.183  25.154  28.656  1.00  0.00     0.010 A 
ATOM     38  C   UNL A   1      41.047  26.219  27.810  1.00  0.00    -0.014 A 
BRANCH  38  39
ATOM     39  C   UNL A   1      41.399  27.633  28.241  1.00  0.00     0.031 A 
ATOM     40  C   UNL A   1      40.363  28.469  28.663  1.00  0.00     0.074 A 
ATOM     41  C   UNL A   1      42.729  28.016  28.188  1.00  0.00     0.049 A 
ATOM     42  N   UNL A   1      40.459  29.723  29.107  1.00  0.00    -0.248 NA
ATOM     43  C   UNL A   1      38.946  28.077  28.687  1.00  0.00     0.031 C 
ATOM     44  C   UNL A   1      43.780  27.176  27.771  1.00  0.00     0.029 A 
ATOM     45  N   UNL A   1      43.270  29.238  28.516  1.00  0.00    -0.354 N 
ATOM     46  C   UNL A   1      39.252  30.190  29.436  1.00  0.00     0.074 A 
ATOM     47  C   UNL A   1      38.262  29.139  29.165  1.00  0.00     0.031 C 
ATOM     48  C   UNL A   1      44.937  27.886  27.836  1.00  0.00     0.029 A 
ATOM     49  C   UNL A   1      44.629  29.180  28.295  1.00  0.00     0.049 A 
ATOM     50  H   UNL A   1      42.772  30.019  28.850  1.00  0.00     0.167 HD
ATOM     51  C   UNL A   1      38.940  31.447  29.953  1.00  0.00     0.034 A 
ATOM     52  C   UNL A   1      45.561  30.189  28.475  1.00  0.00     0.034 A 
ATOM     53  C   UNL A   1      39.880  32.441  30.175  1.00  0.00     0.049 A 
ATOM     54  C   UNL A   1      45.241  31.468  28.937  1.00  0.00     0.074 A 
ATOM     55  C   UNL A   1      39.583  33.713  30.703  1.00  0.00     0.029 A 
ATOM     56  N   UNL A   1      41.235  32.392  29.931  1.00  0.00    -0.354 N 
ATOM     57  N   UNL A   1      44.041  31.921  29.304  1.00  0.00    -0.248 NA
ATOM     58  C   UNL A   1      46.215  32.555  29.102  1.00  0.00     0.031 C 
ATOM     59  C   UNL A   1      40.740  34.424  30.768  1.00  0.00     0.029 A 
ATOM     60  C   UNL A   1      41.779  33.608  30.280  1.00  0.00     0.049 A 
ATOM     61  H   UNL A   1      41.727  31.621  29.568  1.00  0.00     0.167 HD
ATOM     62  C   UNL A   1      44.131  33.188  29.709  1.00  0.00     0.074 A 
ATOM     63  C   UNL A   1      45.531  33.617  29.578  1.00  0.00     0.031 C 
ATOM     64  C   UNL A   1      43.104  34.005  30.186  1.00  0.00     0.034 A 
BRANCH  51  65
ATOM     65  C   UNL A   1      37.488  31.743  30.293  1.00  0.00     0.023 A 
ATOM     66  C   UNL A   1      36.614  32.037  29.259  1.00  0.00     0.031 A 
ATOM     67  C   UNL A   1      37.065  31.654  31.548  1.00  0.00     0.131 A 
ATOM     68  C   UNL A   1      35.352  32.508  29.692  1.00  0.00     0.055 A 
ATOM     69  C   UNL A   1      35.778  32.002  31.878  1.00  0.00     0.041 A 
ATOM     70  F   UNL A   1      37.896  31.224  32.494  1.00  0.00    -0.206 F 
ATOM     71  C   UNL A   1      34.877  32.359  30.915  1.00  0.00     0.022 A 
BRANCH  68  72
ATOM     72  S   UNL A   1      34.317  33.375  28.486  1.00  0.00     0.124 S 
ATOM     73  O   UNL A   1      35.211  34.112  27.485  1.00  0.00    -0.237 OA
ATOM     74  O   UNL A   1      33.444  32.363  27.742  1.00  0.00    -0.237 OA
ATOM     75  O   UNL A   1      33.320  34.502  29.297  1.00  0.00    -0.744 OA
ENDBRANCH  68  72
ENDBRANCH  51  65
BRANCH  52  76
ATOM     76  C   UNL A   1      47.016  29.888  28.151  1.00  0.00     0.023 A 
ATOM     77  C   UNL A   1      47.802  29.244  29.091  1.00  0.00     0.031 A 
ATOM     78  C   UNL A   1      47.522  30.302  26.996  1.00  0.00     0.131 A 
ATOM     79  C   UNL A   1      49.191  29.342  28.840  1.00  0.00     0.055 A 
ATOM     80  C   UNL A   1      48.876  30.243  26.765  1.00  0.00     0.041 A 
ATOM     81  F   UNL A   1      46.714  30.779  26.055  1.00  0.00    -0.206 F 
ATOM     82  C   UNL A   1      49.721  29.674  27.676  1.00  0.00     0.022 A 
BRANCH  79  83
ATOM     83  S   UNL A   1      50.322  28.987  30.208  1.00  0.00     0.124 S 
ATOM     84  O   UNL A   1      51.754  29.330  29.789  1.00  0.00    -0.237 OA
ATOM     85  O   UNL A   1      49.931  29.830  31.425  1.00  0.00    -0.237 OA
ATOM     86  O   UNL A   1      50.229  27.327  30.610  1.00  0.00    -0.744 OA
ENDBRANCH  79  83
ENDBRANCH  52  76
BRANCH  64  87
ATOM     87  C   UNL A   1      43.460  35.414  30.629  1.00  0.00     0.023 A 
ATOM     88  C   UNL A   1      43.645  35.676  31.977  1.00  0.00     0.031 A 
ATOM     89  C   UNL A   1      43.586  36.372  29.718  1.00  0.00     0.131 A 
ATOM     90  C   UNL A   1      43.681  37.054  32.293  1.00  0.00     0.055 A 
ATOM     91  C   UNL A   1      43.754  37.681  30.098  1.00  0.00     0.041 A 
ATOM     92  F   UNL A   1      43.550  36.060  28.425  1.00  0.00    -0.206 F 
ATOM     93  C   UNL A   1      43.887  38.020  31.416  1.00  0.00     0.022 A 
BRANCH  90  94
ATOM     94  S   UNL A   1      43.427  37.528  34.022  1.00  0.00     0.124 S 
ATOM     95  O   UNL A   1      42.382  36.605  34.655  1.00  0.00    -0.237 OA
ATOM     96  O   UNL A   1      44.748  37.402  34.785  1.00  0.00    -0.237 OA
ATOM     97  O   UNL A   1      42.877  39.145  34.095  1.00  0.00    -0.744 OA
ENDBRANCH  90  94
ENDBRANCH  64  87
ENDBRANCH  38  39
ENDBRANCH  31  33
ENDBRANCH  30  31
ENDBRANCH  29  30
ENDBRANCH   1  29
TORSDOF 19
ENDMDL
MODEL 3
REMARK VINA RESULT:     -10.2      5.974     10.443
REMARK SMILES CCCCc1cc(S(F)(F)(F)(F)F)cc2c1O[C@@H](C(F)(F)F)C(C(=O)OCCOC(=O)c1ccc(-c3c4nc(c(-c5cc(S(=O)(=O)[O-])ccc5F)c5ccc([nH]5)c(-c5cc(S(=O)(=O)[O-])ccc5F)c5nc(c(-c6cc(S(=O)(=O)[O-])ccc6F)c6ccc3[nH]6)C=C5)C=C4)cc1)=C2
REMARK SMILES IDX 27 1 26 2 24 3 25 4 23 5 5 6 6 7 16 8 7 9 15 10 17 11 14 12
REMARK SMILES IDX 95 13 18 14 4 15 3 16 2 17 1 18 8 19 9 20 10 21 11 22 12 23
REMARK SMILES IDX 13 24 19 25 20 26 21 27 22 28 28 29 29 30 30 31 31 32 32 33
REMARK SMILES IDX 33 34 94 35 34 36 93 37 35 38 36 39 37 40 87 41 38 42 92 43
REMARK SMILES IDX 86 44 88 45 39 46 91 47 85 48 84 49 40 51 72 52 52 53 71 54
REMARK SMILES IDX 53 55 56 56 70 57 89 58 54 59 55 60 69 62 90 63 57 64 41 65
REMARK SMILES IDX 42 66 50 67 43 68 49 69 51 70 48 71 44 72 45 73 46 74 47 75
REMARK SMILES IDX 73 76 74 77 82 78 75 79 81 80 83 81 80 82 76 83 77 84 78 85
REMARK SMILES IDX 79 86 58 87 59 88 67 89 60 90 66 91 68 92 65 93 61 94 62 95
REMARK SMILES IDX 63 96 64 97
REMARK H PARENT 88 50 56 61
REMARK Flexibility Score: inf
ROOT
ATOM      1  C   UNL A   1      42.584  21.849  25.927  1.00  0.00     0.275 C 
ENDROOT
BRANCH   1   2
ATOM      2  O   UNL A   1      41.252  21.850  25.432  1.00  0.00    -0.459 OA
BRANCH   2   3
ATOM      3  C   UNL A   1      40.175  21.515  26.294  1.00  0.00     0.338 C 
ATOM      4  O   UNL A   1      40.401  20.911  27.389  1.00  0.00    -0.246 OA
BRANCH   3   5
ATOM      5  C   UNL A   1      38.751  21.880  25.907  1.00  0.00     0.087 C 
ATOM      6  C   UNL A   1      34.757  22.965  25.343  1.00  0.00    -0.004 A 
ATOM      7  C   UNL A   1      33.839  22.021  24.920  1.00  0.00     0.032 A 
ATOM      8  C   UNL A   1      36.052  22.569  25.572  1.00  0.00     0.131 A 
ATOM      9  C   UNL A   1      34.205  20.714  24.736  1.00  0.00     0.108 A 
ATOM     10  C   UNL A   1      36.463  21.262  25.379  1.00  0.00     0.019 A 
ATOM     11  O   UNL A   1      36.924  23.490  26.098  1.00  0.00    -0.475 OA
ATOM     12  C   UNL A   1      35.514  20.338  24.958  1.00  0.00     0.036 A 
ATOM     13  C   UNL A   1      37.845  20.935  25.686  1.00  0.00     0.027 C 
ATOM     14  C   UNL A   1      38.332  23.337  25.766  1.00  0.00     0.316 C 
BRANCH   6  15
ATOM     15  C   UNL A   1      34.341  24.412  25.550  1.00  0.00     0.039 C 
BRANCH  15  16
ATOM     16  C   UNL A   1      34.448  25.164  24.233  1.00  0.00     0.005 C 
BRANCH  16  17
ATOM     17  C   UNL A   1      33.090  25.744  23.870  1.00  0.00    -0.003 C 
ATOM     18  C   UNL A   1      32.470  26.387  25.100  1.00  0.00     0.004 C 
ENDBRANCH  16  17
ENDBRANCH  15  16
ENDBRANCH   6  15
BRANCH   9  19
ATOM     19  S   UNL A   1      32.982  19.489  24.205  1.00  0.00     0.310 S 
ATOM     20  F   UNL A   1      31.838  20.164  25.072  1.00  0.00    -0.094 F 
ATOM     21  F   UNL A   1      33.338  18.624  25.473  1.00  0.00    -0.094 F 
ATOM     22  F   UNL A   1      31.932  18.438  23.747  1.00  0.00    -0.094 F 
ATOM     23  F   UNL A   1      32.542  20.435  23.020  1.00  0.00    -0.094 F 
ATOM     24  F   UNL A   1      33.965  20.617  24.720  1.00  0.00    -0.094 F 
ENDBRANCH   9  19
BRANCH  14  25
ATOM     25  C   UNL A   1      39.162  24.187  26.715  1.00  0.00     0.430 C 
ATOM     26  F   UNL A   1      39.538  23.450  27.756  1.00  0.00    -0.167 F 
ATOM     27  F   UNL A   1      40.239  24.638  26.078  1.00  0.00    -0.167 F 
ATOM     28  F   UNL A   1      38.434  25.215  27.139  1.00  0.00    -0.167 F 
ENDBRANCH  14  25
ENDBRANCH   3   5
ENDBRANCH   2   3
ENDBRANCH   1   2
BRANCH   1  29
ATOM     29  C   UNL A   1      43.523  22.378  24.855  1.00  0.00     0.275 C 
BRANCH  29  30
ATOM     30  O   UNL A   1      43.246  23.750  24.616  1.00  0.00    -0.458 OA
BRANCH  30  31
ATOM     31  C   UNL A   1      44.051  24.752  25.220  1.00  0.00     0.338 C 
ATOM     32  O   UNL A   1      45.221  24.978  24.778  1.00  0.00    -0.246 OA
BRANCH  31  33
ATOM     33  C   UNL A   1      43.513  25.554  26.393  1.00  0.00     0.060 A 
ATOM     34  C   UNL A   1      42.829  24.902  27.405  1.00  0.00     0.016 A 
ATOM     35  C   UNL A   1      43.709  26.867  26.430  1.00  0.00     0.016 A 
ATOM     36  C   UNL A   1      42.132  25.769  28.280  1.00  0.00     0.010 A 
ATOM     37  C   UNL A   1      43.105  27.638  27.394  1.00  0.00     0.010 A 
ATOM     38  C   UNL A   1      42.366  27.064  28.391  1.00  0.00    -0.014 A 
BRANCH  38  39
ATOM     39  C   UNL A   1      41.841  27.874  29.566  1.00  0.00     0.031 A 
ATOM     40  C   UNL A   1      42.566  27.846  30.759  1.00  0.00     0.074 A 
ATOM     41  C   UNL A   1      40.670  28.591  29.388  1.00  0.00     0.049 A 
ATOM     42  N   UNL A   1      42.298  28.503  31.889  1.00  0.00    -0.248 NA
ATOM     43  C   UNL A   1      43.790  27.057  30.962  1.00  0.00     0.031 C 
ATOM     44  C   UNL A   1      39.939  28.631  28.184  1.00  0.00     0.029 A 
ATOM     45  N   UNL A   1      40.013  29.377  30.307  1.00  0.00    -0.354 N 
ATOM     46  C   UNL A   1      43.230  28.240  32.808  1.00  0.00     0.074 A 
ATOM     47  C   UNL A   1      44.200  27.301  32.226  1.00  0.00     0.031 C 
ATOM     48  C   UNL A   1      38.850  29.419  28.380  1.00  0.00     0.029 A 
ATOM     49  C   UNL A   1      38.882  29.886  29.707  1.00  0.00     0.049 A 
ATOM     50  H   UNL A   1      40.300  29.545  31.234  1.00  0.00     0.167 HD
ATOM     51  C   UNL A   1      43.311  28.747  34.105  1.00  0.00     0.034 A 
ATOM     52  C   UNL A   1      37.921  30.711  30.270  1.00  0.00     0.034 A 
ATOM     53  C   UNL A   1      42.373  29.607  34.653  1.00  0.00     0.049 A 
ATOM     54  C   UNL A   1      37.971  31.172  31.588  1.00  0.00     0.074 A 
ATOM     55  C   UNL A   1      42.443  30.134  35.957  1.00  0.00     0.029 A 
ATOM     56  N   UNL A   1      41.229  30.097  34.061  1.00  0.00    -0.354 N 
ATOM     57  N   UNL A   1      38.923  30.941  32.493  1.00  0.00    -0.248 NA
ATOM     58  C   UNL A   1      36.942  32.020  32.205  1.00  0.00     0.031 C 
ATOM     59  C   UNL A   1      41.353  30.923  36.153  1.00  0.00     0.029 A 
ATOM     60  C   UNL A   1      40.583  30.901  34.974  1.00  0.00     0.049 A 
ATOM     61  H   UNL A   1      40.927  29.905  33.144  1.00  0.00     0.167 HD
ATOM     62  C   UNL A   1      38.634  31.565  33.635  1.00  0.00     0.074 A 
ATOM     63  C   UNL A   1      37.351  32.263  33.469  1.00  0.00     0.031 C 
ATOM     64  C   UNL A   1      39.388  31.585  34.810  1.00  0.00     0.034 A 
BRANCH  51  65
ATOM     65  C   UNL A   1      44.494  28.333  34.965  1.00  0.00     0.023 A 
ATOM     66  C   UNL A   1      44.363  27.219  35.779  1.00  0.00     0.031 A 
ATOM     67  C   UNL A   1      45.644  28.992  34.879  1.00  0.00     0.131 A 
ATOM     68  C   UNL A   1      45.429  27.048  36.691  1.00  0.00     0.055 A 
ATOM     69  C   UNL A   1      46.691  28.681  35.712  1.00  0.00     0.041 A 
ATOM     70  F   UNL A   1      45.782  29.961  33.980  1.00  0.00    -0.206 F 
ATOM     71  C   UNL A   1      46.609  27.630  36.583  1.00  0.00     0.022 A 
BRANCH  68  72
ATOM     72  S   UNL A   1      45.158  25.955  38.109  1.00  0.00     0.124 S 
ATOM     73  O   UNL A   1      46.433  25.889  38.952  1.00  0.00    -0.237 OA
ATOM     74  O   UNL A   1      44.011  26.501  38.961  1.00  0.00    -0.237 OA
ATOM     75  O   UNL A   1      44.759  24.388  37.553  1.00  0.00    -0.744 OA
ENDBRANCH  68  72
ENDBRANCH  51  65
BRANCH  52  76
ATOM     76  C   UNL A   1      36.747  31.138  29.405  1.00  0.00     0.023 A 
ATOM     77  C   UNL A   1      35.784  30.206  29.057  1.00  0.00     0.031 A 
ATOM     78  C   UNL A   1      36.697  32.383  28.947  1.00  0.00     0.131 A 
ATOM     79  C   UNL A   1      34.959  30.607  27.980  1.00  0.00     0.055 A 
ATOM     80  C   UNL A   1      35.775  32.741  27.992  1.00  0.00     0.041 A 
ATOM     81  F   UNL A   1      37.545  33.293  29.417  1.00  0.00    -0.206 F 
ATOM     82  C   UNL A   1      34.831  31.853  27.558  1.00  0.00     0.022 A 
BRANCH  79  83
ATOM     83  S   UNL A   1      34.013  29.326  27.119  1.00  0.00     0.124 S 
ATOM     84  O   UNL A   1      34.925  28.133  26.820  1.00  0.00    -0.237 OA
ATOM     85  O   UNL A   1      32.850  28.870  28.004  1.00  0.00    -0.237 OA
ATOM     86  O   UNL A   1      33.402  29.957  25.652  1.00  0.00    -0.744 OA
ENDBRANCH  79  83
ENDBRANCH  52  76
BRANCH  64  87
ATOM     87  C   UNL A   1      38.869  32.405  35.979  1.00  0.00     0.023 A 
ATOM     88  C   UNL A   1      39.215  33.743  36.076  1.00  0.00     0.031 A 
ATOM     89  C   UNL A   1      38.094  31.827  36.888  1.00  0.00     0.131 A 
ATOM     90  C   UNL A   1      38.924  34.320  37.334  1.00  0.00     0.055 A 
ATOM     91  C   UNL A   1      37.737  32.498  38.032  1.00  0.00     0.041 A 
ATOM     92  F   UNL A   1      37.658  30.585  36.689  1.00  0.00    -0.206 F 
ATOM     93  C   UNL A   1      38.093  33.804  38.222  1.00  0.00     0.022 A 
BRANCH  90  94
ATOM     94  S   UNL A   1      39.749  35.875  37.759  1.00  0.00     0.124 S 
ATOM     95  O   UNL A   1      39.816  36.771  36.520  1.00  0.00    -0.237 OA
ATOM     96  O   UNL A   1      38.962  36.586  38.862  1.00  0.00    -0.237 OA
ATOM     97  O   UNL A   1      41.334  35.547  38.310  1.00  0.00    -0.744 OA
ENDBRANCH  90  94
ENDBRANCH  64  87
ENDBRANCH  38  39
ENDBRANCH  31  33
ENDBRANCH  30  31
ENDBRANCH  29  30
ENDBRANCH   1  29
TORSDOF 19
ENDMDL
