MODEL 1
REMARK VINA RESULT:     -11.6      0.000      0.000
REMARK SMILES O=C(N[C@H]1C=C[C@@H](C(=O)OCCOC(=O)c2ccc(-c3c4nc(c(-c5cc(S(=O)(=O)[O-])ccc5F)c5ccc([nH]5)c(-c5cc(S(=O)(=O)[O-])ccc5F)c5nc(c(-c6cc(S(=O)(=O)[O-])ccc6F)c6ccc3[nH]6)C=C5)C=C4)cc2)C1)c1ccc(Br)cc1
REMARK SMILES IDX 12 1 11 2 10 3 8 4 9 5 7 6 4 7 5 8 79 9 6 10 3 11 1 12 2 13
REMARK SMILES IDX 80 15 81 16 86 17 82 18 85 19 83 20 84 21 13 22 14 23 15 24
REMARK SMILES IDX 16 25 17 26 78 27 18 28 77 29 19 30 20 31 21 32 71 33 22 34
REMARK SMILES IDX 76 35 70 36 72 37 23 38 75 39 69 40 68 41 24 43 56 44 36 45
REMARK SMILES IDX 55 46 37 47 40 48 54 49 73 50 38 51 39 52 53 54 74 55 41 56
REMARK SMILES IDX 25 57 26 58 34 59 27 60 33 61 35 62 32 63 28 64 29 65 30 66
REMARK SMILES IDX 31 67 57 68 58 69 66 70 59 71 65 72 67 73 64 74 60 75 61 76
REMARK SMILES IDX 62 77 63 78 42 79 43 80 51 81 44 82 50 83 52 84 49 85 45 86
REMARK SMILES IDX 46 87 47 88 48 89
REMARK H PARENT 3 14 72 42 40 53
REMARK Flexibility Score: inf
ROOT
ATOM      1  C   UNL A   1      37.380  21.182  24.731  1.00  0.00     0.275 C 
ENDROOT
BRANCH   1   2
ATOM      2  C   UNL A   1      37.017  22.267  23.713  1.00  0.00     0.274 C 
BRANCH   2   3
ATOM      3  O   UNL A   1      36.096  23.236  24.250  1.00  0.00    -0.462 OA
BRANCH   3   4
ATOM      4  C   UNL A   1      34.944  23.410  23.551  1.00  0.00     0.312 C 
ATOM      5  O   UNL A   1      34.647  24.444  22.961  1.00  0.00    -0.252 OA
BRANCH   4   6
ATOM      6  C   UNL A   1      33.999  22.213  23.598  1.00  0.00     0.124 C 
ATOM      7  C   UNL A   1      32.007  21.499  24.873  1.00  0.00     0.106 C 
ATOM      8  C   UNL A   1      31.661  22.095  23.541  1.00  0.00    -0.006 C 
ATOM      9  C   UNL A   1      33.524  21.711  24.973  1.00  0.00     0.048 C 
ATOM     10  C   UNL A   1      32.733  22.509  22.862  1.00  0.00    -0.014 C 
BRANCH   7  11
ATOM     11  N   UNL A   1      31.062  22.081  25.812  1.00  0.00    -0.346 N 
ATOM     12  O   UNL A   1      30.350  23.285  27.561  1.00  0.00    -0.269 OA
ATOM     13  C   UNL A   1      30.971  23.257  26.498  1.00  0.00     0.251 C 
ATOM     14  H   UNL A   1      30.304  21.480  26.000  1.00  0.00     0.164 HD
BRANCH  13  15
ATOM     15  C   UNL A   1      31.508  24.518  25.977  1.00  0.00     0.039 A 
ATOM     16  C   UNL A   1      32.824  24.886  26.267  1.00  0.00     0.015 A 
ATOM     17  C   UNL A   1      30.749  25.261  25.067  1.00  0.00     0.015 A 
ATOM     18  C   UNL A   1      33.347  26.059  25.724  1.00  0.00     0.016 A 
ATOM     19  C   UNL A   1      31.278  26.430  24.517  1.00  0.00     0.016 A 
ATOM     20  C   UNL A   1      32.568  26.834  24.864  1.00  0.00     0.018 A 
ATOM     21  Br  UNL A   1      33.274  28.440  24.161  1.00  0.00    -0.051 Br
ENDBRANCH  13  15
ENDBRANCH   7  11
ENDBRANCH   4   6
ENDBRANCH   3   4
ENDBRANCH   2   3
ENDBRANCH   1   2
BRANCH   1  22
ATOM     22  O   UNL A   1      37.796  21.732  25.989  1.00  0.00    -0.458 OA
BRANCH  22  23
ATOM     23  C   UNL A   1      39.109  21.562  26.277  1.00  0.00     0.338 C 
ATOM     24  O   UNL A   1      39.786  20.565  26.108  1.00  0.00    -0.246 OA
BRANCH  23  25
ATOM     25  C   UNL A   1      39.660  22.838  26.741  1.00  0.00     0.060 A 
ATOM     26  C   UNL A   1      40.693  22.810  27.678  1.00  0.00     0.016 A 
ATOM     27  C   UNL A   1      39.130  24.045  26.288  1.00  0.00     0.016 A 
ATOM     28  C   UNL A   1      41.223  24.001  28.159  1.00  0.00     0.010 A 
ATOM     29  C   UNL A   1      39.673  25.242  26.760  1.00  0.00     0.010 A 
ATOM     30  C   UNL A   1      40.727  25.224  27.689  1.00  0.00    -0.014 A 
BRANCH  30  31
ATOM     31  C   UNL A   1      41.356  26.487  28.132  1.00  0.00     0.031 A 
ATOM     32  C   UNL A   1      40.539  27.532  28.830  1.00  0.00     0.074 A 
ATOM     33  C   UNL A   1      42.663  26.679  27.871  1.00  0.00     0.049 A 
ATOM     34  N   UNL A   1      40.885  28.735  29.201  1.00  0.00    -0.248 NA
ATOM     35  C   UNL A   1      39.146  27.178  29.146  1.00  0.00     0.031 C 
ATOM     36  C   UNL A   1      43.538  25.705  27.212  1.00  0.00     0.029 A 
ATOM     37  N   UNL A   1      43.480  27.752  28.109  1.00  0.00    -0.354 N 
ATOM     38  C   UNL A   1      39.748  29.299  29.770  1.00  0.00     0.074 A 
ATOM     39  C   UNL A   1      38.700  28.302  29.690  1.00  0.00     0.031 C 
ATOM     40  C   UNL A   1      44.766  26.232  27.087  1.00  0.00     0.029 A 
ATOM     41  C   UNL A   1      44.752  27.594  27.606  1.00  0.00     0.049 A 
ATOM     42  H   UNL A   1      43.187  28.558  28.593  1.00  0.00     0.167 HD
ATOM     43  C   UNL A   1      39.603  30.538  30.299  1.00  0.00     0.034 A 
ATOM     44  C   UNL A   1      45.775  28.468  27.535  1.00  0.00     0.034 A 
ATOM     45  C   UNL A   1      40.673  31.505  30.365  1.00  0.00     0.049 A 
ATOM     46  C   UNL A   1      45.576  29.846  28.109  1.00  0.00     0.074 A 
ATOM     47  C   UNL A   1      40.654  32.776  30.914  1.00  0.00     0.029 A 
ATOM     48  N   UNL A   1      41.951  31.313  29.854  1.00  0.00    -0.354 N 
ATOM     49  N   UNL A   1      44.502  30.357  28.670  1.00  0.00    -0.248 NA
ATOM     50  C   UNL A   1      46.720  30.760  28.052  1.00  0.00     0.031 C 
ATOM     51  C   UNL A   1      41.898  33.374  30.677  1.00  0.00     0.029 A 
ATOM     52  C   UNL A   1      42.718  32.452  30.044  1.00  0.00     0.049 A 
ATOM     53  H   UNL A   1      42.266  30.488  29.420  1.00  0.00     0.167 HD
ATOM     54  C   UNL A   1      44.851  31.648  29.047  1.00  0.00     0.074 A 
ATOM     55  C   UNL A   1      46.240  31.827  28.673  1.00  0.00     0.031 C 
ATOM     56  C   UNL A   1      44.097  32.604  29.648  1.00  0.00     0.034 A 
BRANCH  43  57
ATOM     57  C   UNL A   1      38.232  30.938  30.784  1.00  0.00     0.023 A 
ATOM     58  C   UNL A   1      37.292  31.557  29.942  1.00  0.00     0.031 A 
ATOM     59  C   UNL A   1      37.865  30.696  32.120  1.00  0.00     0.131 A 
ATOM     60  C   UNL A   1      36.047  31.954  30.459  1.00  0.00     0.055 A 
ATOM     61  C   UNL A   1      36.602  31.037  32.611  1.00  0.00     0.041 A 
ATOM     62  F   UNL A   1      38.731  30.129  32.974  1.00  0.00    -0.206 F 
ATOM     63  C   UNL A   1      35.689  31.678  31.781  1.00  0.00     0.022 A 
BRANCH  60  64
ATOM     64  S   UNL A   1      34.935  32.926  29.405  1.00  0.00     0.124 S 
ATOM     65  O   UNL A   1      34.053  33.540  30.395  1.00  0.00    -0.237 OA
ATOM     66  O   UNL A   1      35.854  33.829  28.723  1.00  0.00    -0.237 OA
ATOM     67  O   UNL A   1      34.302  31.921  28.554  1.00  0.00    -0.744 OA
ENDBRANCH  60  64
ENDBRANCH  43  57
BRANCH  44  68
ATOM     68  C   UNL A   1      47.045  28.091  26.850  1.00  0.00     0.023 A 
ATOM     69  C   UNL A   1      47.145  28.087  25.450  1.00  0.00     0.031 A 
ATOM     70  C   UNL A   1      48.172  27.690  27.591  1.00  0.00     0.131 A 
ATOM     71  C   UNL A   1      48.327  27.646  24.835  1.00  0.00     0.055 A 
ATOM     72  C   UNL A   1      49.364  27.305  26.975  1.00  0.00     0.041 A 
ATOM     73  F   UNL A   1      48.133  27.676  28.933  1.00  0.00    -0.206 F 
ATOM     74  C   UNL A   1      49.441  27.267  25.587  1.00  0.00     0.022 A 
BRANCH  71  75
ATOM     75  S   UNL A   1      48.355  27.479  23.029  1.00  0.00     0.124 S 
ATOM     76  O   UNL A   1      48.293  26.031  22.861  1.00  0.00    -0.237 OA
ATOM     77  O   UNL A   1      47.162  28.222  22.638  1.00  0.00    -0.237 OA
ATOM     78  O   UNL A   1      49.625  28.096  22.650  1.00  0.00    -0.744 OA
ENDBRANCH  71  75
ENDBRANCH  44  68
BRANCH  56  79
ATOM     79  C   UNL A   1      44.788  33.906  29.961  1.00  0.00     0.023 A 
ATOM     80  C   UNL A   1      44.780  34.978  29.052  1.00  0.00     0.031 A 
ATOM     81  C   UNL A   1      45.484  34.063  31.171  1.00  0.00     0.131 A 
ATOM     82  C   UNL A   1      45.505  36.142  29.343  1.00  0.00     0.055 A 
ATOM     83  C   UNL A   1      46.156  35.246  31.480  1.00  0.00     0.041 A 
ATOM     84  F   UNL A   1      45.523  33.067  32.072  1.00  0.00    -0.206 F 
ATOM     85  C   UNL A   1      46.181  36.288  30.558  1.00  0.00     0.022 A 
BRANCH  82  86
ATOM     86  S   UNL A   1      45.627  37.429  28.073  1.00  0.00     0.124 S 
ATOM     87  O   UNL A   1      46.948  37.990  28.335  1.00  0.00    -0.237 OA
ATOM     88  O   UNL A   1      45.494  36.664  26.837  1.00  0.00    -0.237 OA
ATOM     89  O   UNL A   1      44.505  38.316  28.374  1.00  0.00    -0.744 OA
ENDBRANCH  82  86
ENDBRANCH  56  79
ENDBRANCH  30  31
ENDBRANCH  23  25
ENDBRANCH  22  23
ENDBRANCH   1  22
TORSDOF 16
ENDMDL
MODEL 2
REMARK VINA RESULT:     -11.4      5.721      9.975
REMARK SMILES O=C(N[C@H]1C=C[C@@H](C(=O)OCCOC(=O)c2ccc(-c3c4nc(c(-c5cc(S(=O)(=O)[O-])ccc5F)c5ccc([nH]5)c(-c5cc(S(=O)(=O)[O-])ccc5F)c5nc(c(-c6cc(S(=O)(=O)[O-])ccc6F)c6ccc3[nH]6)C=C5)C=C4)cc2)C1)c1ccc(Br)cc1
REMARK SMILES IDX 12 1 11 2 10 3 8 4 9 5 7 6 4 7 5 8 79 9 6 10 3 11 1 12 2 13
REMARK SMILES IDX 80 15 81 16 86 17 82 18 85 19 83 20 84 21 13 22 14 23 15 24
REMARK SMILES IDX 16 25 17 26 78 27 18 28 77 29 19 30 20 31 21 32 71 33 22 34
REMARK SMILES IDX 76 35 70 36 72 37 23 38 75 39 69 40 68 41 24 43 56 44 36 45
REMARK SMILES IDX 55 46 37 47 40 48 54 49 73 50 38 51 39 52 53 54 74 55 41 56
REMARK SMILES IDX 25 57 26 58 34 59 27 60 33 61 35 62 32 63 28 64 29 65 30 66
REMARK SMILES IDX 31 67 57 68 58 69 66 70 59 71 65 72 67 73 64 74 60 75 61 76
REMARK SMILES IDX 62 77 63 78 42 79 43 80 51 81 44 82 50 83 52 84 49 85 45 86
REMARK SMILES IDX 46 87 47 88 48 89
REMARK H PARENT 3 14 72 42 40 53
REMARK Flexibility Score: inf
ROOT
ATOM      1  C   UNL A   1      32.780  36.077  29.023  1.00  0.00     0.275 C 
ENDROOT
BRANCH   1   2
ATOM      2  C   UNL A   1      33.272  37.075  30.076  1.00  0.00     0.274 C 
BRANCH   2   3
ATOM      3  O   UNL A   1      32.578  36.932  31.331  1.00  0.00    -0.462 OA
BRANCH   3   4
ATOM      4  C   UNL A   1      33.347  36.586  32.397  1.00  0.00     0.312 C 
ATOM      5  O   UNL A   1      33.417  37.237  33.435  1.00  0.00    -0.252 OA
BRANCH   4   6
ATOM      6  C   UNL A   1      34.178  35.325  32.183  1.00  0.00     0.124 C 
ATOM      7  C   UNL A   1      35.873  34.016  33.413  1.00  0.00     0.106 C 
ATOM      8  C   UNL A   1      34.493  33.441  33.537  1.00  0.00    -0.006 C 
ATOM      9  C   UNL A   1      35.644  35.328  32.650  1.00  0.00     0.048 C 
ATOM     10  C   UNL A   1      33.570  34.163  32.898  1.00  0.00    -0.014 C 
BRANCH   7  11
ATOM     11  N   UNL A   1      36.433  33.965  34.754  1.00  0.00    -0.346 N 
ATOM     12  O   UNL A   1      37.015  33.080  36.726  1.00  0.00    -0.269 OA
ATOM     13  C   UNL A   1      37.092  33.030  35.498  1.00  0.00     0.251 C 
ATOM     14  H   UNL A   1      36.305  34.810  35.244  1.00  0.00     0.164 HD
BRANCH  13  15
ATOM     15  C   UNL A   1      37.964  32.016  34.900  1.00  0.00     0.039 A 
ATOM     16  C   UNL A   1      39.254  31.825  35.401  1.00  0.00     0.015 A 
ATOM     17  C   UNL A   1      37.441  31.144  33.940  1.00  0.00     0.015 A 
ATOM     18  C   UNL A   1      40.060  30.822  34.864  1.00  0.00     0.016 A 
ATOM     19  C   UNL A   1      38.247  30.134  33.411  1.00  0.00     0.016 A 
ATOM     20  C   UNL A   1      39.559  29.990  33.861  1.00  0.00     0.018 A 
ATOM     21  Br  UNL A   1      40.671  28.655  33.116  1.00  0.00    -0.051 Br
ENDBRANCH  13  15
ENDBRANCH   7  11
ENDBRANCH   4   6
ENDBRANCH   3   4
ENDBRANCH   2   3
ENDBRANCH   1   2
BRANCH   1  22
ATOM     22  O   UNL A   1      33.859  35.362  28.405  1.00  0.00    -0.458 OA
BRANCH  22  23
ATOM     23  C   UNL A   1      33.731  34.013  28.423  1.00  0.00     0.338 C 
ATOM     24  O   UNL A   1      32.779  33.350  28.055  1.00  0.00    -0.246 OA
BRANCH  23  25
ATOM     25  C   UNL A   1      34.997  33.423  28.866  1.00  0.00     0.060 A 
ATOM     26  C   UNL A   1      36.169  33.813  28.217  1.00  0.00     0.016 A 
ATOM     27  C   UNL A   1      35.018  32.465  29.878  1.00  0.00     0.016 A 
ATOM     28  C   UNL A   1      37.386  33.257  28.593  1.00  0.00     0.010 A 
ATOM     29  C   UNL A   1      36.242  31.918  30.267  1.00  0.00     0.010 A 
ATOM     30  C   UNL A   1      37.431  32.318  29.632  1.00  0.00    -0.014 A 
BRANCH  30  31
ATOM     31  C   UNL A   1      38.737  31.799  30.092  1.00  0.00     0.031 A 
ATOM     32  C   UNL A   1      39.532  32.555  31.114  1.00  0.00     0.074 A 
ATOM     33  C   UNL A   1      39.197  30.653  29.554  1.00  0.00     0.049 A 
ATOM     34  N   UNL A   1      40.734  32.315  31.563  1.00  0.00    -0.248 NA
ATOM     35  C   UNL A   1      38.892  33.743  31.700  1.00  0.00     0.031 C 
ATOM     36  C   UNL A   1      38.477  29.843  28.567  1.00  0.00     0.029 A 
ATOM     37  N   UNL A   1      40.374  29.979  29.743  1.00  0.00    -0.354 N 
ATOM     38  C   UNL A   1      41.013  33.333  32.467  1.00  0.00     0.074 A 
ATOM     39  C   UNL A   1      39.851  34.198  32.496  1.00  0.00     0.031 C 
ATOM     40  C   UNL A   1      39.236  28.789  28.228  1.00  0.00     0.029 A 
ATOM     41  C   UNL A   1      40.511  28.877  28.931  1.00  0.00     0.049 A 
ATOM     42  H   UNL A   1      41.056  30.255  30.397  1.00  0.00     0.167 HD
ATOM     43  C   UNL A   1      42.141  33.524  33.193  1.00  0.00     0.034 A 
ATOM     44  C   UNL A   1      41.563  28.057  28.744  1.00  0.00     0.034 A 
ATOM     45  C   UNL A   1      43.280  32.639  33.140  1.00  0.00     0.049 A 
ATOM     46  C   UNL A   1      42.812  28.309  29.547  1.00  0.00     0.074 A 
ATOM     47  C   UNL A   1      44.461  32.709  33.859  1.00  0.00     0.029 A 
ATOM     48  N   UNL A   1      43.385  31.527  32.313  1.00  0.00    -0.354 N 
ATOM     49  N   UNL A   1      43.052  29.263  30.420  1.00  0.00    -0.248 NA
ATOM     50  C   UNL A   1      43.926  27.376  29.350  1.00  0.00     0.031 C 
ATOM     51  C   UNL A   1      45.303  31.680  33.420  1.00  0.00     0.029 A 
ATOM     52  C   UNL A   1      44.622  30.924  32.478  1.00  0.00     0.049 A 
ATOM     53  H   UNL A   1      42.683  31.214  31.698  1.00  0.00     0.167 HD
ATOM     54  C   UNL A   1      44.340  29.031  30.887  1.00  0.00     0.074 A 
ATOM     55  C   UNL A   1      44.815  27.835  30.219  1.00  0.00     0.031 C 
ATOM     56  C   UNL A   1      45.070  29.739  31.788  1.00  0.00     0.034 A 
BRANCH  43  57
ATOM     57  C   UNL A   1      42.224  34.764  34.048  1.00  0.00     0.023 A 
ATOM     58  C   UNL A   1      41.752  34.793  35.372  1.00  0.00     0.031 A 
ATOM     59  C   UNL A   1      42.785  35.941  33.521  1.00  0.00     0.131 A 
ATOM     60  C   UNL A   1      41.809  35.989  36.107  1.00  0.00     0.055 A 
ATOM     61  C   UNL A   1      42.897  37.109  34.279  1.00  0.00     0.041 A 
ATOM     62  F   UNL A   1      43.232  35.977  32.255  1.00  0.00    -0.206 F 
ATOM     63  C   UNL A   1      42.398  37.139  35.576  1.00  0.00     0.022 A 
BRANCH  60  64
ATOM     64  S   UNL A   1      41.013  36.050  37.737  1.00  0.00     0.124 S 
ATOM     65  O   UNL A   1      41.831  37.044  38.427  1.00  0.00    -0.237 OA
ATOM     66  O   UNL A   1      39.653  36.458  37.409  1.00  0.00    -0.237 OA
ATOM     67  O   UNL A   1      41.150  34.684  38.238  1.00  0.00    -0.744 OA
ENDBRANCH  60  64
ENDBRANCH  43  57
BRANCH  44  68
ATOM     68  C   UNL A   1      41.505  26.970  27.725  1.00  0.00     0.023 A 
ATOM     69  C   UNL A   1      41.394  25.623  28.100  1.00  0.00     0.031 A 
ATOM     70  C   UNL A   1      41.600  27.265  26.352  1.00  0.00     0.131 A 
ATOM     71  C   UNL A   1      41.426  24.619  27.120  1.00  0.00     0.055 A 
ATOM     72  C   UNL A   1      41.576  26.266  25.377  1.00  0.00     0.041 A 
ATOM     73  F   UNL A   1      41.707  28.537  25.935  1.00  0.00    -0.206 F 
ATOM     74  C   UNL A   1      41.505  24.931  25.761  1.00  0.00     0.022 A 
BRANCH  71  75
ATOM     75  S   UNL A   1      41.467  22.885  27.653  1.00  0.00     0.124 S 
ATOM     76  O   UNL A   1      40.052  22.531  27.627  1.00  0.00    -0.237 OA
ATOM     77  O   UNL A   1      42.301  22.273  26.625  1.00  0.00    -0.237 OA
ATOM     78  O   UNL A   1      42.067  22.953  28.984  1.00  0.00    -0.744 OA
ENDBRANCH  71  75
ENDBRANCH  44  68
BRANCH  56  79
ATOM     79  C   UNL A   1      46.439  29.201  32.113  1.00  0.00     0.023 A 
ATOM     80  C   UNL A   1      47.560  29.524  31.330  1.00  0.00     0.031 A 
ATOM     81  C   UNL A   1      46.616  28.332  33.204  1.00  0.00     0.131 A 
ATOM     82  C   UNL A   1      48.801  28.937  31.614  1.00  0.00     0.055 A 
ATOM     83  C   UNL A   1      47.865  27.796  33.516  1.00  0.00     0.041 A 
ATOM     84  F   UNL A   1      45.576  27.991  33.981  1.00  0.00    -0.206 F 
ATOM     85  C   UNL A   1      48.963  28.086  32.712  1.00  0.00     0.022 A 
BRANCH  82  86
ATOM     86  S   UNL A   1      50.182  29.228  30.477  1.00  0.00     0.124 S 
ATOM     87  O   UNL A   1      50.707  27.881  30.286  1.00  0.00    -0.237 OA
ATOM     88  O   UNL A   1      49.516  29.823  29.322  1.00  0.00    -0.237 OA
ATOM     89  O   UNL A   1      51.054  30.135  31.222  1.00  0.00    -0.744 OA
ENDBRANCH  82  86
ENDBRANCH  56  79
ENDBRANCH  30  31
ENDBRANCH  23  25
ENDBRANCH  22  23
ENDBRANCH   1  22
TORSDOF 16
ENDMDL
MODEL 3
REMARK VINA RESULT:     -11.4      1.468      7.896
REMARK SMILES O=C(N[C@H]1C=C[C@@H](C(=O)OCCOC(=O)c2ccc(-c3c4nc(c(-c5cc(S(=O)(=O)[O-])ccc5F)c5ccc([nH]5)c(-c5cc(S(=O)(=O)[O-])ccc5F)c5nc(c(-c6cc(S(=O)(=O)[O-])ccc6F)c6ccc3[nH]6)C=C5)C=C4)cc2)C1)c1ccc(Br)cc1
REMARK SMILES IDX 12 1 11 2 10 3 8 4 9 5 7 6 4 7 5 8 79 9 6 10 3 11 1 12 2 13
REMARK SMILES IDX 80 15 81 16 86 17 82 18 85 19 83 20 84 21 13 22 14 23 15 24
REMARK SMILES IDX 16 25 17 26 78 27 18 28 77 29 19 30 20 31 21 32 71 33 22 34
REMARK SMILES IDX 76 35 70 36 72 37 23 38 75 39 69 40 68 41 24 43 56 44 36 45
REMARK SMILES IDX 55 46 37 47 40 48 54 49 73 50 38 51 39 52 53 54 74 55 41 56
REMARK SMILES IDX 25 57 26 58 34 59 27 60 33 61 35 62 32 63 28 64 29 65 30 66
REMARK SMILES IDX 31 67 57 68 58 69 66 70 59 71 65 72 67 73 64 74 60 75 61 76
REMARK SMILES IDX 62 77 63 78 42 79 43 80 51 81 44 82 50 83 52 84 49 85 45 86
REMARK SMILES IDX 46 87 47 88 48 89
REMARK H PARENT 3 14 72 42 40 53
REMARK Flexibility Score: inf
ROOT
ATOM      1  C   UNL A   1      37.057  21.252  24.458  1.00  0.00     0.275 C 
ENDROOT
BRANCH   1   2
ATOM      2  C   UNL A   1      36.537  22.478  23.701  1.00  0.00     0.274 C 
BRANCH   2   3
ATOM      3  O   UNL A   1      35.182  22.809  24.061  1.00  0.00    -0.462 OA
BRANCH   3   4
ATOM      4  C   UNL A   1      34.517  23.612  23.190  1.00  0.00     0.312 C 
ATOM      5  O   UNL A   1      34.386  23.371  21.993  1.00  0.00    -0.252 OA
BRANCH   4   6
ATOM      6  C   UNL A   1      33.975  24.895  23.813  1.00  0.00     0.124 C 
ATOM      7  C   UNL A   1      32.323  25.543  25.532  1.00  0.00     0.106 C 
ATOM      8  C   UNL A   1      33.730  25.534  26.053  1.00  0.00    -0.006 C 
ATOM      9  C   UNL A   1      32.468  24.983  24.109  1.00  0.00     0.048 C 
ATOM     10  C   UNL A   1      34.621  25.155  25.134  1.00  0.00    -0.014 C 
BRANCH   7  11
ATOM     11  N   UNL A   1      31.528  24.894  26.562  1.00  0.00    -0.346 N 
ATOM     12  O   UNL A   1      30.042  23.472  27.446  1.00  0.00    -0.269 OA
ATOM     13  C   UNL A   1      31.067  23.629  26.782  1.00  0.00     0.251 C 
ATOM     14  H   UNL A   1      31.255  25.520  27.272  1.00  0.00     0.164 HD
BRANCH  13  15
ATOM     15  C   UNL A   1      31.792  22.436  26.336  1.00  0.00     0.039 A 
ATOM     16  C   UNL A   1      31.411  21.791  25.156  1.00  0.00     0.015 A 
ATOM     17  C   UNL A   1      32.955  22.049  27.010  1.00  0.00     0.015 A 
ATOM     18  C   UNL A   1      32.138  20.689  24.708  1.00  0.00     0.016 A 
ATOM     19  C   UNL A   1      33.687  20.952  26.553  1.00  0.00     0.016 A 
ATOM     20  C   UNL A   1      33.263  20.264  25.415  1.00  0.00     0.018 A 
ATOM     21  Br  UNL A   1      34.222  18.749  24.817  1.00  0.00    -0.051 Br
ENDBRANCH  13  15
ENDBRANCH   7  11
ENDBRANCH   4   6
ENDBRANCH   3   4
ENDBRANCH   2   3
ENDBRANCH   1   2
BRANCH   1  22
ATOM     22  O   UNL A   1      37.421  21.561  25.811  1.00  0.00    -0.458 OA
BRANCH  22  23
ATOM     23  C   UNL A   1      38.732  21.381  26.102  1.00  0.00     0.338 C 
ATOM     24  O   UNL A   1      39.384  20.358  26.001  1.00  0.00    -0.246 OA
BRANCH  23  25
ATOM     25  C   UNL A   1      39.316  22.674  26.467  1.00  0.00     0.060 A 
ATOM     26  C   UNL A   1      40.488  22.679  27.224  1.00  0.00     0.016 A 
ATOM     27  C   UNL A   1      38.688  23.864  26.104  1.00  0.00     0.016 A 
ATOM     28  C   UNL A   1      41.058  23.887  27.609  1.00  0.00     0.010 A 
ATOM     29  C   UNL A   1      39.267  25.077  26.478  1.00  0.00     0.010 A 
ATOM     30  C   UNL A   1      40.459  25.094  27.223  1.00  0.00    -0.014 A 
BRANCH  30  31
ATOM     31  C   UNL A   1      41.117  26.375  27.555  1.00  0.00     0.031 A 
ATOM     32  C   UNL A   1      42.523  26.640  27.108  1.00  0.00     0.074 A 
ATOM     33  C   UNL A   1      40.433  27.277  28.285  1.00  0.00     0.049 A 
ATOM     34  N   UNL A   1      43.299  27.652  27.386  1.00  0.00    -0.248 NA
ATOM     35  C   UNL A   1      43.141  25.625  26.239  1.00  0.00     0.031 C 
ATOM     36  C   UNL A   1      39.052  27.108  28.747  1.00  0.00     0.029 A 
ATOM     37  N   UNL A   1      40.802  28.501  28.780  1.00  0.00    -0.354 N 
ATOM     38  C   UNL A   1      44.508  27.391  26.751  1.00  0.00     0.074 A 
ATOM     39  C   UNL A   1      44.361  26.117  26.077  1.00  0.00     0.031 C 
ATOM     40  C   UNL A   1      38.697  28.183  29.468  1.00  0.00     0.029 A 
ATOM     41  C   UNL A   1      39.836  29.088  29.564  1.00  0.00     0.049 A 
ATOM     42  H   UNL A   1      41.673  28.919  28.592  1.00  0.00     0.167 HD
ATOM     43  C   UNL A   1      45.632  28.147  26.746  1.00  0.00     0.034 A 
ATOM     44  C   UNL A   1      39.882  30.208  30.311  1.00  0.00     0.034 A 
ATOM     45  C   UNL A   1      45.741  29.415  27.428  1.00  0.00     0.049 A 
ATOM     46  C   UNL A   1      41.154  31.015  30.305  1.00  0.00     0.074 A 
ATOM     47  C   UNL A   1      46.816  30.288  27.461  1.00  0.00     0.029 A 
ATOM     48  N   UNL A   1      44.743  29.987  28.208  1.00  0.00    -0.354 N 
ATOM     49  N   UNL A   1      42.282  30.769  29.677  1.00  0.00    -0.248 NA
ATOM     50  C   UNL A   1      41.160  32.250  31.096  1.00  0.00     0.031 C 
ATOM     51  C   UNL A   1      46.490  31.352  28.311  1.00  0.00     0.029 A 
ATOM     52  C   UNL A   1      45.187  31.181  28.753  1.00  0.00     0.049 A 
ATOM     53  H   UNL A   1      43.850  29.599  28.353  1.00  0.00     0.167 HD
ATOM     54  C   UNL A   1      43.125  31.830  29.986  1.00  0.00     0.074 A 
ATOM     55  C   UNL A   1      42.366  32.728  30.834  1.00  0.00     0.031 C 
ATOM     56  C   UNL A   1      44.410  32.048  29.606  1.00  0.00     0.034 A 
BRANCH  43  57
ATOM     57  C   UNL A   1      46.846  27.596  26.041  1.00  0.00     0.023 A 
ATOM     58  C   UNL A   1      47.153  27.926  24.709  1.00  0.00     0.031 A 
ATOM     59  C   UNL A   1      47.710  26.717  26.719  1.00  0.00     0.131 A 
ATOM     60  C   UNL A   1      48.269  27.345  24.085  1.00  0.00     0.055 A 
ATOM     61  C   UNL A   1      48.853  26.192  26.113  1.00  0.00     0.041 A 
ATOM     62  F   UNL A   1      47.453  26.350  27.984  1.00  0.00    -0.206 F 
ATOM     63  C   UNL A   1      49.132  26.498  24.785  1.00  0.00     0.022 A 
BRANCH  60  64
ATOM     64  S   UNL A   1      48.526  27.633  22.312  1.00  0.00     0.124 S 
ATOM     65  O   UNL A   1      49.785  28.375  22.314  1.00  0.00    -0.237 OA
ATOM     66  O   UNL A   1      48.584  26.278  21.777  1.00  0.00    -0.237 OA
ATOM     67  O   UNL A   1      47.354  28.410  21.916  1.00  0.00    -0.744 OA
ENDBRANCH  60  64
ENDBRANCH  43  57
BRANCH  44  68
ATOM     68  C   UNL A   1      38.723  30.598  31.163  1.00  0.00     0.023 A 
ATOM     69  C   UNL A   1      37.610  31.261  30.624  1.00  0.00     0.031 A 
ATOM     70  C   UNL A   1      38.730  30.345  32.548  1.00  0.00     0.131 A 
ATOM     71  C   UNL A   1      36.574  31.689  31.467  1.00  0.00     0.055 A 
ATOM     72  C   UNL A   1      37.671  30.723  33.375  1.00  0.00     0.041 A 
ATOM     73  F   UNL A   1      39.768  29.712  33.118  1.00  0.00    -0.206 F 
ATOM     74  C   UNL A   1      36.590  31.415  32.836  1.00  0.00     0.022 A 
BRANCH  71  75
ATOM     75  S   UNL A   1      35.244  32.703  30.764  1.00  0.00     0.124 S 
ATOM     76  O   UNL A   1      34.242  32.660  31.823  1.00  0.00    -0.237 OA
ATOM     77  O   UNL A   1      35.914  33.985  30.568  1.00  0.00    -0.237 OA
ATOM     78  O   UNL A   1      34.887  31.993  29.538  1.00  0.00    -0.744 OA
ENDBRANCH  71  75
ENDBRANCH  44  68
BRANCH  56  79
ATOM     79  C   UNL A   1      45.045  33.328  30.086  1.00  0.00     0.023 A 
ATOM     80  C   UNL A   1      44.968  34.512  29.335  1.00  0.00     0.031 A 
ATOM     81  C   UNL A   1      45.758  33.351  31.297  1.00  0.00     0.131 A 
ATOM     82  C   UNL A   1      45.642  35.661  29.773  1.00  0.00     0.055 A 
ATOM     83  C   UNL A   1      46.379  34.512  31.757  1.00  0.00     0.041 A 
ATOM     84  F   UNL A   1      45.862  32.245  32.051  1.00  0.00    -0.206 F 
ATOM     85  C   UNL A   1      46.335  35.671  30.988  1.00  0.00     0.022 A 
BRANCH  82  86
ATOM     86  S   UNL A   1      45.678  37.114  28.692  1.00  0.00     0.124 S 
ATOM     87  O   UNL A   1      45.999  38.184  29.631  1.00  0.00    -0.237 OA
ATOM     88  O   UNL A   1      46.726  36.769  27.737  1.00  0.00    -0.237 OA
ATOM     89  O   UNL A   1      44.327  37.161  28.136  1.00  0.00    -0.744 OA
ENDBRANCH  82  86
ENDBRANCH  56  79
ENDBRANCH  30  31
ENDBRANCH  23  25
ENDBRANCH  22  23
ENDBRANCH   1  22
TORSDOF 16
ENDMDL
