MODEL 1
REMARK VINA RESULT:     -13.5      0.000      0.000
REMARK SMILES C[C@@H]1C(C(=O)OCCOC(=O)c2ccc(-c3c4nc(c(-c5cc(S(=O)(=O)[O-])ccc5F)c5ccc([nH]5)c(-c5cc(S(=O)(=O)[O-])ccc5F)c5nc(c(-c6cc(S(=O)(=O)[O-])ccc6F)c6ccc3[nH]6)C=C5)C=C4)cc2)=NC2=C1C(=O)C[C@H](c1ccccc1)C2
REMARK SMILES IDX 8 1 7 2 6 3 4 4 5 5 3 6 1 7 2 8 77 9 75 10 76 11 78 12 88 13
REMARK SMILES IDX 79 14 80 15 81 16 82 17 83 18 87 19 84 20 86 21 85 22 9 23
REMARK SMILES IDX 10 24 11 25 12 26 13 27 74 28 14 29 73 30 15 31 16 32 17 33
REMARK SMILES IDX 67 34 18 35 72 36 66 37 68 38 19 39 71 40 65 41 64 42 20 44
REMARK SMILES IDX 52 45 32 46 51 47 33 48 36 49 50 50 69 51 34 52 35 53 49 55
REMARK SMILES IDX 70 56 37 57 21 58 22 59 30 60 23 61 29 62 31 63 28 64 24 65
REMARK SMILES IDX 25 66 26 67 27 68 53 69 54 70 62 71 55 72 61 73 63 74 60 75
REMARK SMILES IDX 56 76 57 77 58 78 59 79 38 80 39 81 47 82 40 83 46 84 48 85
REMARK SMILES IDX 45 86 41 87 42 88 43 89 44 90
REMARK H PARENT 68 43 36 54
REMARK Flexibility Score: inf
ROOT
ATOM      1  C   UNL A   1      33.925  22.008  26.283  1.00  0.00     0.275 C 
ENDROOT
BRANCH   1   2
ATOM      2  C   UNL A   1      33.741  23.291  27.071  1.00  0.00     0.275 C 
BRANCH   2   3
ATOM      3  O   UNL A   1      33.250  24.331  26.205  1.00  0.00    -0.458 OA
BRANCH   3   4
ATOM      4  C   UNL A   1      31.916  24.588  26.252  1.00  0.00     0.353 C 
ATOM      5  O   UNL A   1      31.223  24.708  27.243  1.00  0.00    -0.245 OA
BRANCH   4   6
ATOM      6  C   UNL A   1      31.437  24.861  24.828  1.00  0.00     0.133 C 
ATOM      7  C   UNL A   1      31.421  22.926  23.326  1.00  0.00     0.020 C 
ATOM      8  C   UNL A   1      32.157  24.214  23.672  1.00  0.00     0.078 C 
ATOM      9  C   UNL A   1      31.836  25.333  22.754  1.00  0.00     0.026 C 
ATOM     10  N   UNL A   1      30.477  25.696  24.508  1.00  0.00    -0.249 NA
ATOM     11  C   UNL A   1      30.805  26.049  23.212  1.00  0.00     0.049 C 
ATOM     12  C   UNL A   1      32.811  25.983  21.868  1.00  0.00     0.161 C 
ATOM     13  C   UNL A   1      30.528  27.420  22.660  1.00  0.00     0.065 C 
ATOM     14  O   UNL A   1      33.519  25.284  21.146  1.00  0.00    -0.294 OA
ATOM     15  C   UNL A   1      32.941  27.508  21.923  1.00  0.00     0.089 C 
ATOM     16  C   UNL A   1      31.830  28.247  22.721  1.00  0.00     0.033 C 
BRANCH  16  17
ATOM     17  C   UNL A   1      32.205  28.603  24.169  1.00  0.00    -0.044 A 
ATOM     18  C   UNL A   1      33.631  27.796  24.986  1.00  0.00     0.004 A 
ATOM     19  C   UNL A   1      31.327  29.941  25.077  1.00  0.00     0.004 A 
ATOM     20  C   UNL A   1      34.209  28.335  26.615  1.00  0.00     0.000 A 
ATOM     21  C   UNL A   1      31.921  30.499  26.701  1.00  0.00     0.000 A 
ATOM     22  C   UNL A   1      33.364  29.714  27.489  1.00  0.00     0.000 A 
ENDBRANCH  16  17
ENDBRANCH   4   6
ENDBRANCH   3   4
ENDBRANCH   2   3
ENDBRANCH   1   2
BRANCH   1  23
ATOM     23  O   UNL A   1      35.129  21.358  26.747  1.00  0.00    -0.458 OA
BRANCH  23  24
ATOM     24  C   UNL A   1      36.218  21.236  25.722  1.00  0.00     0.338 C 
ATOM     25  O   UNL A   1      35.648  20.397  24.965  1.00  0.00    -0.246 OA
BRANCH  24  26
ATOM     26  C   UNL A   1      38.146  22.190  25.729  1.00  0.00     0.060 A 
ATOM     27  C   UNL A   1      39.477  21.698  26.123  1.00  0.00     0.016 A 
ATOM     28  C   UNL A   1      38.527  23.590  25.520  1.00  0.00     0.016 A 
ATOM     29  C   UNL A   1      40.282  22.356  27.054  1.00  0.00     0.010 A 
ATOM     30  C   UNL A   1      39.099  24.317  26.549  1.00  0.00     0.010 A 
ATOM     31  C   UNL A   1      39.937  23.647  27.406  1.00  0.00    -0.014 A 
BRANCH  31  32
ATOM     32  C   UNL A   1      40.888  24.466  28.125  1.00  0.00     0.031 A 
ATOM     33  C   UNL A   1      40.272  25.809  28.312  1.00  0.00     0.074 A 
ATOM     34  C   UNL A   1      42.027  24.052  28.702  1.00  0.00     0.049 A 
ATOM     35  N   UNL A   1      40.437  26.822  27.525  1.00  0.00    -0.248 NA
ATOM     36  C   UNL A   1      39.070  25.927  29.169  1.00  0.00     0.031 C 
ATOM     37  C   UNL A   1      42.609  22.717  28.816  1.00  0.00     0.029 A 
ATOM     38  N   UNL A   1      42.909  24.819  29.394  1.00  0.00    -0.354 N 
ATOM     39  C   UNL A   1      39.567  27.785  28.007  1.00  0.00     0.074 A 
ATOM     40  C   UNL A   1      38.556  27.075  28.728  1.00  0.00     0.031 C 
ATOM     41  C   UNL A   1      43.626  22.747  29.719  1.00  0.00     0.029 A 
ATOM     42  C   UNL A   1      43.849  24.121  30.146  1.00  0.00     0.049 A 
ATOM     43  H   UNL A   1      42.885  25.802  29.365  1.00  0.00     0.167 HD
ATOM     44  C   UNL A   1      39.969  29.078  28.106  1.00  0.00     0.034 A 
ATOM     45  C   UNL A   1      44.686  24.670  31.077  1.00  0.00     0.034 A 
ATOM     46  C   UNL A   1      41.142  29.303  27.283  1.00  0.00     0.049 A 
ATOM     47  C   UNL A   1      44.782  26.121  30.735  1.00  0.00     0.074 A 
ATOM     48  C   UNL A   1      41.414  29.116  25.939  1.00  0.00     0.029 A 
ATOM     49  N   UNL A   1      42.371  29.318  27.910  1.00  0.00    -0.354 N 
ATOM     50  N   UNL A   1      45.323  26.544  29.621  1.00  0.00    -0.248 NA
ATOM     51  C   UNL A   1      43.800  27.027  31.322  1.00  0.00     0.031 C 
ATOM     52  C   UNL A   1      42.709  28.518  25.909  1.00  0.00     0.029 A 
ATOM     53  C   UNL A   1      43.215  28.485  27.210  1.00  0.00     0.049 A 
ATOM     54  H   UNL A   1      42.604  29.833  28.718  1.00  0.00     0.167 HD
ATOM     55  C   UNL A   1      44.461  27.524  29.146  1.00  0.00     0.074 A 
ATOM     56  C   UNL A   1      43.572  27.824  30.271  1.00  0.00     0.031 C 
ATOM     57  C   UNL A   1      44.334  27.772  27.806  1.00  0.00     0.034 A 
BRANCH  44  58
ATOM     58  C   UNL A   1      39.595  29.973  29.266  1.00  0.00     0.023 A 
ATOM     59  C   UNL A   1      40.219  29.692  30.489  1.00  0.00     0.031 A 
ATOM     60  C   UNL A   1      38.491  30.862  29.330  1.00  0.00     0.131 A 
ATOM     61  C   UNL A   1      39.682  30.170  31.694  1.00  0.00     0.055 A 
ATOM     62  C   UNL A   1      38.002  31.387  30.526  1.00  0.00     0.041 A 
ATOM     63  F   UNL A   1      37.757  31.213  28.269  1.00  0.00    -0.206 F 
ATOM     64  C   UNL A   1      38.575  31.013  31.723  1.00  0.00     0.022 A 
BRANCH  61  65
ATOM     65  S   UNL A   1      40.352  29.510  33.236  1.00  0.00     0.124 S 
ATOM     66  O   UNL A   1      40.712  28.153  32.838  1.00  0.00    -0.237 OA
ATOM     67  O   UNL A   1      41.462  30.423  33.492  1.00  0.00    -0.237 OA
ATOM     68  O   UNL A   1      39.229  29.616  34.163  1.00  0.00    -0.744 OA
ENDBRANCH  61  65
ENDBRANCH  44  58
BRANCH  45  69
ATOM     69  C   UNL A   1      45.032  24.127  32.432  1.00  0.00     0.023 A 
ATOM     70  C   UNL A   1      46.098  24.615  33.229  1.00  0.00     0.031 A 
ATOM     71  C   UNL A   1      44.121  23.259  33.075  1.00  0.00     0.131 A 
ATOM     72  C   UNL A   1      46.212  24.232  34.594  1.00  0.00     0.055 A 
ATOM     73  C   UNL A   1      44.232  22.896  34.421  1.00  0.00     0.041 A 
ATOM     74  F   UNL A   1      43.033  22.797  32.439  1.00  0.00    -0.206 F 
ATOM     75  C   UNL A   1      45.273  23.388  35.189  1.00  0.00     0.022 A 
BRANCH  72  76
ATOM     76  S   UNL A   1      47.555  24.877  35.657  1.00  0.00     0.124 S 
ATOM     77  O   UNL A   1      47.952  23.692  36.409  1.00  0.00    -0.237 OA
ATOM     78  O   UNL A   1      48.517  25.380  34.683  1.00  0.00    -0.237 OA
ATOM     79  O   UNL A   1      46.894  25.913  36.453  1.00  0.00    -0.744 OA
ENDBRANCH  72  76
ENDBRANCH  45  69
BRANCH  57  80
ATOM     80  C   UNL A   1      45.331  27.134  26.851  1.00  0.00     0.023 A 
ATOM     81  C   UNL A   1      45.240  25.830  26.304  1.00  0.00     0.031 A 
ATOM     82  C   UNL A   1      46.371  27.958  26.387  1.00  0.00     0.131 A 
ATOM     83  C   UNL A   1      46.181  25.400  25.341  1.00  0.00     0.055 A 
ATOM     84  C   UNL A   1      47.282  27.538  25.419  1.00  0.00     0.041 A 
ATOM     85  F   UNL A   1      46.500  29.214  26.847  1.00  0.00    -0.206 F 
ATOM     86  C   UNL A   1      47.195  26.255  24.897  1.00  0.00     0.022 A 
BRANCH  83  87
ATOM     87  S   UNL A   1      46.130  23.706  24.659  1.00  0.00     0.124 S 
ATOM     88  O   UNL A   1      44.770  23.584  24.151  1.00  0.00    -0.237 OA
ATOM     89  O   UNL A   1      47.188  23.739  23.653  1.00  0.00    -0.237 OA
ATOM     90  O   UNL A   1      46.424  22.863  25.821  1.00  0.00    -0.744 OA
ENDBRANCH  83  87
ENDBRANCH  57  80
ENDBRANCH  31  32
ENDBRANCH  24  26
ENDBRANCH  23  24
ENDBRANCH   1  23
TORSDOF 15
ENDMDL
MODEL 2
REMARK VINA RESULT:     -13.4      4.529      9.237
REMARK SMILES C[C@@H]1C(C(=O)OCCOC(=O)c2ccc(-c3c4nc(c(-c5cc(S(=O)(=O)[O-])ccc5F)c5ccc([nH]5)c(-c5cc(S(=O)(=O)[O-])ccc5F)c5nc(c(-c6cc(S(=O)(=O)[O-])ccc6F)c6ccc3[nH]6)C=C5)C=C4)cc2)=NC2=C1C(=O)C[C@H](c1ccccc1)C2
REMARK SMILES IDX 8 1 7 2 6 3 4 4 5 5 3 6 1 7 2 8 77 9 75 10 76 11 78 12 88 13
REMARK SMILES IDX 79 14 80 15 81 16 82 17 83 18 87 19 84 20 86 21 85 22 9 23
REMARK SMILES IDX 10 24 11 25 12 26 13 27 74 28 14 29 73 30 15 31 16 32 17 33
REMARK SMILES IDX 67 34 18 35 72 36 66 37 68 38 19 39 71 40 65 41 64 42 20 44
REMARK SMILES IDX 52 45 32 46 51 47 33 48 36 49 50 50 69 51 34 52 35 53 49 55
REMARK SMILES IDX 70 56 37 57 21 58 22 59 30 60 23 61 29 62 31 63 28 64 24 65
REMARK SMILES IDX 25 66 26 67 27 68 53 69 54 70 62 71 55 72 61 73 63 74 60 75
REMARK SMILES IDX 56 76 57 77 58 78 59 79 38 80 39 81 47 82 40 83 46 84 48 85
REMARK SMILES IDX 45 86 41 87 42 88 43 89 44 90
REMARK H PARENT 68 43 36 54
REMARK Flexibility Score: inf
ROOT
ATOM      1  C   UNL A   1      32.100  30.419  26.124  1.00  0.00     0.275 C 
ENDROOT
BRANCH   1   2
ATOM      2  C   UNL A   1      31.901  28.965  26.511  1.00  0.00     0.275 C 
BRANCH   2   3
ATOM      3  O   UNL A   1      32.557  28.110  25.556  1.00  0.00    -0.458 OA
BRANCH   3   4
ATOM      4  C   UNL A   1      33.654  27.435  25.990  1.00  0.00     0.353 C 
ATOM      5  O   UNL A   1      34.622  27.893  26.565  1.00  0.00    -0.245 OA
BRANCH   4   6
ATOM      6  C   UNL A   1      33.408  25.945  25.772  1.00  0.00     0.133 C 
ATOM      7  C   UNL A   1      35.343  24.486  26.135  1.00  0.00     0.020 C 
ATOM      8  C   UNL A   1      34.457  25.120  25.069  1.00  0.00     0.078 C 
ATOM      9  C   UNL A   1      33.450  24.182  24.516  1.00  0.00     0.026 C 
ATOM     10  N   UNL A   1      32.298  25.315  26.079  1.00  0.00    -0.249 NA
ATOM     11  C   UNL A   1      32.306  24.245  25.204  1.00  0.00     0.049 C 
ATOM     12  C   UNL A   1      33.411  23.741  23.116  1.00  0.00     0.161 C 
ATOM     13  C   UNL A   1      31.042  23.671  24.628  1.00  0.00     0.065 C 
ATOM     14  O   UNL A   1      34.439  23.313  22.596  1.00  0.00    -0.294 OA
ATOM     15  C   UNL A   1      32.095  23.886  22.344  1.00  0.00     0.089 C 
ATOM     16  C   UNL A   1      30.849  24.236  23.204  1.00  0.00     0.033 C 
BRANCH  16  17
ATOM     17  C   UNL A   1      30.485  25.730  23.235  1.00  0.00    -0.044 A 
ATOM     18  C   UNL A   1      31.672  26.988  22.636  1.00  0.00     0.004 A 
ATOM     19  C   UNL A   1      28.807  26.289  23.740  1.00  0.00     0.004 A 
ATOM     20  C   UNL A   1      31.198  28.729  22.481  1.00  0.00     0.000 A 
ATOM     21  C   UNL A   1      28.322  28.032  23.563  1.00  0.00     0.000 A 
ATOM     22  C   UNL A   1      29.499  29.270  22.930  1.00  0.00     0.000 A 
ENDBRANCH  16  17
ENDBRANCH   4   6
ENDBRANCH   3   4
ENDBRANCH   2   3
ENDBRANCH   1   2
BRANCH   1  23
ATOM     23  O   UNL A   1      31.528  31.247  27.161  1.00  0.00    -0.458 OA
BRANCH  23  24
ATOM     24  C   UNL A   1      32.153  32.603  27.305  1.00  0.00     0.338 C 
ATOM     25  O   UNL A   1      31.374  33.234  26.532  1.00  0.00    -0.246 OA
BRANCH  24  26
ATOM     26  C   UNL A   1      33.899  33.135  28.443  1.00  0.00     0.060 A 
ATOM     27  C   UNL A   1      35.039  34.013  28.129  1.00  0.00     0.016 A 
ATOM     28  C   UNL A   1      34.429  32.597  29.700  1.00  0.00     0.016 A 
ATOM     29  C   UNL A   1      36.366  33.590  28.211  1.00  0.00     0.010 A 
ATOM     30  C   UNL A   1      35.648  31.943  29.718  1.00  0.00     0.010 A 
ATOM     31  C   UNL A   1      36.625  32.402  28.868  1.00  0.00    -0.014 A 
BRANCH  31  32
ATOM     32  C   UNL A   1      37.984  32.075  29.237  1.00  0.00     0.031 A 
ATOM     33  C   UNL A   1      38.204  30.639  28.908  1.00  0.00     0.074 A 
ATOM     34  C   UNL A   1      38.942  32.937  29.612  1.00  0.00     0.049 A 
ATOM     35  N   UNL A   1      38.054  29.653  29.732  1.00  0.00    -0.248 NA
ATOM     36  C   UNL A   1      38.173  30.221  27.488  1.00  0.00     0.031 C 
ATOM     37  C   UNL A   1      38.927  34.393  29.718  1.00  0.00     0.029 A 
ATOM     38  N   UNL A   1      40.225  32.630  29.938  1.00  0.00    -0.354 N 
ATOM     39  C   UNL A   1      38.218  28.520  28.955  1.00  0.00     0.074 A 
ATOM     40  C   UNL A   1      37.924  28.918  27.613  1.00  0.00     0.031 C 
ATOM     41  C   UNL A   1      40.201  34.846  29.869  1.00  0.00     0.029 A 
ATOM     42  C   UNL A   1      41.102  33.709  30.000  1.00  0.00     0.049 A 
ATOM     43  H   UNL A   1      40.513  31.707  30.118  1.00  0.00     0.167 HD
ATOM     44  C   UNL A   1      38.954  27.477  29.418  1.00  0.00     0.034 A 
ATOM     45  C   UNL A   1      42.462  33.620  30.096  1.00  0.00     0.034 A 
ATOM     46  C   UNL A   1      39.108  27.571  30.857  1.00  0.00     0.049 A 
ATOM     47  C   UNL A   1      42.745  32.264  30.656  1.00  0.00     0.074 A 
ATOM     48  C   UNL A   1      38.212  27.660  31.908  1.00  0.00     0.029 A 
ATOM     49  N   UNL A   1      40.298  28.074  31.343  1.00  0.00    -0.354 N 
ATOM     50  N   UNL A   1      42.378  31.914  31.862  1.00  0.00    -0.248 NA
ATOM     51  C   UNL A   1      42.902  31.158  29.718  1.00  0.00     0.031 C 
ATOM     52  C   UNL A   1      38.751  28.667  32.764  1.00  0.00     0.029 A 
ATOM     53  C   UNL A   1      40.000  29.050  32.268  1.00  0.00     0.049 A 
ATOM     54  H   UNL A   1      41.201  27.788  31.073  1.00  0.00     0.167 HD
ATOM     55  C   UNL A   1      41.845  30.639  31.726  1.00  0.00     0.074 A 
ATOM     56  C   UNL A   1      42.254  30.199  30.389  1.00  0.00     0.031 C 
ATOM     57  C   UNL A   1      40.861  30.184  32.562  1.00  0.00     0.034 A 
BRANCH  44  58
ATOM     58  C   UNL A   1      39.888  26.672  28.543  1.00  0.00     0.023 A 
ATOM     59  C   UNL A   1      40.975  27.368  27.996  1.00  0.00     0.031 A 
ATOM     60  C   UNL A   1      39.637  25.391  27.987  1.00  0.00     0.131 A 
ATOM     61  C   UNL A   1      41.666  26.859  26.886  1.00  0.00     0.055 A 
ATOM     62  C   UNL A   1      40.370  24.862  26.925  1.00  0.00     0.041 A 
ATOM     63  F   UNL A   1      38.623  24.604  28.362  1.00  0.00    -0.206 F 
ATOM     64  C   UNL A   1      41.370  25.613  26.343  1.00  0.00     0.022 A 
BRANCH  61  65
ATOM     65  S   UNL A   1      42.837  27.951  26.049  1.00  0.00     0.124 S 
ATOM     66  O   UNL A   1      42.638  29.200  26.775  1.00  0.00    -0.237 OA
ATOM     67  O   UNL A   1      44.103  27.262  26.282  1.00  0.00    -0.237 OA
ATOM     68  O   UNL A   1      42.370  27.948  24.665  1.00  0.00    -0.744 OA
ENDBRANCH  61  65
ENDBRANCH  44  58
BRANCH  45  69
ATOM     69  C   UNL A   1      43.488  34.427  29.357  1.00  0.00     0.023 A 
ATOM     70  C   UNL A   1      44.074  34.025  28.130  1.00  0.00     0.031 A 
ATOM     71  C   UNL A   1      43.716  35.766  29.745  1.00  0.00     0.131 A 
ATOM     72  C   UNL A   1      44.842  34.943  27.362  1.00  0.00     0.055 A 
ATOM     73  C   UNL A   1      44.462  36.668  28.979  1.00  0.00     0.041 A 
ATOM     74  F   UNL A   1      43.147  36.276  30.849  1.00  0.00    -0.206 F 
ATOM     75  C   UNL A   1      45.020  36.263  27.779  1.00  0.00     0.022 A 
BRANCH  72  76
ATOM     76  S   UNL A   1      45.577  34.463  25.757  1.00  0.00     0.124 S 
ATOM     77  O   UNL A   1      46.094  33.129  26.038  1.00  0.00    -0.237 OA
ATOM     78  O   UNL A   1      44.438  34.540  24.850  1.00  0.00    -0.237 OA
ATOM     79  O   UNL A   1      46.605  35.482  25.532  1.00  0.00    -0.744 OA
ENDBRANCH  72  76
ENDBRANCH  45  69
BRANCH  57  80
ATOM     80  C   UNL A   1      40.529  30.998  33.803  1.00  0.00     0.023 A 
ATOM     81  C   UNL A   1      39.452  31.911  33.935  1.00  0.00     0.031 A 
ATOM     82  C   UNL A   1      41.294  30.731  34.952  1.00  0.00     0.131 A 
ATOM     83  C   UNL A   1      39.192  32.521  35.182  1.00  0.00     0.055 A 
ATOM     84  C   UNL A   1      41.018  31.318  36.186  1.00  0.00     0.041 A 
ATOM     85  F   UNL A   1      42.313  29.859  34.901  1.00  0.00    -0.206 F 
ATOM     86  C   UNL A   1      39.970  32.221  36.304  1.00  0.00     0.022 A 
BRANCH  83  87
ATOM     87  S   UNL A   1      37.851  33.747  35.374  1.00  0.00     0.124 S 
ATOM     88  O   UNL A   1      36.645  32.982  35.079  1.00  0.00    -0.237 OA
ATOM     89  O   UNL A   1      38.012  34.177  36.760  1.00  0.00    -0.237 OA
ATOM     90  O   UNL A   1      38.181  34.771  34.380  1.00  0.00    -0.744 OA
ENDBRANCH  83  87
ENDBRANCH  57  80
ENDBRANCH  31  32
ENDBRANCH  24  26
ENDBRANCH  23  24
ENDBRANCH   1  23
TORSDOF 15
ENDMDL
MODEL 3
REMARK VINA RESULT:     -13.0      3.410      6.842
REMARK SMILES C[C@@H]1C(C(=O)OCCOC(=O)c2ccc(-c3c4nc(c(-c5cc(S(=O)(=O)[O-])ccc5F)c5ccc([nH]5)c(-c5cc(S(=O)(=O)[O-])ccc5F)c5nc(c(-c6cc(S(=O)(=O)[O-])ccc6F)c6ccc3[nH]6)C=C5)C=C4)cc2)=NC2=C1C(=O)C[C@H](c1ccccc1)C2
REMARK SMILES IDX 8 1 7 2 6 3 4 4 5 5 3 6 1 7 2 8 77 9 75 10 76 11 78 12 88 13
REMARK SMILES IDX 79 14 80 15 81 16 82 17 83 18 87 19 84 20 86 21 85 22 9 23
REMARK SMILES IDX 10 24 11 25 12 26 13 27 74 28 14 29 73 30 15 31 16 32 17 33
REMARK SMILES IDX 67 34 18 35 72 36 66 37 68 38 19 39 71 40 65 41 64 42 20 44
REMARK SMILES IDX 52 45 32 46 51 47 33 48 36 49 50 50 69 51 34 52 35 53 49 55
REMARK SMILES IDX 70 56 37 57 21 58 22 59 30 60 23 61 29 62 31 63 28 64 24 65
REMARK SMILES IDX 25 66 26 67 27 68 53 69 54 70 62 71 55 72 61 73 63 74 60 75
REMARK SMILES IDX 56 76 57 77 58 78 59 79 38 80 39 81 47 82 40 83 46 84 48 85
REMARK SMILES IDX 45 86 41 87 42 88 43 89 44 90
REMARK H PARENT 68 43 36 54
REMARK Flexibility Score: inf
ROOT
ATOM      1  C   UNL A   1      34.023  30.648  27.899  1.00  0.00     0.275 C 
ENDROOT
BRANCH   1   2
ATOM      2  C   UNL A   1      33.097  30.418  26.719  1.00  0.00     0.275 C 
BRANCH   2   3
ATOM      3  O   UNL A   1      33.748  29.585  25.742  1.00  0.00    -0.458 OA
BRANCH   3   4
ATOM      4  C   UNL A   1      33.404  28.271  25.730  1.00  0.00     0.353 C 
ATOM      5  O   UNL A   1      33.613  27.447  26.599  1.00  0.00    -0.245 OA
BRANCH   4   6
ATOM      6  C   UNL A   1      32.556  28.014  24.487  1.00  0.00     0.133 C 
ATOM      7  C   UNL A   1      30.658  29.531  24.167  1.00  0.00     0.020 C 
ATOM      8  C   UNL A   1      31.055  28.121  24.585  1.00  0.00     0.078 C 
ATOM      9  C   UNL A   1      30.843  27.115  23.516  1.00  0.00     0.026 C 
ATOM     10  N   UNL A   1      33.026  27.620  23.327  1.00  0.00    -0.249 NA
ATOM     11  C   UNL A   1      31.941  26.973  22.766  1.00  0.00     0.049 C 
ATOM     12  C   UNL A   1      29.900  25.994  23.609  1.00  0.00     0.161 C 
ATOM     13  C   UNL A   1      32.096  25.779  21.867  1.00  0.00     0.065 C 
ATOM     14  O   UNL A   1      28.741  26.215  23.953  1.00  0.00    -0.294 OA
ATOM     15  C   UNL A   1      30.419  24.581  23.324  1.00  0.00     0.089 C 
ATOM     16  C   UNL A   1      31.838  24.502  22.696  1.00  0.00     0.033 C 
BRANCH  16  17
ATOM     17  C   UNL A   1      32.974  24.243  23.699  1.00  0.00    -0.044 A 
ATOM     18  C   UNL A   1      32.632  24.183  25.496  1.00  0.00     0.004 A 
ATOM     19  C   UNL A   1      34.677  23.847  23.125  1.00  0.00     0.004 A 
ATOM     20  C   UNL A   1      33.910  23.689  26.680  1.00  0.00     0.000 A 
ATOM     21  C   UNL A   1      35.954  23.328  24.310  1.00  0.00     0.000 A 
ATOM     22  C   UNL A   1      35.592  23.236  26.093  1.00  0.00     0.000 A 
ENDBRANCH  16  17
ENDBRANCH   4   6
ENDBRANCH   3   4
ENDBRANCH   2   3
ENDBRANCH   1   2
BRANCH   1  23
ATOM     23  O   UNL A   1      34.302  32.063  27.989  1.00  0.00    -0.458 OA
BRANCH  23  24
ATOM     24  C   UNL A   1      35.718  32.409  28.344  1.00  0.00     0.338 C 
ATOM     25  O   UNL A   1      35.819  33.459  27.645  1.00  0.00    -0.246 OA
BRANCH  24  26
ATOM     26  C   UNL A   1      37.068  31.301  29.600  1.00  0.00     0.060 A 
ATOM     27  C   UNL A   1      38.338  31.681  30.242  1.00  0.00     0.016 A 
ATOM     28  C   UNL A   1      37.117  29.875  29.938  1.00  0.00     0.016 A 
ATOM     29  C   UNL A   1      39.519  30.956  30.073  1.00  0.00     0.010 A 
ATOM     30  C   UNL A   1      38.190  29.100  29.536  1.00  0.00     0.010 A 
ATOM     31  C   UNL A   1      39.427  29.696  29.513  1.00  0.00    -0.014 A 
BRANCH  31  32
ATOM     32  C   UNL A   1      40.559  28.800  29.591  1.00  0.00     0.031 A 
ATOM     33  C   UNL A   1      40.849  28.568  31.033  1.00  0.00     0.074 A 
ATOM     34  C   UNL A   1      41.122  28.130  28.572  1.00  0.00     0.049 A 
ATOM     35  N   UNL A   1      41.703  29.235  31.739  1.00  0.00    -0.248 NA
ATOM     36  C   UNL A   1      39.846  27.853  31.854  1.00  0.00     0.031 C 
ATOM     37  C   UNL A   1      40.764  28.068  27.158  1.00  0.00     0.029 A 
ATOM     38  N   UNL A   1      42.172  27.272  28.650  1.00  0.00    -0.354 N 
ATOM     39  C   UNL A   1      41.523  28.776  33.032  1.00  0.00     0.074 A 
ATOM     40  C   UNL A   1      40.195  28.248  33.079  1.00  0.00     0.031 C 
ATOM     41  C   UNL A   1      41.447  27.050  26.566  1.00  0.00     0.029 A 
ATOM     42  C   UNL A   1      42.381  26.478  27.525  1.00  0.00     0.049 A 
ATOM     43  H   UNL A   1      42.745  27.216  29.447  1.00  0.00     0.167 HD
ATOM     44  C   UNL A   1      42.598  28.514  33.818  1.00  0.00     0.034 A 
ATOM     45  C   UNL A   1      43.230  25.409  27.457  1.00  0.00     0.034 A 
ATOM     46  C   UNL A   1      43.779  29.168  33.287  1.00  0.00     0.049 A 
ATOM     47  C   UNL A   1      44.225  25.606  28.554  1.00  0.00     0.074 A 
ATOM     48  C   UNL A   1      44.081  30.481  32.972  1.00  0.00     0.029 A 
ATOM     49  N   UNL A   1      44.662  28.400  32.556  1.00  0.00    -0.354 N 
ATOM     50  N   UNL A   1      45.070  26.605  28.563  1.00  0.00    -0.248 NA
ATOM     51  C   UNL A   1      43.906  25.061  29.870  1.00  0.00     0.031 C 
ATOM     52  C   UNL A   1      44.748  30.410  31.712  1.00  0.00     0.029 A 
ATOM     53  C   UNL A   1      44.932  29.066  31.381  1.00  0.00     0.049 A 
ATOM     54  H   UNL A   1      45.032  27.528  32.825  1.00  0.00     0.167 HD
ATOM     55  C   UNL A   1      45.049  27.090  29.863  1.00  0.00     0.074 A 
ATOM     56  C   UNL A   1      44.361  26.056  30.641  1.00  0.00     0.031 C 
ATOM     57  C   UNL A   1      45.297  28.407  30.137  1.00  0.00     0.034 A 
BRANCH  44  58
ATOM     58  C   UNL A   1      42.666  27.332  34.758  1.00  0.00     0.023 A 
ATOM     59  C   UNL A   1      43.465  26.258  34.343  1.00  0.00     0.031 A 
ATOM     60  C   UNL A   1      41.804  27.068  35.853  1.00  0.00     0.131 A 
ATOM     61  C   UNL A   1      43.304  24.984  34.907  1.00  0.00     0.055 A 
ATOM     62  C   UNL A   1      41.695  25.814  36.454  1.00  0.00     0.041 A 
ATOM     63  F   UNL A   1      40.949  27.963  36.358  1.00  0.00    -0.206 F 
ATOM     64  C   UNL A   1      42.421  24.752  35.958  1.00  0.00     0.022 A 
BRANCH  61  65
ATOM     65  S   UNL A   1      44.137  23.595  34.107  1.00  0.00     0.124 S 
ATOM     66  O   UNL A   1      44.101  22.589  35.162  1.00  0.00    -0.237 OA
ATOM     67  O   UNL A   1      43.274  23.355  32.955  1.00  0.00    -0.237 OA
ATOM     68  O   UNL A   1      45.460  24.131  33.796  1.00  0.00    -0.744 OA
ENDBRANCH  61  65
ENDBRANCH  44  58
BRANCH  45  69
ATOM     69  C   UNL A   1      42.975  24.077  26.816  1.00  0.00     0.023 A 
ATOM     70  C   UNL A   1      43.955  23.347  26.096  1.00  0.00     0.031 A 
ATOM     71  C   UNL A   1      41.791  23.377  27.138  1.00  0.00     0.131 A 
ATOM     72  C   UNL A   1      43.724  21.991  25.735  1.00  0.00     0.055 A 
ATOM     73  C   UNL A   1      41.575  22.039  26.791  1.00  0.00     0.041 A 
ATOM     74  F   UNL A   1      40.829  23.944  27.883  1.00  0.00    -0.206 F 
ATOM     75  C   UNL A   1      42.545  21.338  26.096  1.00  0.00     0.022 A 
BRANCH  72  76
ATOM     76  S   UNL A   1      44.986  21.014  24.840  1.00  0.00     0.124 S 
ATOM     77  O   UNL A   1      44.730  21.376  23.450  1.00  0.00    -0.237 OA
ATOM     78  O   UNL A   1      46.233  21.500  25.418  1.00  0.00    -0.237 OA
ATOM     79  O   UNL A   1      44.654  19.630  25.182  1.00  0.00    -0.744 OA
ENDBRANCH  72  76
ENDBRANCH  45  69
BRANCH  57  80
ATOM     80  C   UNL A   1      45.843  29.290  29.025  1.00  0.00     0.023 A 
ATOM     81  C   UNL A   1      45.127  30.306  28.343  1.00  0.00     0.031 A 
ATOM     82  C   UNL A   1      47.211  29.156  28.732  1.00  0.00     0.131 A 
ATOM     83  C   UNL A   1      45.788  31.127  27.403  1.00  0.00     0.055 A 
ATOM     84  C   UNL A   1      47.864  29.985  27.820  1.00  0.00     0.041 A 
ATOM     85  F   UNL A   1      47.953  28.229  29.359  1.00  0.00    -0.206 F 
ATOM     86  C   UNL A   1      47.154  30.969  27.147  1.00  0.00     0.022 A 
BRANCH  83  87
ATOM     87  S   UNL A   1      44.884  32.406  26.463  1.00  0.00     0.124 S 
ATOM     88  O   UNL A   1      45.900  32.959  25.575  1.00  0.00    -0.237 OA
ATOM     89  O   UNL A   1      43.824  31.635  25.819  1.00  0.00    -0.237 OA
ATOM     90  O   UNL A   1      44.418  33.327  27.503  1.00  0.00    -0.744 OA
ENDBRANCH  83  87
ENDBRANCH  57  80
ENDBRANCH  31  32
ENDBRANCH  24  26
ENDBRANCH  23  24
ENDBRANCH   1  23
TORSDOF 15
ENDMDL
