MODEL 1
REMARK VINA RESULT:     -14.0      0.000      0.000
REMARK SMILES Cc1cc(N2CC[NH+]([C@@H](C(=O)OCCOC(=O)c3ccc(-c4c5nc(c(-c6cc(S(=O)(=O)[O-])ccc6F)c6ccc([nH]6)c(-c6cc(S(=O)(=O)[O-])ccc6F)c6nc(c(-c7cc(S(=O)(=O)[O-])ccc7F)c7ccc4[nH]7)C=C6)C=C5)cc3)c3c[nH]c4ccccc34)CC2)nc2ccccc12
REMARK SMILES IDX 14 1 13 2 12 3 10 4 11 5 9 6 8 7 5 8 6 9 91 10 7 11 90 12
REMARK SMILES IDX 4 14 1 15 2 16 3 17 98 18 93 19 97 20 92 21 94 22 96 23
REMARK SMILES IDX 95 24 81 25 82 26 89 27 83 28 84 29 88 30 85 32 87 33 86 34
REMARK SMILES IDX 15 35 16 36 17 37 18 38 19 39 80 40 20 41 79 42 21 43 22 44
REMARK SMILES IDX 23 45 73 46 24 47 78 48 72 49 74 50 25 51 77 52 71 53 70 54
REMARK SMILES IDX 26 56 58 57 38 58 57 59 39 60 42 61 56 62 75 63 40 64 41 65
REMARK SMILES IDX 55 67 76 68 43 69 27 70 28 71 36 72 29 73 35 74 37 75 34 76
REMARK SMILES IDX 30 77 31 78 32 79 33 80 59 81 60 82 68 83 61 84 67 85 69 86
REMARK SMILES IDX 66 87 62 88 63 89 64 90 65 91 44 92 45 93 53 94 46 95 52 96
REMARK SMILES IDX 54 97 51 98 47 99 48 100 49 101 50 102
REMARK H PARENT 8 13 83 31 74 55 42 66
REMARK Flexibility Score: inf
ROOT
ATOM      1  C   UNL A   1      31.790  30.086  26.866  1.00  0.00     0.275 C 
ENDROOT
BRANCH   1   2
ATOM      2  C   UNL A   1      31.772  28.574  27.040  1.00  0.00     0.274 C 
BRANCH   2   3
ATOM      3  O   UNL A   1      32.946  27.968  26.447  1.00  0.00    -0.457 OA
BRANCH   3   4
ATOM      4  C   UNL A   1      32.735  27.156  25.378  1.00  0.00     0.370 C 
ATOM      5  O   UNL A   1      33.655  26.609  24.766  1.00  0.00    -0.245 OA
BRANCH   4   6
ATOM      6  C   UNL A   1      31.297  27.129  24.853  1.00  0.00     0.328 C 
BRANCH   6   7
ATOM      7  N   UNL A   1      30.557  25.821  24.968  1.00  0.00    -0.316 N 
ATOM      8  N   UNL A   1      32.390  23.563  24.911  1.00  0.00    -0.345 N 
ATOM      9  C   UNL A   1      32.025  24.258  23.678  1.00  0.00     0.179 C 
ATOM     10  C   UNL A   1      31.628  23.751  26.140  1.00  0.00     0.179 C 
ATOM     11  C   UNL A   1      30.655  24.915  23.817  1.00  0.00     0.285 C 
ATOM     12  C   UNL A   1      30.797  25.074  26.211  1.00  0.00     0.285 C 
ATOM     13  H   UNL A   1      29.597  26.165  24.987  1.00  0.00     0.349 HD
BRANCH   8  14
ATOM     14  C   UNL A   1      33.105  22.411  24.657  1.00  0.00     0.129 A 
ATOM     15  C   UNL A   1      36.563  21.101  25.400  1.00  0.00     0.045 C 
ATOM     16  C   UNL A   1      35.126  21.132  24.966  1.00  0.00    -0.038 A 
ATOM     17  C   UNL A   1      34.459  22.358  24.959  1.00  0.00     0.051 A 
ATOM     18  C   UNL A   1      34.405  19.967  24.627  1.00  0.00     0.003 A 
ATOM     19  C   UNL A   1      33.036  20.118  24.316  1.00  0.00     0.073 A 
ATOM     20  C   UNL A   1      34.973  18.673  24.607  1.00  0.00     0.010 A 
ATOM     21  N   UNL A   1      32.410  21.305  24.334  1.00  0.00    -0.231 NA
ATOM     22  C   UNL A   1      32.291  18.987  24.004  1.00  0.00     0.029 A 
ATOM     23  C   UNL A   1      34.204  17.555  24.287  1.00  0.00     0.001 A 
ATOM     24  C   UNL A   1      32.859  17.712  23.987  1.00  0.00     0.002 A 
ENDBRANCH   8  14
ENDBRANCH   6   7
BRANCH   6  25
ATOM     25  C   UNL A   1      30.910  27.853  23.570  1.00  0.00     0.046 A 
ATOM     26  C   UNL A   1      31.872  28.421  22.740  1.00  0.00     0.094 A 
ATOM     27  C   UNL A   1      29.641  28.354  23.085  1.00  0.00     0.009 A 
ATOM     28  N   UNL A   1      31.288  29.420  22.015  1.00  0.00    -0.361 N 
ATOM     29  C   UNL A   1      29.943  29.458  22.277  1.00  0.00     0.046 A 
ATOM     30  C   UNL A   1      28.274  28.116  23.352  1.00  0.00     0.011 A 
ATOM     31  H   UNL A   1      31.761  30.021  21.397  1.00  0.00     0.166 HD
ATOM     32  C   UNL A   1      28.995  30.408  21.877  1.00  0.00     0.026 A 
ATOM     33  C   UNL A   1      27.298  29.016  22.889  1.00  0.00     0.001 A 
ATOM     34  C   UNL A   1      27.662  30.171  22.205  1.00  0.00     0.002 A 
ENDBRANCH   6  25
ENDBRANCH   4   6
ENDBRANCH   3   4
ENDBRANCH   2   3
ENDBRANCH   1   2
BRANCH   1  35
ATOM     35  O   UNL A   1      33.135  30.469  26.552  1.00  0.00    -0.458 OA
BRANCH  35  36
ATOM     36  C   UNL A   1      33.643  31.470  27.301  1.00  0.00     0.338 C 
ATOM     37  O   UNL A   1      33.070  32.513  27.602  1.00  0.00    -0.246 OA
BRANCH  36  38
ATOM     38  C   UNL A   1      34.971  31.086  27.833  1.00  0.00     0.060 A 
ATOM     39  C   UNL A   1      35.217  29.793  28.304  1.00  0.00     0.016 A 
ATOM     40  C   UNL A   1      35.942  32.074  28.000  1.00  0.00     0.016 A 
ATOM     41  C   UNL A   1      36.367  29.512  29.032  1.00  0.00     0.010 A 
ATOM     42  C   UNL A   1      37.145  31.765  28.639  1.00  0.00     0.010 A 
ATOM     43  C   UNL A   1      37.357  30.488  29.183  1.00  0.00    -0.014 A 
BRANCH  43  44
ATOM     44  C   UNL A   1      38.643  30.168  29.849  1.00  0.00     0.031 A 
ATOM     45  C   UNL A   1      39.583  29.159  29.257  1.00  0.00     0.074 A 
ATOM     46  C   UNL A   1      38.931  30.753  31.027  1.00  0.00     0.049 A 
ATOM     47  N   UNL A   1      40.613  28.565  29.803  1.00  0.00    -0.248 NA
ATOM     48  C   UNL A   1      39.319  28.757  27.870  1.00  0.00     0.031 C 
ATOM     49  C   UNL A   1      38.115  31.779  31.680  1.00  0.00     0.029 A 
ATOM     50  N   UNL A   1      39.972  30.549  31.896  1.00  0.00    -0.354 N 
ATOM     51  C   UNL A   1      41.099  27.684  28.842  1.00  0.00     0.074 A 
ATOM     52  C   UNL A   1      40.243  27.825  27.680  1.00  0.00     0.031 C 
ATOM     53  C   UNL A   1      38.679  32.109  32.849  1.00  0.00     0.029 A 
ATOM     54  C   UNL A   1      39.838  31.255  33.068  1.00  0.00     0.049 A 
ATOM     55  H   UNL A   1      40.734  29.959  31.701  1.00  0.00     0.167 HD
ATOM     56  C   UNL A   1      42.155  26.835  28.937  1.00  0.00     0.034 A 
ATOM     57  C   UNL A   1      40.522  31.177  34.223  1.00  0.00     0.034 A 
ATOM     58  C   UNL A   1      42.992  26.727  30.115  1.00  0.00     0.049 A 
ATOM     59  C   UNL A   1      41.659  30.208  34.326  1.00  0.00     0.074 A 
ATOM     60  C   UNL A   1      44.095  25.915  30.322  1.00  0.00     0.029 A 
ATOM     61  N   UNL A   1      42.819  27.453  31.290  1.00  0.00    -0.354 N 
ATOM     62  N   UNL A   1      42.075  29.328  33.443  1.00  0.00    -0.248 NA
ATOM     63  C   UNL A   1      42.423  30.228  35.575  1.00  0.00     0.031 C 
ATOM     64  C   UNL A   1      44.547  26.102  31.635  1.00  0.00     0.029 A 
ATOM     65  C   UNL A   1      43.780  27.092  32.228  1.00  0.00     0.049 A 
ATOM     66  H   UNL A   1      42.116  28.126  31.436  1.00  0.00     0.167 HD
ATOM     67  C   UNL A   1      43.157  28.686  34.033  1.00  0.00     0.074 A 
ATOM     68  C   UNL A   1      43.344  29.306  35.332  1.00  0.00     0.031 C 
ATOM     69  C   UNL A   1      43.926  27.680  33.542  1.00  0.00     0.034 A 
BRANCH  56  70
ATOM     70  C   UNL A   1      42.418  25.913  27.766  1.00  0.00     0.023 A 
ATOM     71  C   UNL A   1      41.807  24.651  27.649  1.00  0.00     0.031 A 
ATOM     72  C   UNL A   1      43.315  26.299  26.752  1.00  0.00     0.131 A 
ATOM     73  C   UNL A   1      42.146  23.799  26.584  1.00  0.00     0.055 A 
ATOM     74  C   UNL A   1      43.590  25.480  25.654  1.00  0.00     0.041 A 
ATOM     75  F   UNL A   1      43.950  27.479  26.814  1.00  0.00    -0.206 F 
ATOM     76  C   UNL A   1      43.016  24.215  25.573  1.00  0.00     0.022 A 
BRANCH  73  77
ATOM     77  S   UNL A   1      41.544  22.086  26.610  1.00  0.00     0.124 S 
ATOM     78  O   UNL A   1      41.910  21.656  27.958  1.00  0.00    -0.237 OA
ATOM     79  O   UNL A   1      40.117  22.251  26.362  1.00  0.00    -0.237 OA
ATOM     80  O   UNL A   1      42.296  21.442  25.535  1.00  0.00    -0.744 OA
ENDBRANCH  73  77
ENDBRANCH  56  70
BRANCH  57  81
ATOM     81  C   UNL A   1      40.078  32.000  35.379  1.00  0.00     0.023 A 
ATOM     82  C   UNL A   1      39.074  31.553  36.248  1.00  0.00     0.031 A 
ATOM     83  C   UNL A   1      40.723  33.217  35.671  1.00  0.00     0.131 A 
ATOM     84  C   UNL A   1      38.743  32.319  37.376  1.00  0.00     0.055 A 
ATOM     85  C   UNL A   1      40.421  33.952  36.817  1.00  0.00     0.041 A 
ATOM     86  F   UNL A   1      41.701  33.676  34.874  1.00  0.00    -0.206 F 
ATOM     87  C   UNL A   1      39.423  33.505  37.676  1.00  0.00     0.022 A 
BRANCH  84  88
ATOM     88  S   UNL A   1      37.404  31.746  38.454  1.00  0.00     0.124 S 
ATOM     89  O   UNL A   1      38.014  31.854  39.774  1.00  0.00    -0.237 OA
ATOM     90  O   UNL A   1      36.343  32.704  38.159  1.00  0.00    -0.237 OA
ATOM     91  O   UNL A   1      37.153  30.383  37.991  1.00  0.00    -0.744 OA
ENDBRANCH  84  88
ENDBRANCH  57  81
BRANCH  69  92
ATOM     92  C   UNL A   1      45.053  27.213  34.434  1.00  0.00     0.023 A 
ATOM     93  C   UNL A   1      44.874  26.168  35.359  1.00  0.00     0.031 A 
ATOM     94  C   UNL A   1      46.291  27.880  34.420  1.00  0.00     0.131 A 
ATOM     95  C   UNL A   1      45.881  25.882  36.293  1.00  0.00     0.055 A 
ATOM     96  C   UNL A   1      47.315  27.544  35.307  1.00  0.00     0.041 A 
ATOM     97  F   UNL A   1      46.515  28.888  33.562  1.00  0.00    -0.206 F 
ATOM     98  C   UNL A   1      47.105  26.555  36.265  1.00  0.00     0.022 A 
BRANCH  95  99
ATOM     99  S   UNL A   1      45.511  24.730  37.645  1.00  0.00     0.124 S 
ATOM    100  O   UNL A   1      44.205  25.201  38.096  1.00  0.00    -0.237 OA
ATOM    101  O   UNL A   1      45.524  23.439  36.966  1.00  0.00    -0.237 OA
ATOM    102  O   UNL A   1      46.606  24.947  38.589  1.00  0.00    -0.744 OA
ENDBRANCH  95  99
ENDBRANCH  69  92
ENDBRANCH  43  44
ENDBRANCH  36  38
ENDBRANCH  35  36
ENDBRANCH   1  35
TORSDOF 17
ENDMDL
MODEL 2
REMARK VINA RESULT:     -13.8      4.870     10.393
REMARK SMILES Cc1cc(N2CC[NH+]([C@@H](C(=O)OCCOC(=O)c3ccc(-c4c5nc(c(-c6cc(S(=O)(=O)[O-])ccc6F)c6ccc([nH]6)c(-c6cc(S(=O)(=O)[O-])ccc6F)c6nc(c(-c7cc(S(=O)(=O)[O-])ccc7F)c7ccc4[nH]7)C=C6)C=C5)cc3)c3c[nH]c4ccccc34)CC2)nc2ccccc12
REMARK SMILES IDX 14 1 13 2 12 3 10 4 11 5 9 6 8 7 5 8 6 9 91 10 7 11 90 12
REMARK SMILES IDX 4 14 1 15 2 16 3 17 98 18 93 19 97 20 92 21 94 22 96 23
REMARK SMILES IDX 95 24 81 25 82 26 89 27 83 28 84 29 88 30 85 32 87 33 86 34
REMARK SMILES IDX 15 35 16 36 17 37 18 38 19 39 80 40 20 41 79 42 21 43 22 44
REMARK SMILES IDX 23 45 73 46 24 47 78 48 72 49 74 50 25 51 77 52 71 53 70 54
REMARK SMILES IDX 26 56 58 57 38 58 57 59 39 60 42 61 56 62 75 63 40 64 41 65
REMARK SMILES IDX 55 67 76 68 43 69 27 70 28 71 36 72 29 73 35 74 37 75 34 76
REMARK SMILES IDX 30 77 31 78 32 79 33 80 59 81 60 82 68 83 61 84 67 85 69 86
REMARK SMILES IDX 66 87 62 88 63 89 64 90 65 91 44 92 45 93 53 94 46 95 52 96
REMARK SMILES IDX 54 97 51 98 47 99 48 100 49 101 50 102
REMARK H PARENT 8 13 83 31 74 55 42 66
REMARK Flexibility Score: inf
ROOT
ATOM      1  C   UNL A   1      36.999  21.379  24.270  1.00  0.00     0.275 C 
ENDROOT
BRANCH   1   2
ATOM      2  C   UNL A   1      36.388  22.593  23.585  1.00  0.00     0.274 C 
BRANCH   2   3
ATOM      3  O   UNL A   1      35.945  23.572  24.556  1.00  0.00    -0.457 OA
BRANCH   3   4
ATOM      4  C   UNL A   1      34.604  23.680  24.741  1.00  0.00     0.370 C 
ATOM      5  O   UNL A   1      34.105  24.447  25.567  1.00  0.00    -0.245 OA
BRANCH   4   6
ATOM      6  C   UNL A   1      33.758  22.637  24.004  1.00  0.00     0.328 C 
BRANCH   6   7
ATOM      7  N   UNL A   1      32.796  23.155  22.966  1.00  0.00    -0.316 N 
ATOM      8  N   UNL A   1      31.946  25.869  23.574  1.00  0.00    -0.345 N 
ATOM      9  C   UNL A   1      31.372  24.731  24.289  1.00  0.00     0.179 C 
ATOM     10  C   UNL A   1      32.701  25.685  22.340  1.00  0.00     0.179 C 
ATOM     11  C   UNL A   1      31.441  23.469  23.433  1.00  0.00     0.285 C 
ATOM     12  C   UNL A   1      33.305  24.257  22.137  1.00  0.00     0.285 C 
ATOM     13  H   UNL A   1      32.715  22.327  22.375  1.00  0.00     0.349 HD
BRANCH   8  14
ATOM     14  C   UNL A   1      31.280  27.043  23.861  1.00  0.00     0.129 A 
ATOM     15  C   UNL A   1      32.004  30.220  25.761  1.00  0.00     0.045 C 
ATOM     16  C   UNL A   1      31.317  29.240  24.854  1.00  0.00    -0.038 A 
ATOM     17  C   UNL A   1      31.829  27.946  24.762  1.00  0.00     0.051 A 
ATOM     18  C   UNL A   1      30.214  29.591  24.045  1.00  0.00     0.003 A 
ATOM     19  C   UNL A   1      29.709  28.602  23.172  1.00  0.00     0.073 A 
ATOM     20  C   UNL A   1      29.617  30.871  24.049  1.00  0.00     0.010 A 
ATOM     21  N   UNL A   1      30.230  27.370  23.086  1.00  0.00    -0.231 NA
ATOM     22  C   UNL A   1      28.642  28.925  22.343  1.00  0.00     0.029 A 
ATOM     23  C   UNL A   1      28.545  31.168  23.209  1.00  0.00     0.001 A 
ATOM     24  C   UNL A   1      28.056  30.192  22.352  1.00  0.00     0.002 A 
ENDBRANCH   8  14
ENDBRANCH   6   7
BRANCH   6  25
ATOM     25  C   UNL A   1      33.164  21.441  24.736  1.00  0.00     0.046 A 
ATOM     26  C   UNL A   1      33.203  21.348  26.125  1.00  0.00     0.094 A 
ATOM     27  C   UNL A   1      32.746  20.132  24.276  1.00  0.00     0.009 A 
ATOM     28  N   UNL A   1      33.126  20.031  26.476  1.00  0.00    -0.361 N 
ATOM     29  C   UNL A   1      32.938  19.261  25.356  1.00  0.00     0.046 A 
ATOM     30  C   UNL A   1      32.383  19.547  23.043  1.00  0.00     0.011 A 
ATOM     31  H   UNL A   1      33.193  19.685  27.394  1.00  0.00     0.166 HD
ATOM     32  C   UNL A   1      32.955  17.867  25.233  1.00  0.00     0.026 A 
ATOM     33  C   UNL A   1      32.316  18.148  22.919  1.00  0.00     0.001 A 
ATOM     34  C   UNL A   1      32.648  17.323  23.988  1.00  0.00     0.002 A 
ENDBRANCH   6  25
ENDBRANCH   4   6
ENDBRANCH   3   4
ENDBRANCH   2   3
ENDBRANCH   1   2
BRANCH   1  35
ATOM     35  O   UNL A   1      37.352  21.768  25.604  1.00  0.00    -0.458 OA
BRANCH  35  36
ATOM     36  C   UNL A   1      38.620  21.493  25.973  1.00  0.00     0.338 C 
ATOM     37  O   UNL A   1      39.226  20.446  25.761  1.00  0.00    -0.246 OA
BRANCH  36  38
ATOM     38  C   UNL A   1      39.249  22.691  26.573  1.00  0.00     0.060 A 
ATOM     39  C   UNL A   1      38.888  23.979  26.167  1.00  0.00     0.016 A 
ATOM     40  C   UNL A   1      40.321  22.523  27.450  1.00  0.00     0.016 A 
ATOM     41  C   UNL A   1      39.654  25.079  26.538  1.00  0.00     0.010 A 
ATOM     42  C   UNL A   1      41.025  23.639  27.909  1.00  0.00     0.010 A 
ATOM     43  C   UNL A   1      40.714  24.924  27.436  1.00  0.00    -0.014 A 
BRANCH  43  44
ATOM     44  C   UNL A   1      41.461  26.102  27.939  1.00  0.00     0.031 A 
ATOM     45  C   UNL A   1      40.765  27.173  28.727  1.00  0.00     0.074 A 
ATOM     46  C   UNL A   1      42.765  26.229  27.627  1.00  0.00     0.049 A 
ATOM     47  N   UNL A   1      41.174  28.378  29.031  1.00  0.00    -0.248 NA
ATOM     48  C   UNL A   1      39.425  26.845  29.230  1.00  0.00     0.031 C 
ATOM     49  C   UNL A   1      43.559  25.236  26.901  1.00  0.00     0.029 A 
ATOM     50  N   UNL A   1      43.643  27.258  27.855  1.00  0.00    -0.354 N 
ATOM     51  C   UNL A   1      40.126  28.973  29.725  1.00  0.00     0.074 A 
ATOM     52  C   UNL A   1      39.062  27.990  29.792  1.00  0.00     0.031 C 
ATOM     53  C   UNL A   1      44.803  25.704  26.736  1.00  0.00     0.029 A 
ATOM     54  C   UNL A   1      44.865  27.062  27.259  1.00  0.00     0.049 A 
ATOM     55  H   UNL A   1      43.420  28.053  28.390  1.00  0.00     0.167 HD
ATOM     56  C   UNL A   1      40.065  30.227  30.243  1.00  0.00     0.034 A 
ATOM     57  C   UNL A   1      45.900  27.902  27.082  1.00  0.00     0.034 A 
ATOM     58  C   UNL A   1      41.152  31.181  30.161  1.00  0.00     0.049 A 
ATOM     59  C   UNL A   1      45.804  29.294  27.624  1.00  0.00     0.074 A 
ATOM     60  C   UNL A   1      41.211  32.472  30.658  1.00  0.00     0.029 A 
ATOM     61  N   UNL A   1      42.376  30.949  29.537  1.00  0.00    -0.354 N 
ATOM     62  N   UNL A   1      44.788  29.878  28.218  1.00  0.00    -0.248 NA
ATOM     63  C   UNL A   1      46.994  30.135  27.479  1.00  0.00     0.031 C 
ATOM     64  C   UNL A   1      42.437  33.039  30.284  1.00  0.00     0.029 A 
ATOM     65  C   UNL A   1      43.183  32.078  29.621  1.00  0.00     0.049 A 
ATOM     66  H   UNL A   1      42.632  30.106  29.099  1.00  0.00     0.167 HD
ATOM     67  C   UNL A   1      45.219  31.164  28.523  1.00  0.00     0.074 A 
ATOM     68  C   UNL A   1      46.596  31.252  28.072  1.00  0.00     0.031 C 
ATOM     69  C   UNL A   1      44.538  32.174  29.122  1.00  0.00     0.034 A 
BRANCH  56  70
ATOM     70  C   UNL A   1      38.760  30.659  30.878  1.00  0.00     0.023 A 
ATOM     71  C   UNL A   1      37.710  31.226  30.133  1.00  0.00     0.031 A 
ATOM     72  C   UNL A   1      38.571  30.515  32.265  1.00  0.00     0.131 A 
ATOM     73  C   UNL A   1      36.552  31.684  30.783  1.00  0.00     0.055 A 
ATOM     74  C   UNL A   1      37.385  30.901  32.896  1.00  0.00     0.041 A 
ATOM     75  F   UNL A   1      39.541  30.003  33.039  1.00  0.00    -0.206 F 
ATOM     76  C   UNL A   1      36.372  31.503  32.156  1.00  0.00     0.022 A 
BRANCH  73  77
ATOM     77  S   UNL A   1      35.340  32.646  29.832  1.00  0.00     0.124 S 
ATOM     78  O   UNL A   1      36.134  33.794  29.401  1.00  0.00    -0.237 OA
ATOM     79  O   UNL A   1      34.952  31.712  28.782  1.00  0.00    -0.237 OA
ATOM     80  O   UNL A   1      34.300  32.952  30.812  1.00  0.00    -0.744 OA
ENDBRANCH  73  77
ENDBRANCH  56  70
BRANCH  57  81
ATOM     81  C   UNL A   1      47.072  27.442  26.289  1.00  0.00     0.023 A 
ATOM     82  C   UNL A   1      47.179  27.719  24.920  1.00  0.00     0.031 A 
ATOM     83  C   UNL A   1      48.143  26.785  26.925  1.00  0.00     0.131 A 
ATOM     84  C   UNL A   1      48.340  27.343  24.226  1.00  0.00     0.055 A 
ATOM     85  C   UNL A   1      49.312  26.453  26.241  1.00  0.00     0.041 A 
ATOM     86  F   UNL A   1      48.090  26.514  28.238  1.00  0.00    -0.206 F 
ATOM     87  C   UNL A   1      49.414  26.731  24.882  1.00  0.00     0.022 A 
BRANCH  84  88
ATOM     88  S   UNL A   1      48.430  27.665  22.445  1.00  0.00     0.124 S 
ATOM     89  O   UNL A   1      47.159  28.335  22.197  1.00  0.00    -0.237 OA
ATOM     90  O   UNL A   1      49.625  28.497  22.345  1.00  0.00    -0.237 OA
ATOM     91  O   UNL A   1      48.557  26.330  21.864  1.00  0.00    -0.744 OA
ENDBRANCH  84  88
ENDBRANCH  57  81
BRANCH  69  92
ATOM     92  C   UNL A   1      45.308  33.458  29.331  1.00  0.00     0.023 A 
ATOM     93  C   UNL A   1      45.305  34.482  28.367  1.00  0.00     0.031 A 
ATOM     94  C   UNL A   1      46.124  33.619  30.465  1.00  0.00     0.131 A 
ATOM     95  C   UNL A   1      46.170  35.578  28.509  1.00  0.00     0.055 A 
ATOM     96  C   UNL A   1      46.930  34.745  30.635  1.00  0.00     0.041 A 
ATOM     97  F   UNL A   1      46.169  32.671  31.415  1.00  0.00    -0.206 F 
ATOM     98  C   UNL A   1      46.974  35.721  29.643  1.00  0.00     0.022 A 
BRANCH  95  99
ATOM     99  S   UNL A   1      46.348  36.731  27.120  1.00  0.00     0.124 S 
ATOM    100  O   UNL A   1      47.460  37.567  27.561  1.00  0.00    -0.237 OA
ATOM    101  O   UNL A   1      46.627  35.834  26.005  1.00  0.00    -0.237 OA
ATOM    102  O   UNL A   1      45.052  37.405  27.066  1.00  0.00    -0.744 OA
ENDBRANCH  95  99
ENDBRANCH  69  92
ENDBRANCH  43  44
ENDBRANCH  36  38
ENDBRANCH  35  36
ENDBRANCH   1  35
TORSDOF 17
ENDMDL
MODEL 3
REMARK VINA RESULT:     -13.6      4.871     10.295
REMARK SMILES Cc1cc(N2CC[NH+]([C@@H](C(=O)OCCOC(=O)c3ccc(-c4c5nc(c(-c6cc(S(=O)(=O)[O-])ccc6F)c6ccc([nH]6)c(-c6cc(S(=O)(=O)[O-])ccc6F)c6nc(c(-c7cc(S(=O)(=O)[O-])ccc7F)c7ccc4[nH]7)C=C6)C=C5)cc3)c3c[nH]c4ccccc34)CC2)nc2ccccc12
REMARK SMILES IDX 14 1 13 2 12 3 10 4 11 5 9 6 8 7 5 8 6 9 91 10 7 11 90 12
REMARK SMILES IDX 4 14 1 15 2 16 3 17 98 18 93 19 97 20 92 21 94 22 96 23
REMARK SMILES IDX 95 24 81 25 82 26 89 27 83 28 84 29 88 30 85 32 87 33 86 34
REMARK SMILES IDX 15 35 16 36 17 37 18 38 19 39 80 40 20 41 79 42 21 43 22 44
REMARK SMILES IDX 23 45 73 46 24 47 78 48 72 49 74 50 25 51 77 52 71 53 70 54
REMARK SMILES IDX 26 56 58 57 38 58 57 59 39 60 42 61 56 62 75 63 40 64 41 65
REMARK SMILES IDX 55 67 76 68 43 69 27 70 28 71 36 72 29 73 35 74 37 75 34 76
REMARK SMILES IDX 30 77 31 78 32 79 33 80 59 81 60 82 68 83 61 84 67 85 69 86
REMARK SMILES IDX 66 87 62 88 63 89 64 90 65 91 44 92 45 93 53 94 46 95 52 96
REMARK SMILES IDX 54 97 51 98 47 99 48 100 49 101 50 102
REMARK H PARENT 8 13 83 31 74 55 42 66
REMARK Flexibility Score: inf
ROOT
ATOM      1  C   UNL A   1      36.860  21.087  24.607  1.00  0.00     0.275 C 
ENDROOT
BRANCH   1   2
ATOM      2  C   UNL A   1      36.417  22.234  23.710  1.00  0.00     0.274 C 
BRANCH   2   3
ATOM      3  O   UNL A   1      35.975  23.368  24.495  1.00  0.00    -0.457 OA
BRANCH   3   4
ATOM      4  C   UNL A   1      34.641  23.454  24.739  1.00  0.00     0.370 C 
ATOM      5  O   UNL A   1      34.170  24.183  25.614  1.00  0.00    -0.245 OA
BRANCH   4   6
ATOM      6  C   UNL A   1      33.775  22.432  23.996  1.00  0.00     0.328 C 
BRANCH   6   7
ATOM      7  N   UNL A   1      32.816  22.975  22.968  1.00  0.00    -0.316 N 
ATOM      8  N   UNL A   1      32.024  25.701  23.599  1.00  0.00    -0.345 N 
ATOM      9  C   UNL A   1      31.434  24.570  24.312  1.00  0.00     0.179 C 
ATOM     10  C   UNL A   1      32.766  25.510  22.358  1.00  0.00     0.179 C 
ATOM     11  C   UNL A   1      31.470  23.313  23.448  1.00  0.00     0.285 C 
ATOM     12  C   UNL A   1      33.339  24.071  22.141  1.00  0.00     0.285 C 
ATOM     13  H   UNL A   1      32.714  22.152  22.373  1.00  0.00     0.349 HD
BRANCH   8  14
ATOM     14  C   UNL A   1      31.384  26.887  23.898  1.00  0.00     0.129 A 
ATOM     15  C   UNL A   1      32.235  30.096  25.687  1.00  0.00     0.045 C 
ATOM     16  C   UNL A   1      31.492  29.103  24.841  1.00  0.00    -0.038 A 
ATOM     17  C   UNL A   1      31.989  27.803  24.747  1.00  0.00     0.051 A 
ATOM     18  C   UNL A   1      30.349  29.446  24.087  1.00  0.00     0.003 A 
ATOM     19  C   UNL A   1      29.788  28.445  23.265  1.00  0.00     0.073 A 
ATOM     20  C   UNL A   1      29.762  30.732  24.098  1.00  0.00     0.010 A 
ATOM     21  N   UNL A   1      30.295  27.206  23.176  1.00  0.00    -0.231 NA
ATOM     22  C   UNL A   1      28.679  28.759  22.489  1.00  0.00     0.029 A 
ATOM     23  C   UNL A   1      28.646  31.020  23.313  1.00  0.00     0.001 A 
ATOM     24  C   UNL A   1      28.104  30.031  22.505  1.00  0.00     0.002 A 
ENDBRANCH   8  14
ENDBRANCH   6   7
BRANCH   6  25
ATOM     25  C   UNL A   1      33.166  21.237  24.719  1.00  0.00     0.046 A 
ATOM     26  C   UNL A   1      33.127  21.176  26.110  1.00  0.00     0.094 A 
ATOM     27  C   UNL A   1      32.806  19.910  24.266  1.00  0.00     0.009 A 
ATOM     28  N   UNL A   1      33.059  19.865  26.486  1.00  0.00    -0.361 N 
ATOM     29  C   UNL A   1      32.955  19.067  25.375  1.00  0.00     0.046 A 
ATOM     30  C   UNL A   1      32.529  19.290  23.028  1.00  0.00     0.011 A 
ATOM     31  H   UNL A   1      33.081  19.540  27.414  1.00  0.00     0.166 HD
ATOM     32  C   UNL A   1      33.011  17.671  25.285  1.00  0.00     0.026 A 
ATOM     33  C   UNL A   1      32.502  17.887  22.932  1.00  0.00     0.001 A 
ATOM     34  C   UNL A   1      32.790  17.093  24.037  1.00  0.00     0.002 A 
ENDBRANCH   6  25
ENDBRANCH   4   6
ENDBRANCH   3   4
ENDBRANCH   2   3
ENDBRANCH   1   2
BRANCH   1  35
ATOM     35  O   UNL A   1      37.376  21.659  25.817  1.00  0.00    -0.458 OA
BRANCH  35  36
ATOM     36  C   UNL A   1      38.690  21.452  26.042  1.00  0.00     0.338 C 
ATOM     37  O   UNL A   1      39.333  20.458  25.719  1.00  0.00    -0.246 OA
BRANCH  36  38
ATOM     38  C   UNL A   1      39.303  22.663  26.634  1.00  0.00     0.060 A 
ATOM     39  C   UNL A   1      38.964  23.942  26.182  1.00  0.00     0.016 A 
ATOM     40  C   UNL A   1      40.340  22.513  27.555  1.00  0.00     0.016 A 
ATOM     41  C   UNL A   1      39.721  25.048  26.553  1.00  0.00     0.010 A 
ATOM     42  C   UNL A   1      41.033  23.637  28.011  1.00  0.00     0.010 A 
ATOM     43  C   UNL A   1      40.746  24.910  27.494  1.00  0.00    -0.014 A 
BRANCH  43  44
ATOM     44  C   UNL A   1      41.481  26.098  27.994  1.00  0.00     0.031 A 
ATOM     45  C   UNL A   1      40.771  27.168  28.772  1.00  0.00     0.074 A 
ATOM     46  C   UNL A   1      42.785  26.234  27.689  1.00  0.00     0.049 A 
ATOM     47  N   UNL A   1      41.168  28.378  29.070  1.00  0.00    -0.248 NA
ATOM     48  C   UNL A   1      39.431  26.832  29.269  1.00  0.00     0.031 C 
ATOM     49  C   UNL A   1      43.592  25.243  26.975  1.00  0.00     0.029 A 
ATOM     50  N   UNL A   1      43.653  27.271  27.917  1.00  0.00    -0.354 N 
ATOM     51  C   UNL A   1      40.111  28.969  29.754  1.00  0.00     0.074 A 
ATOM     52  C   UNL A   1      39.055  27.978  29.821  1.00  0.00     0.031 C 
ATOM     53  C   UNL A   1      44.833  25.720  26.814  1.00  0.00     0.029 A 
ATOM     54  C   UNL A   1      44.880  27.082  27.328  1.00  0.00     0.049 A 
ATOM     55  H   UNL A   1      43.420  28.068  28.446  1.00  0.00     0.167 HD
ATOM     56  C   UNL A   1      40.036  30.225  30.264  1.00  0.00     0.034 A 
ATOM     57  C   UNL A   1      45.910  27.929  27.153  1.00  0.00     0.034 A 
ATOM     58  C   UNL A   1      41.116  31.188  30.183  1.00  0.00     0.049 A 
ATOM     59  C   UNL A   1      45.798  29.324  27.686  1.00  0.00     0.074 A 
ATOM     60  C   UNL A   1      41.162  32.483  30.673  1.00  0.00     0.029 A 
ATOM     61  N   UNL A   1      42.345  30.962  29.568  1.00  0.00    -0.354 N 
ATOM     62  N   UNL A   1      44.774  29.903  28.271  1.00  0.00    -0.248 NA
ATOM     63  C   UNL A   1      46.982  30.174  27.543  1.00  0.00     0.031 C 
ATOM     64  C   UNL A   1      42.385  33.058  30.303  1.00  0.00     0.029 A 
ATOM     65  C   UNL A   1      43.143  32.098  29.650  1.00  0.00     0.049 A 
ATOM     66  H   UNL A   1      42.611  30.118  29.137  1.00  0.00     0.167 HD
ATOM     67  C   UNL A   1      45.193  31.194  28.569  1.00  0.00     0.074 A 
ATOM     68  C   UNL A   1      46.572  31.292  28.127  1.00  0.00     0.031 C 
ATOM     69  C   UNL A   1      44.500  32.203  29.159  1.00  0.00     0.034 A 
BRANCH  56  70
ATOM     70  C   UNL A   1      38.724  30.650  30.889  1.00  0.00     0.023 A 
ATOM     71  C   UNL A   1      37.669  31.191  30.132  1.00  0.00     0.031 A 
ATOM     72  C   UNL A   1      38.533  30.527  32.278  1.00  0.00     0.131 A 
ATOM     73  C   UNL A   1      36.503  31.644  30.771  1.00  0.00     0.055 A 
ATOM     74  C   UNL A   1      37.340  30.907  32.899  1.00  0.00     0.041 A 
ATOM     75  F   UNL A   1      39.508  30.041  33.063  1.00  0.00    -0.206 F 
ATOM     76  C   UNL A   1      36.322  31.483  32.147  1.00  0.00     0.022 A 
BRANCH  73  77
ATOM     77  S   UNL A   1      35.280  32.574  29.801  1.00  0.00     0.124 S 
ATOM     78  O   UNL A   1      34.334  32.998  30.832  1.00  0.00    -0.237 OA
ATOM     79  O   UNL A   1      36.089  33.632  29.208  1.00  0.00    -0.237 OA
ATOM     80  O   UNL A   1      34.762  31.581  28.862  1.00  0.00    -0.744 OA
ENDBRANCH  73  77
ENDBRANCH  56  70
BRANCH  57  81
ATOM     81  C   UNL A   1      47.090  27.474  26.370  1.00  0.00     0.023 A 
ATOM     82  C   UNL A   1      48.161  26.814  26.985  1.00  0.00     0.031 A 
ATOM     83  C   UNL A   1      47.113  27.627  24.970  1.00  0.00     0.131 A 
ATOM     84  C   UNL A   1      49.216  26.324  26.199  1.00  0.00     0.055 A 
ATOM     85  C   UNL A   1      48.141  27.100  24.190  1.00  0.00     0.041 A 
ATOM     86  F   UNL A   1      46.100  28.240  24.337  1.00  0.00    -0.206 F 
ATOM     87  C   UNL A   1      49.203  26.445  24.806  1.00  0.00     0.022 A 
BRANCH  84  88
ATOM     88  S   UNL A   1      50.615  25.522  27.026  1.00  0.00     0.124 S 
ATOM     89  O   UNL A   1      51.083  26.578  27.916  1.00  0.00    -0.237 OA
ATOM     90  O   UNL A   1      49.976  24.378  27.669  1.00  0.00    -0.237 OA
ATOM     91  O   UNL A   1      51.516  25.188  25.925  1.00  0.00    -0.744 OA
ENDBRANCH  84  88
ENDBRANCH  57  81
BRANCH  69  92
ATOM     92  C   UNL A   1      45.258  33.494  29.365  1.00  0.00     0.023 A 
ATOM     93  C   UNL A   1      45.343  34.466  28.351  1.00  0.00     0.031 A 
ATOM     94  C   UNL A   1      45.976  33.713  30.554  1.00  0.00     0.131 A 
ATOM     95  C   UNL A   1      46.200  35.565  28.508  1.00  0.00     0.055 A 
ATOM     96  C   UNL A   1      46.773  34.845  30.731  1.00  0.00     0.041 A 
ATOM     97  F   UNL A   1      45.935  32.816  31.553  1.00  0.00    -0.206 F 
ATOM     98  C   UNL A   1      46.906  35.767  29.697  1.00  0.00     0.022 A 
BRANCH  95  99
ATOM     99  S   UNL A   1      46.503  36.643  27.080  1.00  0.00     0.124 S 
ATOM    100  O   UNL A   1      46.484  35.692  25.973  1.00  0.00    -0.237 OA
ATOM    101  O   UNL A   1      45.377  37.569  27.145  1.00  0.00    -0.237 OA
ATOM    102  O   UNL A   1      47.809  37.233  27.367  1.00  0.00    -0.744 OA
ENDBRANCH  95  99
ENDBRANCH  69  92
ENDBRANCH  43  44
ENDBRANCH  36  38
ENDBRANCH  35  36
ENDBRANCH   1  35
TORSDOF 17
ENDMDL
