MODEL 1
REMARK VINA RESULT:     -12.6      0.000      0.000
REMARK SMILES O=C(COc1ccc(/C=C2\SC(=O)N(Cc3cc4c(cc3Cl)OCO4)C2=O)cc1)OCCOC(=O)c1ccc(-c2c3nc(c(-c4cc(S(=O)(=O)[O-])ccc4F)c4ccc([nH]4)c(-c4cc(S(=O)(=O)[O-])ccc4F)c4nc(c(-c5cc(S(=O)(=O)[O-])ccc5F)c5ccc2[nH]5)C=C4)C=C3)cc1
REMARK SMILES IDX 31 1 30 2 2 3 1 4 3 5 4 6 5 7 6 8 29 9 7 10 28 11 8 12 9 13
REMARK SMILES IDX 10 14 11 15 26 16 12 17 14 18 27 19 13 20 15 21 16 22 17 23
REMARK SMILES IDX 21 24 18 25 20 26 22 27 19 28 25 29 23 30 24 31 32 32 33 33
REMARK SMILES IDX 34 34 35 35 36 36 37 37 98 38 38 39 97 40 39 41 40 42 41 43
REMARK SMILES IDX 91 44 42 45 96 46 90 47 92 48 43 49 95 50 89 51 88 52 44 54
REMARK SMILES IDX 76 55 56 56 75 57 57 58 60 59 74 60 93 61 58 62 59 63 73 65
REMARK SMILES IDX 94 66 61 67 45 68 46 69 54 70 47 71 53 72 55 73 52 74 48 75
REMARK SMILES IDX 49 76 50 77 51 78 77 79 78 80 86 81 79 82 85 83 87 84 84 85
REMARK SMILES IDX 80 86 81 87 82 88 83 89 62 90 63 91 71 92 64 93 70 94 72 95
REMARK SMILES IDX 69 96 65 97 66 98 67 99 68 100
REMARK H PARENT 92 53 60 64
REMARK Flexibility Score: inf
ROOT
ATOM      1  C   UNL A   1      33.721  35.239  31.355  1.00  0.00     0.274 C 
ENDROOT
BRANCH   1   2
ATOM      2  O   UNL A   1      33.769  34.347  30.224  1.00  0.00    -0.460 OA
BRANCH   2   3
ATOM      3  C   UNL A   1      33.731  34.779  28.939  1.00  0.00     0.344 C 
ATOM      4  O   UNL A   1      33.677  35.983  28.696  1.00  0.00    -0.248 OA
BRANCH   3   5
ATOM      5  C   UNL A   1      33.845  33.739  27.822  1.00  0.00     0.351 C 
BRANCH   5   6
ATOM      6  O   UNL A   1      34.744  32.658  28.069  1.00  0.00    -0.482 OA
BRANCH   6   7
ATOM      7  C   UNL A   1      34.103  31.478  27.809  1.00  0.00     0.120 A 
ATOM      8  C   UNL A   1      32.742  31.500  27.509  1.00  0.00     0.047 A 
ATOM      9  C   UNL A   1      34.822  30.289  27.811  1.00  0.00     0.047 A 
ATOM     10  C   UNL A   1      32.103  30.315  27.142  1.00  0.00     0.012 A 
ATOM     11  C   UNL A   1      34.200  29.124  27.406  1.00  0.00     0.012 A 
ATOM     12  C   UNL A   1      32.840  29.129  27.084  1.00  0.00    -0.024 A 
BRANCH  12  13
ATOM     13  C   UNL A   1      32.266  27.856  26.675  1.00  0.00     0.029 C 
ATOM     14  C   UNL A   1      31.608  27.698  25.520  1.00  0.00     0.083 C 
ATOM     15  S   UNL A   1      31.507  28.749  24.162  1.00  0.00    -0.022 SA
ATOM     16  C   UNL A   1      30.848  26.468  25.244  1.00  0.00     0.268 C 
ATOM     17  C   UNL A   1      30.841  27.474  23.153  1.00  0.00     0.293 C 
ATOM     18  N   UNL A   1      30.697  26.333  23.892  1.00  0.00    -0.264 N 
ATOM     19  O   UNL A   1      30.361  25.760  26.111  1.00  0.00    -0.268 OA
ATOM     20  O   UNL A   1      30.548  27.640  21.979  1.00  0.00    -0.261 OA
BRANCH  18  21
ATOM     21  C   UNL A   1      30.334  25.066  23.305  1.00  0.00     0.167 C 
BRANCH  21  22
ATOM     22  C   UNL A   1      31.403  24.025  23.603  1.00  0.00    -0.005 A 
ATOM     23  C   UNL A   1      31.052  22.909  24.388  1.00  0.00     0.057 A 
ATOM     24  C   UNL A   1      32.725  24.103  23.084  1.00  0.00     0.050 A 
ATOM     25  C   UNL A   1      32.017  21.954  24.637  1.00  0.00     0.166 A 
ATOM     26  C   UNL A   1      33.650  23.075  23.283  1.00  0.00     0.071 A 
ATOM     27  Cl  UNL A   1      33.330  25.483  22.248  1.00  0.00    -0.084 Cl
ATOM     28  C   UNL A   1      33.272  22.028  24.083  1.00  0.00     0.167 A 
ATOM     29  O   UNL A   1      31.882  20.870  25.448  1.00  0.00    -0.454 OA
ATOM     30  O   UNL A   1      34.070  20.994  24.458  1.00  0.00    -0.454 OA
ATOM     31  C   UNL A   1      33.245  20.390  25.470  1.00  0.00     0.468 C 
ENDBRANCH  21  22
ENDBRANCH  18  21
ENDBRANCH  12  13
ENDBRANCH   6   7
ENDBRANCH   5   6
ENDBRANCH   3   5
ENDBRANCH   2   3
ENDBRANCH   1   2
BRANCH   1  32
ATOM     32  C   UNL A   1      34.836  34.912  32.350  1.00  0.00     0.275 C 
BRANCH  32  33
ATOM     33  O   UNL A   1      35.723  33.925  31.791  1.00  0.00    -0.458 OA
BRANCH  33  34
ATOM     34  C   UNL A   1      35.922  32.802  32.532  1.00  0.00     0.338 C 
ATOM     35  O   UNL A   1      35.236  32.418  33.461  1.00  0.00    -0.246 OA
BRANCH  34  36
ATOM     36  C   UNL A   1      36.981  31.998  31.875  1.00  0.00     0.060 A 
ATOM     37  C   UNL A   1      37.884  31.284  32.675  1.00  0.00     0.016 A 
ATOM     38  C   UNL A   1      37.049  31.900  30.482  1.00  0.00     0.016 A 
ATOM     39  C   UNL A   1      38.872  30.490  32.083  1.00  0.00     0.010 A 
ATOM     40  C   UNL A   1      38.041  31.117  29.893  1.00  0.00     0.010 A 
ATOM     41  C   UNL A   1      38.976  30.429  30.687  1.00  0.00    -0.014 A 
BRANCH  41  42
ATOM     42  C   UNL A   1      40.168  29.840  30.027  1.00  0.00     0.031 A 
ATOM     43  C   UNL A   1      41.357  30.732  29.807  1.00  0.00     0.074 A 
ATOM     44  C   UNL A   1      40.173  28.578  29.562  1.00  0.00     0.049 A 
ATOM     45  N   UNL A   1      42.437  30.525  29.100  1.00  0.00    -0.248 NA
ATOM     46  C   UNL A   1      41.297  32.050  30.455  1.00  0.00     0.031 C 
ATOM     47  C   UNL A   1      39.099  27.605  29.740  1.00  0.00     0.029 A 
ATOM     48  N   UNL A   1      41.113  27.914  28.811  1.00  0.00    -0.354 N 
ATOM     49  C   UNL A   1      43.184  31.694  29.210  1.00  0.00     0.074 A 
ATOM     50  C   UNL A   1      42.409  32.613  30.017  1.00  0.00     0.031 C 
ATOM     51  C   UNL A   1      39.426  26.476  29.083  1.00  0.00     0.029 A 
ATOM     52  C   UNL A   1      40.709  26.663  28.407  1.00  0.00     0.049 A 
ATOM     53  H   UNL A   1      41.991  28.297  28.583  1.00  0.00     0.167 HD
ATOM     54  C   UNL A   1      44.405  31.974  28.689  1.00  0.00     0.034 A 
ATOM     55  C   UNL A   1      41.290  25.790  27.557  1.00  0.00     0.034 A 
ATOM     56  C   UNL A   1      45.150  31.058  27.862  1.00  0.00     0.049 A 
ATOM     57  C   UNL A   1      42.608  26.148  26.911  1.00  0.00     0.074 A 
ATOM     58  C   UNL A   1      46.399  31.230  27.292  1.00  0.00     0.029 A 
ATOM     59  N   UNL A   1      44.705  29.801  27.469  1.00  0.00    -0.354 N 
ATOM     60  N   UNL A   1      43.315  27.249  27.026  1.00  0.00    -0.248 NA
ATOM     61  C   UNL A   1      43.209  25.144  26.021  1.00  0.00     0.031 C 
ATOM     62  C   UNL A   1      46.675  30.114  26.496  1.00  0.00     0.029 A 
ATOM     63  C   UNL A   1      45.637  29.204  26.635  1.00  0.00     0.049 A 
ATOM     64  H   UNL A   1      43.851  29.395  27.743  1.00  0.00     0.167 HD
ATOM     65  C   UNL A   1      44.458  27.054  26.253  1.00  0.00     0.074 A 
ATOM     66  C   UNL A   1      44.345  25.732  25.672  1.00  0.00     0.031 C 
ATOM     67  C   UNL A   1      45.513  27.886  26.056  1.00  0.00     0.034 A 
BRANCH  54  68
ATOM     68  C   UNL A   1      44.955  33.354  28.952  1.00  0.00     0.023 A 
ATOM     69  C   UNL A   1      45.752  33.628  30.078  1.00  0.00     0.031 A 
ATOM     70  C   UNL A   1      44.611  34.428  28.113  1.00  0.00     0.131 A 
ATOM     71  C   UNL A   1      46.088  34.954  30.391  1.00  0.00     0.055 A 
ATOM     72  C   UNL A   1      45.028  35.733  28.379  1.00  0.00     0.041 A 
ATOM     73  F   UNL A   1      43.832  34.233  27.037  1.00  0.00    -0.206 F 
ATOM     74  C   UNL A   1      45.752  36.006  29.536  1.00  0.00     0.022 A 
BRANCH  71  75
ATOM     75  S   UNL A   1      46.793  35.302  32.026  1.00  0.00     0.124 S 
ATOM     76  O   UNL A   1      46.295  34.172  32.808  1.00  0.00    -0.237 OA
ATOM     77  O   UNL A   1      48.225  35.311  31.755  1.00  0.00    -0.237 OA
ATOM     78  O   UNL A   1      46.214  36.596  32.380  1.00  0.00    -0.744 OA
ENDBRANCH  71  75
ENDBRANCH  54  68
BRANCH  55  79
ATOM     79  C   UNL A   1      40.602  24.512  27.217  1.00  0.00     0.023 A 
ATOM     80  C   UNL A   1      39.390  24.500  26.510  1.00  0.00     0.031 A 
ATOM     81  C   UNL A   1      41.140  23.278  27.628  1.00  0.00     0.131 A 
ATOM     82  C   UNL A   1      38.739  23.282  26.260  1.00  0.00     0.055 A 
ATOM     83  C   UNL A   1      40.511  22.066  27.339  1.00  0.00     0.041 A 
ATOM     84  F   UNL A   1      42.297  23.235  28.307  1.00  0.00    -0.206 F 
ATOM     85  C   UNL A   1      39.298  22.064  26.657  1.00  0.00     0.022 A 
BRANCH  82  86
ATOM     86  S   UNL A   1      37.117  23.309  25.447  1.00  0.00     0.124 S 
ATOM     87  O   UNL A   1      36.542  24.540  25.976  1.00  0.00    -0.237 OA
ATOM     88  O   UNL A   1      37.486  23.325  24.035  1.00  0.00    -0.237 OA
ATOM     89  O   UNL A   1      36.485  22.074  25.908  1.00  0.00    -0.744 OA
ENDBRANCH  82  86
ENDBRANCH  55  79
BRANCH  67  90
ATOM     90  C   UNL A   1      46.666  27.371  25.228  1.00  0.00     0.023 A 
ATOM     91  C   UNL A   1      46.899  27.806  23.912  1.00  0.00     0.031 A 
ATOM     92  C   UNL A   1      47.569  26.449  25.790  1.00  0.00     0.131 A 
ATOM     93  C   UNL A   1      47.991  27.295  23.190  1.00  0.00     0.055 A 
ATOM     94  C   UNL A   1      48.679  25.982  25.085  1.00  0.00     0.041 A 
ATOM     95  F   UNL A   1      47.394  25.999  27.043  1.00  0.00    -0.206 F 
ATOM     96  C   UNL A   1      48.891  26.400  23.775  1.00  0.00     0.022 A 
BRANCH  93  97
ATOM     97  S   UNL A   1      48.193  27.770  21.450  1.00  0.00     0.124 S 
ATOM     98  O   UNL A   1      49.208  28.814  21.537  1.00  0.00    -0.237 OA
ATOM     99  O   UNL A   1      48.615  26.518  20.831  1.00  0.00    -0.237 OA
ATOM    100  O   UNL A   1      46.861  28.232  21.063  1.00  0.00    -0.744 OA
ENDBRANCH  93  97
ENDBRANCH  67  90
ENDBRANCH  41  42
ENDBRANCH  34  36
ENDBRANCH  33  34
ENDBRANCH  32  33
ENDBRANCH   1  32
TORSDOF 19
ENDMDL
MODEL 2
REMARK VINA RESULT:     -12.3      1.633      2.100
REMARK SMILES O=C(COc1ccc(/C=C2\SC(=O)N(Cc3cc4c(cc3Cl)OCO4)C2=O)cc1)OCCOC(=O)c1ccc(-c2c3nc(c(-c4cc(S(=O)(=O)[O-])ccc4F)c4ccc([nH]4)c(-c4cc(S(=O)(=O)[O-])ccc4F)c4nc(c(-c5cc(S(=O)(=O)[O-])ccc5F)c5ccc2[nH]5)C=C4)C=C3)cc1
REMARK SMILES IDX 31 1 30 2 2 3 1 4 3 5 4 6 5 7 6 8 29 9 7 10 28 11 8 12 9 13
REMARK SMILES IDX 10 14 11 15 26 16 12 17 14 18 27 19 13 20 15 21 16 22 17 23
REMARK SMILES IDX 21 24 18 25 20 26 22 27 19 28 25 29 23 30 24 31 32 32 33 33
REMARK SMILES IDX 34 34 35 35 36 36 37 37 98 38 38 39 97 40 39 41 40 42 41 43
REMARK SMILES IDX 91 44 42 45 96 46 90 47 92 48 43 49 95 50 89 51 88 52 44 54
REMARK SMILES IDX 76 55 56 56 75 57 57 58 60 59 74 60 93 61 58 62 59 63 73 65
REMARK SMILES IDX 94 66 61 67 45 68 46 69 54 70 47 71 53 72 55 73 52 74 48 75
REMARK SMILES IDX 49 76 50 77 51 78 77 79 78 80 86 81 79 82 85 83 87 84 84 85
REMARK SMILES IDX 80 86 81 87 82 88 83 89 62 90 63 91 71 92 64 93 70 94 72 95
REMARK SMILES IDX 69 96 65 97 66 98 67 99 68 100
REMARK H PARENT 92 53 60 64
REMARK Flexibility Score: inf
ROOT
ATOM      1  C   UNL A   1      33.661  34.608  29.936  1.00  0.00     0.274 C 
ENDROOT
BRANCH   1   2
ATOM      2  O   UNL A   1      34.638  34.814  28.897  1.00  0.00    -0.460 OA
BRANCH   2   3
ATOM      3  C   UNL A   1      35.027  33.836  28.042  1.00  0.00     0.344 C 
ATOM      4  O   UNL A   1      36.190  33.793  27.644  1.00  0.00    -0.248 OA
BRANCH   3   5
ATOM      5  C   UNL A   1      34.011  32.755  27.667  1.00  0.00     0.351 C 
BRANCH   5   6
ATOM      6  O   UNL A   1      34.128  31.521  28.375  1.00  0.00    -0.482 OA
BRANCH   6   7
ATOM      7  C   UNL A   1      33.548  30.527  27.635  1.00  0.00     0.120 A 
ATOM      8  C   UNL A   1      34.036  29.226  27.751  1.00  0.00     0.047 A 
ATOM      9  C   UNL A   1      32.466  30.821  26.813  1.00  0.00     0.047 A 
ATOM     10  C   UNL A   1      33.386  28.189  27.080  1.00  0.00     0.012 A 
ATOM     11  C   UNL A   1      31.797  29.790  26.183  1.00  0.00     0.012 A 
ATOM     12  C   UNL A   1      32.259  28.476  26.302  1.00  0.00    -0.024 A 
BRANCH  12  13
ATOM     13  C   UNL A   1      31.498  27.455  25.600  1.00  0.00     0.029 C 
ATOM     14  C   UNL A   1      32.032  26.686  24.643  1.00  0.00     0.083 C 
ATOM     15  S   UNL A   1      33.681  26.471  24.200  1.00  0.00    -0.022 SA
ATOM     16  C   UNL A   1      31.184  25.828  23.800  1.00  0.00     0.268 C 
ATOM     17  C   UNL A   1      33.297  25.049  23.243  1.00  0.00     0.293 C 
ATOM     18  N   UNL A   1      31.950  24.824  23.275  1.00  0.00    -0.264 N 
ATOM     19  O   UNL A   1      30.012  26.063  23.551  1.00  0.00    -0.268 OA
ATOM     20  O   UNL A   1      34.143  24.405  22.641  1.00  0.00    -0.261 OA
BRANCH  18  21
ATOM     21  C   UNL A   1      31.345  23.634  22.726  1.00  0.00     0.167 C 
BRANCH  21  22
ATOM     22  C   UNL A   1      31.695  22.426  23.582  1.00  0.00    -0.005 A 
ATOM     23  C   UNL A   1      32.235  21.289  22.949  1.00  0.00     0.057 A 
ATOM     24  C   UNL A   1      31.549  22.412  24.997  1.00  0.00     0.050 A 
ATOM     25  C   UNL A   1      32.574  20.204  23.731  1.00  0.00     0.166 A 
ATOM     26  C   UNL A   1      31.985  21.330  25.766  1.00  0.00     0.071 A 
ATOM     27  Cl  UNL A   1      30.759  23.666  25.876  1.00  0.00    -0.084 Cl
ATOM     28  C   UNL A   1      32.470  20.234  25.101  1.00  0.00     0.167 A 
ATOM     29  O   UNL A   1      33.014  18.997  23.281  1.00  0.00    -0.454 OA
ATOM     30  O   UNL A   1      32.848  19.064  25.679  1.00  0.00    -0.454 OA
ATOM     31  C   UNL A   1      32.994  18.238  24.510  1.00  0.00     0.468 C 
ENDBRANCH  21  22
ENDBRANCH  18  21
ENDBRANCH  12  13
ENDBRANCH   6   7
ENDBRANCH   5   6
ENDBRANCH   3   5
ENDBRANCH   2   3
ENDBRANCH   1   2
BRANCH   1  32
ATOM     32  C   UNL A   1      34.345  34.330  31.276  1.00  0.00     0.275 C 
BRANCH  32  33
ATOM     33  O   UNL A   1      34.604  32.920  31.413  1.00  0.00    -0.458 OA
BRANCH  33  34
ATOM     34  C   UNL A   1      35.469  32.558  32.399  1.00  0.00     0.338 C 
ATOM     35  O   UNL A   1      35.294  32.683  33.597  1.00  0.00    -0.246 OA
BRANCH  34  36
ATOM     36  C   UNL A   1      36.567  31.773  31.783  1.00  0.00     0.060 A 
ATOM     37  C   UNL A   1      37.430  31.046  32.615  1.00  0.00     0.016 A 
ATOM     38  C   UNL A   1      36.710  31.705  30.394  1.00  0.00     0.016 A 
ATOM     39  C   UNL A   1      38.453  30.269  32.061  1.00  0.00     0.010 A 
ATOM     40  C   UNL A   1      37.738  30.939  29.843  1.00  0.00     0.010 A 
ATOM     41  C   UNL A   1      38.632  30.239  30.672  1.00  0.00    -0.014 A 
BRANCH  41  42
ATOM     42  C   UNL A   1      39.861  29.669  30.065  1.00  0.00     0.031 A 
ATOM     43  C   UNL A   1      41.051  30.575  29.917  1.00  0.00     0.074 A 
ATOM     44  C   UNL A   1      39.902  28.414  29.584  1.00  0.00     0.049 A 
ATOM     45  N   UNL A   1      42.168  30.387  29.263  1.00  0.00    -0.248 NA
ATOM     46  C   UNL A   1      40.946  31.883  30.580  1.00  0.00     0.031 C 
ATOM     47  C   UNL A   1      38.829  27.429  29.694  1.00  0.00     0.029 A 
ATOM     48  N   UNL A   1      40.885  27.769  28.872  1.00  0.00    -0.354 N 
ATOM     49  C   UNL A   1      42.897  31.561  29.427  1.00  0.00     0.074 A 
ATOM     50  C   UNL A   1      42.074  32.462  30.205  1.00  0.00     0.031 C 
ATOM     51  C   UNL A   1      39.199  26.313  29.040  1.00  0.00     0.029 A 
ATOM     52  C   UNL A   1      40.513  26.521  28.431  1.00  0.00     0.049 A 
ATOM     53  H   UNL A   1      41.769  28.163  28.694  1.00  0.00     0.167 HD
ATOM     54  C   UNL A   1      44.139  31.859  28.971  1.00  0.00     0.034 A 
ATOM     55  C   UNL A   1      41.144  25.664  27.601  1.00  0.00     0.034 A 
ATOM     56  C   UNL A   1      44.934  30.961  28.171  1.00  0.00     0.049 A 
ATOM     57  C   UNL A   1      42.490  26.043  27.026  1.00  0.00     0.074 A 
ATOM     58  C   UNL A   1      46.209  31.152  27.667  1.00  0.00     0.029 A 
ATOM     59  N   UNL A   1      44.521  29.706  27.739  1.00  0.00    -0.354 N 
ATOM     60  N   UNL A   1      43.180  27.149  27.192  1.00  0.00    -0.248 NA
ATOM     61  C   UNL A   1      43.144  25.056  26.155  1.00  0.00     0.031 C 
ATOM     62  C   UNL A   1      46.535  30.049  26.871  1.00  0.00     0.029 A 
ATOM     63  C   UNL A   1      45.500  29.129  26.945  1.00  0.00     0.049 A 
ATOM     64  H   UNL A   1      43.659  29.288  27.964  1.00  0.00     0.167 HD
ATOM     65  C   UNL A   1      44.362  26.974  26.475  1.00  0.00     0.074 A 
ATOM     66  C   UNL A   1      44.291  25.660  25.871  1.00  0.00     0.031 C 
ATOM     67  C   UNL A   1      45.417  27.818  26.343  1.00  0.00     0.034 A 
BRANCH  54  68
ATOM     68  C   UNL A   1      44.663  33.240  29.280  1.00  0.00     0.023 A 
ATOM     69  C   UNL A   1      44.530  34.301  28.367  1.00  0.00     0.031 A 
ATOM     70  C   UNL A   1      45.379  33.479  30.466  1.00  0.00     0.131 A 
ATOM     71  C   UNL A   1      45.192  35.515  28.605  1.00  0.00     0.055 A 
ATOM     72  C   UNL A   1      45.956  34.720  30.741  1.00  0.00     0.041 A 
ATOM     73  F   UNL A   1      45.562  32.498  31.365  1.00  0.00    -0.206 F 
ATOM     74  C   UNL A   1      45.883  35.741  29.797  1.00  0.00     0.022 A 
BRANCH  71  75
ATOM     75  S   UNL A   1      45.300  36.717  27.250  1.00  0.00     0.124 S 
ATOM     76  O   UNL A   1      46.178  37.733  27.828  1.00  0.00    -0.237 OA
ATOM     77  O   UNL A   1      45.867  35.922  26.168  1.00  0.00    -0.237 OA
ATOM     78  O   UNL A   1      43.915  37.141  27.056  1.00  0.00    -0.744 OA
ENDBRANCH  71  75
ENDBRANCH  54  68
BRANCH  55  79
ATOM     79  C   UNL A   1      40.487  24.386  27.209  1.00  0.00     0.023 A 
ATOM     80  C   UNL A   1      39.276  24.374  26.497  1.00  0.00     0.031 A 
ATOM     81  C   UNL A   1      41.051  23.149  27.573  1.00  0.00     0.131 A 
ATOM     82  C   UNL A   1      38.654  23.152  26.198  1.00  0.00     0.055 A 
ATOM     83  C   UNL A   1      40.451  21.935  27.235  1.00  0.00     0.041 A 
ATOM     84  F   UNL A   1      42.207  23.106  28.255  1.00  0.00    -0.206 F 
ATOM     85  C   UNL A   1      39.240  21.932  26.550  1.00  0.00     0.022 A 
BRANCH  82  86
ATOM     86  S   UNL A   1      37.034  23.173  25.381  1.00  0.00     0.124 S 
ATOM     87  O   UNL A   1      37.414  23.177  23.973  1.00  0.00    -0.237 OA
ATOM     88  O   UNL A   1      36.426  21.945  25.880  1.00  0.00    -0.237 OA
ATOM     89  O   UNL A   1      36.424  24.409  25.868  1.00  0.00    -0.744 OA
ENDBRANCH  82  86
ENDBRANCH  55  79
BRANCH  67  90
ATOM     90  C   UNL A   1      46.615  27.325  25.567  1.00  0.00     0.023 A 
ATOM     91  C   UNL A   1      46.882  27.742  24.252  1.00  0.00     0.031 A 
ATOM     92  C   UNL A   1      47.526  26.443  26.179  1.00  0.00     0.131 A 
ATOM     93  C   UNL A   1      48.015  27.253  23.580  1.00  0.00     0.055 A 
ATOM     94  C   UNL A   1      48.676  25.999  25.525  1.00  0.00     0.041 A 
ATOM     95  F   UNL A   1      47.320  26.012  27.434  1.00  0.00    -0.206 F 
ATOM     96  C   UNL A   1      48.921  26.398  24.214  1.00  0.00     0.022 A 
BRANCH  93  97
ATOM     97  S   UNL A   1      48.266  27.701  21.839  1.00  0.00     0.124 S 
ATOM     98  O   UNL A   1      47.029  28.408  21.526  1.00  0.00    -0.237 OA
ATOM     99  O   UNL A   1      49.473  28.519  21.897  1.00  0.00    -0.237 OA
ATOM    100  O   UNL A   1      48.427  26.410  21.172  1.00  0.00    -0.744 OA
ENDBRANCH  93  97
ENDBRANCH  67  90
ENDBRANCH  41  42
ENDBRANCH  34  36
ENDBRANCH  33  34
ENDBRANCH  32  33
ENDBRANCH   1  32
TORSDOF 19
ENDMDL
MODEL 3
REMARK VINA RESULT:     -12.1      5.528      8.225
REMARK SMILES O=C(COc1ccc(/C=C2\SC(=O)N(Cc3cc4c(cc3Cl)OCO4)C2=O)cc1)OCCOC(=O)c1ccc(-c2c3nc(c(-c4cc(S(=O)(=O)[O-])ccc4F)c4ccc([nH]4)c(-c4cc(S(=O)(=O)[O-])ccc4F)c4nc(c(-c5cc(S(=O)(=O)[O-])ccc5F)c5ccc2[nH]5)C=C4)C=C3)cc1
REMARK SMILES IDX 31 1 30 2 2 3 1 4 3 5 4 6 5 7 6 8 29 9 7 10 28 11 8 12 9 13
REMARK SMILES IDX 10 14 11 15 26 16 12 17 14 18 27 19 13 20 15 21 16 22 17 23
REMARK SMILES IDX 21 24 18 25 20 26 22 27 19 28 25 29 23 30 24 31 32 32 33 33
REMARK SMILES IDX 34 34 35 35 36 36 37 37 98 38 38 39 97 40 39 41 40 42 41 43
REMARK SMILES IDX 91 44 42 45 96 46 90 47 92 48 43 49 95 50 89 51 88 52 44 54
REMARK SMILES IDX 76 55 56 56 75 57 57 58 60 59 74 60 93 61 58 62 59 63 73 65
REMARK SMILES IDX 94 66 61 67 45 68 46 69 54 70 47 71 53 72 55 73 52 74 48 75
REMARK SMILES IDX 49 76 50 77 51 78 77 79 78 80 86 81 79 82 85 83 87 84 84 85
REMARK SMILES IDX 80 86 81 87 82 88 83 89 62 90 63 91 71 92 64 93 70 94 72 95
REMARK SMILES IDX 69 96 65 97 66 98 67 99 68 100
REMARK H PARENT 92 53 60 64
REMARK Flexibility Score: inf
ROOT
ATOM      1  C   UNL A   1      33.875  35.245  28.332  1.00  0.00     0.274 C 
ENDROOT
BRANCH   1   2
ATOM      2  O   UNL A   1      35.109  34.867  28.974  1.00  0.00    -0.460 OA
BRANCH   2   3
ATOM      3  C   UNL A   1      35.740  33.691  28.730  1.00  0.00     0.344 C 
ATOM      4  O   UNL A   1      36.783  33.419  29.321  1.00  0.00    -0.248 OA
BRANCH   3   5
ATOM      5  C   UNL A   1      35.074  32.695  27.777  1.00  0.00     0.351 C 
BRANCH   5   6
ATOM      6  O   UNL A   1      33.860  32.108  28.244  1.00  0.00    -0.482 OA
BRANCH   6   7
ATOM      7  C   UNL A   1      33.707  30.880  27.661  1.00  0.00     0.120 A 
ATOM      8  C   UNL A   1      34.807  30.026  27.587  1.00  0.00     0.047 A 
ATOM      9  C   UNL A   1      32.459  30.492  27.188  1.00  0.00     0.047 A 
ATOM     10  C   UNL A   1      34.637  28.733  27.087  1.00  0.00     0.012 A 
ATOM     11  C   UNL A   1      32.282  29.199  26.734  1.00  0.00     0.012 A 
ATOM     12  C   UNL A   1      33.368  28.322  26.669  1.00  0.00    -0.024 A 
BRANCH  12  13
ATOM     13  C   UNL A   1      33.091  26.983  26.171  1.00  0.00     0.029 C 
ATOM     14  C   UNL A   1      33.034  26.695  24.865  1.00  0.00     0.083 C 
ATOM     15  S   UNL A   1      33.519  27.640  23.511  1.00  0.00    -0.022 SA
ATOM     16  C   UNL A   1      32.531  25.394  24.398  1.00  0.00     0.268 C 
ATOM     17  C   UNL A   1      33.433  26.251  22.440  1.00  0.00     0.293 C 
ATOM     18  N   UNL A   1      33.014  25.155  23.141  1.00  0.00    -0.264 N 
ATOM     19  O   UNL A   1      31.732  24.710  25.018  1.00  0.00    -0.268 OA
ATOM     20  O   UNL A   1      33.697  26.313  21.248  1.00  0.00    -0.261 OA
BRANCH  18  21
ATOM     21  C   UNL A   1      33.006  23.826  22.579  1.00  0.00     0.167 C 
BRANCH  21  22
ATOM     22  C   UNL A   1      33.966  22.928  23.345  1.00  0.00    -0.005 A 
ATOM     23  C   UNL A   1      35.293  23.367  23.528  1.00  0.00     0.057 A 
ATOM     24  C   UNL A   1      33.571  21.692  23.927  1.00  0.00     0.050 A 
ATOM     25  C   UNL A   1      36.155  22.562  24.244  1.00  0.00     0.166 A 
ATOM     26  C   UNL A   1      34.447  20.946  24.720  1.00  0.00     0.071 A 
ATOM     27  Cl  UNL A   1      32.035  20.966  23.648  1.00  0.00    -0.084 Cl
ATOM     28  C   UNL A   1      35.736  21.396  24.839  1.00  0.00     0.167 A 
ATOM     29  O   UNL A   1      37.484  22.780  24.434  1.00  0.00    -0.454 OA
ATOM     30  O   UNL A   1      36.740  20.752  25.489  1.00  0.00    -0.454 OA
ATOM     31  C   UNL A   1      37.867  21.533  25.054  1.00  0.00     0.468 C 
ENDBRANCH  21  22
ENDBRANCH  18  21
ENDBRANCH  12  13
ENDBRANCH   6   7
ENDBRANCH   5   6
ENDBRANCH   3   5
ENDBRANCH   2   3
ENDBRANCH   1   2
BRANCH   1  32
ATOM     32  C   UNL A   1      32.971  36.007  29.303  1.00  0.00     0.275 C 
BRANCH  32  33
ATOM     33  O   UNL A   1      32.644  35.173  30.430  1.00  0.00    -0.458 OA
BRANCH  33  34
ATOM     34  C   UNL A   1      32.846  35.714  31.661  1.00  0.00     0.338 C 
ATOM     35  O   UNL A   1      32.138  36.534  32.217  1.00  0.00    -0.246 OA
BRANCH  34  36
ATOM     36  C   UNL A   1      33.949  34.970  32.316  1.00  0.00     0.060 A 
ATOM     37  C   UNL A   1      35.249  35.496  32.262  1.00  0.00     0.016 A 
ATOM     38  C   UNL A   1      33.699  33.794  33.029  1.00  0.00     0.016 A 
ATOM     39  C   UNL A   1      36.303  34.834  32.899  1.00  0.00     0.010 A 
ATOM     40  C   UNL A   1      34.754  33.128  33.655  1.00  0.00     0.010 A 
ATOM     41  C   UNL A   1      36.066  33.628  33.571  1.00  0.00    -0.014 A 
BRANCH  41  42
ATOM     42  C   UNL A   1      37.184  32.755  34.009  1.00  0.00     0.031 A 
ATOM     43  C   UNL A   1      37.909  33.129  35.271  1.00  0.00     0.074 A 
ATOM     44  C   UNL A   1      37.601  31.710  33.273  1.00  0.00     0.049 A 
ATOM     45  N   UNL A   1      39.019  32.652  35.769  1.00  0.00    -0.248 NA
ATOM     46  C   UNL A   1      37.302  34.210  36.061  1.00  0.00     0.031 C 
ATOM     47  C   UNL A   1      36.966  31.226  32.051  1.00  0.00     0.029 A 
ATOM     48  N   UNL A   1      38.690  30.888  33.439  1.00  0.00    -0.354 N 
ATOM     49  C   UNL A   1      39.253  33.385  36.929  1.00  0.00     0.074 A 
ATOM     50  C   UNL A   1      38.189  34.361  37.030  1.00  0.00     0.031 C 
ATOM     51  C   UNL A   1      37.696  30.211  31.556  1.00  0.00     0.029 A 
ATOM     52  C   UNL A   1      38.871  30.002  32.403  1.00  0.00     0.049 A 
ATOM     53  H   UNL A   1      39.282  30.928  34.224  1.00  0.00     0.167 HD
ATOM     54  C   UNL A   1      40.261  33.254  37.827  1.00  0.00     0.034 A 
ATOM     55  C   UNL A   1      39.888  29.152  32.148  1.00  0.00     0.034 A 
ATOM     56  C   UNL A   1      41.330  32.297  37.696  1.00  0.00     0.049 A 
ATOM     57  C   UNL A   1      41.052  29.077  33.109  1.00  0.00     0.074 A 
ATOM     58  C   UNL A   1      42.394  32.068  38.550  1.00  0.00     0.029 A 
ATOM     59  N   UNL A   1      41.484  31.420  36.627  1.00  0.00    -0.354 N 
ATOM     60  N   UNL A   1      41.262  29.764  34.209  1.00  0.00    -0.248 NA
ATOM     61  C   UNL A   1      42.113  28.110  32.798  1.00  0.00     0.031 C 
ATOM     62  C   UNL A   1      43.228  31.110  37.964  1.00  0.00     0.029 A 
ATOM     63  C   UNL A   1      42.643  30.677  36.784  1.00  0.00     0.049 A 
ATOM     64  H   UNL A   1      40.860  31.340  35.870  1.00  0.00     0.167 HD
ATOM     65  C   UNL A   1      42.461  29.286  34.736  1.00  0.00     0.074 A 
ATOM     66  C   UNL A   1      42.930  28.257  33.833  1.00  0.00     0.031 C 
ATOM     67  C   UNL A   1      43.105  29.654  35.873  1.00  0.00     0.034 A 
BRANCH  54  68
ATOM     68  C   UNL A   1      40.271  34.225  38.982  1.00  0.00     0.023 A 
ATOM     69  C   UNL A   1      39.621  33.935  40.196  1.00  0.00     0.031 A 
ATOM     70  C   UNL A   1      40.864  35.492  38.841  1.00  0.00     0.131 A 
ATOM     71  C   UNL A   1      39.490  34.931  41.174  1.00  0.00     0.055 A 
ATOM     72  C   UNL A   1      40.811  36.447  39.858  1.00  0.00     0.041 A 
ATOM     73  F   UNL A   1      41.476  35.837  37.697  1.00  0.00    -0.206 F 
ATOM     74  C   UNL A   1      40.102  36.177  41.024  1.00  0.00     0.022 A 
BRANCH  71  75
ATOM     75  S   UNL A   1      38.345  34.641  42.551  1.00  0.00     0.124 S 
ATOM     76  O   UNL A   1      38.927  35.476  43.600  1.00  0.00    -0.237 OA
ATOM     77  O   UNL A   1      37.073  35.096  42.003  1.00  0.00    -0.237 OA
ATOM     78  O   UNL A   1      38.447  33.202  42.785  1.00  0.00    -0.744 OA
ENDBRANCH  71  75
ENDBRANCH  54  68
BRANCH  55  79
ATOM     79  C   UNL A   1      39.887  28.343  30.897  1.00  0.00     0.023 A 
ATOM     80  C   UNL A   1      40.672  28.705  29.790  1.00  0.00     0.031 A 
ATOM     81  C   UNL A   1      39.070  27.203  30.782  1.00  0.00     0.131 A 
ATOM     82  C   UNL A   1      40.600  27.954  28.607  1.00  0.00     0.055 A 
ATOM     83  C   UNL A   1      39.035  26.434  29.618  1.00  0.00     0.041 A 
ATOM     84  F   UNL A   1      38.300  26.814  31.811  1.00  0.00    -0.206 F 
ATOM     85  C   UNL A   1      39.798  26.813  28.518  1.00  0.00     0.022 A 
BRANCH  82  86
ATOM     86  S   UNL A   1      41.536  28.516  27.157  1.00  0.00     0.124 S 
ATOM     87  O   UNL A   1      42.189  27.284  26.732  1.00  0.00    -0.237 OA
ATOM     88  O   UNL A   1      40.477  29.017  26.288  1.00  0.00    -0.237 OA
ATOM     89  O   UNL A   1      42.425  29.540  27.703  1.00  0.00    -0.744 OA
ENDBRANCH  82  86
ENDBRANCH  55  79
BRANCH  67  90
ATOM     90  C   UNL A   1      44.357  28.896  36.245  1.00  0.00     0.023 A 
ATOM     91  C   UNL A   1      44.316  27.669  36.930  1.00  0.00     0.031 A 
ATOM     92  C   UNL A   1      45.616  29.404  35.871  1.00  0.00     0.131 A 
ATOM     93  C   UNL A   1      45.514  27.006  37.247  1.00  0.00     0.055 A 
ATOM     94  C   UNL A   1      46.799  28.716  36.145  1.00  0.00     0.041 A 
ATOM     95  F   UNL A   1      45.713  30.571  35.216  1.00  0.00    -0.206 F 
ATOM     96  C   UNL A   1      46.752  27.513  36.843  1.00  0.00     0.022 A 
BRANCH  93  97
ATOM     97  S   UNL A   1      45.442  25.493  38.246  1.00  0.00     0.124 S 
ATOM     98  O   UNL A   1      44.937  25.994  39.519  1.00  0.00    -0.237 OA
ATOM     99  O   UNL A   1      44.526  24.655  37.480  1.00  0.00    -0.237 OA
ATOM    100  O   UNL A   1      46.829  25.030  38.269  1.00  0.00    -0.744 OA
ENDBRANCH  93  97
ENDBRANCH  67  90
ENDBRANCH  41  42
ENDBRANCH  34  36
ENDBRANCH  33  34
ENDBRANCH  32  33
ENDBRANCH   1  32
TORSDOF 19
ENDMDL
