MODEL 1
REMARK VINA RESULT:     -12.5      0.000      0.000
REMARK SMILES O=C(CC[N@@H+]1C[C@@H](c2ccccc2)[C@@H]2[C@H]1[C@H]1CC[N@H+]2CC1)OCCOC(=O)c1ccc(-c2c3nc(c(-c4cc(S(=O)(=O)[O-])ccc4F)c4ccc([nH]4)c(-c4cc(S(=O)(=O)[O-])ccc4F)c4nc(c(-c5cc(S(=O)(=O)[O-])ccc5F)c5ccc2[nH]5)C=C4)C=C3)cc1
REMARK SMILES IDX 23 1 22 2 2 3 1 4 3 5 4 6 5 7 6 8 15 9 7 11 14 12 16 13
REMARK SMILES IDX 19 14 17 15 21 16 18 17 20 18 8 20 9 21 13 22 10 23 12 24
REMARK SMILES IDX 11 25 24 26 25 27 26 28 27 29 28 30 29 31 90 32 30 33 89 34
REMARK SMILES IDX 31 35 32 36 33 37 83 38 34 39 88 40 82 41 84 42 35 43 87 44
REMARK SMILES IDX 81 45 80 46 36 48 68 49 48 50 67 51 49 52 52 53 66 54 85 55
REMARK SMILES IDX 50 56 51 57 65 59 86 60 53 61 37 62 38 63 46 64 39 65 45 66
REMARK SMILES IDX 47 67 44 68 40 69 41 70 42 71 43 72 69 73 70 74 78 75 71 76
REMARK SMILES IDX 77 77 79 78 76 79 72 80 73 81 74 82 75 83 54 84 55 85 63 86
REMARK SMILES IDX 56 87 62 88 64 89 61 90 57 91 58 92 59 93 60 94
REMARK H PARENT 5 10 19 19 84 47 52 58
REMARK Flexibility Score: inf
ROOT
ATOM      1  C   UNL A   1      35.781  21.210  25.736  1.00  0.00     0.274 C 
ENDROOT
BRANCH   1   2
ATOM      2  O   UNL A   1      34.695  21.298  24.794  1.00  0.00    -0.462 OA
BRANCH   2   3
ATOM      3  C   UNL A   1      33.761  20.328  24.637  1.00  0.00     0.311 C 
ATOM      4  O   UNL A   1      34.105  19.167  24.431  1.00  0.00    -0.252 OA
BRANCH   3   5
ATOM      5  C   UNL A   1      32.311  20.696  24.801  1.00  0.00     0.184 C 
BRANCH   5   6
ATOM      6  C   UNL A   1      32.027  21.749  25.882  1.00  0.00     0.274 C 
BRANCH   6   7
ATOM      7  N   UNL A   1      32.120  23.177  25.586  1.00  0.00    -0.326 N 
ATOM      8  C   UNL A   1      31.932  24.145  26.688  1.00  0.00     0.277 C 
ATOM      9  C   UNL A   1      31.580  23.628  24.299  1.00  0.00     0.247 C 
ATOM     10  H   UNL A   1      33.132  23.203  25.459  1.00  0.00     0.348 HD
ATOM     11  C   UNL A   1      31.274  25.501  26.224  1.00  0.00     0.139 C 
ATOM     12  C   UNL A   1      30.815  25.260  24.763  1.00  0.00     0.256 C 
ATOM     13  C   UNL A   1      32.751  23.893  22.939  1.00  0.00     0.065 C 
ATOM     14  N   UNL A   1      30.828  26.378  23.559  1.00  0.00    -0.327 N 
ATOM     15  C   UNL A   1      32.735  25.111  23.618  1.00  0.00     0.071 C 
ATOM     16  C   UNL A   1      32.853  25.237  21.729  1.00  0.00     0.071 C 
ATOM     17  C   UNL A   1      30.961  25.220  22.823  1.00  0.00     0.263 C 
ATOM     18  C   UNL A   1      32.010  26.791  22.475  1.00  0.00     0.263 C 
ATOM     19  H   UNL A   1      30.308  27.204  23.855  1.00  0.00     0.348 HD
BRANCH  11  20
ATOM     20  C   UNL A   1      32.010  26.810  26.442  1.00  0.00    -0.033 A 
ATOM     21  C   UNL A   1      31.411  27.953  26.984  1.00  0.00     0.004 A 
ATOM     22  C   UNL A   1      33.387  26.858  26.155  1.00  0.00     0.004 A 
ATOM     23  C   UNL A   1      32.169  29.089  27.274  1.00  0.00     0.000 A 
ATOM     24  C   UNL A   1      34.140  28.002  26.420  1.00  0.00     0.000 A 
ATOM     25  C   UNL A   1      33.532  29.114  26.993  1.00  0.00     0.000 A 
ENDBRANCH  11  20
ENDBRANCH   6   7
ENDBRANCH   5   6
ENDBRANCH   3   5
ENDBRANCH   2   3
ENDBRANCH   1   2
BRANCH   1  26
ATOM     26  C   UNL A   1      37.055  20.732  25.032  1.00  0.00     0.275 C 
BRANCH  26  27
ATOM     27  O   UNL A   1      38.083  21.726  25.110  1.00  0.00    -0.458 OA
BRANCH  27  28
ATOM     28  C   UNL A   1      39.106  21.348  25.917  1.00  0.00     0.338 C 
ATOM     29  O   UNL A   1      39.655  20.262  25.884  1.00  0.00    -0.246 OA
BRANCH  28  30
ATOM     30  C   UNL A   1      39.585  22.544  26.660  1.00  0.00     0.060 A 
ATOM     31  C   UNL A   1      38.922  23.763  26.464  1.00  0.00     0.016 A 
ATOM     32  C   UNL A   1      40.604  22.441  27.621  1.00  0.00     0.016 A 
ATOM     33  C   UNL A   1      39.348  24.903  27.143  1.00  0.00     0.010 A 
ATOM     34  C   UNL A   1      41.005  23.567  28.329  1.00  0.00     0.010 A 
ATOM     35  C   UNL A   1      40.437  24.813  28.020  1.00  0.00    -0.014 A 
BRANCH  35  36
ATOM     36  C   UNL A   1      41.264  26.008  28.293  1.00  0.00     0.031 A 
ATOM     37  C   UNL A   1      40.557  27.160  28.960  1.00  0.00     0.074 A 
ATOM     38  C   UNL A   1      42.544  26.096  27.905  1.00  0.00     0.049 A 
ATOM     39  N   UNL A   1      40.956  28.386  29.161  1.00  0.00    -0.248 NA
ATOM     40  C   UNL A   1      39.181  26.894  29.418  1.00  0.00     0.031 C 
ATOM     41  C   UNL A   1      43.312  25.031  27.265  1.00  0.00     0.029 A 
ATOM     42  N   UNL A   1      43.413  27.154  27.968  1.00  0.00    -0.354 N 
ATOM     43  C   UNL A   1      39.872  29.036  29.745  1.00  0.00     0.074 A 
ATOM     44  C   UNL A   1      38.783  28.091  29.804  1.00  0.00     0.031 C 
ATOM     45  C   UNL A   1      44.535  25.502  26.962  1.00  0.00     0.029 A 
ATOM     46  C   UNL A   1      44.618  26.909  27.355  1.00  0.00     0.049 A 
ATOM     47  H   UNL A   1      43.195  28.007  28.408  1.00  0.00     0.167 HD
ATOM     48  C   UNL A   1      39.799  30.309  30.204  1.00  0.00     0.034 A 
ATOM     49  C   UNL A   1      45.647  27.745  27.111  1.00  0.00     0.034 A 
ATOM     50  C   UNL A   1      40.903  31.225  30.120  1.00  0.00     0.049 A 
ATOM     51  C   UNL A   1      45.543  29.174  27.590  1.00  0.00     0.074 A 
ATOM     52  C   UNL A   1      40.985  32.526  30.577  1.00  0.00     0.029 A 
ATOM     53  N   UNL A   1      42.123  30.933  29.519  1.00  0.00    -0.354 N 
ATOM     54  N   UNL A   1      44.534  29.775  28.181  1.00  0.00    -0.248 NA
ATOM     55  C   UNL A   1      46.714  30.033  27.382  1.00  0.00     0.031 C 
ATOM     56  C   UNL A   1      42.222  33.044  30.183  1.00  0.00     0.029 A 
ATOM     57  C   UNL A   1      42.949  32.040  29.559  1.00  0.00     0.049 A 
ATOM     58  H   UNL A   1      42.363  30.064  29.123  1.00  0.00     0.167 HD
ATOM     59  C   UNL A   1      44.961  31.074  28.443  1.00  0.00     0.074 A 
ATOM     60  C   UNL A   1      46.320  31.167  27.946  1.00  0.00     0.031 C 
ATOM     61  C   UNL A   1      44.300  32.097  29.048  1.00  0.00     0.034 A 
BRANCH  48  62
ATOM     62  C   UNL A   1      38.472  30.765  30.764  1.00  0.00     0.023 A 
ATOM     63  C   UNL A   1      37.483  31.351  29.951  1.00  0.00     0.031 A 
ATOM     64  C   UNL A   1      38.228  30.702  32.146  1.00  0.00     0.131 A 
ATOM     65  C   UNL A   1      36.353  31.942  30.536  1.00  0.00     0.055 A 
ATOM     66  C   UNL A   1      37.054  31.205  32.712  1.00  0.00     0.041 A 
ATOM     67  F   UNL A   1      39.143  30.183  32.979  1.00  0.00    -0.206 F 
ATOM     68  C   UNL A   1      36.118  31.850  31.909  1.00  0.00     0.022 A 
BRANCH  65  69
ATOM     69  S   UNL A   1      35.300  33.002  29.504  1.00  0.00     0.124 S 
ATOM     70  O   UNL A   1      34.211  33.321  30.426  1.00  0.00    -0.237 OA
ATOM     71  O   UNL A   1      36.195  34.102  29.166  1.00  0.00    -0.237 OA
ATOM     72  O   UNL A   1      34.927  32.133  28.390  1.00  0.00    -0.744 OA
ENDBRANCH  65  69
ENDBRANCH  48  62
BRANCH  49  73
ATOM     73  C   UNL A   1      46.834  27.262  26.351  1.00  0.00     0.023 A 
ATOM     74  C   UNL A   1      47.051  27.631  25.014  1.00  0.00     0.031 A 
ATOM     75  C   UNL A   1      47.779  26.416  26.962  1.00  0.00     0.131 A 
ATOM     76  C   UNL A   1      48.171  27.137  24.326  1.00  0.00     0.055 A 
ATOM     77  C   UNL A   1      48.915  25.963  26.287  1.00  0.00     0.041 A 
ATOM     78  F   UNL A   1      47.624  26.038  28.241  1.00  0.00    -0.206 F 
ATOM     79  C   UNL A   1      49.111  26.319  24.956  1.00  0.00     0.022 A 
BRANCH  76  80
ATOM     80  S   UNL A   1      48.363  27.545  22.568  1.00  0.00     0.124 S 
ATOM     81  O   UNL A   1      48.410  26.221  21.960  1.00  0.00    -0.237 OA
ATOM     82  O   UNL A   1      47.162  28.330  22.306  1.00  0.00    -0.237 OA
ATOM     83  O   UNL A   1      49.617  28.296  22.528  1.00  0.00    -0.744 OA
ENDBRANCH  76  80
ENDBRANCH  49  73
BRANCH  61  84
ATOM     84  C   UNL A   1      45.058  33.383  29.258  1.00  0.00     0.023 A 
ATOM     85  C   UNL A   1      45.029  34.423  28.314  1.00  0.00     0.031 A 
ATOM     86  C   UNL A   1      45.779  33.583  30.449  1.00  0.00     0.131 A 
ATOM     87  C   UNL A   1      45.737  35.607  28.565  1.00  0.00     0.055 A 
ATOM     88  C   UNL A   1      46.434  34.784  30.716  1.00  0.00     0.041 A 
ATOM     89  F   UNL A   1      45.835  32.619  31.383  1.00  0.00    -0.206 F 
ATOM     90  C   UNL A   1      46.422  35.802  29.768  1.00  0.00     0.022 A 
BRANCH  87  91
ATOM     91  S   UNL A   1      45.804  36.874  27.269  1.00  0.00     0.124 S 
ATOM     92  O   UNL A   1      44.415  37.319  27.211  1.00  0.00    -0.237 OA
ATOM     93  O   UNL A   1      46.759  37.831  27.814  1.00  0.00    -0.237 OA
ATOM     94  O   UNL A   1      46.268  36.138  26.094  1.00  0.00    -0.744 OA
ENDBRANCH  87  91
ENDBRANCH  61  84
ENDBRANCH  35  36
ENDBRANCH  28  30
ENDBRANCH  27  28
ENDBRANCH  26  27
ENDBRANCH   1  26
TORSDOF 17
ENDMDL
MODEL 2
REMARK VINA RESULT:     -12.5      1.378      2.457
REMARK SMILES O=C(CC[N@@H+]1C[C@@H](c2ccccc2)[C@@H]2[C@H]1[C@H]1CC[N@H+]2CC1)OCCOC(=O)c1ccc(-c2c3nc(c(-c4cc(S(=O)(=O)[O-])ccc4F)c4ccc([nH]4)c(-c4cc(S(=O)(=O)[O-])ccc4F)c4nc(c(-c5cc(S(=O)(=O)[O-])ccc5F)c5ccc2[nH]5)C=C4)C=C3)cc1
REMARK SMILES IDX 23 1 22 2 2 3 1 4 3 5 4 6 5 7 6 8 15 9 7 11 14 12 16 13
REMARK SMILES IDX 19 14 17 15 21 16 18 17 20 18 8 20 9 21 13 22 10 23 12 24
REMARK SMILES IDX 11 25 24 26 25 27 26 28 27 29 28 30 29 31 90 32 30 33 89 34
REMARK SMILES IDX 31 35 32 36 33 37 83 38 34 39 88 40 82 41 84 42 35 43 87 44
REMARK SMILES IDX 81 45 80 46 36 48 68 49 48 50 67 51 49 52 52 53 66 54 85 55
REMARK SMILES IDX 50 56 51 57 65 59 86 60 53 61 37 62 38 63 46 64 39 65 45 66
REMARK SMILES IDX 47 67 44 68 40 69 41 70 42 71 43 72 69 73 70 74 78 75 71 76
REMARK SMILES IDX 77 77 79 78 76 79 72 80 73 81 74 82 75 83 54 84 55 85 63 86
REMARK SMILES IDX 56 87 62 88 64 89 61 90 57 91 58 92 59 93 60 94
REMARK H PARENT 5 10 19 19 84 47 52 58
REMARK Flexibility Score: inf
ROOT
ATOM      1  C   UNL A   1      35.550  21.461  24.555  1.00  0.00     0.274 C 
ENDROOT
BRANCH   1   2
ATOM      2  O   UNL A   1      34.820  22.492  25.246  1.00  0.00    -0.462 OA
BRANCH   2   3
ATOM      3  C   UNL A   1      34.940  23.812  24.963  1.00  0.00     0.311 C 
ATOM      4  O   UNL A   1      35.556  24.554  25.724  1.00  0.00    -0.252 OA
BRANCH   3   5
ATOM      5  C   UNL A   1      34.375  24.321  23.663  1.00  0.00     0.184 C 
BRANCH   5   6
ATOM      6  C   UNL A   1      32.844  24.434  23.621  1.00  0.00     0.274 C 
BRANCH   6   7
ATOM      7  N   UNL A   1      32.180  25.728  23.761  1.00  0.00    -0.326 N 
ATOM      8  C   UNL A   1      31.377  26.240  22.631  1.00  0.00     0.277 C 
ATOM      9  C   UNL A   1      32.900  26.771  24.500  1.00  0.00     0.247 C 
ATOM     10  H   UNL A   1      31.454  25.416  24.407  1.00  0.00     0.348 HD
ATOM     11  C   UNL A   1      31.387  27.814  22.518  1.00  0.00     0.139 C 
ATOM     12  C   UNL A   1      32.465  28.293  23.523  1.00  0.00     0.256 C 
ATOM     13  C   UNL A   1      32.448  27.038  26.238  1.00  0.00     0.065 C 
ATOM     14  N   UNL A   1      32.397  29.672  24.415  1.00  0.00    -0.327 N 
ATOM     15  C   UNL A   1      31.565  27.850  25.525  1.00  0.00     0.071 C 
ATOM     16  C   UNL A   1      32.200  28.579  27.157  1.00  0.00     0.071 C 
ATOM     17  C   UNL A   1      33.185  28.888  25.230  1.00  0.00     0.263 C 
ATOM     18  C   UNL A   1      31.747  29.965  25.909  1.00  0.00     0.263 C 
ATOM     19  H   UNL A   1      32.252  30.470  23.797  1.00  0.00     0.348 HD
BRANCH  11  20
ATOM     20  C   UNL A   1      30.081  28.583  22.585  1.00  0.00    -0.033 A 
ATOM     21  C   UNL A   1      29.905  29.857  22.032  1.00  0.00     0.004 A 
ATOM     22  C   UNL A   1      28.965  27.954  23.168  1.00  0.00     0.004 A 
ATOM     23  C   UNL A   1      28.647  30.463  22.018  1.00  0.00     0.000 A 
ATOM     24  C   UNL A   1      27.713  28.572  23.178  1.00  0.00     0.000 A 
ATOM     25  C   UNL A   1      27.552  29.822  22.590  1.00  0.00     0.000 A 
ENDBRANCH  11  20
ENDBRANCH   6   7
ENDBRANCH   5   6
ENDBRANCH   3   5
ENDBRANCH   2   3
ENDBRANCH   1   2
BRANCH   1  26
ATOM     26  C   UNL A   1      36.731  20.987  25.407  1.00  0.00     0.275 C 
BRANCH  26  27
ATOM     27  O   UNL A   1      37.912  21.737  25.101  1.00  0.00    -0.458 OA
BRANCH  27  28
ATOM     28  C   UNL A   1      38.978  21.346  25.845  1.00  0.00     0.338 C 
ATOM     29  O   UNL A   1      39.531  20.265  25.756  1.00  0.00    -0.246 OA
BRANCH  28  30
ATOM     30  C   UNL A   1      39.488  22.527  26.592  1.00  0.00     0.060 A 
ATOM     31  C   UNL A   1      38.830  23.754  26.433  1.00  0.00     0.016 A 
ATOM     32  C   UNL A   1      40.533  22.401  27.522  1.00  0.00     0.016 A 
ATOM     33  C   UNL A   1      39.286  24.880  27.117  1.00  0.00     0.010 A 
ATOM     34  C   UNL A   1      40.963  23.513  28.236  1.00  0.00     0.010 A 
ATOM     35  C   UNL A   1      40.398  24.768  27.961  1.00  0.00    -0.014 A 
BRANCH  35  36
ATOM     36  C   UNL A   1      41.242  25.952  28.229  1.00  0.00     0.031 A 
ATOM     37  C   UNL A   1      40.559  27.106  28.917  1.00  0.00     0.074 A 
ATOM     38  C   UNL A   1      42.516  26.030  27.818  1.00  0.00     0.049 A 
ATOM     39  N   UNL A   1      40.975  28.326  29.121  1.00  0.00    -0.248 NA
ATOM     40  C   UNL A   1      39.190  26.850  29.398  1.00  0.00     0.031 C 
ATOM     41  C   UNL A   1      43.260  24.962  27.156  1.00  0.00     0.029 A 
ATOM     42  N   UNL A   1      43.397  27.077  27.873  1.00  0.00    -0.354 N 
ATOM     43  C   UNL A   1      39.909  28.983  29.729  1.00  0.00     0.074 A 
ATOM     44  C   UNL A   1      38.812  28.048  29.800  1.00  0.00     0.031 C 
ATOM     45  C   UNL A   1      44.483  25.422  26.835  1.00  0.00     0.029 A 
ATOM     46  C   UNL A   1      44.588  26.824  27.237  1.00  0.00     0.049 A 
ATOM     47  H   UNL A   1      43.196  27.929  28.324  1.00  0.00     0.167 HD
ATOM     48  C   UNL A   1      39.858  30.252  30.199  1.00  0.00     0.034 A 
ATOM     49  C   UNL A   1      45.622  27.651  26.981  1.00  0.00     0.034 A 
ATOM     50  C   UNL A   1      40.970  31.158  30.103  1.00  0.00     0.049 A 
ATOM     51  C   UNL A   1      45.541  29.078  27.473  1.00  0.00     0.074 A 
ATOM     52  C   UNL A   1      41.074  32.454  30.568  1.00  0.00     0.029 A 
ATOM     53  N   UNL A   1      42.176  30.858  29.477  1.00  0.00    -0.354 N 
ATOM     54  N   UNL A   1      44.550  29.685  28.087  1.00  0.00    -0.248 NA
ATOM     55  C   UNL A   1      46.718  29.926  27.251  1.00  0.00     0.031 C 
ATOM     56  C   UNL A   1      42.310  32.962  30.156  1.00  0.00     0.029 A 
ATOM     57  C   UNL A   1      43.015  31.956  29.511  1.00  0.00     0.049 A 
ATOM     58  H   UNL A   1      42.399  29.990  29.070  1.00  0.00     0.167 HD
ATOM     59  C   UNL A   1      44.995  30.977  28.351  1.00  0.00     0.074 A 
ATOM     60  C   UNL A   1      46.346  31.059  27.830  1.00  0.00     0.031 C 
ATOM     61  C   UNL A   1      44.357  32.002  28.976  1.00  0.00     0.034 A 
BRANCH  48  62
ATOM     62  C   UNL A   1      38.546  30.718  30.786  1.00  0.00     0.023 A 
ATOM     63  C   UNL A   1      37.518  31.249  29.984  1.00  0.00     0.031 A 
ATOM     64  C   UNL A   1      38.356  30.721  32.178  1.00  0.00     0.131 A 
ATOM     65  C   UNL A   1      36.402  31.854  30.582  1.00  0.00     0.055 A 
ATOM     66  C   UNL A   1      37.196  31.237  32.763  1.00  0.00     0.041 A 
ATOM     67  F   UNL A   1      39.310  30.258  33.000  1.00  0.00    -0.206 F 
ATOM     68  C   UNL A   1      36.220  31.828  31.966  1.00  0.00     0.022 A 
BRANCH  65  69
ATOM     69  S   UNL A   1      35.295  32.846  29.540  1.00  0.00     0.124 S 
ATOM     70  O   UNL A   1      34.241  33.203  30.488  1.00  0.00    -0.237 OA
ATOM     71  O   UNL A   1      36.161  33.935  29.107  1.00  0.00    -0.237 OA
ATOM     72  O   UNL A   1      34.887  31.915  28.490  1.00  0.00    -0.744 OA
ENDBRANCH  65  69
ENDBRANCH  48  62
BRANCH  49  73
ATOM     73  C   UNL A   1      46.790  27.162  26.196  1.00  0.00     0.023 A 
ATOM     74  C   UNL A   1      47.028  27.599  24.884  1.00  0.00     0.031 A 
ATOM     75  C   UNL A   1      47.694  26.241  26.758  1.00  0.00     0.131 A 
ATOM     76  C   UNL A   1      48.129  27.098  24.169  1.00  0.00     0.055 A 
ATOM     77  C   UNL A   1      48.811  25.779  26.059  1.00  0.00     0.041 A 
ATOM     78  F   UNL A   1      47.517  25.795  28.012  1.00  0.00    -0.206 F 
ATOM     79  C   UNL A   1      49.029  26.203  24.752  1.00  0.00     0.022 A 
BRANCH  76  80
ATOM     80  S   UNL A   1      48.347  27.600  22.439  1.00  0.00     0.124 S 
ATOM     81  O   UNL A   1      48.435  26.310  21.765  1.00  0.00    -0.237 OA
ATOM     82  O   UNL A   1      47.134  28.372  22.193  1.00  0.00    -0.237 OA
ATOM     83  O   UNL A   1      49.584  28.378  22.464  1.00  0.00    -0.744 OA
ENDBRANCH  76  80
ENDBRANCH  49  73
BRANCH  61  84
ATOM     84  C   UNL A   1      45.131  33.278  29.182  1.00  0.00     0.023 A 
ATOM     85  C   UNL A   1      45.124  34.312  28.231  1.00  0.00     0.031 A 
ATOM     86  C   UNL A   1      45.848  33.475  30.376  1.00  0.00     0.131 A 
ATOM     87  C   UNL A   1      45.848  35.487  28.479  1.00  0.00     0.055 A 
ATOM     88  C   UNL A   1      46.519  34.669  30.640  1.00  0.00     0.041 A 
ATOM     89  F   UNL A   1      45.884  32.517  31.317  1.00  0.00    -0.206 F 
ATOM     90  C   UNL A   1      46.528  35.680  29.685  1.00  0.00     0.022 A 
BRANCH  87  91
ATOM     91  S   UNL A   1      45.940  36.745  27.175  1.00  0.00     0.124 S 
ATOM     92  O   UNL A   1      46.459  35.975  26.050  1.00  0.00    -0.237 OA
ATOM     93  O   UNL A   1      44.554  37.184  27.063  1.00  0.00    -0.237 OA
ATOM     94  O   UNL A   1      46.861  37.739  27.722  1.00  0.00    -0.744 OA
ENDBRANCH  87  91
ENDBRANCH  61  84
ENDBRANCH  35  36
ENDBRANCH  28  30
ENDBRANCH  27  28
ENDBRANCH  26  27
ENDBRANCH   1  26
TORSDOF 17
ENDMDL
MODEL 3
REMARK VINA RESULT:     -12.3      4.974     10.162
REMARK SMILES O=C(CC[N@@H+]1C[C@@H](c2ccccc2)[C@@H]2[C@H]1[C@H]1CC[N@H+]2CC1)OCCOC(=O)c1ccc(-c2c3nc(c(-c4cc(S(=O)(=O)[O-])ccc4F)c4ccc([nH]4)c(-c4cc(S(=O)(=O)[O-])ccc4F)c4nc(c(-c5cc(S(=O)(=O)[O-])ccc5F)c5ccc2[nH]5)C=C4)C=C3)cc1
REMARK SMILES IDX 23 1 22 2 2 3 1 4 3 5 4 6 5 7 6 8 15 9 7 11 14 12 16 13
REMARK SMILES IDX 19 14 17 15 21 16 18 17 20 18 8 20 9 21 13 22 10 23 12 24
REMARK SMILES IDX 11 25 24 26 25 27 26 28 27 29 28 30 29 31 90 32 30 33 89 34
REMARK SMILES IDX 31 35 32 36 33 37 83 38 34 39 88 40 82 41 84 42 35 43 87 44
REMARK SMILES IDX 81 45 80 46 36 48 68 49 48 50 67 51 49 52 52 53 66 54 85 55
REMARK SMILES IDX 50 56 51 57 65 59 86 60 53 61 37 62 38 63 46 64 39 65 45 66
REMARK SMILES IDX 47 67 44 68 40 69 41 70 42 71 43 72 69 73 70 74 78 75 71 76
REMARK SMILES IDX 77 77 79 78 76 79 72 80 73 81 74 82 75 83 54 84 55 85 63 86
REMARK SMILES IDX 56 87 62 88 64 89 61 90 57 91 58 92 59 93 60 94
REMARK H PARENT 5 10 19 19 84 47 52 58
REMARK Flexibility Score: inf
ROOT
ATOM      1  C   UNL A   1      31.839  29.037  26.068  1.00  0.00     0.274 C 
ENDROOT
BRANCH   1   2
ATOM      2  O   UNL A   1      33.072  28.522  25.530  1.00  0.00    -0.462 OA
BRANCH   2   3
ATOM      3  C   UNL A   1      33.224  27.248  25.093  1.00  0.00     0.311 C 
ATOM      4  O   UNL A   1      33.964  27.006  24.143  1.00  0.00    -0.252 OA
BRANCH   3   5
ATOM      5  C   UNL A   1      32.534  26.144  25.848  1.00  0.00     0.184 C 
BRANCH   5   6
ATOM      6  C   UNL A   1      31.912  25.048  24.972  1.00  0.00     0.274 C 
BRANCH   6   7
ATOM      7  N   UNL A   1      32.541  23.735  24.847  1.00  0.00    -0.326 N 
ATOM      8  C   UNL A   1      31.697  22.528  24.975  1.00  0.00     0.277 C 
ATOM      9  C   UNL A   1      33.886  23.583  25.413  1.00  0.00     0.247 C 
ATOM     10  H   UNL A   1      32.694  23.775  23.839  1.00  0.00     0.348 HD
ATOM     11  C   UNL A   1      32.455  21.297  25.608  1.00  0.00     0.139 C 
ATOM     12  C   UNL A   1      33.806  21.862  26.117  1.00  0.00     0.256 C 
ATOM     13  C   UNL A   1      35.297  23.689  24.276  1.00  0.00     0.065 C 
ATOM     14  N   UNL A   1      35.242  21.062  26.108  1.00  0.00    -0.327 N 
ATOM     15  C   UNL A   1      34.926  22.345  24.238  1.00  0.00     0.071 C 
ATOM     16  C   UNL A   1      36.793  22.674  24.173  1.00  0.00     0.071 C 
ATOM     17  C   UNL A   1      35.684  22.366  26.031  1.00  0.00     0.263 C 
ATOM     18  C   UNL A   1      36.419  20.959  24.949  1.00  0.00     0.263 C 
ATOM     19  H   UNL A   1      35.139  20.172  26.595  1.00  0.00     0.348 HD
BRANCH  11  20
ATOM     20  C   UNL A   1      32.571  20.001  24.828  1.00  0.00    -0.033 A 
ATOM     21  C   UNL A   1      32.804  18.757  25.427  1.00  0.00     0.004 A 
ATOM     22  C   UNL A   1      32.360  20.037  23.437  1.00  0.00     0.004 A 
ATOM     23  C   UNL A   1      32.780  17.584  24.671  1.00  0.00     0.000 A 
ATOM     24  C   UNL A   1      32.362  18.866  22.677  1.00  0.00     0.000 A 
ATOM     25  C   UNL A   1      32.558  17.637  23.298  1.00  0.00     0.000 A 
ENDBRANCH  11  20
ENDBRANCH   6   7
ENDBRANCH   5   6
ENDBRANCH   3   5
ENDBRANCH   2   3
ENDBRANCH   1   2
BRANCH   1  26
ATOM     26  C   UNL A   1      31.959  30.543  26.319  1.00  0.00     0.275 C 
BRANCH  26  27
ATOM     27  O   UNL A   1      32.575  30.800  27.586  1.00  0.00    -0.458 OA
BRANCH  27  28
ATOM     28  C   UNL A   1      33.320  31.934  27.577  1.00  0.00     0.338 C 
ATOM     29  O   UNL A   1      32.869  33.064  27.509  1.00  0.00    -0.246 OA
BRANCH  28  30
ATOM     30  C   UNL A   1      34.726  31.576  27.902  1.00  0.00     0.060 A 
ATOM     31  C   UNL A   1      35.078  30.221  27.944  1.00  0.00     0.016 A 
ATOM     32  C   UNL A   1      35.711  32.566  28.053  1.00  0.00     0.016 A 
ATOM     33  C   UNL A   1      36.387  29.852  28.248  1.00  0.00     0.010 A 
ATOM     34  C   UNL A   1      37.025  32.202  28.317  1.00  0.00     0.010 A 
ATOM     35  C   UNL A   1      37.339  30.847  28.505  1.00  0.00    -0.014 A 
BRANCH  35  36
ATOM     36  C   UNL A   1      38.507  30.547  29.360  1.00  0.00     0.031 A 
ATOM     37  C   UNL A   1      39.459  29.504  28.833  1.00  0.00     0.074 A 
ATOM     38  C   UNL A   1      38.674  31.108  30.566  1.00  0.00     0.049 A 
ATOM     39  N   UNL A   1      40.457  28.904  29.422  1.00  0.00    -0.248 NA
ATOM     40  C   UNL A   1      39.209  29.041  27.456  1.00  0.00     0.031 C 
ATOM     41  C   UNL A   1      37.812  32.131  31.152  1.00  0.00     0.029 A 
ATOM     42  N   UNL A   1      39.618  30.863  31.529  1.00  0.00    -0.354 N 
ATOM     43  C   UNL A   1      40.933  27.981  28.496  1.00  0.00     0.074 A 
ATOM     44  C   UNL A   1      40.076  28.054  27.336  1.00  0.00     0.031 C 
ATOM     45  C   UNL A   1      38.250  32.406  32.394  1.00  0.00     0.029 A 
ATOM     46  C   UNL A   1      39.398  31.551  32.698  1.00  0.00     0.049 A 
ATOM     47  H   UNL A   1      40.379  30.254  31.397  1.00  0.00     0.167 HD
ATOM     48  C   UNL A   1      42.001  27.154  28.600  1.00  0.00     0.034 A 
ATOM     49  C   UNL A   1      40.034  31.462  33.884  1.00  0.00     0.034 A 
ATOM     50  C   UNL A   1      42.827  27.104  29.776  1.00  0.00     0.049 A 
ATOM     51  C   UNL A   1      41.199  30.508  34.006  1.00  0.00     0.074 A 
ATOM     52  C   UNL A   1      43.959  26.346  30.006  1.00  0.00     0.029 A 
ATOM     53  N   UNL A   1      42.592  27.838  30.934  1.00  0.00    -0.354 N 
ATOM     54  N   UNL A   1      41.675  29.667  33.114  1.00  0.00    -0.248 NA
ATOM     55  C   UNL A   1      41.920  30.498  35.283  1.00  0.00     0.031 C 
ATOM     56  C   UNL A   1      44.362  26.565  31.327  1.00  0.00     0.029 A 
ATOM     57  C   UNL A   1      43.535  27.524  31.894  1.00  0.00     0.049 A 
ATOM     58  H   UNL A   1      41.861  28.487  31.051  1.00  0.00     0.167 HD
ATOM     59  C   UNL A   1      42.770  29.051  33.714  1.00  0.00     0.074 A 
ATOM     60  C   UNL A   1      42.883  29.619  35.043  1.00  0.00     0.031 C 
ATOM     61  C   UNL A   1      43.614  28.110  33.213  1.00  0.00     0.034 A 
BRANCH  48  62
ATOM     62  C   UNL A   1      42.268  26.221  27.442  1.00  0.00     0.023 A 
ATOM     63  C   UNL A   1      41.704  24.933  27.379  1.00  0.00     0.031 A 
ATOM     64  C   UNL A   1      43.174  26.589  26.433  1.00  0.00     0.131 A 
ATOM     65  C   UNL A   1      42.133  24.027  26.397  1.00  0.00     0.055 A 
ATOM     66  C   UNL A   1      43.522  25.714  25.400  1.00  0.00     0.041 A 
ATOM     67  F   UNL A   1      43.769  27.791  26.452  1.00  0.00    -0.206 F 
ATOM     68  C   UNL A   1      43.017  24.417  25.390  1.00  0.00     0.022 A 
BRANCH  65  69
ATOM     69  S   UNL A   1      41.670  22.280  26.571  1.00  0.00     0.124 S 
ATOM     70  O   UNL A   1      42.445  21.662  25.497  1.00  0.00    -0.237 OA
ATOM     71  O   UNL A   1      42.102  21.974  27.929  1.00  0.00    -0.237 OA
ATOM     72  O   UNL A   1      40.224  22.287  26.360  1.00  0.00    -0.744 OA
ENDBRANCH  65  69
ENDBRANCH  48  62
BRANCH  49  73
ATOM     73  C   UNL A   1      39.558  32.265  35.045  1.00  0.00     0.023 A 
ATOM     74  C   UNL A   1      38.834  31.680  36.096  1.00  0.00     0.031 A 
ATOM     75  C   UNL A   1      39.828  33.645  35.119  1.00  0.00     0.131 A 
ATOM     76  C   UNL A   1      38.385  32.475  37.163  1.00  0.00     0.055 A 
ATOM     77  C   UNL A   1      39.416  34.423  36.204  1.00  0.00     0.041 A 
ATOM     78  F   UNL A   1      40.522  34.254  34.145  1.00  0.00    -0.206 F 
ATOM     79  C   UNL A   1      38.684  33.838  37.231  1.00  0.00     0.022 A 
BRANCH  76  80
ATOM     80  S   UNL A   1      37.360  31.709  38.450  1.00  0.00     0.124 S 
ATOM     81  O   UNL A   1      37.161  30.369  37.911  1.00  0.00    -0.237 OA
ATOM     82  O   UNL A   1      38.221  31.809  39.623  1.00  0.00    -0.237 OA
ATOM     83  O   UNL A   1      36.167  32.553  38.481  1.00  0.00    -0.744 OA
ENDBRANCH  76  80
ENDBRANCH  49  73
BRANCH  61  84
ATOM     84  C   UNL A   1      44.767  27.680  34.084  1.00  0.00     0.023 A 
ATOM     85  C   UNL A   1      44.690  26.547  34.910  1.00  0.00     0.031 A 
ATOM     86  C   UNL A   1      45.978  28.395  34.043  1.00  0.00     0.131 A 
ATOM     87  C   UNL A   1      45.797  26.180  35.689  1.00  0.00     0.055 A 
ATOM     88  C   UNL A   1      47.092  27.992  34.777  1.00  0.00     0.041 A 
ATOM     89  F   UNL A   1      46.101  29.485  33.268  1.00  0.00    -0.206 F 
ATOM     90  C   UNL A   1      47.004  26.883  35.612  1.00  0.00     0.022 A 
BRANCH  87  91
ATOM     91  S   UNL A   1      45.624  24.801  36.855  1.00  0.00     0.124 S 
ATOM     92  O   UNL A   1      44.260  24.354  36.592  1.00  0.00    -0.237 OA
ATOM     93  O   UNL A   1      46.686  23.896  36.430  1.00  0.00    -0.237 OA
ATOM     94  O   UNL A   1      45.831  25.428  38.159  1.00  0.00    -0.744 OA
ENDBRANCH  87  91
ENDBRANCH  61  84
ENDBRANCH  35  36
ENDBRANCH  28  30
ENDBRANCH  27  28
ENDBRANCH  26  27
ENDBRANCH   1  26
TORSDOF 17
ENDMDL
