MODEL 1
REMARK VINA RESULT:     -10.4      0.000      0.000
REMARK SMILES CCNC(=O)c1ccc(N(CC(=O)OCCOC(=O)c2ccc(-c3c4nc(c(-c5cc(S(=O)(=O)[O-])ccc5F)c5ccc([nH]5)c(-c5cc(S(=O)(=O)[O-])ccc5F)c5nc(c(-c6cc(S(=O)(=O)[O-])ccc6F)c6ccc3[nH]6)C=C5)C=C4)cc2)C(C)(C)C)nn1
REMARK SMILES IDX 15 1 14 2 12 3 13 4 11 5 10 6 9 7 6 8 7 9 88 10 8 11 87 12
REMARK SMILES IDX 4 13 3 14 5 16 2 17 1 18 83 19 84 20 85 21 86 22 16 23 17 24
REMARK SMILES IDX 18 25 19 26 20 27 21 28 82 29 22 30 81 31 23 32 24 33 25 34
REMARK SMILES IDX 75 35 26 36 80 37 74 38 76 39 27 40 79 41 73 42 72 43 28 45
REMARK SMILES IDX 60 46 40 47 59 48 41 49 44 50 58 51 77 52 42 53 43 54 57 56
REMARK SMILES IDX 78 57 45 58 29 59 30 60 38 61 31 62 37 63 39 64 36 65 32 66
REMARK SMILES IDX 33 67 34 68 35 69 61 70 62 71 70 72 63 73 69 74 71 75 68 76
REMARK SMILES IDX 64 77 65 78 66 79 67 80 46 81 47 82 55 83 48 84 54 85 56 86
REMARK SMILES IDX 53 87 49 88 50 89 51 90 52 91
REMARK H PARENT 3 15 76 44 44 55
REMARK Flexibility Score: inf
ROOT
ATOM      1  C   UNL A   1      31.474  28.380  25.602  1.00  0.00     0.274 C 
ENDROOT
BRANCH   1   2
ATOM      2  O   UNL A   1      32.748  27.751  25.856  1.00  0.00    -0.461 OA
BRANCH   2   3
ATOM      3  C   UNL A   1      33.157  26.860  24.906  1.00  0.00     0.325 C 
ATOM      4  O   UNL A   1      33.897  27.151  23.967  1.00  0.00    -0.250 OA
BRANCH   3   5
ATOM      5  C   UNL A   1      32.746  25.413  25.182  1.00  0.00     0.241 C 
BRANCH   5   6
ATOM      6  N   UNL A   1      33.204  24.394  24.201  1.00  0.00    -0.339 N 
BRANCH   6   7
ATOM      7  C   UNL A   1      34.398  23.783  24.588  1.00  0.00     0.152 A 
ATOM      8  C   UNL A   1      36.881  22.784  25.342  1.00  0.00     0.150 A 
ATOM      9  C   UNL A   1      35.812  22.636  26.197  1.00  0.00     0.040 A 
ATOM     10  N   UNL A   1      36.743  23.393  24.156  1.00  0.00    -0.143 NA
ATOM     11  C   UNL A   1      34.564  23.102  25.788  1.00  0.00     0.051 A 
ATOM     12  N   UNL A   1      35.494  23.887  23.794  1.00  0.00    -0.132 NA
BRANCH   8  13
ATOM     13  C   UNL A   1      38.220  22.264  25.701  1.00  0.00     0.271 C 
ATOM     14  N   UNL A   1      39.196  23.135  26.141  1.00  0.00    -0.351 N 
ATOM     15  H   UNL A   1      40.104  22.759  26.199  1.00  0.00     0.163 HD
ATOM     16  O   UNL A   1      38.491  21.072  25.582  1.00  0.00    -0.267 OA
BRANCH  14  17
ATOM     17  C   UNL A   1      39.072  24.530  26.528  1.00  0.00     0.113 C 
ATOM     18  C   UNL A   1      38.871  24.661  28.024  1.00  0.00     0.027 C 
ENDBRANCH  14  17
ENDBRANCH   8  13
ENDBRANCH   6   7
BRANCH   6  19
ATOM     19  C   UNL A   1      32.318  23.954  23.076  1.00  0.00     0.034 C 
ATOM     20  C   UNL A   1      30.849  23.886  23.551  1.00  0.00     0.034 C 
ATOM     21  C   UNL A   1      32.512  24.839  21.828  1.00  0.00     0.034 C 
ATOM     22  C   UNL A   1      32.625  22.521  22.586  1.00  0.00     0.034 C 
ENDBRANCH   6  19
ENDBRANCH   5   6
ENDBRANCH   3   5
ENDBRANCH   2   3
ENDBRANCH   1   2
BRANCH   1  23
ATOM     23  C   UNL A   1      31.660  29.875  25.351  1.00  0.00     0.275 C 
BRANCH  23  24
ATOM     24  O   UNL A   1      32.983  30.269  25.752  1.00  0.00    -0.458 OA
BRANCH  24  25
ATOM     25  C   UNL A   1      33.043  31.169  26.763  1.00  0.00     0.338 C 
ATOM     26  O   UNL A   1      32.175  31.968  27.075  1.00  0.00    -0.246 OA
BRANCH  25  27
ATOM     27  C   UNL A   1      34.321  31.033  27.506  1.00  0.00     0.060 A 
ATOM     28  C   UNL A   1      35.163  32.126  27.734  1.00  0.00     0.016 A 
ATOM     29  C   UNL A   1      34.733  29.755  27.892  1.00  0.00     0.016 A 
ATOM     30  C   UNL A   1      36.433  31.932  28.281  1.00  0.00     0.010 A 
ATOM     31  C   UNL A   1      35.963  29.579  28.534  1.00  0.00     0.010 A 
ATOM     32  C   UNL A   1      36.836  30.662  28.724  1.00  0.00    -0.014 A 
BRANCH  32  33
ATOM     33  C   UNL A   1      38.130  30.465  29.439  1.00  0.00     0.031 A 
ATOM     34  C   UNL A   1      39.211  29.585  28.862  1.00  0.00     0.074 A 
ATOM     35  C   UNL A   1      38.311  31.028  30.650  1.00  0.00     0.049 A 
ATOM     36  N   UNL A   1      40.305  29.138  29.426  1.00  0.00    -0.248 NA
ATOM     37  C   UNL A   1      39.025  29.136  27.475  1.00  0.00     0.031 C 
ATOM     38  C   UNL A   1      37.355  31.909  31.327  1.00  0.00     0.029 A 
ATOM     39  N   UNL A   1      39.356  30.935  31.537  1.00  0.00    -0.354 N 
ATOM     40  C   UNL A   1      40.918  28.319  28.483  1.00  0.00     0.074 A 
ATOM     41  C   UNL A   1      40.059  28.322  27.314  1.00  0.00     0.031 C 
ATOM     42  C   UNL A   1      37.866  32.294  32.504  1.00  0.00     0.029 A 
ATOM     43  C   UNL A   1      39.140  31.619  32.711  1.00  0.00     0.049 A 
ATOM     44  H   UNL A   1      40.178  30.427  31.351  1.00  0.00     0.167 HD
ATOM     45  C   UNL A   1      42.084  27.629  28.584  1.00  0.00     0.034 A 
ATOM     46  C   UNL A   1      39.856  31.665  33.850  1.00  0.00     0.034 A 
ATOM     47  C   UNL A   1      42.943  27.656  29.747  1.00  0.00     0.049 A 
ATOM     48  C   UNL A   1      41.116  30.857  33.958  1.00  0.00     0.074 A 
ATOM     49  C   UNL A   1      44.169  27.038  29.929  1.00  0.00     0.029 A 
ATOM     50  N   UNL A   1      42.667  28.332  30.929  1.00  0.00    -0.354 N 
ATOM     51  N   UNL A   1      41.666  30.064  33.070  1.00  0.00    -0.248 NA
ATOM     52  C   UNL A   1      41.844  30.943  35.230  1.00  0.00     0.031 C 
ATOM     53  C   UNL A   1      44.602  27.287  31.237  1.00  0.00     0.029 A 
ATOM     54  C   UNL A   1      43.681  28.118  31.853  1.00  0.00     0.049 A 
ATOM     55  H   UNL A   1      41.867  28.884  31.089  1.00  0.00     0.167 HD
ATOM     56  C   UNL A   1      42.811  29.558  33.674  1.00  0.00     0.074 A 
ATOM     57  C   UNL A   1      42.883  30.154  34.994  1.00  0.00     0.031 C 
ATOM     58  C   UNL A   1      43.723  28.682  33.181  1.00  0.00     0.034 A 
BRANCH  45  59
ATOM     59  C   UNL A   1      42.473  26.742  27.423  1.00  0.00     0.023 A 
ATOM     60  C   UNL A   1      42.323  25.345  27.465  1.00  0.00     0.031 A 
ATOM     61  C   UNL A   1      43.019  27.309  26.256  1.00  0.00     0.131 A 
ATOM     62  C   UNL A   1      42.775  24.559  26.392  1.00  0.00     0.055 A 
ATOM     63  C   UNL A   1      43.398  26.528  25.163  1.00  0.00     0.041 A 
ATOM     64  F   UNL A   1      43.204  28.636  26.164  1.00  0.00    -0.206 F 
ATOM     65  C   UNL A   1      43.291  25.142  25.232  1.00  0.00     0.022 A 
BRANCH  62  66
ATOM     66  S   UNL A   1      42.813  22.756  26.593  1.00  0.00     0.124 S 
ATOM     67  O   UNL A   1      42.175  22.304  25.359  1.00  0.00    -0.237 OA
ATOM     68  O   UNL A   1      44.240  22.483  26.711  1.00  0.00    -0.237 OA
ATOM     69  O   UNL A   1      42.030  22.529  27.807  1.00  0.00    -0.744 OA
ENDBRANCH  62  66
ENDBRANCH  45  59
BRANCH  46  70
ATOM     70  C   UNL A   1      39.357  32.462  35.004  1.00  0.00     0.023 A 
ATOM     71  C   UNL A   1      38.727  31.838  36.091  1.00  0.00     0.031 A 
ATOM     72  C   UNL A   1      39.509  33.860  35.035  1.00  0.00     0.131 A 
ATOM     73  C   UNL A   1      38.253  32.615  37.158  1.00  0.00     0.055 A 
ATOM     74  C   UNL A   1      39.077  34.623  36.119  1.00  0.00     0.041 A 
ATOM     75  F   UNL A   1      40.112  34.500  34.019  1.00  0.00    -0.206 F 
ATOM     76  C   UNL A   1      38.437  34.000  37.187  1.00  0.00     0.022 A 
BRANCH  73  77
ATOM     77  S   UNL A   1      37.349  31.790  38.496  1.00  0.00     0.124 S 
ATOM     78  O   UNL A   1      38.281  31.925  39.610  1.00  0.00    -0.237 OA
ATOM     79  O   UNL A   1      36.132  32.590  38.578  1.00  0.00    -0.237 OA
ATOM     80  O   UNL A   1      37.167  30.429  37.995  1.00  0.00    -0.744 OA
ENDBRANCH  73  77
ENDBRANCH  46  70
BRANCH  58  81
ATOM     81  C   UNL A   1      44.884  28.343  34.082  1.00  0.00     0.023 A 
ATOM     82  C   UNL A   1      44.836  27.244  34.959  1.00  0.00     0.031 A 
ATOM     83  C   UNL A   1      46.028  29.158  34.102  1.00  0.00     0.131 A 
ATOM     84  C   UNL A   1      45.887  27.025  35.862  1.00  0.00     0.055 A 
ATOM     85  C   UNL A   1      47.095  28.904  34.965  1.00  0.00     0.041 A 
ATOM     86  F   UNL A   1      46.123  30.222  33.288  1.00  0.00    -0.206 F 
ATOM     87  C   UNL A   1      47.022  27.841  35.862  1.00  0.00     0.022 A 
BRANCH  84  88
ATOM     88  S   UNL A   1      45.709  25.718  37.107  1.00  0.00     0.124 S 
ATOM     89  O   UNL A   1      46.143  24.535  36.369  1.00  0.00    -0.237 OA
ATOM     90  O   UNL A   1      46.603  26.172  38.167  1.00  0.00    -0.237 OA
ATOM     91  O   UNL A   1      44.286  25.753  37.440  1.00  0.00    -0.744 OA
ENDBRANCH  84  88
ENDBRANCH  58  81
ENDBRANCH  32  33
ENDBRANCH  25  27
ENDBRANCH  24  25
ENDBRANCH  23  24
ENDBRANCH   1  23
TORSDOF 19
ENDMDL
MODEL 2
REMARK VINA RESULT:     -10.2      1.453      2.045
REMARK SMILES CCNC(=O)c1ccc(N(CC(=O)OCCOC(=O)c2ccc(-c3c4nc(c(-c5cc(S(=O)(=O)[O-])ccc5F)c5ccc([nH]5)c(-c5cc(S(=O)(=O)[O-])ccc5F)c5nc(c(-c6cc(S(=O)(=O)[O-])ccc6F)c6ccc3[nH]6)C=C5)C=C4)cc2)C(C)(C)C)nn1
REMARK SMILES IDX 15 1 14 2 12 3 13 4 11 5 10 6 9 7 6 8 7 9 88 10 8 11 87 12
REMARK SMILES IDX 4 13 3 14 5 16 2 17 1 18 83 19 84 20 85 21 86 22 16 23 17 24
REMARK SMILES IDX 18 25 19 26 20 27 21 28 82 29 22 30 81 31 23 32 24 33 25 34
REMARK SMILES IDX 75 35 26 36 80 37 74 38 76 39 27 40 79 41 73 42 72 43 28 45
REMARK SMILES IDX 60 46 40 47 59 48 41 49 44 50 58 51 77 52 42 53 43 54 57 56
REMARK SMILES IDX 78 57 45 58 29 59 30 60 38 61 31 62 37 63 39 64 36 65 32 66
REMARK SMILES IDX 33 67 34 68 35 69 61 70 62 71 70 72 63 73 69 74 71 75 68 76
REMARK SMILES IDX 64 77 65 78 66 79 67 80 46 81 47 82 55 83 48 84 54 85 56 86
REMARK SMILES IDX 53 87 49 88 50 89 51 90 52 91
REMARK H PARENT 3 15 76 44 44 55
REMARK Flexibility Score: inf
ROOT
ATOM      1  C   UNL A   1      31.826  29.563  24.675  1.00  0.00     0.274 C 
ENDROOT
BRANCH   1   2
ATOM      2  O   UNL A   1      33.180  29.364  24.216  1.00  0.00    -0.461 OA
BRANCH   2   3
ATOM      3  C   UNL A   1      33.461  28.111  23.755  1.00  0.00     0.325 C 
ATOM      4  O   UNL A   1      34.098  27.887  22.727  1.00  0.00    -0.250 OA
BRANCH   3   5
ATOM      5  C   UNL A   1      33.050  26.985  24.704  1.00  0.00     0.241 C 
BRANCH   5   6
ATOM      6  N   UNL A   1      32.521  25.746  24.074  1.00  0.00    -0.339 N 
BRANCH   6   7
ATOM      7  C   UNL A   1      33.345  24.642  24.298  1.00  0.00     0.152 A 
ATOM      8  C   UNL A   1      34.788  22.319  24.800  1.00  0.00     0.150 A 
ATOM      9  C   UNL A   1      34.876  22.906  23.558  1.00  0.00     0.040 A 
ATOM     10  N   UNL A   1      34.028  22.849  25.767  1.00  0.00    -0.143 NA
ATOM     11  C   UNL A   1      34.182  24.094  23.334  1.00  0.00     0.051 A 
ATOM     12  N   UNL A   1      33.312  24.012  25.500  1.00  0.00    -0.132 NA
BRANCH   8  13
ATOM     13  C   UNL A   1      35.542  21.083  25.111  1.00  0.00     0.271 C 
ATOM     14  N   UNL A   1      34.898  19.862  25.075  1.00  0.00    -0.351 N 
ATOM     15  H   UNL A   1      35.403  19.106  25.454  1.00  0.00     0.163 HD
ATOM     16  O   UNL A   1      36.725  21.126  25.437  1.00  0.00    -0.267 OA
BRANCH  14  17
ATOM     17  C   UNL A   1      33.580  19.536  24.557  1.00  0.00     0.113 C 
ATOM     18  C   UNL A   1      32.847  18.598  25.493  1.00  0.00     0.027 C 
ENDBRANCH  14  17
ENDBRANCH   8  13
ENDBRANCH   6   7
BRANCH   6  19
ATOM     19  C   UNL A   1      31.141  25.707  23.491  1.00  0.00     0.034 C 
ATOM     20  C   UNL A   1      30.140  26.395  24.446  1.00  0.00     0.034 C 
ATOM     21  C   UNL A   1      31.118  26.289  22.063  1.00  0.00     0.034 C 
ATOM     22  C   UNL A   1      30.590  24.272  23.333  1.00  0.00     0.034 C 
ENDBRANCH   6  19
ENDBRANCH   5   6
ENDBRANCH   3   5
ENDBRANCH   2   3
ENDBRANCH   1   2
BRANCH   1  23
ATOM     23  C   UNL A   1      31.816  30.383  25.964  1.00  0.00     0.275 C 
BRANCH  23  24
ATOM     24  O   UNL A   1      33.082  30.246  26.631  1.00  0.00    -0.458 OA
BRANCH  24  25
ATOM     25  C   UNL A   1      33.529  31.354  27.271  1.00  0.00     0.338 C 
ATOM     26  O   UNL A   1      32.956  32.428  27.344  1.00  0.00    -0.246 OA
BRANCH  25  27
ATOM     27  C   UNL A   1      34.826  31.082  27.937  1.00  0.00     0.060 A 
ATOM     28  C   UNL A   1      35.833  32.050  28.016  1.00  0.00     0.016 A 
ATOM     29  C   UNL A   1      35.079  29.788  28.401  1.00  0.00     0.016 A 
ATOM     30  C   UNL A   1      37.100  31.708  28.494  1.00  0.00     0.010 A 
ATOM     31  C   UNL A   1      36.316  29.478  28.974  1.00  0.00     0.010 A 
ATOM     32  C   UNL A   1      37.348  30.429  29.015  1.00  0.00    -0.014 A 
BRANCH  32  33
ATOM     33  C   UNL A   1      38.652  30.092  29.657  1.00  0.00     0.031 A 
ATOM     34  C   UNL A   1      39.594  29.096  29.030  1.00  0.00     0.074 A 
ATOM     35  C   UNL A   1      38.963  30.637  30.850  1.00  0.00     0.049 A 
ATOM     36  N   UNL A   1      40.663  28.533  29.536  1.00  0.00    -0.248 NA
ATOM     37  C   UNL A   1      39.281  28.665  27.660  1.00  0.00     0.031 C 
ATOM     38  C   UNL A   1      38.150  31.621  31.571  1.00  0.00     0.029 A 
ATOM     39  N   UNL A   1      40.040  30.433  31.678  1.00  0.00    -0.354 N 
ATOM     40  C   UNL A   1      41.127  27.647  28.567  1.00  0.00     0.074 A 
ATOM     41  C   UNL A   1      40.208  27.741  27.450  1.00  0.00     0.031 C 
ATOM     42  C   UNL A   1      38.766  31.952  32.713  1.00  0.00     0.029 A 
ATOM     43  C   UNL A   1      39.968  31.141  32.855  1.00  0.00     0.049 A 
ATOM     44  H   UNL A   1      40.789  29.836  31.451  1.00  0.00     0.167 HD
ATOM     45  C   UNL A   1      42.214  26.833  28.610  1.00  0.00     0.034 A 
ATOM     46  C   UNL A   1      40.749  31.112  33.952  1.00  0.00     0.034 A 
ATOM     47  C   UNL A   1      43.135  26.770  29.722  1.00  0.00     0.049 A 
ATOM     48  C   UNL A   1      41.916  30.171  33.997  1.00  0.00     0.074 A 
ATOM     49  C   UNL A   1      44.294  26.021  29.841  1.00  0.00     0.029 A 
ATOM     50  N   UNL A   1      43.004  27.477  30.911  1.00  0.00    -0.354 N 
ATOM     51  N   UNL A   1      42.324  29.317  33.086  1.00  0.00    -0.248 NA
ATOM     52  C   UNL A   1      42.721  30.180  35.225  1.00  0.00     0.031 C 
ATOM     53  C   UNL A   1      44.827  26.226  31.120  1.00  0.00     0.029 A 
ATOM     54  C   UNL A   1      44.040  27.156  31.778  1.00  0.00     0.049 A 
ATOM     55  H   UNL A   1      42.280  28.114  31.110  1.00  0.00     0.167 HD
ATOM     56  C   UNL A   1      43.439  28.691  33.631  1.00  0.00     0.074 A 
ATOM     57  C   UNL A   1      43.651  29.281  34.938  1.00  0.00     0.031 C 
ATOM     58  C   UNL A   1      44.219  27.717  33.096  1.00  0.00     0.034 A 
BRANCH  45  59
ATOM     59  C   UNL A   1      42.435  25.904  27.438  1.00  0.00     0.023 A 
ATOM     60  C   UNL A   1      41.906  24.602  27.404  1.00  0.00     0.031 A 
ATOM     61  C   UNL A   1      43.206  26.329  26.339  1.00  0.00     0.131 A 
ATOM     62  C   UNL A   1      42.209  23.750  26.329  1.00  0.00     0.055 A 
ATOM     63  C   UNL A   1      43.441  25.502  25.239  1.00  0.00     0.041 A 
ATOM     64  F   UNL A   1      43.753  27.555  26.322  1.00  0.00    -0.206 F 
ATOM     65  C   UNL A   1      42.954  24.199  25.236  1.00  0.00     0.022 A 
BRANCH  62  66
ATOM     66  S   UNL A   1      41.737  22.002  26.448  1.00  0.00     0.124 S 
ATOM     67  O   UNL A   1      40.334  22.043  26.040  1.00  0.00    -0.237 OA
ATOM     68  O   UNL A   1      42.656  21.364  25.513  1.00  0.00    -0.237 OA
ATOM     69  O   UNL A   1      41.956  21.682  27.858  1.00  0.00    -0.744 OA
ENDBRANCH  62  66
ENDBRANCH  45  59
BRANCH  46  70
ATOM     70  C   UNL A   1      40.407  31.964  35.123  1.00  0.00     0.023 A 
ATOM     71  C   UNL A   1      39.374  31.602  35.999  1.00  0.00     0.031 A 
ATOM     72  C   UNL A   1      41.116  33.151  35.383  1.00  0.00     0.131 A 
ATOM     73  C   UNL A   1      39.063  32.431  37.087  1.00  0.00     0.055 A 
ATOM     74  C   UNL A   1      40.833  33.948  36.492  1.00  0.00     0.041 A 
ATOM     75  F   UNL A   1      42.118  33.534  34.575  1.00  0.00    -0.206 F 
ATOM     76  C   UNL A   1      39.795  33.592  37.349  1.00  0.00     0.022 A 
BRANCH  73  77
ATOM     77  S   UNL A   1      37.653  31.989  38.138  1.00  0.00     0.124 S 
ATOM     78  O   UNL A   1      38.231  32.102  39.473  1.00  0.00    -0.237 OA
ATOM     79  O   UNL A   1      36.673  33.008  37.776  1.00  0.00    -0.237 OA
ATOM     80  O   UNL A   1      37.323  30.631  37.713  1.00  0.00    -0.744 OA
ENDBRANCH  73  77
ENDBRANCH  46  70
BRANCH  58  81
ATOM     81  C   UNL A   1      45.385  27.255  33.933  1.00  0.00     0.023 A 
ATOM     82  C   UNL A   1      45.264  26.178  34.830  1.00  0.00     0.031 A 
ATOM     83  C   UNL A   1      46.615  27.933  33.873  1.00  0.00     0.131 A 
ATOM     84  C   UNL A   1      46.336  25.849  35.674  1.00  0.00     0.055 A 
ATOM     85  C   UNL A   1      47.695  27.566  34.676  1.00  0.00     0.041 A 
ATOM     86  F   UNL A   1      46.782  28.971  33.037  1.00  0.00    -0.206 F 
ATOM     87  C   UNL A   1      47.554  26.528  35.594  1.00  0.00     0.022 A 
BRANCH  84  88
ATOM     88  S   UNL A   1      46.084  24.584  36.949  1.00  0.00     0.124 S 
ATOM     89  O   UNL A   1      45.218  25.278  37.898  1.00  0.00    -0.237 OA
ATOM     90  O   UNL A   1      45.465  23.499  36.196  1.00  0.00    -0.237 OA
ATOM     91  O   UNL A   1      47.436  24.309  37.432  1.00  0.00    -0.744 OA
ENDBRANCH  84  88
ENDBRANCH  58  81
ENDBRANCH  32  33
ENDBRANCH  25  27
ENDBRANCH  24  25
ENDBRANCH  23  24
ENDBRANCH   1  23
TORSDOF 19
ENDMDL
MODEL 3
REMARK VINA RESULT:     -10.1      1.857      2.507
REMARK SMILES CCNC(=O)c1ccc(N(CC(=O)OCCOC(=O)c2ccc(-c3c4nc(c(-c5cc(S(=O)(=O)[O-])ccc5F)c5ccc([nH]5)c(-c5cc(S(=O)(=O)[O-])ccc5F)c5nc(c(-c6cc(S(=O)(=O)[O-])ccc6F)c6ccc3[nH]6)C=C5)C=C4)cc2)C(C)(C)C)nn1
REMARK SMILES IDX 15 1 14 2 12 3 13 4 11 5 10 6 9 7 6 8 7 9 88 10 8 11 87 12
REMARK SMILES IDX 4 13 3 14 5 16 2 17 1 18 83 19 84 20 85 21 86 22 16 23 17 24
REMARK SMILES IDX 18 25 19 26 20 27 21 28 82 29 22 30 81 31 23 32 24 33 25 34
REMARK SMILES IDX 75 35 26 36 80 37 74 38 76 39 27 40 79 41 73 42 72 43 28 45
REMARK SMILES IDX 60 46 40 47 59 48 41 49 44 50 58 51 77 52 42 53 43 54 57 56
REMARK SMILES IDX 78 57 45 58 29 59 30 60 38 61 31 62 37 63 39 64 36 65 32 66
REMARK SMILES IDX 33 67 34 68 35 69 61 70 62 71 70 72 63 73 69 74 71 75 68 76
REMARK SMILES IDX 64 77 65 78 66 79 67 80 46 81 47 82 55 83 48 84 54 85 56 86
REMARK SMILES IDX 53 87 49 88 50 89 51 90 52 91
REMARK H PARENT 3 15 76 44 44 55
REMARK Flexibility Score: inf
ROOT
ATOM      1  C   UNL A   1      32.950  29.526  24.581  1.00  0.00     0.274 C 
ENDROOT
BRANCH   1   2
ATOM      2  O   UNL A   1      33.755  28.491  25.185  1.00  0.00    -0.461 OA
BRANCH   2   3
ATOM      3  C   UNL A   1      33.528  27.230  24.717  1.00  0.00     0.325 C 
ATOM      4  O   UNL A   1      33.644  26.906  23.536  1.00  0.00    -0.250 OA
BRANCH   3   5
ATOM      5  C   UNL A   1      33.260  26.193  25.809  1.00  0.00     0.241 C 
BRANCH   5   6
ATOM      6  N   UNL A   1      32.457  25.005  25.414  1.00  0.00    -0.339 N 
BRANCH   6   7
ATOM      7  C   UNL A   1      33.243  23.862  25.255  1.00  0.00     0.152 A 
ATOM      8  C   UNL A   1      34.637  21.464  25.059  1.00  0.00     0.150 A 
ATOM      9  C   UNL A   1      34.284  22.130  23.907  1.00  0.00     0.040 A 
ATOM     10  N   UNL A   1      34.326  21.954  26.267  1.00  0.00    -0.143 NA
ATOM     11  C   UNL A   1      33.624  23.352  24.020  1.00  0.00     0.051 A 
ATOM     12  N   UNL A   1      33.629  23.155  26.348  1.00  0.00    -0.132 NA
BRANCH   8  13
ATOM     13  C   UNL A   1      35.383  20.186  25.001  1.00  0.00     0.271 C 
ATOM     14  N   UNL A   1      34.693  18.991  25.034  1.00  0.00    -0.351 N 
ATOM     15  H   UNL A   1      35.247  18.187  25.164  1.00  0.00     0.163 HD
ATOM     16  O   UNL A   1      36.609  20.169  24.960  1.00  0.00    -0.267 OA
BRANCH  14  17
ATOM     17  C   UNL A   1      33.266  18.752  24.905  1.00  0.00     0.113 C 
ATOM     18  C   UNL A   1      32.912  18.329  23.494  1.00  0.00     0.027 C 
ENDBRANCH  14  17
ENDBRANCH   8  13
ENDBRANCH   6   7
BRANCH   6  19
ATOM     19  C   UNL A   1      30.960  25.044  25.439  1.00  0.00     0.034 C 
ATOM     20  C   UNL A   1      30.404  23.745  26.064  1.00  0.00     0.034 C 
ATOM     21  C   UNL A   1      30.442  26.322  26.132  1.00  0.00     0.034 C 
ATOM     22  C   UNL A   1      30.331  25.087  24.029  1.00  0.00     0.034 C 
ENDBRANCH   6  19
ENDBRANCH   5   6
ENDBRANCH   3   5
ENDBRANCH   2   3
ENDBRANCH   1   2
BRANCH   1  23
ATOM     23  C   UNL A   1      31.817  29.935  25.521  1.00  0.00     0.275 C 
BRANCH  23  24
ATOM     24  O   UNL A   1      32.331  30.088  26.855  1.00  0.00    -0.458 OA
BRANCH  24  25
ATOM     25  C   UNL A   1      32.935  31.273  27.116  1.00  0.00     0.338 C 
ATOM     26  O   UNL A   1      32.502  32.381  26.847  1.00  0.00    -0.246 OA
BRANCH  25  27
ATOM     27  C   UNL A   1      34.214  31.058  27.837  1.00  0.00     0.060 A 
ATOM     28  C   UNL A   1      35.150  32.084  28.004  1.00  0.00     0.016 A 
ATOM     29  C   UNL A   1      34.529  29.764  28.263  1.00  0.00     0.016 A 
ATOM     30  C   UNL A   1      36.412  31.805  28.532  1.00  0.00     0.010 A 
ATOM     31  C   UNL A   1      35.755  29.510  28.885  1.00  0.00     0.010 A 
ATOM     32  C   UNL A   1      36.719  30.523  29.015  1.00  0.00    -0.014 A 
BRANCH  32  33
ATOM     33  C   UNL A   1      38.009  30.245  29.710  1.00  0.00     0.031 A 
ATOM     34  C   UNL A   1      39.032  29.315  29.108  1.00  0.00     0.074 A 
ATOM     35  C   UNL A   1      38.237  30.781  30.925  1.00  0.00     0.049 A 
ATOM     36  N   UNL A   1      40.106  28.800  29.651  1.00  0.00    -0.248 NA
ATOM     37  C   UNL A   1      38.804  28.895  27.718  1.00  0.00     0.031 C 
ATOM     38  C   UNL A   1      37.340  31.704  31.626  1.00  0.00     0.029 A 
ATOM     39  N   UNL A   1      39.286  30.618  31.797  1.00  0.00    -0.354 N 
ATOM     40  C   UNL A   1      40.661  27.961  28.689  1.00  0.00     0.074 A 
ATOM     41  C   UNL A   1      39.789  28.027  27.532  1.00  0.00     0.031 C 
ATOM     42  C   UNL A   1      37.886  32.045  32.801  1.00  0.00     0.029 A 
ATOM     43  C   UNL A   1      39.124  31.297  32.982  1.00  0.00     0.049 A 
ATOM     44  H   UNL A   1      40.076  30.068  31.593  1.00  0.00     0.167 HD
ATOM     45  C   UNL A   1      41.788  27.206  28.766  1.00  0.00     0.034 A 
ATOM     46  C   UNL A   1      39.855  31.288  34.112  1.00  0.00     0.034 A 
ATOM     47  C   UNL A   1      42.662  27.170  29.917  1.00  0.00     0.049 A 
ATOM     48  C   UNL A   1      41.070  30.411  34.193  1.00  0.00     0.074 A 
ATOM     49  C   UNL A   1      43.854  26.483  30.075  1.00  0.00     0.029 A 
ATOM     50  N   UNL A   1      42.439  27.845  31.111  1.00  0.00    -0.354 N 
ATOM     51  N   UNL A   1      41.564  29.600  33.287  1.00  0.00    -0.248 NA
ATOM     52  C   UNL A   1      41.818  30.438  35.456  1.00  0.00     0.031 C 
ATOM     53  C   UNL A   1      44.317  26.690  31.380  1.00  0.00     0.029 A 
ATOM     54  C   UNL A   1      43.452  27.562  32.018  1.00  0.00     0.049 A 
ATOM     55  H   UNL A   1      41.673  28.437  31.289  1.00  0.00     0.167 HD
ATOM     56  C   UNL A   1      42.686  29.023  33.870  1.00  0.00     0.074 A 
ATOM     57  C   UNL A   1      42.808  29.597  35.196  1.00  0.00     0.031 C 
ATOM     58  C   UNL A   1      43.541  28.105  33.354  1.00  0.00     0.034 A 
BRANCH  45  59
ATOM     59  C   UNL A   1      42.112  26.314  27.588  1.00  0.00     0.023 A 
ATOM     60  C   UNL A   1      41.655  24.988  27.506  1.00  0.00     0.031 A 
ATOM     61  C   UNL A   1      42.908  26.802  26.535  1.00  0.00     0.131 A 
ATOM     62  C   UNL A   1      42.052  24.176  26.431  1.00  0.00     0.055 A 
ATOM     63  C   UNL A   1      43.237  26.012  25.432  1.00  0.00     0.041 A 
ATOM     64  F   UNL A   1      43.390  28.055  26.566  1.00  0.00    -0.206 F 
ATOM     65  C   UNL A   1      42.821  24.685  25.382  1.00  0.00     0.022 A 
BRANCH  62  66
ATOM     66  S   UNL A   1      41.669  22.403  26.495  1.00  0.00     0.124 S 
ATOM     67  O   UNL A   1      40.217  22.405  26.328  1.00  0.00    -0.237 OA
ATOM     68  O   UNL A   1      42.439  21.874  25.375  1.00  0.00    -0.237 OA
ATOM     69  O   UNL A   1      42.134  21.999  27.820  1.00  0.00    -0.744 OA
ENDBRANCH  62  66
ENDBRANCH  45  59
BRANCH  46  70
ATOM     70  C   UNL A   1      39.416  32.096  35.282  1.00  0.00     0.023 A 
ATOM     71  C   UNL A   1      39.822  33.431  35.429  1.00  0.00     0.031 A 
ATOM     72  C   UNL A   1      38.578  31.544  36.268  1.00  0.00     0.131 A 
ATOM     73  C   UNL A   1      39.406  34.166  36.549  1.00  0.00     0.055 A 
ATOM     74  C   UNL A   1      38.129  32.292  37.355  1.00  0.00     0.041 A 
ATOM     75  F   UNL A   1      38.158  30.272  36.166  1.00  0.00    -0.206 F 
ATOM     76  C   UNL A   1      38.550  33.611  37.504  1.00  0.00     0.022 A 
BRANCH  73  77
ATOM     77  S   UNL A   1      40.035  35.852  36.762  1.00  0.00     0.124 S 
ATOM     78  O   UNL A   1      41.461  35.615  36.955  1.00  0.00    -0.237 OA
ATOM     79  O   UNL A   1      39.654  36.480  35.501  1.00  0.00    -0.237 OA
ATOM     80  O   UNL A   1      39.317  36.337  37.939  1.00  0.00    -0.744 OA
ENDBRANCH  73  77
ENDBRANCH  46  70
BRANCH  58  81
ATOM     81  C   UNL A   1      44.693  27.690  34.234  1.00  0.00     0.023 A 
ATOM     82  C   UNL A   1      44.594  26.586  35.101  1.00  0.00     0.031 A 
ATOM     83  C   UNL A   1      45.883  28.437  34.245  1.00  0.00     0.131 A 
ATOM     84  C   UNL A   1      45.643  26.298  35.987  1.00  0.00     0.055 A 
ATOM     85  C   UNL A   1      46.945  28.113  35.091  1.00  0.00     0.041 A 
ATOM     86  F   UNL A   1      46.028  29.503  33.441  1.00  0.00    -0.206 F 
ATOM     87  C   UNL A   1      46.823  27.047  35.978  1.00  0.00     0.022 A 
BRANCH  84  88
ATOM     88  S   UNL A   1      45.407  24.990  37.221  1.00  0.00     0.124 S 
ATOM     89  O   UNL A   1      46.774  24.523  37.434  1.00  0.00    -0.237 OA
ATOM     90  O   UNL A   1      44.800  25.714  38.333  1.00  0.00    -0.237 OA
ATOM     91  O   UNL A   1      44.525  24.037  36.548  1.00  0.00    -0.744 OA
ENDBRANCH  84  88
ENDBRANCH  58  81
ENDBRANCH  32  33
ENDBRANCH  25  27
ENDBRANCH  24  25
ENDBRANCH  23  24
ENDBRANCH   1  23
TORSDOF 19
ENDMDL
