MODEL 1
REMARK VINA RESULT:      -8.9      0.000      0.000
REMARK SMILES O=C(COc1ccc(C(=O)/C=C/c2ccc(Cl)c([N+](=O)[O-])c2)cc1)OCCOC(=O)c1ccc(-c2c3nc(c(-c4cc(S(=O)(=O)[O-])ccc4F)c4ccc([nH]4)c(-c4cc(S(=O)(=O)[O-])ccc4F)c4nc(c(-c5cc(S(=O)(=O)[O-])ccc5F)c5ccc2[nH]5)C=C4)C=C3)cc1
REMARK SMILES IDX 25 1 2 2 1 3 3 4 4 5 5 6 6 7 24 8 7 9 23 10 8 11 9 12 10 13
REMARK SMILES IDX 11 14 12 15 13 16 14 17 22 18 15 19 18 20 16 21 17 22 19 23
REMARK SMILES IDX 20 24 21 25 26 26 27 27 28 28 29 29 30 30 31 31 32 32 93 33
REMARK SMILES IDX 33 34 92 35 34 36 35 37 36 38 86 39 37 40 91 41 85 42 87 43
REMARK SMILES IDX 38 44 90 45 84 46 83 47 39 49 71 50 51 51 70 52 52 53 55 54
REMARK SMILES IDX 69 55 88 56 53 57 54 58 68 60 89 61 56 62 40 63 41 64 49 65
REMARK SMILES IDX 42 66 48 67 50 68 47 69 43 70 44 71 45 72 46 73 72 74 73 75
REMARK SMILES IDX 81 76 74 77 80 78 82 79 79 80 75 81 76 82 77 83 78 84 57 85
REMARK SMILES IDX 58 86 66 87 59 88 65 89 67 90 64 91 60 92 61 93 62 94 63 95
REMARK H PARENT 87 48 55 59
REMARK Flexibility Score: inf
ROOT
ATOM      1  O   UNL A   1      34.575  33.085  30.985  1.00  0.00    -0.460 OA
ENDROOT
BRANCH   1   2
ATOM      2  C   UNL A   1      34.555  33.353  32.315  1.00  0.00     0.344 C 
ATOM      3  O   UNL A   1      33.483  33.486  32.901  1.00  0.00    -0.248 OA
BRANCH   2   4
ATOM      4  C   UNL A   1      35.885  33.419  33.066  1.00  0.00     0.351 C 
BRANCH   4   5
ATOM      5  O   UNL A   1      36.547  34.684  33.058  1.00  0.00    -0.482 OA
BRANCH   5   6
ATOM      6  C   UNL A   1      37.853  34.535  32.686  1.00  0.00     0.120 A 
ATOM      7  C   UNL A   1      38.154  34.283  31.350  1.00  0.00     0.047 A 
ATOM      8  C   UNL A   1      38.860  34.594  33.647  1.00  0.00     0.047 A 
ATOM      9  C   UNL A   1      39.489  34.177  30.954  1.00  0.00     0.016 A 
ATOM     10  C   UNL A   1      40.190  34.489  33.255  1.00  0.00     0.016 A 
ATOM     11  C   UNL A   1      40.512  34.325  31.900  1.00  0.00     0.022 A 
BRANCH  11  12
ATOM     12  C   UNL A   1      41.925  34.254  31.450  1.00  0.00     0.185 C 
ATOM     13  O   UNL A   1      42.651  35.240  31.542  1.00  0.00    -0.289 OA
BRANCH  12  14
ATOM     14  C   UNL A   1      42.452  33.008  30.826  1.00  0.00     0.053 C 
ATOM     15  C   UNL A   1      43.693  32.874  30.333  1.00  0.00     0.012 C 
BRANCH  15  16
ATOM     16  C   UNL A   1      44.190  31.596  29.828  1.00  0.00    -0.019 A 
ATOM     17  C   UNL A   1      44.807  30.712  30.717  1.00  0.00     0.010 A 
ATOM     18  C   UNL A   1      44.066  31.243  28.482  1.00  0.00     0.095 A 
ATOM     19  C   UNL A   1      45.278  29.476  30.270  1.00  0.00     0.028 A 
ATOM     20  C   UNL A   1      44.550  29.999  28.030  1.00  0.00     0.288 A 
ATOM     21  C   UNL A   1      45.148  29.103  28.926  1.00  0.00     0.118 A 
ATOM     22  Cl  UNL A   1      45.704  27.513  28.536  1.00  0.00    -0.077 Cl
BRANCH  20  23
ATOM     23  N   UNL A   1      44.385  29.692  26.608  1.00  0.00     0.064 N 
ATOM     24  O   UNL A   1      45.379  29.366  25.947  1.00  0.00    -0.258 OA
ATOM     25  O   UNL A   1      43.244  29.801  26.138  1.00  0.00    -0.258 OA
ENDBRANCH  20  23
ENDBRANCH  15  16
ENDBRANCH  12  14
ENDBRANCH  11  12
ENDBRANCH   5   6
ENDBRANCH   4   5
ENDBRANCH   2   4
ENDBRANCH   1   2
BRANCH   1  26
ATOM     26  C   UNL A   1      34.372  34.072  29.952  1.00  0.00     0.274 C 
BRANCH  26  27
ATOM     27  C   UNL A   1      34.300  33.412  28.575  1.00  0.00     0.275 C 
BRANCH  27  28
ATOM     28  O   UNL A   1      33.878  32.045  28.721  1.00  0.00    -0.458 OA
BRANCH  28  29
ATOM     29  C   UNL A   1      34.252  31.208  27.718  1.00  0.00     0.338 C 
ATOM     30  O   UNL A   1      33.752  31.141  26.608  1.00  0.00    -0.246 OA
BRANCH  29  31
ATOM     31  C   UNL A   1      35.514  30.538  28.106  1.00  0.00     0.060 A 
ATOM     32  C   UNL A   1      35.516  29.770  29.277  1.00  0.00     0.016 A 
ATOM     33  C   UNL A   1      36.669  30.620  27.318  1.00  0.00     0.016 A 
ATOM     34  C   UNL A   1      36.679  29.112  29.677  1.00  0.00     0.010 A 
ATOM     35  C   UNL A   1      37.832  29.956  27.721  1.00  0.00     0.010 A 
ATOM     36  C   UNL A   1      37.851  29.220  28.918  1.00  0.00    -0.014 A 
BRANCH  36  37
ATOM     37  C   UNL A   1      39.125  28.682  29.456  1.00  0.00     0.031 A 
ATOM     38  C   UNL A   1      39.717  29.318  30.685  1.00  0.00     0.074 A 
ATOM     39  C   UNL A   1      39.726  27.620  28.887  1.00  0.00     0.049 A 
ATOM     40  N   UNL A   1      40.786  28.982  31.360  1.00  0.00    -0.248 NA
ATOM     41  C   UNL A   1      39.009  30.491  31.218  1.00  0.00     0.031 C 
ATOM     42  C   UNL A   1      39.249  26.914  27.699  1.00  0.00     0.029 A 
ATOM     43  N   UNL A   1      40.872  26.951  29.237  1.00  0.00    -0.354 N 
ATOM     44  C   UNL A   1      40.861  29.881  32.418  1.00  0.00     0.074 A 
ATOM     45  C   UNL A   1      39.768  30.817  32.252  1.00  0.00     0.031 C 
ATOM     46  C   UNL A   1      40.102  25.914  27.415  1.00  0.00     0.029 A 
ATOM     47  C   UNL A   1      41.191  25.916  28.390  1.00  0.00     0.049 A 
ATOM     48  H   UNL A   1      41.415  27.190  30.024  1.00  0.00     0.167 HD
ATOM     49  C   UNL A   1      41.743  29.913  33.448  1.00  0.00     0.034 A 
ATOM     50  C   UNL A   1      42.244  25.074  28.399  1.00  0.00     0.034 A 
ATOM     51  C   UNL A   1      42.851  29.001  33.587  1.00  0.00     0.049 A 
ATOM     52  C   UNL A   1      43.259  25.175  29.515  1.00  0.00     0.074 A 
ATOM     53  C   UNL A   1      43.808  28.953  34.585  1.00  0.00     0.029 A 
ATOM     54  N   UNL A   1      43.161  27.984  32.694  1.00  0.00    -0.354 N 
ATOM     55  N   UNL A   1      43.294  26.007  30.531  1.00  0.00    -0.248 NA
ATOM     56  C   UNL A   1      44.364  24.208  29.494  1.00  0.00     0.031 C 
ATOM     57  C   UNL A   1      44.731  27.950  34.264  1.00  0.00     0.029 A 
ATOM     58  C   UNL A   1      44.310  27.322  33.103  1.00  0.00     0.049 A 
ATOM     59  H   UNL A   1      42.642  27.765  31.887  1.00  0.00     0.167 HD
ATOM     60  C   UNL A   1      44.408  25.641  31.283  1.00  0.00     0.074 A 
ATOM     61  C   UNL A   1      44.999  24.498  30.618  1.00  0.00     0.031 C 
ATOM     62  C   UNL A   1      44.901  26.195  32.422  1.00  0.00     0.034 A 
BRANCH  49  63
ATOM     63  C   UNL A   1      41.549  30.993  34.481  1.00  0.00     0.023 A 
ATOM     64  C   UNL A   1      40.396  31.037  35.286  1.00  0.00     0.031 A 
ATOM     65  C   UNL A   1      42.510  32.005  34.648  1.00  0.00     0.131 A 
ATOM     66  C   UNL A   1      40.202  32.106  36.172  1.00  0.00     0.055 A 
ATOM     67  C   UNL A   1      42.345  33.026  35.586  1.00  0.00     0.041 A 
ATOM     68  F   UNL A   1      43.617  32.027  33.891  1.00  0.00    -0.206 F 
ATOM     69  C   UNL A   1      41.180  33.088  36.346  1.00  0.00     0.022 A 
BRANCH  66  70
ATOM     70  S   UNL A   1      38.598  32.264  37.003  1.00  0.00     0.124 S 
ATOM     71  O   UNL A   1      38.268  33.663  36.742  1.00  0.00    -0.237 OA
ATOM     72  O   UNL A   1      37.782  31.274  36.308  1.00  0.00    -0.237 OA
ATOM     73  O   UNL A   1      38.902  31.953  38.398  1.00  0.00    -0.744 OA
ENDBRANCH  66  70
ENDBRANCH  49  63
BRANCH  50  74
ATOM     74  C   UNL A   1      42.427  24.072  27.308  1.00  0.00     0.023 A 
ATOM     75  C   UNL A   1      41.857  22.791  27.390  1.00  0.00     0.031 A 
ATOM     76  C   UNL A   1      43.254  24.356  26.207  1.00  0.00     0.131 A 
ATOM     77  C   UNL A   1      42.174  21.822  26.424  1.00  0.00     0.055 A 
ATOM     78  C   UNL A   1      43.522  23.407  25.220  1.00  0.00     0.041 A 
ATOM     79  F   UNL A   1      43.824  25.565  26.080  1.00  0.00    -0.206 F 
ATOM     80  C   UNL A   1      42.994  22.125  25.335  1.00  0.00     0.022 A 
BRANCH  77  81
ATOM     81  S   UNL A   1      41.587  20.124  26.674  1.00  0.00     0.124 S 
ATOM     82  O   UNL A   1      40.185  20.341  27.015  1.00  0.00    -0.237 OA
ATOM     83  O   UNL A   1      41.846  19.521  25.371  1.00  0.00    -0.237 OA
ATOM     84  O   UNL A   1      42.426  19.631  27.765  1.00  0.00    -0.744 OA
ENDBRANCH  77  81
ENDBRANCH  50  74
BRANCH  62  85
ATOM     85  C   UNL A   1      46.122  25.544  33.028  1.00  0.00     0.023 A 
ATOM     86  C   UNL A   1      46.014  24.525  33.992  1.00  0.00     0.031 A 
ATOM     87  C   UNL A   1      47.410  25.970  32.661  1.00  0.00     0.131 A 
ATOM     88  C   UNL A   1      47.169  24.018  34.607  1.00  0.00     0.055 A 
ATOM     89  C   UNL A   1      48.559  25.417  33.230  1.00  0.00     0.041 A 
ATOM     90  F   UNL A   1      47.575  26.938  31.746  1.00  0.00    -0.206 F 
ATOM     91  C   UNL A   1      48.441  24.446  34.221  1.00  0.00     0.022 A 
BRANCH  88  92
ATOM     92  S   UNL A   1      46.980  22.870  36.000  1.00  0.00     0.124 S 
ATOM     93  O   UNL A   1      46.850  23.782  37.131  1.00  0.00    -0.237 OA
ATOM     94  O   UNL A   1      45.776  22.132  35.633  1.00  0.00    -0.237 OA
ATOM     95  O   UNL A   1      48.217  22.089  35.970  1.00  0.00    -0.744 OA
ENDBRANCH  88  92
ENDBRANCH  62  85
ENDBRANCH  36  37
ENDBRANCH  29  31
ENDBRANCH  28  29
ENDBRANCH  27  28
ENDBRANCH  26  27
ENDBRANCH   1  26
TORSDOF 20
ENDMDL
MODEL 2
REMARK VINA RESULT:      -8.8      1.619      2.135
REMARK SMILES O=C(COc1ccc(C(=O)/C=C/c2ccc(Cl)c([N+](=O)[O-])c2)cc1)OCCOC(=O)c1ccc(-c2c3nc(c(-c4cc(S(=O)(=O)[O-])ccc4F)c4ccc([nH]4)c(-c4cc(S(=O)(=O)[O-])ccc4F)c4nc(c(-c5cc(S(=O)(=O)[O-])ccc5F)c5ccc2[nH]5)C=C4)C=C3)cc1
REMARK SMILES IDX 25 1 2 2 1 3 3 4 4 5 5 6 6 7 24 8 7 9 23 10 8 11 9 12 10 13
REMARK SMILES IDX 11 14 12 15 13 16 14 17 22 18 15 19 18 20 16 21 17 22 19 23
REMARK SMILES IDX 20 24 21 25 26 26 27 27 28 28 29 29 30 30 31 31 32 32 93 33
REMARK SMILES IDX 33 34 92 35 34 36 35 37 36 38 86 39 37 40 91 41 85 42 87 43
REMARK SMILES IDX 38 44 90 45 84 46 83 47 39 49 71 50 51 51 70 52 52 53 55 54
REMARK SMILES IDX 69 55 88 56 53 57 54 58 68 60 89 61 56 62 40 63 41 64 49 65
REMARK SMILES IDX 42 66 48 67 50 68 47 69 43 70 44 71 45 72 46 73 72 74 73 75
REMARK SMILES IDX 81 76 74 77 80 78 82 79 79 80 75 81 76 82 77 83 78 84 57 85
REMARK SMILES IDX 58 86 66 87 59 88 65 89 67 90 64 91 60 92 61 93 62 94 63 95
REMARK H PARENT 87 48 55 59
REMARK Flexibility Score: inf
ROOT
ATOM      1  O   UNL A   1      35.219  33.048  31.798  1.00  0.00    -0.460 OA
ENDROOT
BRANCH   1   2
ATOM      2  C   UNL A   1      35.435  33.073  33.138  1.00  0.00     0.344 C 
ATOM      3  O   UNL A   1      34.483  33.084  33.915  1.00  0.00    -0.248 OA
BRANCH   2   4
ATOM      4  C   UNL A   1      36.876  33.020  33.645  1.00  0.00     0.351 C 
BRANCH   4   5
ATOM      5  O   UNL A   1      37.513  34.280  33.854  1.00  0.00    -0.482 OA
BRANCH   5   6
ATOM      6  C   UNL A   1      38.631  34.383  33.075  1.00  0.00     0.120 A 
ATOM      7  C   UNL A   1      39.870  34.554  33.686  1.00  0.00     0.047 A 
ATOM      8  C   UNL A   1      38.515  34.357  31.687  1.00  0.00     0.047 A 
ATOM      9  C   UNL A   1      41.022  34.610  32.900  1.00  0.00     0.016 A 
ATOM     10  C   UNL A   1      39.662  34.414  30.902  1.00  0.00     0.016 A 
ATOM     11  C   UNL A   1      40.924  34.495  31.506  1.00  0.00     0.022 A 
BRANCH  11  12
ATOM     12  C   UNL A   1      42.166  34.512  30.693  1.00  0.00     0.185 C 
ATOM     13  O   UNL A   1      42.529  35.548  30.143  1.00  0.00    -0.289 OA
BRANCH  12  14
ATOM     14  C   UNL A   1      42.944  33.258  30.486  1.00  0.00     0.053 C 
ATOM     15  C   UNL A   1      42.555  32.248  29.693  1.00  0.00     0.012 C 
BRANCH  15  16
ATOM     16  C   UNL A   1      43.408  31.087  29.446  1.00  0.00    -0.019 A 
ATOM     17  C   UNL A   1      42.964  30.097  28.566  1.00  0.00     0.010 A 
ATOM     18  C   UNL A   1      44.651  30.946  30.069  1.00  0.00     0.095 A 
ATOM     19  C   UNL A   1      43.761  28.983  28.295  1.00  0.00     0.028 A 
ATOM     20  C   UNL A   1      45.452  29.817  29.802  1.00  0.00     0.288 A 
ATOM     21  C   UNL A   1      45.015  28.835  28.902  1.00  0.00     0.118 A 
ATOM     22  Cl  UNL A   1      45.923  27.449  28.410  1.00  0.00    -0.077 Cl
BRANCH  20  23
ATOM     23  N   UNL A   1      46.743  29.733  30.487  1.00  0.00     0.064 N 
ATOM     24  O   UNL A   1      47.777  29.687  29.811  1.00  0.00    -0.258 OA
ATOM     25  O   UNL A   1      46.721  29.691  31.725  1.00  0.00    -0.258 OA
ENDBRANCH  20  23
ENDBRANCH  15  16
ENDBRANCH  12  14
ENDBRANCH  11  12
ENDBRANCH   5   6
ENDBRANCH   4   5
ENDBRANCH   2   4
ENDBRANCH   1   2
BRANCH   1  26
ATOM     26  C   UNL A   1      34.764  34.178  31.025  1.00  0.00     0.274 C 
BRANCH  26  27
ATOM     27  C   UNL A   1      34.451  33.764  29.587  1.00  0.00     0.275 C 
BRANCH  27  28
ATOM     28  O   UNL A   1      34.122  32.365  29.553  1.00  0.00    -0.458 OA
BRANCH  28  29
ATOM     29  C   UNL A   1      34.510  31.701  28.432  1.00  0.00     0.338 C 
ATOM     30  O   UNL A   1      34.013  31.805  27.323  1.00  0.00    -0.246 OA
BRANCH  29  31
ATOM     31  C   UNL A   1      35.779  30.993  28.714  1.00  0.00     0.060 A 
ATOM     32  C   UNL A   1      35.772  30.010  29.711  1.00  0.00     0.016 A 
ATOM     33  C   UNL A   1      36.948  31.251  27.989  1.00  0.00     0.016 A 
ATOM     34  C   UNL A   1      36.942  29.308  30.006  1.00  0.00     0.010 A 
ATOM     35  C   UNL A   1      38.118  30.544  28.286  1.00  0.00     0.010 A 
ATOM     36  C   UNL A   1      38.128  29.587  29.314  1.00  0.00    -0.014 A 
BRANCH  36  37
ATOM     37  C   UNL A   1      39.402  28.978  29.771  1.00  0.00     0.031 A 
ATOM     38  C   UNL A   1      40.096  29.565  30.969  1.00  0.00     0.074 A 
ATOM     39  C   UNL A   1      39.915  27.897  29.155  1.00  0.00     0.049 A 
ATOM     40  N   UNL A   1      41.184  29.167  31.577  1.00  0.00    -0.248 NA
ATOM     41  C   UNL A   1      39.480  30.764  31.558  1.00  0.00     0.031 C 
ATOM     42  C   UNL A   1      39.335  27.233  27.988  1.00  0.00     0.029 A 
ATOM     43  N   UNL A   1      41.044  27.166  29.429  1.00  0.00    -0.354 N 
ATOM     44  C   UNL A   1      41.366  30.045  32.640  1.00  0.00     0.074 A 
ATOM     45  C   UNL A   1      40.313  31.037  32.549  1.00  0.00     0.031 C 
ATOM     46  C   UNL A   1      40.119  26.196  27.642  1.00  0.00     0.029 A 
ATOM     47  C   UNL A   1      41.261  26.130  28.552  1.00  0.00     0.049 A 
ATOM     48  H   UNL A   1      41.644  27.366  30.184  1.00  0.00     0.167 HD
ATOM     49  C   UNL A   1      42.306  30.018  33.616  1.00  0.00     0.034 A 
ATOM     50  C   UNL A   1      42.269  25.236  28.488  1.00  0.00     0.034 A 
ATOM     51  C   UNL A   1      43.373  29.051  33.679  1.00  0.00     0.049 A 
ATOM     52  C   UNL A   1      43.351  25.270  29.544  1.00  0.00     0.074 A 
ATOM     53  C   UNL A   1      44.383  28.940  34.619  1.00  0.00     0.029 A 
ATOM     54  N   UNL A   1      43.579  28.033  32.757  1.00  0.00    -0.354 N 
ATOM     55  N   UNL A   1      43.487  26.085  30.567  1.00  0.00    -0.248 NA
ATOM     56  C   UNL A   1      44.403  24.250  29.447  1.00  0.00     0.031 C 
ATOM     57  C   UNL A   1      45.234  27.898  34.231  1.00  0.00     0.029 A 
ATOM     58  C   UNL A   1      44.715  27.309  33.090  1.00  0.00     0.049 A 
ATOM     59  H   UNL A   1      43.004  27.852  31.979  1.00  0.00     0.167 HD
ATOM     60  C   UNL A   1      44.623  25.652  31.248  1.00  0.00     0.074 A 
ATOM     61  C   UNL A   1      45.116  24.492  30.535  1.00  0.00     0.031 C 
ATOM     62  C   UNL A   1      45.208  26.164  32.362  1.00  0.00     0.034 A 
BRANCH  49  63
ATOM     63  C   UNL A   1      42.228  31.091  34.672  1.00  0.00     0.023 A 
ATOM     64  C   UNL A   1      43.020  32.251  34.596  1.00  0.00     0.031 A 
ATOM     65  C   UNL A   1      41.377  30.944  35.780  1.00  0.00     0.131 A 
ATOM     66  C   UNL A   1      42.994  33.186  35.640  1.00  0.00     0.055 A 
ATOM     67  C   UNL A   1      41.300  31.916  36.781  1.00  0.00     0.041 A 
ATOM     68  F   UNL A   1      40.617  29.847  35.918  1.00  0.00    -0.206 F 
ATOM     69  C   UNL A   1      42.120  33.039  36.721  1.00  0.00     0.022 A 
BRANCH  66  70
ATOM     70  S   UNL A   1      44.208  34.533  35.630  1.00  0.00     0.124 S 
ATOM     71  O   UNL A   1      43.462  35.606  36.283  1.00  0.00    -0.237 OA
ATOM     72  O   UNL A   1      45.315  33.968  36.394  1.00  0.00    -0.237 OA
ATOM     73  O   UNL A   1      44.474  34.744  34.209  1.00  0.00    -0.744 OA
ENDBRANCH  66  70
ENDBRANCH  49  63
BRANCH  50  74
ATOM     74  C   UNL A   1      42.338  24.243  27.377  1.00  0.00     0.023 A 
ATOM     75  C   UNL A   1      41.591  23.054  27.413  1.00  0.00     0.031 A 
ATOM     76  C   UNL A   1      43.226  24.432  26.303  1.00  0.00     0.131 A 
ATOM     77  C   UNL A   1      41.794  22.071  26.430  1.00  0.00     0.055 A 
ATOM     78  C   UNL A   1      43.382  23.476  25.297  1.00  0.00     0.041 A 
ATOM     79  F   UNL A   1      43.963  25.551  26.219  1.00  0.00    -0.206 F 
ATOM     80  C   UNL A   1      42.676  22.279  25.368  1.00  0.00     0.022 A 
BRANCH  77  81
ATOM     81  S   UNL A   1      40.968  20.468  26.623  1.00  0.00     0.124 S 
ATOM     82  O   UNL A   1      40.780  20.403  28.069  1.00  0.00    -0.237 OA
ATOM     83  O   UNL A   1      39.759  20.655  25.826  1.00  0.00    -0.237 OA
ATOM     84  O   UNL A   1      41.934  19.519  26.075  1.00  0.00    -0.744 OA
ENDBRANCH  77  81
ENDBRANCH  50  74
BRANCH  62  85
ATOM     85  C   UNL A   1      46.428  25.444  32.888  1.00  0.00     0.023 A 
ATOM     86  C   UNL A   1      46.327  24.428  33.856  1.00  0.00     0.031 A 
ATOM     87  C   UNL A   1      47.711  25.800  32.438  1.00  0.00     0.131 A 
ATOM     88  C   UNL A   1      47.489  23.856  34.394  1.00  0.00     0.055 A 
ATOM     89  C   UNL A   1      48.862  25.182  32.931  1.00  0.00     0.041 A 
ATOM     90  F   UNL A   1      47.870  26.761  31.515  1.00  0.00    -0.206 F 
ATOM     91  C   UNL A   1      48.755  24.215  33.927  1.00  0.00     0.022 A 
BRANCH  88  92
ATOM     92  S   UNL A   1      47.327  22.715  35.796  1.00  0.00     0.124 S 
ATOM     93  O   UNL A   1      45.977  22.194  35.611  1.00  0.00    -0.237 OA
ATOM     94  O   UNL A   1      48.414  21.771  35.553  1.00  0.00    -0.237 OA
ATOM     95  O   UNL A   1      47.506  23.578  36.962  1.00  0.00    -0.744 OA
ENDBRANCH  88  92
ENDBRANCH  62  85
ENDBRANCH  36  37
ENDBRANCH  29  31
ENDBRANCH  28  29
ENDBRANCH  27  28
ENDBRANCH  26  27
ENDBRANCH   1  26
TORSDOF 20
ENDMDL
MODEL 3
REMARK VINA RESULT:      -8.4      4.770     11.639
REMARK SMILES O=C(COc1ccc(C(=O)/C=C/c2ccc(Cl)c([N+](=O)[O-])c2)cc1)OCCOC(=O)c1ccc(-c2c3nc(c(-c4cc(S(=O)(=O)[O-])ccc4F)c4ccc([nH]4)c(-c4cc(S(=O)(=O)[O-])ccc4F)c4nc(c(-c5cc(S(=O)(=O)[O-])ccc5F)c5ccc2[nH]5)C=C4)C=C3)cc1
REMARK SMILES IDX 25 1 2 2 1 3 3 4 4 5 5 6 6 7 24 8 7 9 23 10 8 11 9 12 10 13
REMARK SMILES IDX 11 14 12 15 13 16 14 17 22 18 15 19 18 20 16 21 17 22 19 23
REMARK SMILES IDX 20 24 21 25 26 26 27 27 28 28 29 29 30 30 31 31 32 32 93 33
REMARK SMILES IDX 33 34 92 35 34 36 35 37 36 38 86 39 37 40 91 41 85 42 87 43
REMARK SMILES IDX 38 44 90 45 84 46 83 47 39 49 71 50 51 51 70 52 52 53 55 54
REMARK SMILES IDX 69 55 88 56 53 57 54 58 68 60 89 61 56 62 40 63 41 64 49 65
REMARK SMILES IDX 42 66 48 67 50 68 47 69 43 70 44 71 45 72 46 73 72 74 73 75
REMARK SMILES IDX 81 76 74 77 80 78 82 79 79 80 75 81 76 82 77 83 78 84 57 85
REMARK SMILES IDX 58 86 66 87 59 88 65 89 67 90 64 91 60 92 61 93 62 94 63 95
REMARK H PARENT 87 48 55 59
REMARK Flexibility Score: inf
ROOT
ATOM      1  O   UNL A   1      38.017  21.340  25.182  1.00  0.00    -0.460 OA
ENDROOT
BRANCH   1   2
ATOM      2  C   UNL A   1      37.227  22.443  25.221  1.00  0.00     0.344 C 
ATOM      3  O   UNL A   1      37.722  23.549  25.426  1.00  0.00    -0.248 OA
BRANCH   2   4
ATOM      4  C   UNL A   1      35.733  22.280  24.939  1.00  0.00     0.351 C 
BRANCH   4   5
ATOM      5  O   UNL A   1      35.169  23.200  24.004  1.00  0.00    -0.482 OA
BRANCH   5   6
ATOM      6  C   UNL A   1      34.373  24.104  24.648  1.00  0.00     0.120 A 
ATOM      7  C   UNL A   1      34.236  25.385  24.121  1.00  0.00     0.047 A 
ATOM      8  C   UNL A   1      33.745  23.751  25.841  1.00  0.00     0.047 A 
ATOM      9  C   UNL A   1      33.387  26.299  24.747  1.00  0.00     0.016 A 
ATOM     10  C   UNL A   1      32.899  24.660  26.466  1.00  0.00     0.016 A 
ATOM     11  C   UNL A   1      32.681  25.923  25.898  1.00  0.00     0.022 A 
BRANCH  11  12
ATOM     12  C   UNL A   1      31.748  26.895  26.521  1.00  0.00     0.185 C 
ATOM     13  O   UNL A   1      30.567  26.601  26.680  1.00  0.00    -0.289 OA
BRANCH  12  14
ATOM     14  C   UNL A   1      32.224  28.255  26.898  1.00  0.00     0.053 C 
ATOM     15  C   UNL A   1      31.815  29.391  26.312  1.00  0.00     0.012 C 
BRANCH  15  16
ATOM     16  C   UNL A   1      32.237  30.705  26.793  1.00  0.00    -0.019 A 
ATOM     17  C   UNL A   1      31.419  31.810  26.544  1.00  0.00     0.010 A 
ATOM     18  C   UNL A   1      33.434  30.879  27.491  1.00  0.00     0.095 A 
ATOM     19  C   UNL A   1      31.784  33.077  27.004  1.00  0.00     0.028 A 
ATOM     20  C   UNL A   1      33.807  32.160  27.947  1.00  0.00     0.288 A 
ATOM     21  C   UNL A   1      32.976  33.264  27.717  1.00  0.00     0.118 A 
ATOM     22  Cl  UNL A   1      33.256  34.870  28.292  1.00  0.00    -0.077 Cl
BRANCH  20  23
ATOM     23  N   UNL A   1      35.074  32.271  28.673  1.00  0.00     0.064 N 
ATOM     24  O   UNL A   1      35.116  31.923  29.859  1.00  0.00    -0.258 OA
ATOM     25  O   UNL A   1      36.040  32.735  28.051  1.00  0.00    -0.258 OA
ENDBRANCH  20  23
ENDBRANCH  15  16
ENDBRANCH  12  14
ENDBRANCH  11  12
ENDBRANCH   5   6
ENDBRANCH   4   5
ENDBRANCH   2   4
ENDBRANCH   1   2
BRANCH   1  26
ATOM     26  C   UNL A   1      39.146  21.116  26.053  1.00  0.00     0.274 C 
BRANCH  26  27
ATOM     27  C   UNL A   1      39.815  19.777  25.743  1.00  0.00     0.275 C 
BRANCH  27  28
ATOM     28  O   UNL A   1      40.907  19.566  26.655  1.00  0.00    -0.458 OA
BRANCH  28  29
ATOM     29  C   UNL A   1      42.149  19.689  26.116  1.00  0.00     0.338 C 
ATOM     30  O   UNL A   1      42.690  18.901  25.360  1.00  0.00    -0.246 OA
BRANCH  29  31
ATOM     31  C   UNL A   1      42.663  21.045  26.415  1.00  0.00     0.060 A 
ATOM     32  C   UNL A   1      42.778  21.422  27.758  1.00  0.00     0.016 A 
ATOM     33  C   UNL A   1      43.070  21.922  25.402  1.00  0.00     0.016 A 
ATOM     34  C   UNL A   1      43.268  22.686  28.089  1.00  0.00     0.010 A 
ATOM     35  C   UNL A   1      43.562  23.188  25.737  1.00  0.00     0.010 A 
ATOM     36  C   UNL A   1      43.639  23.587  27.082  1.00  0.00    -0.014 A 
BRANCH  36  37
ATOM     37  C   UNL A   1      43.967  24.989  27.440  1.00  0.00     0.031 A 
ATOM     38  C   UNL A   1      45.393  25.453  27.313  1.00  0.00     0.074 A 
ATOM     39  C   UNL A   1      43.009  25.848  27.834  1.00  0.00     0.049 A 
ATOM     40  N   UNL A   1      45.901  26.641  27.515  1.00  0.00    -0.248 NA
ATOM     41  C   UNL A   1      46.375  24.438  26.906  1.00  0.00     0.031 C 
ATOM     42  C   UNL A   1      41.592  25.521  27.991  1.00  0.00     0.029 A 
ATOM     43  N   UNL A   1      43.086  27.175  28.175  1.00  0.00    -0.354 N 
ATOM     44  C   UNL A   1      47.256  26.526  27.229  1.00  0.00     0.074 A 
ATOM     45  C   UNL A   1      47.500  25.135  26.906  1.00  0.00     0.031 C 
ATOM     46  C   UNL A   1      40.935  26.619  28.406  1.00  0.00     0.029 A 
ATOM     47  C   UNL A   1      41.884  27.722  28.556  1.00  0.00     0.049 A 
ATOM     48  H   UNL A   1      43.927  27.689  28.148  1.00  0.00     0.167 HD
ATOM     49  C   UNL A   1      48.208  27.492  27.212  1.00  0.00     0.034 A 
ATOM     50  C   UNL A   1      41.586  28.966  28.983  1.00  0.00     0.034 A 
ATOM     51  C   UNL A   1      47.966  28.867  27.571  1.00  0.00     0.049 A 
ATOM     52  C   UNL A   1      42.678  30.010  29.029  1.00  0.00     0.074 A 
ATOM     53  C   UNL A   1      48.862  29.922  27.597  1.00  0.00     0.029 A 
ATOM     54  N   UNL A   1      46.742  29.379  27.981  1.00  0.00    -0.354 N 
ATOM     55  N   UNL A   1      43.950  29.894  28.716  1.00  0.00    -0.248 NA
ATOM     56  C   UNL A   1      42.289  31.357  29.466  1.00  0.00     0.031 C 
ATOM     57  C   UNL A   1      48.195  31.054  28.082  1.00  0.00     0.029 A 
ATOM     58  C   UNL A   1      46.866  30.726  28.288  1.00  0.00     0.049 A 
ATOM     59  H   UNL A   1      45.908  28.860  28.045  1.00  0.00     0.167 HD
ATOM     60  C   UNL A   1      44.501  31.162  28.892  1.00  0.00     0.074 A 
ATOM     61  C   UNL A   1      43.419  32.029  29.311  1.00  0.00     0.031 C 
ATOM     62  C   UNL A   1      45.783  31.577  28.722  1.00  0.00     0.034 A 
BRANCH  49  63
ATOM     63  C   UNL A   1      49.601  27.073  26.818  1.00  0.00     0.023 A 
ATOM     64  C   UNL A   1      50.622  26.938  27.776  1.00  0.00     0.031 A 
ATOM     65  C   UNL A   1      49.924  26.833  25.471  1.00  0.00     0.131 A 
ATOM     66  C   UNL A   1      51.930  26.638  27.368  1.00  0.00     0.055 A 
ATOM     67  C   UNL A   1      51.212  26.461  25.080  1.00  0.00     0.041 A 
ATOM     68  F   UNL A   1      48.996  26.970  24.512  1.00  0.00    -0.206 F 
ATOM     69  C   UNL A   1      52.227  26.373  26.028  1.00  0.00     0.022 A 
BRANCH  66  70
ATOM     70  S   UNL A   1      53.263  26.721  28.594  1.00  0.00     0.124 S 
ATOM     71  O   UNL A   1      52.610  26.164  29.777  1.00  0.00    -0.237 OA
ATOM     72  O   UNL A   1      54.303  25.897  27.989  1.00  0.00    -0.237 OA
ATOM     73  O   UNL A   1      53.567  28.149  28.674  1.00  0.00    -0.744 OA
ENDBRANCH  66  70
ENDBRANCH  49  63
BRANCH  50  74
ATOM     74  C   UNL A   1      40.205  29.307  29.433  1.00  0.00     0.023 A 
ATOM     75  C   UNL A   1      39.877  29.374  30.797  1.00  0.00     0.031 A 
ATOM     76  C   UNL A   1      39.170  29.481  28.497  1.00  0.00     0.131 A 
ATOM     77  C   UNL A   1      38.538  29.543  31.186  1.00  0.00     0.055 A 
ATOM     78  C   UNL A   1      37.850  29.706  28.889  1.00  0.00     0.041 A 
ATOM     79  F   UNL A   1      39.429  29.428  27.180  1.00  0.00    -0.206 F 
ATOM     80  C   UNL A   1      37.525  29.720  30.242  1.00  0.00     0.022 A 
BRANCH  77  81
ATOM     81  S   UNL A   1      38.125  29.417  32.948  1.00  0.00     0.124 S 
ATOM     82  O   UNL A   1      37.317  30.615  33.150  1.00  0.00    -0.237 OA
ATOM     83  O   UNL A   1      37.412  28.145  32.999  1.00  0.00    -0.237 OA
ATOM     84  O   UNL A   1      39.430  29.426  33.605  1.00  0.00    -0.744 OA
ENDBRANCH  77  81
ENDBRANCH  50  74
BRANCH  62  85
ATOM     85  C   UNL A   1      46.067  33.041  28.962  1.00  0.00     0.023 A 
ATOM     86  C   UNL A   1      45.975  33.991  27.928  1.00  0.00     0.031 A 
ATOM     87  C   UNL A   1      46.466  33.488  30.233  1.00  0.00     0.131 A 
ATOM     88  C   UNL A   1      46.346  35.322  28.165  1.00  0.00     0.055 A 
ATOM     89  C   UNL A   1      46.773  34.828  30.480  1.00  0.00     0.041 A 
ATOM     90  F   UNL A   1      46.571  32.629  31.259  1.00  0.00    -0.206 F 
ATOM     91  C   UNL A   1      46.731  35.751  29.437  1.00  0.00     0.022 A 
BRANCH  88  92
ATOM     92  S   UNL A   1      46.430  36.466  26.758  1.00  0.00     0.124 S 
ATOM     93  O   UNL A   1      47.715  37.122  26.974  1.00  0.00    -0.237 OA
ATOM     94  O   UNL A   1      46.361  35.559  25.616  1.00  0.00    -0.237 OA
ATOM     95  O   UNL A   1      45.257  37.320  26.941  1.00  0.00    -0.744 OA
ENDBRANCH  88  92
ENDBRANCH  62  85
ENDBRANCH  36  37
ENDBRANCH  29  31
ENDBRANCH  28  29
ENDBRANCH  27  28
ENDBRANCH  26  27
ENDBRANCH   1  26
TORSDOF 20
ENDMDL
