MODEL 1
REMARK VINA RESULT:     -11.7      0.000      0.000
REMARK SMILES CCC[C@H](NC(=O)c1cc2ccccc2[nH]1)C(=O)OCCOC(=O)c1ccc(-c2c3nc(c(-c4cc(S(=O)(=O)[O-])ccc4F)c4ccc([nH]4)c(-c4cc(S(=O)(=O)[O-])ccc4F)c4nc(c(-c5cc(S(=O)(=O)[O-])ccc5F)c5ccc2[nH]5)C=C4)C=C3)cc1
REMARK SMILES IDX 21 1 20 2 19 3 17 4 18 5 4 6 3 7 2 8 1 9 5 10 6 11 7 13 8 14
REMARK SMILES IDX 9 15 16 16 10 17 15 18 11 20 14 21 12 22 13 23 22 24 23 25
REMARK SMILES IDX 24 26 25 27 26 28 87 29 27 30 86 31 28 32 29 33 30 34 80 35
REMARK SMILES IDX 31 36 85 37 79 38 81 39 32 40 84 41 78 42 77 43 33 45 65 46
REMARK SMILES IDX 45 47 64 48 46 49 49 50 63 51 82 52 47 53 48 54 62 56 83 57
REMARK SMILES IDX 50 58 34 59 35 60 43 61 36 62 42 63 44 64 41 65 37 66 38 67
REMARK SMILES IDX 39 68 40 69 66 70 67 71 75 72 68 73 74 74 76 75 73 76 69 77
REMARK SMILES IDX 70 78 71 79 72 80 51 81 52 82 60 83 53 84 59 85 61 86 58 87
REMARK SMILES IDX 54 88 55 89 56 90 57 91
REMARK H PARENT 5 12 16 19 81 44 49 55
REMARK Flexibility Score: inf
ROOT
ATOM      1  C   UNL A   1      31.541  29.828  26.166  1.00  0.00     0.275 C 
ENDROOT
BRANCH   1   2
ATOM      2  C   UNL A   1      31.010  29.764  24.736  1.00  0.00     0.274 C 
BRANCH   2   3
ATOM      3  O   UNL A   1      30.654  28.412  24.388  1.00  0.00    -0.461 OA
BRANCH   3   4
ATOM      4  C   UNL A   1      30.903  28.046  23.097  1.00  0.00     0.328 C 
ATOM      5  O   UNL A   1      30.296  28.472  22.121  1.00  0.00    -0.250 OA
BRANCH   4   6
ATOM      6  C   UNL A   1      31.999  26.978  22.993  1.00  0.00     0.192 C 
BRANCH   6   7
ATOM      7  C   UNL A   1      33.328  27.480  23.588  1.00  0.00     0.037 C 
BRANCH   7   8
ATOM      8  C   UNL A   1      33.788  26.827  24.902  1.00  0.00    -0.001 C 
ATOM      9  C   UNL A   1      32.768  25.864  25.506  1.00  0.00     0.004 C 
ENDBRANCH   7   8
ENDBRANCH   6   7
BRANCH   6  10
ATOM     10  N   UNL A   1      32.179  26.490  21.624  1.00  0.00    -0.337 N 
ATOM     11  C   UNL A   1      32.768  25.339  21.163  1.00  0.00     0.268 C 
ATOM     12  H   UNL A   1      31.822  27.082  20.923  1.00  0.00     0.164 HD
ATOM     13  O   UNL A   1      33.058  25.298  19.968  1.00  0.00    -0.268 OA
BRANCH  11  14
ATOM     14  C   UNL A   1      33.047  24.252  22.076  1.00  0.00     0.105 A 
ATOM     15  C   UNL A   1      34.246  23.961  22.710  1.00  0.00     0.042 A 
ATOM     16  N   UNL A   1      32.206  23.201  22.371  1.00  0.00    -0.351 N 
ATOM     17  C   UNL A   1      34.080  22.783  23.490  1.00  0.00     0.000 A 
ATOM     18  C   UNL A   1      32.776  22.343  23.282  1.00  0.00     0.046 A 
ATOM     19  H   UNL A   1      31.311  23.080  21.979  1.00  0.00     0.167 HD
ATOM     20  C   UNL A   1      34.918  22.037  24.343  1.00  0.00     0.010 A 
ATOM     21  C   UNL A   1      32.264  21.198  23.903  1.00  0.00     0.026 A 
ATOM     22  C   UNL A   1      34.416  20.890  24.972  1.00  0.00     0.001 A 
ATOM     23  C   UNL A   1      33.104  20.481  24.758  1.00  0.00     0.002 A 
ENDBRANCH  11  14
ENDBRANCH   6  10
ENDBRANCH   4   6
ENDBRANCH   3   4
ENDBRANCH   2   3
ENDBRANCH   1   2
BRANCH   1  24
ATOM     24  O   UNL A   1      32.929  30.201  26.149  1.00  0.00    -0.458 OA
BRANCH  24  25
ATOM     25  C   UNL A   1      33.273  31.213  26.980  1.00  0.00     0.338 C 
ATOM     26  O   UNL A   1      32.599  32.177  27.294  1.00  0.00    -0.246 OA
BRANCH  25  27
ATOM     27  C   UNL A   1      34.616  30.960  27.523  1.00  0.00     0.060 A 
ATOM     28  C   UNL A   1      34.980  29.660  27.866  1.00  0.00     0.016 A 
ATOM     29  C   UNL A   1      35.469  32.024  27.807  1.00  0.00     0.016 A 
ATOM     30  C   UNL A   1      36.162  29.428  28.559  1.00  0.00     0.010 A 
ATOM     31  C   UNL A   1      36.699  31.774  28.428  1.00  0.00     0.010 A 
ATOM     32  C   UNL A   1      37.046  30.477  28.844  1.00  0.00    -0.014 A 
BRANCH  32  33
ATOM     33  C   UNL A   1      38.294  30.225  29.624  1.00  0.00     0.031 A 
ATOM     34  C   UNL A   1      39.409  29.409  29.019  1.00  0.00     0.074 A 
ATOM     35  C   UNL A   1      38.464  30.766  30.848  1.00  0.00     0.049 A 
ATOM     36  N   UNL A   1      40.464  28.893  29.595  1.00  0.00    -0.248 NA
ATOM     37  C   UNL A   1      39.321  29.140  27.576  1.00  0.00     0.031 C 
ATOM     38  C   UNL A   1      37.521  31.662  31.522  1.00  0.00     0.029 A 
ATOM     39  N   UNL A   1      39.503  30.655  31.740  1.00  0.00    -0.354 N 
ATOM     40  C   UNL A   1      41.131  28.183  28.601  1.00  0.00     0.074 A 
ATOM     41  C   UNL A   1      40.364  28.345  27.384  1.00  0.00     0.031 C 
ATOM     42  C   UNL A   1      38.047  32.062  32.688  1.00  0.00     0.029 A 
ATOM     43  C   UNL A   1      39.299  31.351  32.911  1.00  0.00     0.049 A 
ATOM     44  H   UNL A   1      40.315  30.129  31.560  1.00  0.00     0.167 HD
ATOM     45  C   UNL A   1      42.271  27.455  28.703  1.00  0.00     0.034 A 
ATOM     46  C   UNL A   1      39.996  31.361  34.065  1.00  0.00     0.034 A 
ATOM     47  C   UNL A   1      43.049  27.347  29.914  1.00  0.00     0.049 A 
ATOM     48  C   UNL A   1      41.190  30.456  34.196  1.00  0.00     0.074 A 
ATOM     49  C   UNL A   1      44.227  26.652  30.128  1.00  0.00     0.029 A 
ATOM     50  N   UNL A   1      42.728  27.958  31.119  1.00  0.00    -0.354 N 
ATOM     51  N   UNL A   1      41.739  29.681  33.290  1.00  0.00    -0.248 NA
ATOM     52  C   UNL A   1      41.825  30.389  35.518  1.00  0.00     0.031 C 
ATOM     53  C   UNL A   1      44.585  26.794  31.474  1.00  0.00     0.029 A 
ATOM     54  C   UNL A   1      43.663  27.626  32.088  1.00  0.00     0.049 A 
ATOM     55  H   UNL A   1      41.949  28.542  31.264  1.00  0.00     0.167 HD
ATOM     56  C   UNL A   1      42.775  29.019  33.939  1.00  0.00     0.074 A 
ATOM     57  C   UNL A   1      42.793  29.510  35.304  1.00  0.00     0.031 C 
ATOM     58  C   UNL A   1      43.631  28.085  33.456  1.00  0.00     0.034 A 
BRANCH  45  59
ATOM     59  C   UNL A   1      42.696  26.653  27.497  1.00  0.00     0.023 A 
ATOM     60  C   UNL A   1      42.296  25.323  27.295  1.00  0.00     0.031 A 
ATOM     61  C   UNL A   1      43.549  27.238  26.541  1.00  0.00     0.131 A 
ATOM     62  C   UNL A   1      42.795  24.602  26.197  1.00  0.00     0.055 A 
ATOM     63  C   UNL A   1      43.989  26.538  25.417  1.00  0.00     0.041 A 
ATOM     64  F   UNL A   1      43.981  28.500  26.694  1.00  0.00    -0.206 F 
ATOM     65  C   UNL A   1      43.623  25.207  25.246  1.00  0.00     0.022 A 
BRANCH  62  66
ATOM     66  S   UNL A   1      42.452  22.824  26.090  1.00  0.00     0.124 S 
ATOM     67  O   UNL A   1      43.299  22.296  27.157  1.00  0.00    -0.237 OA
ATOM     68  O   UNL A   1      41.014  22.768  26.324  1.00  0.00    -0.237 OA
ATOM     69  O   UNL A   1      42.878  22.473  24.736  1.00  0.00    -0.744 OA
ENDBRANCH  62  66
ENDBRANCH  45  59
BRANCH  46  70
ATOM     70  C   UNL A   1      39.506  32.153  35.229  1.00  0.00     0.023 A 
ATOM     71  C   UNL A   1      39.971  33.454  35.472  1.00  0.00     0.031 A 
ATOM     72  C   UNL A   1      38.571  31.606  36.127  1.00  0.00     0.131 A 
ATOM     73  C   UNL A   1      39.506  34.161  36.593  1.00  0.00     0.055 A 
ATOM     74  C   UNL A   1      38.075  32.331  37.211  1.00  0.00     0.041 A 
ATOM     75  F   UNL A   1      38.102  30.361  35.945  1.00  0.00    -0.206 F 
ATOM     76  C   UNL A   1      38.548  33.615  37.453  1.00  0.00     0.022 A 
BRANCH  73  77
ATOM     77  S   UNL A   1      40.206  35.797  36.946  1.00  0.00     0.124 S 
ATOM     78  O   UNL A   1      41.637  35.520  36.921  1.00  0.00    -0.237 OA
ATOM     79  O   UNL A   1      39.687  36.595  35.840  1.00  0.00    -0.237 OA
ATOM     80  O   UNL A   1      39.656  36.126  38.259  1.00  0.00    -0.744 OA
ENDBRANCH  73  77
ENDBRANCH  46  70
BRANCH  58  81
ATOM     81  C   UNL A   1      44.644  27.535  34.424  1.00  0.00     0.023 A 
ATOM     82  C   UNL A   1      44.449  26.292  35.051  1.00  0.00     0.031 A 
ATOM     83  C   UNL A   1      45.799  28.269  34.742  1.00  0.00     0.131 A 
ATOM     84  C   UNL A   1      45.375  25.839  36.000  1.00  0.00     0.055 A 
ATOM     85  C   UNL A   1      46.740  27.791  35.653  1.00  0.00     0.041 A 
ATOM     86  F   UNL A   1      46.026  29.463  34.172  1.00  0.00    -0.206 F 
ATOM     87  C   UNL A   1      46.527  26.575  36.296  1.00  0.00     0.022 A 
BRANCH  84  88
ATOM     88  S   UNL A   1      45.025  24.302  36.896  1.00  0.00     0.124 S 
ATOM     89  O   UNL A   1      44.602  24.800  38.200  1.00  0.00    -0.237 OA
ATOM     90  O   UNL A   1      43.982  23.690  36.078  1.00  0.00    -0.237 OA
ATOM     91  O   UNL A   1      46.308  23.600  36.888  1.00  0.00    -0.744 OA
ENDBRANCH  84  88
ENDBRANCH  58  81
ENDBRANCH  32  33
ENDBRANCH  25  27
ENDBRANCH  24  25
ENDBRANCH   1  24
TORSDOF 18
ENDMDL
MODEL 2
REMARK VINA RESULT:     -11.6      4.802      9.868
REMARK SMILES CCC[C@H](NC(=O)c1cc2ccccc2[nH]1)C(=O)OCCOC(=O)c1ccc(-c2c3nc(c(-c4cc(S(=O)(=O)[O-])ccc4F)c4ccc([nH]4)c(-c4cc(S(=O)(=O)[O-])ccc4F)c4nc(c(-c5cc(S(=O)(=O)[O-])ccc5F)c5ccc2[nH]5)C=C4)C=C3)cc1
REMARK SMILES IDX 21 1 20 2 19 3 17 4 18 5 4 6 3 7 2 8 1 9 5 10 6 11 7 13 8 14
REMARK SMILES IDX 9 15 16 16 10 17 15 18 11 20 14 21 12 22 13 23 22 24 23 25
REMARK SMILES IDX 24 26 25 27 26 28 87 29 27 30 86 31 28 32 29 33 30 34 80 35
REMARK SMILES IDX 31 36 85 37 79 38 81 39 32 40 84 41 78 42 77 43 33 45 65 46
REMARK SMILES IDX 45 47 64 48 46 49 49 50 63 51 82 52 47 53 48 54 62 56 83 57
REMARK SMILES IDX 50 58 34 59 35 60 43 61 36 62 42 63 44 64 41 65 37 66 38 67
REMARK SMILES IDX 39 68 40 69 66 70 67 71 75 72 68 73 74 74 76 75 73 76 69 77
REMARK SMILES IDX 70 78 71 79 72 80 51 81 52 82 60 83 53 84 59 85 61 86 58 87
REMARK SMILES IDX 54 88 55 89 56 90 57 91
REMARK H PARENT 5 12 16 19 81 44 49 55
REMARK Flexibility Score: inf
ROOT
ATOM      1  C   UNL A   1      35.937  20.989  25.755  1.00  0.00     0.275 C 
ENDROOT
BRANCH   1   2
ATOM      2  C   UNL A   1      35.050  20.388  24.667  1.00  0.00     0.274 C 
BRANCH   2   3
ATOM      3  O   UNL A   1      33.983  21.294  24.325  1.00  0.00    -0.461 OA
BRANCH   3   4
ATOM      4  C   UNL A   1      32.863  21.212  25.100  1.00  0.00     0.328 C 
ATOM      5  O   UNL A   1      32.240  20.180  25.321  1.00  0.00    -0.250 OA
BRANCH   4   6
ATOM      6  C   UNL A   1      32.417  22.581  25.629  1.00  0.00     0.192 C 
BRANCH   6   7
ATOM      7  C   UNL A   1      33.495  23.213  26.529  1.00  0.00     0.037 C 
BRANCH   7   8
ATOM      8  C   UNL A   1      34.361  24.317  25.900  1.00  0.00    -0.001 C 
ATOM      9  C   UNL A   1      33.829  24.841  24.568  1.00  0.00     0.004 C 
ENDBRANCH   7   8
ENDBRANCH   6   7
BRANCH   6  10
ATOM     10  N   UNL A   1      31.121  22.525  26.308  1.00  0.00    -0.337 N 
ATOM     11  C   UNL A   1      30.291  23.537  26.721  1.00  0.00     0.268 C 
ATOM     12  H   UNL A   1      30.794  21.616  26.502  1.00  0.00     0.164 HD
ATOM     13  O   UNL A   1      29.409  23.246  27.526  1.00  0.00    -0.268 OA
BRANCH  11  14
ATOM     14  C   UNL A   1      30.492  24.883  26.232  1.00  0.00     0.105 A 
ATOM     15  C   UNL A   1      30.169  25.391  24.982  1.00  0.00     0.042 A 
ATOM     16  N   UNL A   1      31.190  25.886  26.871  1.00  0.00    -0.351 N 
ATOM     17  C   UNL A   1      30.574  26.754  24.919  1.00  0.00     0.000 A 
ATOM     18  C   UNL A   1      31.187  27.047  26.134  1.00  0.00     0.046 A 
ATOM     19  H   UNL A   1      31.634  25.783  27.744  1.00  0.00     0.167 HD
ATOM     20  C   UNL A   1      30.495  27.764  23.940  1.00  0.00     0.010 A 
ATOM     21  C   UNL A   1      31.709  28.314  26.423  1.00  0.00     0.026 A 
ATOM     22  C   UNL A   1      31.012  29.036  24.218  1.00  0.00     0.001 A 
ATOM     23  C   UNL A   1      31.605  29.307  25.447  1.00  0.00     0.002 A 
ENDBRANCH  11  14
ENDBRANCH   6  10
ENDBRANCH   4   6
ENDBRANCH   3   4
ENDBRANCH   2   3
ENDBRANCH   1   2
BRANCH   1  24
ATOM     24  O   UNL A   1      37.059  21.652  25.151  1.00  0.00    -0.458 OA
BRANCH  24  25
ATOM     25  C   UNL A   1      38.277  21.270  25.603  1.00  0.00     0.338 C 
ATOM     26  O   UNL A   1      38.806  20.181  25.479  1.00  0.00    -0.246 OA
BRANCH  25  27
ATOM     27  C   UNL A   1      38.935  22.415  26.251  1.00  0.00     0.060 A 
ATOM     28  C   UNL A   1      38.491  23.705  25.974  1.00  0.00     0.016 A 
ATOM     29  C   UNL A   1      40.069  22.218  27.038  1.00  0.00     0.016 A 
ATOM     30  C   UNL A   1      39.220  24.803  26.417  1.00  0.00     0.010 A 
ATOM     31  C   UNL A   1      40.749  23.326  27.555  1.00  0.00     0.010 A 
ATOM     32  C   UNL A   1      40.354  24.634  27.223  1.00  0.00    -0.014 A 
BRANCH  32  33
ATOM     33  C   UNL A   1      41.154  25.816  27.661  1.00  0.00     0.031 A 
ATOM     34  C   UNL A   1      40.525  26.865  28.545  1.00  0.00     0.074 A 
ATOM     35  C   UNL A   1      42.454  25.935  27.324  1.00  0.00     0.049 A 
ATOM     36  N   UNL A   1      40.962  28.059  28.853  1.00  0.00    -0.248 NA
ATOM     37  C   UNL A   1      39.235  26.522  29.161  1.00  0.00     0.031 C 
ATOM     38  C   UNL A   1      43.229  24.951  26.563  1.00  0.00     0.029 A 
ATOM     39  N   UNL A   1      43.363  26.928  27.594  1.00  0.00    -0.354 N 
ATOM     40  C   UNL A   1      39.972  28.635  29.642  1.00  0.00     0.074 A 
ATOM     41  C   UNL A   1      38.916  27.652  29.774  1.00  0.00     0.031 C 
ATOM     42  C   UNL A   1      44.502  25.362  26.477  1.00  0.00     0.029 A 
ATOM     43  C   UNL A   1      44.609  26.695  27.056  1.00  0.00     0.049 A 
ATOM     44  H   UNL A   1      43.145  27.731  28.120  1.00  0.00     0.167 HD
ATOM     45  C   UNL A   1      39.945  29.874  30.195  1.00  0.00     0.034 A 
ATOM     46  C   UNL A   1      45.696  27.488  26.967  1.00  0.00     0.034 A 
ATOM     47  C   UNL A   1      41.029  30.821  30.094  1.00  0.00     0.049 A 
ATOM     48  C   UNL A   1      45.605  28.898  27.481  1.00  0.00     0.074 A 
ATOM     49  C   UNL A   1      41.118  32.096  30.627  1.00  0.00     0.029 A 
ATOM     50  N   UNL A   1      42.221  30.593  29.418  1.00  0.00    -0.354 N 
ATOM     51  N   UNL A   1      44.612  29.483  28.110  1.00  0.00    -0.248 NA
ATOM     52  C   UNL A   1      46.759  29.769  27.227  1.00  0.00     0.031 C 
ATOM     53  C   UNL A   1      42.335  32.659  30.224  1.00  0.00     0.029 A 
ATOM     54  C   UNL A   1      43.034  31.714  29.488  1.00  0.00     0.049 A 
ATOM     55  H   UNL A   1      42.454  29.755  28.956  1.00  0.00     0.167 HD
ATOM     56  C   UNL A   1      45.016  30.797  28.311  1.00  0.00     0.074 A 
ATOM     57  C   UNL A   1      46.354  30.911  27.764  1.00  0.00     0.031 C 
ATOM     58  C   UNL A   1      44.342  31.823  28.889  1.00  0.00     0.034 A 
BRANCH  45  59
ATOM     59  C   UNL A   1      38.671  30.303  30.882  1.00  0.00     0.023 A 
ATOM     60  C   UNL A   1      37.635  30.967  30.207  1.00  0.00     0.031 A 
ATOM     61  C   UNL A   1      38.512  30.060  32.261  1.00  0.00     0.131 A 
ATOM     62  C   UNL A   1      36.512  31.418  30.921  1.00  0.00     0.055 A 
ATOM     63  C   UNL A   1      37.365  30.452  32.951  1.00  0.00     0.041 A 
ATOM     64  F   UNL A   1      39.481  29.449  32.962  1.00  0.00    -0.206 F 
ATOM     65  C   UNL A   1      36.361  31.147  32.285  1.00  0.00     0.022 A 
BRANCH  62  66
ATOM     66  S   UNL A   1      35.305  32.474  30.075  1.00  0.00     0.124 S 
ATOM     67  O   UNL A   1      34.297  32.662  31.115  1.00  0.00    -0.237 OA
ATOM     68  O   UNL A   1      36.101  33.646  29.732  1.00  0.00    -0.237 OA
ATOM     69  O   UNL A   1      34.873  31.660  28.940  1.00  0.00    -0.744 OA
ENDBRANCH  62  66
ENDBRANCH  45  59
BRANCH  46  70
ATOM     70  C   UNL A   1      46.913  27.014  26.249  1.00  0.00     0.023 A 
ATOM     71  C   UNL A   1      47.977  26.412  26.938  1.00  0.00     0.031 A 
ATOM     72  C   UNL A   1      47.033  27.173  24.855  1.00  0.00     0.131 A 
ATOM     73  C   UNL A   1      49.119  26.000  26.232  1.00  0.00     0.055 A 
ATOM     74  C   UNL A   1      48.148  26.717  24.153  1.00  0.00     0.041 A 
ATOM     75  F   UNL A   1      46.047  27.751  24.150  1.00  0.00    -0.206 F 
ATOM     76  C   UNL A   1      49.203  26.132  24.843  1.00  0.00     0.022 A 
BRANCH  73  77
ATOM     77  S   UNL A   1      50.524  25.328  27.161  1.00  0.00     0.124 S 
ATOM     78  O   UNL A   1      51.443  24.963  26.089  1.00  0.00    -0.237 OA
ATOM     79  O   UNL A   1      50.918  26.467  27.984  1.00  0.00    -0.237 OA
ATOM     80  O   UNL A   1      49.941  24.206  27.894  1.00  0.00    -0.744 OA
ENDBRANCH  73  77
ENDBRANCH  46  70
BRANCH  58  81
ATOM     81  C   UNL A   1      45.049  33.150  28.941  1.00  0.00     0.023 A 
ATOM     82  C   UNL A   1      45.929  33.464  29.991  1.00  0.00     0.031 A 
ATOM     83  C   UNL A   1      44.823  34.119  27.948  1.00  0.00     0.131 A 
ATOM     84  C   UNL A   1      46.519  34.734  30.050  1.00  0.00     0.055 A 
ATOM     85  C   UNL A   1      45.449  35.364  27.987  1.00  0.00     0.041 A 
ATOM     86  F   UNL A   1      43.988  33.867  26.928  1.00  0.00    -0.206 F 
ATOM     87  C   UNL A   1      46.294  35.682  29.046  1.00  0.00     0.022 A 
BRANCH  84  88
ATOM     88  S   UNL A   1      47.536  35.159  31.490  1.00  0.00     0.124 S 
ATOM     89  O   UNL A   1      47.499  33.921  32.262  1.00  0.00    -0.237 OA
ATOM     90  O   UNL A   1      48.820  35.493  30.882  1.00  0.00    -0.237 OA
ATOM     91  O   UNL A   1      46.824  36.286  32.091  1.00  0.00    -0.744 OA
ENDBRANCH  84  88
ENDBRANCH  58  81
ENDBRANCH  32  33
ENDBRANCH  25  27
ENDBRANCH  24  25
ENDBRANCH   1  24
TORSDOF 18
ENDMDL
MODEL 3
REMARK VINA RESULT:     -11.6      5.149     10.100
REMARK SMILES CCC[C@H](NC(=O)c1cc2ccccc2[nH]1)C(=O)OCCOC(=O)c1ccc(-c2c3nc(c(-c4cc(S(=O)(=O)[O-])ccc4F)c4ccc([nH]4)c(-c4cc(S(=O)(=O)[O-])ccc4F)c4nc(c(-c5cc(S(=O)(=O)[O-])ccc5F)c5ccc2[nH]5)C=C4)C=C3)cc1
REMARK SMILES IDX 21 1 20 2 19 3 17 4 18 5 4 6 3 7 2 8 1 9 5 10 6 11 7 13 8 14
REMARK SMILES IDX 9 15 16 16 10 17 15 18 11 20 14 21 12 22 13 23 22 24 23 25
REMARK SMILES IDX 24 26 25 27 26 28 87 29 27 30 86 31 28 32 29 33 30 34 80 35
REMARK SMILES IDX 31 36 85 37 79 38 81 39 32 40 84 41 78 42 77 43 33 45 65 46
REMARK SMILES IDX 45 47 64 48 46 49 49 50 63 51 82 52 47 53 48 54 62 56 83 57
REMARK SMILES IDX 50 58 34 59 35 60 43 61 36 62 42 63 44 64 41 65 37 66 38 67
REMARK SMILES IDX 39 68 40 69 66 70 67 71 75 72 68 73 74 74 76 75 73 76 69 77
REMARK SMILES IDX 70 78 71 79 72 80 51 81 52 82 60 83 53 84 59 85 61 86 58 87
REMARK SMILES IDX 54 88 55 89 56 90 57 91
REMARK H PARENT 5 12 16 19 81 44 49 55
REMARK Flexibility Score: inf
ROOT
ATOM      1  C   UNL A   1      36.318  20.431  25.001  1.00  0.00     0.275 C 
ENDROOT
BRANCH   1   2
ATOM      2  C   UNL A   1      34.930  20.942  24.620  1.00  0.00     0.274 C 
BRANCH   2   3
ATOM      3  O   UNL A   1      33.993  20.708  25.689  1.00  0.00    -0.461 OA
BRANCH   3   4
ATOM      4  C   UNL A   1      32.694  21.030  25.420  1.00  0.00     0.328 C 
ATOM      5  O   UNL A   1      31.898  20.298  24.842  1.00  0.00    -0.250 OA
BRANCH   4   6
ATOM      6  C   UNL A   1      32.340  22.453  25.869  1.00  0.00     0.192 C 
BRANCH   6   7
ATOM      7  C   UNL A   1      33.449  23.055  26.750  1.00  0.00     0.037 C 
BRANCH   7   8
ATOM      8  C   UNL A   1      34.332  24.138  26.107  1.00  0.00    -0.001 C 
ATOM      9  C   UNL A   1      33.880  24.557  24.710  1.00  0.00     0.004 C 
ENDBRANCH   7   8
ENDBRANCH   6   7
BRANCH   6  10
ATOM     10  N   UNL A   1      31.035  22.523  26.533  1.00  0.00    -0.337 N 
ATOM     11  C   UNL A   1      30.203  23.595  26.741  1.00  0.00     0.268 C 
ATOM     12  H   UNL A   1      30.704  21.666  26.887  1.00  0.00     0.164 HD
ATOM     13  O   UNL A   1      29.311  23.457  27.576  1.00  0.00    -0.268 OA
BRANCH  11  14
ATOM     14  C   UNL A   1      30.412  24.827  26.013  1.00  0.00     0.105 A 
ATOM     15  C   UNL A   1      31.040  25.981  26.457  1.00  0.00     0.042 A 
ATOM     16  N   UNL A   1      29.886  25.142  24.778  1.00  0.00    -0.351 N 
ATOM     17  C   UNL A   1      30.991  26.959  25.424  1.00  0.00     0.000 A 
ATOM     18  C   UNL A   1      30.284  26.392  24.367  1.00  0.00     0.046 A 
ATOM     19  H   UNL A   1      29.299  24.547  24.257  1.00  0.00     0.167 HD
ATOM     20  C   UNL A   1      31.465  28.279  25.291  1.00  0.00     0.010 A 
ATOM     21  C   UNL A   1      30.046  27.081  23.172  1.00  0.00     0.026 A 
ATOM     22  C   UNL A   1      31.233  28.978  24.099  1.00  0.00     0.001 A 
ATOM     23  C   UNL A   1      30.538  28.382  23.052  1.00  0.00     0.002 A 
ENDBRANCH  11  14
ENDBRANCH   6  10
ENDBRANCH   4   6
ENDBRANCH   3   4
ENDBRANCH   2   3
ENDBRANCH   1   2
BRANCH   1  24
ATOM     24  O   UNL A   1      37.100  21.513  25.532  1.00  0.00    -0.458 OA
BRANCH  24  25
ATOM     25  C   UNL A   1      38.412  21.243  25.733  1.00  0.00     0.338 C 
ATOM     26  O   UNL A   1      39.021  20.241  25.406  1.00  0.00    -0.246 OA
BRANCH  25  27
ATOM     27  C   UNL A   1      39.050  22.396  26.385  1.00  0.00     0.060 A 
ATOM     28  C   UNL A   1      38.619  23.683  26.073  1.00  0.00     0.016 A 
ATOM     29  C   UNL A   1      40.157  22.209  27.212  1.00  0.00     0.016 A 
ATOM     30  C   UNL A   1      39.334  24.786  26.524  1.00  0.00     0.010 A 
ATOM     31  C   UNL A   1      40.822  23.325  27.734  1.00  0.00     0.010 A 
ATOM     32  C   UNL A   1      40.441  24.628  27.369  1.00  0.00    -0.014 A 
BRANCH  32  33
ATOM     33  C   UNL A   1      41.228  25.815  27.816  1.00  0.00     0.031 A 
ATOM     34  C   UNL A   1      40.590  26.849  28.710  1.00  0.00     0.074 A 
ATOM     35  C   UNL A   1      42.526  25.952  27.475  1.00  0.00     0.049 A 
ATOM     36  N   UNL A   1      41.014  28.045  29.027  1.00  0.00    -0.248 NA
ATOM     37  C   UNL A   1      39.306  26.485  29.327  1.00  0.00     0.031 C 
ATOM     38  C   UNL A   1      43.310  24.984  26.704  1.00  0.00     0.029 A 
ATOM     39  N   UNL A   1      43.425  26.953  27.751  1.00  0.00    -0.354 N 
ATOM     40  C   UNL A   1      40.020  28.603  29.825  1.00  0.00     0.074 A 
ATOM     41  C   UNL A   1      38.976  27.606  29.951  1.00  0.00     0.031 C 
ATOM     42  C   UNL A   1      44.578  25.410  26.617  1.00  0.00     0.029 A 
ATOM     43  C   UNL A   1      44.672  26.740  27.207  1.00  0.00     0.049 A 
ATOM     44  H   UNL A   1      43.199  27.748  28.286  1.00  0.00     0.167 HD
ATOM     45  C   UNL A   1      39.980  29.836  30.389  1.00  0.00     0.034 A 
ATOM     46  C   UNL A   1      45.749  27.546  27.122  1.00  0.00     0.034 A 
ATOM     47  C   UNL A   1      41.053  30.796  30.293  1.00  0.00     0.049 A 
ATOM     48  C   UNL A   1      45.643  28.950  27.649  1.00  0.00     0.074 A 
ATOM     49  C   UNL A   1      41.129  32.067  30.837  1.00  0.00     0.029 A 
ATOM     50  N   UNL A   1      42.245  30.588  29.612  1.00  0.00    -0.354 N 
ATOM     51  N   UNL A   1      44.646  29.518  28.287  1.00  0.00    -0.248 NA
ATOM     52  C   UNL A   1      46.786  29.837  27.399  1.00  0.00     0.031 C 
ATOM     53  C   UNL A   1      42.338  32.648  30.435  1.00  0.00     0.029 A 
ATOM     54  C   UNL A   1      43.045  31.718  29.689  1.00  0.00     0.049 A 
ATOM     55  H   UNL A   1      42.487  29.757  29.141  1.00  0.00     0.167 HD
ATOM     56  C   UNL A   1      45.035  30.835  28.498  1.00  0.00     0.074 A 
ATOM     57  C   UNL A   1      46.370  30.969  27.948  1.00  0.00     0.031 C 
ATOM     58  C   UNL A   1      44.350  31.847  29.087  1.00  0.00     0.034 A 
BRANCH  45  59
ATOM     59  C   UNL A   1      38.704  30.244  31.084  1.00  0.00     0.023 A 
ATOM     60  C   UNL A   1      37.673  30.934  30.426  1.00  0.00     0.031 A 
ATOM     61  C   UNL A   1      38.536  29.954  32.452  1.00  0.00     0.131 A 
ATOM     62  C   UNL A   1      36.547  31.362  31.150  1.00  0.00     0.055 A 
ATOM     63  C   UNL A   1      37.387  30.324  33.149  1.00  0.00     0.041 A 
ATOM     64  F   UNL A   1      39.500  29.316  33.137  1.00  0.00    -0.206 F 
ATOM     65  C   UNL A   1      36.388  31.044  32.502  1.00  0.00     0.022 A 
BRANCH  62  66
ATOM     66  S   UNL A   1      35.347  32.451  30.334  1.00  0.00     0.124 S 
ATOM     67  O   UNL A   1      36.170  33.617  30.025  1.00  0.00    -0.237 OA
ATOM     68  O   UNL A   1      34.920  31.647  29.195  1.00  0.00    -0.237 OA
ATOM     69  O   UNL A   1      34.329  32.670  31.360  1.00  0.00    -0.744 OA
ENDBRANCH  62  66
ENDBRANCH  45  59
BRANCH  46  70
ATOM     70  C   UNL A   1      46.969  27.092  26.397  1.00  0.00     0.023 A 
ATOM     71  C   UNL A   1      47.211  27.476  25.069  1.00  0.00     0.031 A 
ATOM     72  C   UNL A   1      47.907  26.252  27.024  1.00  0.00     0.131 A 
ATOM     73  C   UNL A   1      48.359  27.009  24.408  1.00  0.00     0.055 A 
ATOM     74  C   UNL A   1      49.070  25.832  26.380  1.00  0.00     0.041 A 
ATOM     75  F   UNL A   1      47.718  25.849  28.291  1.00  0.00    -0.206 F 
ATOM     76  C   UNL A   1      49.299  26.205  25.061  1.00  0.00     0.022 A 
BRANCH  73  77
ATOM     77  S   UNL A   1      48.591  27.428  22.659  1.00  0.00     0.124 S 
ATOM     78  O   UNL A   1      48.667  26.108  22.044  1.00  0.00    -0.237 OA
ATOM     79  O   UNL A   1      47.389  28.203  22.369  1.00  0.00    -0.237 OA
ATOM     80  O   UNL A   1      49.837  28.191  22.654  1.00  0.00    -0.744 OA
ENDBRANCH  73  77
ENDBRANCH  46  70
BRANCH  58  81
ATOM     81  C   UNL A   1      45.043  33.182  29.149  1.00  0.00     0.023 A 
ATOM     82  C   UNL A   1      45.107  34.019  28.022  1.00  0.00     0.031 A 
ATOM     83  C   UNL A   1      45.665  33.609  30.334  1.00  0.00     0.131 A 
ATOM     84  C   UNL A   1      45.820  35.224  28.090  1.00  0.00     0.055 A 
ATOM     85  C   UNL A   1      46.333  34.831  30.409  1.00  0.00     0.041 A 
ATOM     86  F   UNL A   1      45.634  32.842  31.436  1.00  0.00    -0.206 F 
ATOM     87  C   UNL A   1      46.422  35.642  29.281  1.00  0.00     0.022 A 
BRANCH  84  88
ATOM     88  S   UNL A   1      46.006  36.214  26.582  1.00  0.00     0.124 S 
ATOM     89  O   UNL A   1      47.442  36.470  26.563  1.00  0.00    -0.237 OA
ATOM     90  O   UNL A   1      45.505  35.313  25.549  1.00  0.00    -0.237 OA
ATOM     91  O   UNL A   1      45.171  37.387  26.836  1.00  0.00    -0.744 OA
ENDBRANCH  84  88
ENDBRANCH  58  81
ENDBRANCH  32  33
ENDBRANCH  25  27
ENDBRANCH  24  25
ENDBRANCH   1  24
TORSDOF 18
ENDMDL
